MODEL 1
REMARK VINA RESULT: -7.485047301      0.000      0.000
REMARK  3 active torsions:
REMARK  status: ('A' for Active; 'I' for Inactive)
REMARK    1  A    between atoms: O1_2  and  C2_3 
REMARK    2  A    between atoms: C6_9  and  C7_10 
REMARK    3  A    between atoms: C14_21  and  C15_22 
ROOT
HETATM    1  C15 UNL     1      -6.209   1.543  16.796  1.00  0.00     0.066 C 
HETATM    2  C16 UNL     1      -7.612   1.099  16.600  1.00  0.00     0.036 C 
HETATM    3  C17 UNL     1      -5.187   0.420  16.917  1.00  0.00     0.036 C 
HETATM    4  C18 UNL     1      -6.204   2.143  18.179  1.00  0.00     0.073 C 
HETATM    5  N3  UNL     1      -6.182   2.595  19.269  1.00  0.00    -0.196 NA
ENDROOT
BRANCH   1   6
HETATM    6  C14 UNL     1      -5.665   2.599  15.926  1.00  0.00    -0.043 C 
HETATM    7  C4  UNL     1      -4.950   2.325  14.712  1.00  0.00    -0.007 A 
HETATM    8  C3  UNL     1      -4.812   1.179  14.002  1.00  0.00     0.052 A 
HETATM    9  C5  UNL     1      -4.268   3.445  14.188  1.00  0.00     0.022 A 
HETATM   10  C2  UNL     1      -4.085   1.077  12.868  1.00  0.00     0.092 A 
HETATM   11  C6  UNL     1      -3.435   2.181  12.391  1.00  0.00     0.049 A 
HETATM   12  N1  UNL     1      -3.539   3.333  13.060  1.00  0.00    -0.359 N 
ATOM     13  H1  UNL     1      -3.052   4.156  12.704  1.00  0.00     0.165 HD
HETATM   14  C11 UNL     1      -4.422   4.770  14.831  1.00  0.00     0.095 C 
HETATM   15  C12 UNL     1      -5.675   5.011  15.577  1.00  0.00     0.179 C 
HETATM   16  F1  UNL     1      -6.402   6.052  14.987  1.00  0.00    -0.249 F 
HETATM   17  C13 UNL     1      -6.581   3.767  15.662  1.00  0.00     0.074 C 
BRANCH  10  18
HETATM   18  O1  UNL     1      -4.027  -0.162  12.242  1.00  0.00    -0.354 OA
HETATM   19  C1  UNL     1      -4.621  -0.443  11.014  1.00  0.00     0.210 C 
ENDBRANCH  10  18
BRANCH  11  20
HETATM   20  C7  UNL     1      -2.757   2.143  11.079  1.00  0.00     0.065 C 
HETATM   21  C8  UNL     1      -1.279   1.880  11.257  1.00  0.00     0.040 C 
HETATM   22  C9  UNL     1      -0.499   3.139  11.184  1.00  0.00     0.233 C 
HETATM   23  N2  UNL     1      -1.321   3.898  10.236  1.00  0.00    -0.074 N 
HETATM   24  C10 UNL     1      -2.708   3.624  10.582  1.00  0.00     0.243 C 
ATOM     25  H22 UNL     1      -1.099   4.893  10.214  1.00  0.00     0.277 HD
ATOM     26  H21 UNL     1      -1.101   3.698   9.260  1.00  0.00     0.277 HD
ENDBRANCH  11  20
ENDBRANCH   1   6
TORSDOF 3
ENDMDL
MODEL 2
REMARK VINA RESULT: -7.390671978      2.498      6.746
REMARK  3 active torsions:
REMARK  status: ('A' for Active; 'I' for Inactive)
REMARK    1  A    between atoms: O1_2  and  C2_3 
REMARK    2  A    between atoms: C6_9  and  C7_10 
REMARK    3  A    between atoms: C14_21  and  C15_22 
ROOT
HETATM    1  C15 UNL     1      -2.126   3.254  10.923  1.00  0.00     0.066 C 
HETATM    2  C16 UNL     1      -1.525   4.353  11.720  1.00  0.00     0.036 C 
HETATM    3  C17 UNL     1      -1.156   2.512  10.013  1.00  0.00     0.036 C 
HETATM    4  C18 UNL     1      -3.023   3.961   9.941  1.00  0.00     0.073 C 
HETATM    5  N3  UNL     1      -3.713   4.504   9.152  1.00  0.00    -0.196 NA
ENDROOT
BRANCH   1   6
HETATM    6  C14 UNL     1      -2.998   2.278  11.597  1.00  0.00    -0.043 C 
HETATM    7  C4  UNL     1      -3.672   2.549  12.834  1.00  0.00    -0.007 A 
HETATM    8  C3  UNL     1      -3.862   3.711  13.506  1.00  0.00     0.052 A 
HETATM    9  C5  UNL     1      -4.212   1.400  13.452  1.00  0.00     0.022 A 
HETATM   10  C2  UNL     1      -4.517   3.804  14.683  1.00  0.00     0.092 A 
HETATM   11  C6  UNL     1      -5.025   2.670  15.255  1.00  0.00     0.049 A 
HETATM   12  N1  UNL     1      -4.860   1.500  14.631  1.00  0.00    -0.359 N 
ATOM     13  H1  UNL     1      -5.237   0.655  15.060  1.00  0.00     0.165 HD
HETATM   14  C11 UNL     1      -4.144   0.091  12.764  1.00  0.00     0.095 C 
HETATM   15  C12 UNL     1      -4.075   0.113  11.288  1.00  0.00     0.179 C 
HETATM   16  F1  UNL     1      -5.204  -0.505  10.737  1.00  0.00    -0.249 F 
HETATM   17  C13 UNL     1      -3.961   1.535  10.706  1.00  0.00     0.074 C 
BRANCH  10  18
HETATM   18  O1  UNL     1      -4.636   5.060  15.264  1.00  0.00    -0.354 OA
HETATM   19  C1  UNL     1      -3.938   6.186  14.834  1.00  0.00     0.210 C 
ENDBRANCH  10  18
BRANCH  11  20
HETATM   20  C7  UNL     1      -5.873   2.755  16.462  1.00  0.00     0.065 C 
HETATM   21  C8  UNL     1      -5.410   1.761  17.503  1.00  0.00     0.040 C 
HETATM   22  C9  UNL     1      -6.243   0.535  17.481  1.00  0.00     0.233 C 
HETATM   23  N2  UNL     1      -7.532   1.105  17.079  1.00  0.00    -0.074 N 
HETATM   24  C10 UNL     1      -7.241   2.109  16.066  1.00  0.00     0.243 C 
ATOM     25  H22 UNL     1      -8.206   0.404  16.771  1.00  0.00     0.277 HD
ATOM     26  H21 UNL     1      -8.076   1.468  17.862  1.00  0.00     0.277 HD
ENDBRANCH  11  20
ENDBRANCH   1   6
TORSDOF 3
ENDMDL
MODEL 3
REMARK VINA RESULT: -7.204361177      2.952      4.556
REMARK  3 active torsions:
REMARK  status: ('A' for Active; 'I' for Inactive)
REMARK    1  A    between atoms: O1_2  and  C2_3 
REMARK    2  A    between atoms: C6_9  and  C7_10 
REMARK    3  A    between atoms: C14_21  and  C15_22 
ROOT
HETATM    1  C15 UNL     1      -4.766   3.424  14.683  1.00  0.00     0.066 C 
HETATM    2  C16 UNL     1      -4.302   4.772  15.096  1.00  0.00     0.036 C 
HETATM    3  C17 UNL     1      -6.221   3.113  15.011  1.00  0.00     0.036 C 
HETATM    4  C18 UNL     1      -4.017   2.483  15.591  1.00  0.00     0.073 C 
HETATM    5  N3  UNL     1      -3.452   1.738  16.311  1.00  0.00    -0.196 NA
ENDROOT
BRANCH   1   6
HETATM    6  C14 UNL     1      -4.468   2.952  13.321  1.00  0.00    -0.043 C 
HETATM    7  C4  UNL     1      -3.411   3.494  12.516  1.00  0.00    -0.007 A 
HETATM    8  C3  UNL     1      -2.379   4.311  12.838  1.00  0.00     0.052 A 
HETATM    9  C5  UNL     1      -3.480   3.116  11.157  1.00  0.00     0.022 A 
HETATM   10  C2  UNL     1      -1.460   4.751  11.952  1.00  0.00     0.092 A 
HETATM   11  C6  UNL     1      -1.558   4.368  10.643  1.00  0.00     0.049 A 
HETATM   12  N1  UNL     1      -2.562   3.565  10.277  1.00  0.00    -0.359 N 
ATOM     13  H1  UNL     1      -2.636   3.281   9.299  1.00  0.00     0.165 HD
HETATM   14  C11 UNL     1      -4.512   2.153  10.710  1.00  0.00     0.095 C 
HETATM   15  C12 UNL     1      -5.021   1.201  11.719  1.00  0.00     0.179 C 
HETATM   16  F1  UNL     1      -4.712  -0.113  11.348  1.00  0.00    -0.249 F 
HETATM   17  C13 UNL     1      -4.463   1.456  13.132  1.00  0.00     0.074 C 
BRANCH  10  18
HETATM   18  O1  UNL     1      -0.454   5.588  12.419  1.00  0.00    -0.354 OA
HETATM   19  C1  UNL     1      -0.617   6.955  12.634  1.00  0.00     0.210 C 
ENDBRANCH  10  18
BRANCH  11  20
HETATM   20  C7  UNL     1      -0.490   4.707   9.680  1.00  0.00     0.065 C 
HETATM   21  C8  UNL     1      -0.996   5.700   8.658  1.00  0.00     0.040 C 
HETATM   22  C9  UNL     1      -1.379   5.021   7.397  1.00  0.00     0.233 C 
HETATM   23  N2  UNL     1      -0.415   3.917   7.394  1.00  0.00    -0.074 N 
HETATM   24  C10 UNL     1      -0.324   3.447   8.769  1.00  0.00     0.243 C 
ATOM     25  H22 UNL     1      -0.648   3.179   6.730  1.00  0.00     0.277 HD
ATOM     26  H21 UNL     1       0.488   4.169   6.993  1.00  0.00     0.277 HD
ENDBRANCH  11  20
ENDBRANCH   1   6
TORSDOF 3
ENDMDL
MODEL 4
REMARK VINA RESULT: -7.131687761      3.296      4.785
REMARK  3 active torsions:
REMARK  status: ('A' for Active; 'I' for Inactive)
REMARK    1  A    between atoms: O1_2  and  C2_3 
REMARK    2  A    between atoms: C6_9  and  C7_10 
REMARK    3  A    between atoms: C14_21  and  C15_22 
ROOT
HETATM    1  C15 UNL     1      -4.837   2.465  14.975  1.00  0.00     0.066 C 
HETATM    2  C16 UNL     1      -3.693   2.990  15.762  1.00  0.00     0.036 C 
HETATM    3  C17 UNL     1      -6.177   3.131  15.262  1.00  0.00     0.036 C 
HETATM    4  C18 UNL     1      -5.041   1.071  15.509  1.00  0.00     0.073 C 
HETATM    5  N3  UNL     1      -5.225  -0.015  15.934  1.00  0.00    -0.196 NA
ENDROOT
BRANCH   1   6
HETATM    6  C14 UNL     1      -4.685   2.294  13.521  1.00  0.00    -0.043 C 
HETATM    7  C4  UNL     1      -4.271   3.352  12.644  1.00  0.00    -0.007 A 
HETATM    8  C3  UNL     1      -3.739   4.569  12.911  1.00  0.00     0.052 A 
HETATM    9  C5  UNL     1      -4.470   3.068  11.275  1.00  0.00     0.022 A 
HETATM   10  C2  UNL     1      -3.407   5.472  11.963  1.00  0.00     0.092 A 
HETATM   11  C6  UNL     1      -3.617   5.166  10.647  1.00  0.00     0.049 A 
HETATM   12  N1  UNL     1      -4.143   3.977  10.335  1.00  0.00    -0.359 N 
ATOM     13  H1  UNL     1      -4.301   3.751   9.353  1.00  0.00     0.165 HD
HETATM   14  C11 UNL     1      -4.960   1.733  10.862  1.00  0.00     0.095 C 
HETATM   15  C12 UNL     1      -4.665   0.602  11.767  1.00  0.00     0.179 C 
HETATM   16  F1  UNL     1      -3.845  -0.334  11.126  1.00  0.00    -0.249 F 
HETATM   17  C13 UNL     1      -3.984   1.035  13.079  1.00  0.00     0.074 C 
BRANCH  10  18
HETATM   18  O1  UNL     1      -2.872   6.686  12.379  1.00  0.00    -0.354 OA
HETATM   19  C1  UNL     1      -2.630   7.014  13.711  1.00  0.00     0.210 C 
ENDBRANCH  10  18
BRANCH  11  20
HETATM   20  C7  UNL     1      -3.130   6.065   9.581  1.00  0.00     0.065 C 
HETATM   21  C8  UNL     1      -4.194   7.075   9.216  1.00  0.00     0.040 C 
HETATM   22  C9  UNL     1      -4.926   6.663   7.994  1.00  0.00     0.233 C 
HETATM   23  N2  UNL     1      -3.857   5.964   7.276  1.00  0.00    -0.074 N 
HETATM   24  C10 UNL     1      -3.116   5.207   8.275  1.00  0.00     0.243 C 
ATOM     25  H22 UNL     1      -4.196   5.390   6.504  1.00  0.00     0.277 HD
ATOM     26  H21 UNL     1      -3.267   6.585   6.722  1.00  0.00     0.277 HD
ENDBRANCH  11  20
ENDBRANCH   1   6
TORSDOF 3
ENDMDL
MODEL 5
REMARK VINA RESULT: -7.099837543      2.221      3.258
REMARK  3 active torsions:
REMARK  status: ('A' for Active; 'I' for Inactive)
REMARK    1  A    between atoms: O1_2  and  C2_3 
REMARK    2  A    between atoms: C6_9  and  C7_10 
REMARK    3  A    between atoms: C14_21  and  C15_22 
ROOT
HETATM    1  C15 UNL     1      -4.842   3.258  14.691  1.00  0.00     0.066 C 
HETATM    2  C16 UNL     1      -5.967   3.793  15.498  1.00  0.00     0.036 C 
HETATM    3  C17 UNL     1      -5.251   2.391  13.507  1.00  0.00     0.036 C 
HETATM    4  C18 UNL     1      -4.170   2.269  15.607  1.00  0.00     0.073 C 
HETATM    5  N3  UNL     1      -3.649   1.475  16.308  1.00  0.00    -0.196 NA
ENDROOT
BRANCH   1   6
HETATM    6  C14 UNL     1      -3.767   4.172  14.270  1.00  0.00    -0.043 C 
HETATM    7  C4  UNL     1      -2.840   3.863  13.220  1.00  0.00    -0.007 A 
HETATM    8  C3  UNL     1      -2.850   2.882  12.286  1.00  0.00     0.052 A 
HETATM    9  C5  UNL     1      -1.724   4.729  13.173  1.00  0.00     0.022 A 
HETATM   10  C2  UNL     1      -1.884   2.713  11.358  1.00  0.00     0.092 A 
HETATM   11  C6  UNL     1      -0.816   3.567  11.343  1.00  0.00     0.049 A 
HETATM   12  N1  UNL     1      -0.760   4.549  12.247  1.00  0.00    -0.359 N 
ATOM     13  H1  UNL     1       0.038   5.184  12.237  1.00  0.00     0.165 HD
HETATM   14  C11 UNL     1      -1.653   5.891  14.087  1.00  0.00     0.095 C 
HETATM   15  C12 UNL     1      -2.937   6.444  14.569  1.00  0.00     0.179 C 
HETATM   16  F1  UNL     1      -3.099   7.761  14.122  1.00  0.00    -0.249 F 
HETATM   17  C13 UNL     1      -4.159   5.620  14.121  1.00  0.00     0.074 C 
BRANCH  10  18
HETATM   18  O1  UNL     1      -2.021   1.661  10.460  1.00  0.00    -0.354 OA
HETATM   19  C1  UNL     1      -2.420   0.376  10.821  1.00  0.00     0.210 C 
ENDBRANCH  10  18
BRANCH  11  20
HETATM   20  C7  UNL     1       0.180   3.504  10.253  1.00  0.00     0.065 C 
HETATM   21  C8  UNL     1       1.416   4.292  10.622  1.00  0.00     0.040 C 
HETATM   22  C9  UNL     1       1.399   5.637  10.000  1.00  0.00     0.233 C 
HETATM   23  N2  UNL     1       0.680   5.338   8.757  1.00  0.00    -0.074 N 
HETATM   24  C10 UNL     1      -0.383   4.409   9.110  1.00  0.00     0.243 C 
ATOM     25  H22 UNL     1       0.345   6.171   8.273  1.00  0.00     0.277 HD
ATOM     26  H21 UNL     1       1.286   4.994   8.012  1.00  0.00     0.277 HD
ENDBRANCH  11  20
ENDBRANCH   1   6
TORSDOF 3
ENDMDL
