MODEL 1
REMARK VINA RESULT: -8.726363457      0.000      0.000
REMARK  10 active torsions:
REMARK  status: ('A' for Active; 'I' for Inactive)
REMARK    1  A    between atoms: C4_4  and  N1_5 
REMARK    2  A    between atoms: N1_5  and  C6_7 
REMARK    3  A    between atoms: C6_7  and  C7_8 
REMARK    4  A    between atoms: C9_13  and  C10_14 
REMARK    5  A    between atoms: C10_14  and  S1_15 
REMARK    6  A    between atoms: S1_15  and  C11_16 
REMARK    7  A    between atoms: C12_19  and  N4_20 
REMARK    8  A    between atoms: C13_23  and  C14_24 
REMARK    9  A    between atoms: N7_31  and  C17_32 
REMARK   10  A    between atoms: C18_38  and  N10_39 
ROOT
HETATM    1  C1  UNL     1     -10.842  35.425 -13.480  1.00  0.00     0.068 C 
HETATM    2  C2  UNL     1     -10.507  33.990 -13.298  1.00  0.00     0.008 A 
HETATM    3  C3  UNL     1      -9.278  33.572 -13.798  1.00  0.00     0.056 A 
HETATM    4  C4  UNL     1      -8.891  32.253 -13.670  1.00  0.00     0.061 A 
HETATM    5  C8  UNL     1      -9.764  31.380 -13.032  1.00  0.00     0.093 A 
HETATM    6  N2  UNL     1      -9.414  30.101 -12.897  1.00  0.00    -0.341 N 
ATOM      7  H2  UNL     1      -8.514  29.794 -13.264  1.00  0.00     0.167 HD
HETATM    8  C9  UNL     1     -10.227  29.186 -12.280  1.00  0.00     0.103 A 
HETATM    9  N7  UNL     1     -11.407  29.587 -11.798  1.00  0.00    -0.245 N 
HETATM   10  C19 UNL     1     -11.792  30.898 -11.925  1.00  0.00     0.284 A 
HETATM   11  O2  UNL     1     -12.900  31.233 -11.463  1.00  0.00    -0.265 OA
HETATM   12  C20 UNL     1     -10.971  31.796 -12.542  1.00  0.00     0.131 A 
HETATM   13  N11 UNL     1     -11.320  33.111 -12.688  1.00  0.00    -0.354 N 
ATOM     14  H11 UNL     1     -12.219  33.431 -12.327  1.00  0.00     0.166 HD
ENDROOT
BRANCH   8  15
HETATM   15  C10 UNL     1      -9.695  27.806 -12.180  1.00  0.00     0.159 C 
BRANCH  15  16
HETATM   16  S1  UNL     1      -8.185  27.636 -13.147  1.00  0.00    -0.085 SA
BRANCH  16  17
HETATM   17  C11 UNL     1      -8.366  26.682 -14.629  1.00  0.00     0.161 A 
HETATM   18  N3  UNL     1      -8.821  25.409 -14.621  1.00  0.00    -0.321 N 
HETATM   19  C12 UNL     1      -8.961  24.694 -15.752  1.00  0.00     0.125 A 
ATOM     20  H3  UNL     1      -9.065  24.977 -13.731  1.00  0.00     0.169 HD
HETATM   21  C13 UNL     1      -8.645  25.229 -16.981  1.00  0.00     0.072 A 
HETATM   22  N5  UNL     1      -8.192  26.499 -16.972  1.00  0.00    -0.299 N 
HETATM   23  N6  UNL     1      -8.058  27.192 -15.855  1.00  0.00    -0.280 N 
ATOM     24  H5  UNL     1      -7.945  26.940 -17.858  1.00  0.00     0.186 HD
ATOM     25  H6  UNL     1      -7.711  28.149 -15.912  1.00  0.00     0.189 HD
BRANCH  19  26
HETATM   26  N4  UNL     1      -9.402  23.467 -15.731  1.00  0.00    -0.384 N 
ATOM     27  H42 UNL     1      -9.361  22.972 -14.840  1.00  0.00     0.157 HD
ATOM     28  H41 UNL     1      -9.772  23.020 -16.569  1.00  0.00     0.157 HD
ENDBRANCH  19  26
BRANCH  21  29
HETATM   29  C14 UNL     1      -8.787  24.469 -18.250  1.00  0.00     0.033 C 
HETATM   30  C15 UNL     1      -7.435  24.377 -18.966  1.00  0.00     0.016 C 
HETATM   31  C16 UNL     1      -9.764  25.082 -19.210  1.00  0.00     0.016 C 
ENDBRANCH  21  29
ENDBRANCH  16  17
ENDBRANCH  15  16
ENDBRANCH   8  15
BRANCH   9  32
HETATM   32  C17 UNL     1     -12.252  28.677 -11.110  1.00  0.00     0.184 A 
HETATM   33  N8  UNL     1     -13.288  27.930 -11.496  1.00  0.00    -0.221 N 
HETATM   34  O1  UNL     1     -13.761  27.262 -10.500  1.00  0.00    -0.153 OA
ATOM     35  H8  UNL     1     -13.654  27.893 -12.446  1.00  0.00     0.198 HD
HETATM   36  N9  UNL     1     -13.081  27.522  -9.419  1.00  0.00    -0.222 N 
HETATM   37  C18 UNL     1     -12.120  28.407  -9.751  1.00  0.00     0.168 A 
ATOM     38  H9  UNL     1     -13.245  27.127  -8.493  1.00  0.00     0.198 HD
BRANCH  37  39
HETATM   39  N10 UNL     1     -11.286  28.864  -8.895  1.00  0.00    -0.381 N 
ATOM     40 2H10 UNL     1     -10.427  29.339  -9.170  1.00  0.00     0.157 HD
ATOM     41 1H10 UNL     1     -11.309  28.841  -7.875  1.00  0.00     0.157 HD
ENDBRANCH  37  39
ENDBRANCH   9  32
BRANCH   4  42
HETATM   42  N1  UNL     1      -7.644  31.821 -14.178  1.00  0.00    -0.381 N 
HETATM   43  C5  UNL     1      -7.600  30.936 -15.299  1.00  0.00     0.150 C 
BRANCH  42  44
HETATM   44  C6  UNL     1      -6.431  32.285 -13.554  1.00  0.00     0.154 C 
BRANCH  44  45
HETATM   45  C7  UNL     1      -5.863  31.182 -12.685  1.00  0.00     0.241 C 
HETATM   46  F1  UNL     1      -6.585  30.998 -11.541  1.00  0.00    -0.254 F 
ENDBRANCH  44  45
ENDBRANCH  42  44
ENDBRANCH   4  42
TORSDOF 10
ENDMDL
MODEL 2
REMARK VINA RESULT: -8.534062014      2.304      4.962
REMARK  10 active torsions:
REMARK  status: ('A' for Active; 'I' for Inactive)
REMARK    1  A    between atoms: C4_4  and  N1_5 
REMARK    2  A    between atoms: N1_5  and  C6_7 
REMARK    3  A    between atoms: C6_7  and  C7_8 
REMARK    4  A    between atoms: C9_13  and  C10_14 
REMARK    5  A    between atoms: C10_14  and  S1_15 
REMARK    6  A    between atoms: S1_15  and  C11_16 
REMARK    7  A    between atoms: C12_19  and  N4_20 
REMARK    8  A    between atoms: C13_23  and  C14_24 
REMARK    9  A    between atoms: N7_31  and  C17_32 
REMARK   10  A    between atoms: C18_38  and  N10_39 
ROOT
HETATM    1  C1  UNL     1     -14.846  32.051 -10.653  1.00  0.00     0.068 C 
HETATM    2  C2  UNL     1     -13.619  31.295 -11.006  1.00  0.00     0.008 A 
HETATM    3  C3  UNL     1     -13.590  29.953 -10.637  1.00  0.00     0.056 A 
HETATM    4  C4  UNL     1     -12.484  29.180 -10.928  1.00  0.00     0.061 A 
HETATM    5  C8  UNL     1     -11.424  29.786 -11.590  1.00  0.00     0.093 A 
HETATM    6  N2  UNL     1     -10.344  29.061 -11.881  1.00  0.00    -0.341 N 
ATOM      7  H2  UNL     1     -10.322  28.078 -11.611  1.00  0.00     0.167 HD
HETATM    8  C9  UNL     1      -9.262  29.595 -12.532  1.00  0.00     0.103 A 
HETATM    9  N7  UNL     1      -9.290  30.883 -12.887  1.00  0.00    -0.245 N 
HETATM   10  C19 UNL     1     -10.388  31.653 -12.599  1.00  0.00     0.284 A 
HETATM   11  O2  UNL     1     -10.376  32.850 -12.945  1.00  0.00    -0.265 OA
HETATM   12  C20 UNL     1     -11.457  31.106 -11.950  1.00  0.00     0.131 A 
HETATM   13  N11 UNL     1     -12.570  31.840 -11.645  1.00  0.00    -0.354 N 
ATOM     14  H11 UNL     1     -12.605  32.825 -11.908  1.00  0.00     0.166 HD
ENDROOT
BRANCH   8  15
HETATM   15  C10 UNL     1      -8.145  28.662 -12.811  1.00  0.00     0.159 C 
BRANCH  15  16
HETATM   16  S1  UNL     1      -8.716  26.955 -12.760  1.00  0.00    -0.085 SA
BRANCH  16  17
HETATM   17  C11 UNL     1      -8.690  26.125 -14.325  1.00  0.00     0.161 A 
HETATM   18  N3  UNL     1      -9.109  24.848 -14.477  1.00  0.00    -0.321 N 
HETATM   19  C12 UNL     1      -9.093  24.228 -15.670  1.00  0.00     0.125 A 
ATOM     20  H3  UNL     1      -9.448  24.340 -13.661  1.00  0.00     0.169 HD
HETATM   21  C13 UNL     1      -8.644  24.869 -16.804  1.00  0.00     0.072 A 
HETATM   22  N5  UNL     1      -8.230  26.141 -16.636  1.00  0.00    -0.299 N 
HETATM   23  N6  UNL     1      -8.250  26.740 -15.459  1.00  0.00    -0.280 N 
ATOM     24  H5  UNL     1      -7.888  26.659 -17.447  1.00  0.00     0.186 HD
ATOM     25  H6  UNL     1      -7.924  27.704 -15.396  1.00  0.00     0.189 HD
BRANCH  19  26
HETATM   26  N4  UNL     1      -9.500  22.996 -15.802  1.00  0.00    -0.384 N 
ATOM     27  H42 UNL     1      -8.792  22.291 -16.003  1.00  0.00     0.157 HD
ATOM     28  H41 UNL     1     -10.484  22.748 -15.710  1.00  0.00     0.157 HD
ENDBRANCH  19  26
BRANCH  21  29
HETATM   29  C14 UNL     1      -8.611  24.215 -18.138  1.00  0.00     0.033 C 
HETATM   30  C15 UNL     1      -7.260  24.466 -18.817  1.00  0.00     0.016 C 
HETATM   31  C16 UNL     1      -9.681  24.701 -19.070  1.00  0.00     0.016 C 
ENDBRANCH  21  29
ENDBRANCH  16  17
ENDBRANCH  15  16
ENDBRANCH   8  15
BRANCH   9  32
HETATM   32  C17 UNL     1      -8.207  31.456 -13.606  1.00  0.00     0.184 A 
HETATM   33  N8  UNL     1      -7.955  31.595 -14.908  1.00  0.00    -0.221 N 
HETATM   34  O1  UNL     1      -6.817  32.175 -15.089  1.00  0.00    -0.153 OA
ATOM     35  H8  UNL     1      -8.575  31.286 -15.656  1.00  0.00     0.198 HD
HETATM   36  N9  UNL     1      -6.263  32.447 -13.943  1.00  0.00    -0.222 N 
HETATM   37  C18 UNL     1      -7.098  32.014 -12.977  1.00  0.00     0.168 A 
ATOM     38  H9  UNL     1      -5.361  32.904 -13.801  1.00  0.00     0.198 HD
BRANCH  37  39
HETATM   39  N10 UNL     1      -6.827  32.136 -11.733  1.00  0.00    -0.381 N 
ATOM     40 2H10 UNL     1      -5.902  31.935 -11.355  1.00  0.00     0.157 HD
ATOM     41 1H10 UNL     1      -7.420  32.423 -10.954  1.00  0.00     0.157 HD
ENDBRANCH  37  39
ENDBRANCH   9  32
BRANCH   4  42
HETATM   42  N1  UNL     1     -12.447  27.816 -10.554  1.00  0.00    -0.381 N 
HETATM   43  C5  UNL     1     -11.676  27.408  -9.422  1.00  0.00     0.150 C 
BRANCH  42  44
HETATM   44  C6  UNL     1     -13.195  26.855 -11.326  1.00  0.00     0.154 C 
BRANCH  44  45
HETATM   45  C7  UNL     1     -12.485  25.517 -11.280  1.00  0.00     0.241 C 
HETATM   46  F1  UNL     1     -11.602  25.363 -12.310  1.00  0.00    -0.254 F 
ENDBRANCH  44  45
ENDBRANCH  42  44
ENDBRANCH   4  42
TORSDOF 10
ENDMDL
MODEL 3
REMARK VINA RESULT: -8.505699646      0.806      1.413
REMARK  10 active torsions:
REMARK  status: ('A' for Active; 'I' for Inactive)
REMARK    1  A    between atoms: C4_4  and  N1_5 
REMARK    2  A    between atoms: N1_5  and  C6_7 
REMARK    3  A    between atoms: C6_7  and  C7_8 
REMARK    4  A    between atoms: C9_13  and  C10_14 
REMARK    5  A    between atoms: C10_14  and  S1_15 
REMARK    6  A    between atoms: S1_15  and  C11_16 
REMARK    7  A    between atoms: C12_19  and  N4_20 
REMARK    8  A    between atoms: C13_23  and  C14_24 
REMARK    9  A    between atoms: N7_31  and  C17_32 
REMARK   10  A    between atoms: C18_38  and  N10_39 
ROOT
HETATM    1  C1  UNL     1     -10.815  35.653 -13.899  1.00  0.00     0.068 C 
HETATM    2  C2  UNL     1     -10.516  34.242 -13.546  1.00  0.00     0.008 A 
HETATM    3  C3  UNL     1      -9.252  33.772 -13.889  1.00  0.00     0.056 A 
HETATM    4  C4  UNL     1      -8.896  32.471 -13.596  1.00  0.00     0.061 A 
HETATM    5  C8  UNL     1      -9.834  31.669 -12.958  1.00  0.00     0.093 A 
HETATM    6  N2  UNL     1      -9.514  30.408 -12.666  1.00  0.00    -0.341 N 
ATOM      7  H2  UNL     1      -8.588  30.063 -12.917  1.00  0.00     0.167 HD
HETATM    8  C9  UNL     1     -10.391  29.562 -12.038  1.00  0.00     0.103 A 
HETATM    9  N7  UNL     1     -11.605  30.013 -11.708  1.00  0.00    -0.245 N 
HETATM   10  C19 UNL     1     -11.960  31.306 -11.998  1.00  0.00     0.284 A 
HETATM   11  O2  UNL     1     -13.101  31.690 -11.675  1.00  0.00    -0.265 OA
HETATM   12  C20 UNL     1     -11.075  32.136 -12.624  1.00  0.00     0.131 A 
HETATM   13  N11 UNL     1     -11.393  33.431 -12.930  1.00  0.00    -0.354 N 
ATOM     14  H11 UNL     1     -12.316  33.789 -12.686  1.00  0.00     0.166 HD
ENDROOT
BRANCH   8  15
HETATM   15  C10 UNL     1      -9.888  28.197 -11.754  1.00  0.00     0.159 C 
BRANCH  15  16
HETATM   16  S1  UNL     1      -8.233  27.977 -12.430  1.00  0.00    -0.085 SA
BRANCH  16  17
HETATM   17  C11 UNL     1      -8.174  27.068 -13.949  1.00  0.00     0.161 A 
HETATM   18  N3  UNL     1      -7.392  27.438 -14.987  1.00  0.00    -0.321 N 
HETATM   19  C12 UNL     1      -7.348  26.738 -16.134  1.00  0.00     0.125 A 
ATOM     20  H3  UNL     1      -6.816  28.275 -14.897  1.00  0.00     0.169 HD
HETATM   21  C13 UNL     1      -8.106  25.601 -16.308  1.00  0.00     0.072 A 
HETATM   22  N5  UNL     1      -8.881  25.244 -15.264  1.00  0.00    -0.299 N 
HETATM   23  N6  UNL     1      -8.916  25.940 -14.141  1.00  0.00    -0.280 N 
ATOM     24  H5  UNL     1      -9.461  24.408 -15.344  1.00  0.00     0.186 HD
ATOM     25  H6  UNL     1      -9.523  25.620 -13.387  1.00  0.00     0.189 HD
BRANCH  19  26
HETATM   26  N4  UNL     1      -6.588  27.105 -17.128  1.00  0.00    -0.384 N 
ATOM     27  H42 UNL     1      -6.202  28.048 -17.095  1.00  0.00     0.157 HD
ATOM     28  H41 UNL     1      -6.388  26.477 -17.906  1.00  0.00     0.157 HD
ENDBRANCH  19  26
BRANCH  21  29
HETATM   29  C14 UNL     1      -8.084  24.802 -17.562  1.00  0.00     0.033 C 
HETATM   30  C15 UNL     1      -9.308  25.134 -18.423  1.00  0.00     0.016 C 
HETATM   31  C16 UNL     1      -8.086  23.320 -17.327  1.00  0.00     0.016 C 
ENDBRANCH  21  29
ENDBRANCH  16  17
ENDBRANCH  15  16
ENDBRANCH   8  15
BRANCH   9  32
HETATM   32  C17 UNL     1     -12.520  29.179 -11.013  1.00  0.00     0.184 A 
HETATM   33  N8  UNL     1     -13.487  28.356 -11.421  1.00  0.00    -0.221 N 
HETATM   34  O1  UNL     1     -14.077  27.814 -10.410  1.00  0.00    -0.153 OA
ATOM     35  H8  UNL     1     -13.727  28.179 -12.396  1.00  0.00     0.198 HD
HETATM   36  N9  UNL     1     -13.546  28.239  -9.299  1.00  0.00    -0.222 N 
HETATM   37  C18 UNL     1     -12.562  29.100  -9.625  1.00  0.00     0.168 A 
ATOM     38  H9  UNL     1     -13.825  27.968  -8.355  1.00  0.00     0.198 HD
BRANCH  37  39
HETATM   39  N10 UNL     1     -11.852  29.693  -8.741  1.00  0.00    -0.381 N 
ATOM     40 2H10 UNL     1     -11.925  29.475  -7.747  1.00  0.00     0.157 HD
ATOM     41 1H10 UNL     1     -11.151  30.428  -8.843  1.00  0.00     0.157 HD
ENDBRANCH  37  39
ENDBRANCH   9  32
BRANCH   4  42
HETATM   42  N1  UNL     1      -7.613  31.986 -13.943  1.00  0.00    -0.381 N 
HETATM   43  C5  UNL     1      -7.463  31.103 -15.057  1.00  0.00     0.150 C 
BRANCH  42  44
HETATM   44  C6  UNL     1      -6.472  32.394 -13.163  1.00  0.00     0.154 C 
BRANCH  44  45
HETATM   45  C7  UNL     1      -5.925  31.196 -12.413  1.00  0.00     0.241 C 
HETATM   46  F1  UNL     1      -6.650  30.911 -11.292  1.00  0.00    -0.254 F 
ENDBRANCH  44  45
ENDBRANCH  42  44
ENDBRANCH   4  42
TORSDOF 10
ENDMDL
MODEL 4
REMARK VINA RESULT: -8.487756096      3.851      6.096
REMARK  10 active torsions:
REMARK  status: ('A' for Active; 'I' for Inactive)
REMARK    1  A    between atoms: C4_4  and  N1_5 
REMARK    2  A    between atoms: N1_5  and  C6_7 
REMARK    3  A    between atoms: C6_7  and  C7_8 
REMARK    4  A    between atoms: C9_13  and  C10_14 
REMARK    5  A    between atoms: C10_14  and  S1_15 
REMARK    6  A    between atoms: S1_15  and  C11_16 
REMARK    7  A    between atoms: C12_19  and  N4_20 
REMARK    8  A    between atoms: C13_23  and  C14_24 
REMARK    9  A    between atoms: N7_31  and  C17_32 
REMARK   10  A    between atoms: C18_38  and  N10_39 
ROOT
HETATM    1  C1  UNL     1      -1.063  32.995  -9.469  1.00  0.00     0.068 C 
HETATM    2  C2  UNL     1      -1.978  32.201 -10.327  1.00  0.00     0.008 A 
HETATM    3  C3  UNL     1      -1.565  30.911 -10.647  1.00  0.00     0.056 A 
HETATM    4  C4  UNL     1      -2.358  30.107 -11.441  1.00  0.00     0.061 A 
HETATM    5  C8  UNL     1      -3.562  30.631 -11.896  1.00  0.00     0.093 A 
HETATM    6  N2  UNL     1      -4.345  29.875 -12.666  1.00  0.00    -0.341 N 
ATOM      7  H2  UNL     1      -4.042  28.930 -12.901  1.00  0.00     0.167 HD
HETATM    8  C9  UNL     1      -5.544  30.328 -13.150  1.00  0.00     0.103 A 
HETATM    9  N7  UNL     1      -5.942  31.566 -12.842  1.00  0.00    -0.245 N 
HETATM   10  C19 UNL     1      -5.155  32.365 -12.053  1.00  0.00     0.284 A 
HETATM   11  O2  UNL     1      -5.560  33.514 -11.789  1.00  0.00    -0.265 OA
HETATM   12  C20 UNL     1      -3.963  31.899 -11.579  1.00  0.00     0.131 A 
HETATM   13  N11 UNL     1      -3.150  32.667 -10.790  1.00  0.00    -0.354 N 
ATOM     14  H11 UNL     1      -3.440  33.614 -10.549  1.00  0.00     0.166 HD
ENDROOT
BRANCH   8  15
HETATM   15  C10 UNL     1      -6.320  29.367 -13.970  1.00  0.00     0.159 C 
BRANCH  15  16
HETATM   16  S1  UNL     1      -5.274  28.004 -14.509  1.00  0.00    -0.085 SA
BRANCH  16  17
HETATM   17  C11 UNL     1      -6.119  26.749 -15.432  1.00  0.00     0.161 A 
HETATM   18  N3  UNL     1      -5.469  25.872 -16.228  1.00  0.00    -0.321 N 
HETATM   19  C12 UNL     1      -6.117  24.918 -16.920  1.00  0.00     0.125 A 
ATOM     20  H3  UNL     1      -4.454  25.935 -16.307  1.00  0.00     0.169 HD
HETATM   21  C13 UNL     1      -7.487  24.790 -16.850  1.00  0.00     0.072 A 
HETATM   22  N5  UNL     1      -8.122  25.673 -16.052  1.00  0.00    -0.299 N 
HETATM   23  N6  UNL     1      -7.474  26.605 -15.377  1.00  0.00    -0.280 N 
ATOM     24  H5  UNL     1      -9.137  25.618 -15.966  1.00  0.00     0.186 HD
ATOM     25  H6  UNL     1      -8.009  27.244 -14.789  1.00  0.00     0.189 HD
BRANCH  19  26
HETATM   26  N4  UNL     1      -5.478  24.078 -17.684  1.00  0.00    -0.384 N 
ATOM     27  H42 UNL     1      -4.489  23.929 -17.488  1.00  0.00     0.157 HD
ATOM     28  H41 UNL     1      -5.947  23.588 -18.446  1.00  0.00     0.157 HD
ENDBRANCH  19  26
BRANCH  21  29
HETATM   29  C14 UNL     1      -8.238  23.750 -17.601  1.00  0.00     0.033 C 
HETATM   30  C15 UNL     1      -9.377  24.391 -18.399  1.00  0.00     0.016 C 
HETATM   31  C16 UNL     1      -8.842  22.695 -16.720  1.00  0.00     0.016 C 
ENDBRANCH  21  29
ENDBRANCH  16  17
ENDBRANCH  15  16
ENDBRANCH   8  15
BRANCH   9  32
HETATM   32  C17 UNL     1      -7.202  32.050 -13.287  1.00  0.00     0.184 A 
HETATM   33  N8  UNL     1      -7.580  32.742 -14.362  1.00  0.00    -0.221 N 
HETATM   34  O1  UNL     1      -8.848  32.972 -14.329  1.00  0.00    -0.153 OA
ATOM     35  H8  UNL     1      -6.954  33.046 -15.107  1.00  0.00     0.198 HD
HETATM   36  N9  UNL     1      -9.372  32.458 -13.253  1.00  0.00    -0.222 N 
HETATM   37  C18 UNL     1      -8.376  31.866 -12.563  1.00  0.00     0.168 A 
ATOM     38  H9  UNL     1     -10.355  32.496 -12.983  1.00  0.00     0.198 HD
BRANCH  37  39
HETATM   39  N10 UNL     1      -8.576  31.272 -11.449  1.00  0.00    -0.381 N 
ATOM     40 2H10 UNL     1      -8.284  31.672 -10.557  1.00  0.00     0.157 HD
ATOM     41 1H10 UNL     1      -9.017  30.373 -11.250  1.00  0.00     0.157 HD
ENDBRANCH  37  39
ENDBRANCH   9  32
BRANCH   4  42
HETATM   42  N1  UNL     1      -1.943  28.796 -11.771  1.00  0.00    -0.381 N 
HETATM   43  C5  UNL     1      -0.993  28.593 -12.820  1.00  0.00     0.150 C 
BRANCH  42  44
HETATM   44  C6  UNL     1      -2.487  27.680 -11.039  1.00  0.00     0.154 C 
BRANCH  44  45
HETATM   45  C7  UNL     1      -1.764  26.413 -11.448  1.00  0.00     0.241 C 
HETATM   46  F1  UNL     1      -2.447  25.287 -11.090  1.00  0.00    -0.254 F 
ENDBRANCH  44  45
ENDBRANCH  42  44
ENDBRANCH   4  42
TORSDOF 10
ENDMDL
MODEL 5
REMARK VINA RESULT: -8.390579057      2.636      7.423
REMARK  10 active torsions:
REMARK  status: ('A' for Active; 'I' for Inactive)
REMARK    1  A    between atoms: C4_4  and  N1_5 
REMARK    2  A    between atoms: N1_5  and  C6_7 
REMARK    3  A    between atoms: C6_7  and  C7_8 
REMARK    4  A    between atoms: C9_13  and  C10_14 
REMARK    5  A    between atoms: C10_14  and  S1_15 
REMARK    6  A    between atoms: S1_15  and  C11_16 
REMARK    7  A    between atoms: C12_19  and  N4_20 
REMARK    8  A    between atoms: C13_23  and  C14_24 
REMARK    9  A    between atoms: N7_31  and  C17_32 
REMARK   10  A    between atoms: C18_38  and  N10_39 
ROOT
HETATM    1  C1  UNL     1      -9.269  22.715 -16.285  1.00  0.00     0.068 C 
HETATM    2  C2  UNL     1      -8.871  24.026 -15.714  1.00  0.00     0.008 A 
HETATM    3  C3  UNL     1      -8.097  24.848 -16.526  1.00  0.00     0.056 A 
HETATM    4  C4  UNL     1      -7.686  26.084 -16.068  1.00  0.00     0.061 A 
HETATM    5  C8  UNL     1      -8.071  26.462 -14.788  1.00  0.00     0.093 A 
HETATM    6  N2  UNL     1      -7.685  27.651 -14.323  1.00  0.00    -0.341 N 
ATOM      7  H2  UNL     1      -7.117  28.253 -14.918  1.00  0.00     0.167 HD
HETATM    8  C9  UNL     1      -8.028  28.087 -13.070  1.00  0.00     0.103 A 
HETATM    9  N7  UNL     1      -8.773  27.299 -12.289  1.00  0.00    -0.245 N 
HETATM   10  C19 UNL     1      -9.183  26.071 -12.743  1.00  0.00     0.284 A 
HETATM   11  O2  UNL     1      -9.875  25.364 -11.985  1.00  0.00    -0.265 OA
HETATM   12  C20 UNL     1      -8.832  25.650 -13.993  1.00  0.00     0.131 A 
HETATM   13  N11 UNL     1      -9.221  24.433 -14.481  1.00  0.00    -0.354 N 
ATOM     14  H11 UNL     1      -9.788  23.819 -13.896  1.00  0.00     0.166 HD
ENDROOT
BRANCH   8  15
HETATM   15  C10 UNL     1      -7.550  29.440 -12.698  1.00  0.00     0.159 C 
BRANCH  15  16
HETATM   16  S1  UNL     1      -7.654  30.559 -14.106  1.00  0.00    -0.085 SA
BRANCH  16  17
HETATM   17  C11 UNL     1      -8.769  31.918 -13.883  1.00  0.00     0.161 A 
HETATM   18  N3  UNL     1      -9.951  31.789 -13.240  1.00  0.00    -0.321 N 
HETATM   19  C12 UNL     1     -10.788  32.827 -13.069  1.00  0.00     0.125 A 
ATOM     20  H3  UNL     1     -10.217  30.875 -12.874  1.00  0.00     0.169 HD
HETATM   21  C13 UNL     1     -10.478  34.083 -13.545  1.00  0.00     0.072 A 
HETATM   22  N5  UNL     1      -9.296  34.195 -14.183  1.00  0.00    -0.299 N 
HETATM   23  N6  UNL     1      -8.481  33.168 -14.345  1.00  0.00    -0.280 N 
ATOM     24  H5  UNL     1      -9.021  35.105 -14.554  1.00  0.00     0.186 HD
ATOM     25  H6  UNL     1      -7.600  33.315 -14.838  1.00  0.00     0.189 HD
BRANCH  19  26
HETATM   26  N4  UNL     1     -11.926  32.690 -12.447  1.00  0.00    -0.384 N 
ATOM     27  H42 UNL     1     -11.890  32.525 -11.441  1.00  0.00     0.157 HD
ATOM     28  H41 UNL     1     -12.815  32.745 -12.944  1.00  0.00     0.157 HD
ENDBRANCH  19  26
BRANCH  21  29
HETATM   29  C14 UNL     1     -11.379  35.253 -13.375  1.00  0.00     0.033 C 
HETATM   30  C15 UNL     1     -12.044  35.607 -14.709  1.00  0.00     0.016 C 
HETATM   31  C16 UNL     1     -10.675  36.483 -12.881  1.00  0.00     0.016 C 
ENDBRANCH  21  29
ENDBRANCH  16  17
ENDBRANCH  15  16
ENDBRANCH   8  15
BRANCH   9  32
HETATM   32  C17 UNL     1      -9.188  27.740 -11.004  1.00  0.00     0.184 A 
HETATM   33  N8  UNL     1      -8.682  27.576  -9.781  1.00  0.00    -0.221 N 
HETATM   34  O1  UNL     1      -9.427  28.155  -8.902  1.00  0.00    -0.153 OA
ATOM     35  H8  UNL     1      -7.826  27.064  -9.571  1.00  0.00     0.198 HD
HETATM   36  N9  UNL     1     -10.447  28.723  -9.479  1.00  0.00    -0.222 N 
HETATM   37  C18 UNL     1     -10.342  28.491 -10.803  1.00  0.00     0.168 A 
ATOM     38  H9  UNL     1     -11.188  29.248  -9.015  1.00  0.00     0.198 HD
BRANCH  37  39
HETATM   39  N10 UNL     1     -11.205  28.922 -11.643  1.00  0.00    -0.381 N 
ATOM     40 2H10 UNL     1     -11.165  29.864 -12.032  1.00  0.00     0.157 HD
ATOM     41 1H10 UNL     1     -12.022  28.461 -12.045  1.00  0.00     0.157 HD
ENDBRANCH  37  39
ENDBRANCH   9  32
BRANCH   4  42
HETATM   42  N1  UNL     1      -6.896  26.923 -16.889  1.00  0.00    -0.381 N 
HETATM   43  C5  UNL     1      -7.525  27.891 -17.731  1.00  0.00     0.150 C 
BRANCH  42  44
HETATM   44  C6  UNL     1      -5.462  26.787 -16.859  1.00  0.00     0.154 C 
BRANCH  44  45
HETATM   45  C7  UNL     1      -4.957  26.516 -18.262  1.00  0.00     0.241 C 
HETATM   46  F1  UNL     1      -5.563  25.433 -18.831  1.00  0.00    -0.254 F 
ENDBRANCH  44  45
ENDBRANCH  42  44
ENDBRANCH   4  42
TORSDOF 10
ENDMDL
