MODEL 1
REMARK VINA RESULT: -8.624476468      0.000      0.000
REMARK  13 active torsions:
REMARK  status: ('A' for Active; 'I' for Inactive)
REMARK    1  A    between atoms: O1_1  and  C1_3 
REMARK    2  A    between atoms: C2_4  and  N1_5 
REMARK    3  A    between atoms: N1_5  and  C3_6 
REMARK    4  A    between atoms: N1_5  and  N3_16 
REMARK    5  A    between atoms: C3_6  and  C4_7 
REMARK    6  A    between atoms: C4_7  and  O2_8 
REMARK    7  A    between atoms: C4_7  and  N2_10 
REMARK    8  A    between atoms: N3_16  and  C9_18 
REMARK    9  A    between atoms: C9_18  and  O4_19 
REMARK   10  A    between atoms: C9_18  and  C10_21 
REMARK   11  A    between atoms: C12_23  and  C13_24 
REMARK   12  A    between atoms: N6_34  and  C17_35 
REMARK   13  A    between atoms: C17_35  and  C18_36 
ROOT
HETATM    1  N1  UNL     1      -6.575  29.066 -14.060  1.00  0.00    -0.271 N 
ENDROOT
BRANCH   1   2
HETATM    2  C2  UNL     1      -5.296  28.891 -13.522  1.00  0.00     0.175 A 
HETATM    3  C1  UNL     1      -4.883  29.449 -12.297  1.00  0.00     0.190 A 
HETATM    4  N6  UNL     1      -3.649  29.102 -11.984  1.00  0.00    -0.320 N 
HETATM    5  C16 UNL     1      -3.237  28.314 -12.998  1.00  0.00     0.186 A 
HETATM    6  N5  UNL     1      -4.216  28.191 -13.910  1.00  0.00    -0.334 N 
ATOM      7  H5  UNL     1      -4.150  27.646 -14.770  1.00  0.00     0.168 HD
BRANCH   3   8
HETATM    8  O1  UNL     1      -5.701  30.264 -11.529  1.00  0.00    -0.343 OA
ATOM      9  H1  UNL     1      -6.649  30.253 -11.597  1.00  0.00     0.219 HD
ENDBRANCH   3   8
BRANCH   4  10
HETATM   10  C17 UNL     1      -2.950  29.517 -10.801  1.00  0.00     0.136 C 
BRANCH  10  11
HETATM   11  C18 UNL     1      -1.981  30.660 -11.023  1.00  0.00     0.004 C 
HETATM   12  C19 UNL     1      -2.469  31.874 -10.299  1.00  0.00     0.006 C 
HETATM   13  C20 UNL     1      -1.359  32.774  -9.816  1.00  0.00     0.000 C 
HETATM   14  C21 UNL     1      -0.530  31.908  -8.863  1.00  0.00     0.000 C 
HETATM   15  C22 UNL     1       0.192  30.930  -9.724  1.00  0.00     0.000 C 
HETATM   16  C23 UNL     1      -0.584  30.267 -10.787  1.00  0.00     0.006 C 
ENDBRANCH  10  11
ENDBRANCH   4  10
ENDBRANCH   1   2
BRANCH   1  17
HETATM   17  C3  UNL     1      -7.280  27.796 -14.304  1.00  0.00     0.214 C 
BRANCH  17  18
HETATM   18  C4  UNL     1      -7.527  27.470 -15.717  1.00  0.00     0.376 C 
BRANCH  18  19
HETATM   19  O2  UNL     1      -8.308  28.388 -16.404  1.00  0.00    -0.366 OA
ATOM     20  H2  UNL     1      -8.940  28.010 -17.004  1.00  0.00     0.212 HD
ENDBRANCH  18  19
BRANCH  18  21
HETATM   21  N2  UNL     1      -6.375  27.131 -16.512  1.00  0.00     0.122 N 
HETATM   22  C5  UNL     1      -5.850  25.822 -16.207  1.00  0.00     0.302 C 
HETATM   23  C6  UNL     1      -6.685  24.725 -16.859  1.00  0.00     0.198 C 
HETATM   24  O3  UNL     1      -6.536  24.804 -18.220  1.00  0.00    -0.388 OA
HETATM   25  C7  UNL     1      -6.136  26.033 -18.704  1.00  0.00     0.198 C 
HETATM   26  C8  UNL     1      -6.787  27.132 -17.903  1.00  0.00     0.302 C 
ENDBRANCH  18  21
ENDBRANCH  17  18
ENDBRANCH   1  17
BRANCH   1  27
HETATM   27  N3  UNL     1      -7.160  30.235 -14.301  1.00  0.00    -0.298 N 
ATOM     28  H3  UNL     1      -6.661  30.879 -14.915  1.00  0.00     0.183 HD
BRANCH  27  29
HETATM   29  C9  UNL     1      -8.388  30.673 -13.799  1.00  0.00     0.285 C 
BRANCH  29  30
HETATM   30  O4  UNL     1      -8.270  30.456 -12.361  1.00  0.00    -0.370 OA
ATOM     31  H4  UNL     1      -9.142  30.182 -12.103  1.00  0.00     0.212 HD
ENDBRANCH  29  30
BRANCH  29  32
HETATM   32  C10 UNL     1      -8.663  32.129 -13.858  1.00  0.00     0.084 A 
HETATM   33  C11 UNL     1      -9.829  32.732 -13.365  1.00  0.00     0.067 A 
HETATM   34  C12 UNL     1      -9.773  34.100 -13.576  1.00  0.00     0.085 A 
HETATM   35  O5  UNL     1      -8.625  34.295 -14.168  1.00  0.00    -0.242 OA
HETATM   36  N4  UNL     1      -7.988  33.176 -14.330  1.00  0.00    -0.261 N 
ATOM     37  H4  UNL     1      -7.071  33.106 -14.771  1.00  0.00     0.194 HD
BRANCH  34  38
HETATM   38  C13 UNL     1     -10.793  35.115 -13.210  1.00  0.00     0.082 A 
HETATM   39  C14 UNL     1     -11.749  35.611 -14.311  1.00  0.00     0.052 A 
HETATM   40  C15 UNL     1     -12.240  34.728 -13.222  1.00  0.00     0.181 A 
HETATM   41  F1  UNL     1     -13.106  35.263 -12.313  1.00  0.00    -0.249 F 
ENDBRANCH  34  38
ENDBRANCH  29  32
ENDBRANCH  27  29
ENDBRANCH   1  27
TORSDOF 13
ENDMDL
MODEL 2
REMARK VINA RESULT: -8.570887859      0.984      1.083
REMARK  13 active torsions:
REMARK  status: ('A' for Active; 'I' for Inactive)
REMARK    1  A    between atoms: O1_1  and  C1_3 
REMARK    2  A    between atoms: C2_4  and  N1_5 
REMARK    3  A    between atoms: N1_5  and  C3_6 
REMARK    4  A    between atoms: N1_5  and  N3_16 
REMARK    5  A    between atoms: C3_6  and  C4_7 
REMARK    6  A    between atoms: C4_7  and  O2_8 
REMARK    7  A    between atoms: C4_7  and  N2_10 
REMARK    8  A    between atoms: N3_16  and  C9_18 
REMARK    9  A    between atoms: C9_18  and  O4_19 
REMARK   10  A    between atoms: C9_18  and  C10_21 
REMARK   11  A    between atoms: C12_23  and  C13_24 
REMARK   12  A    between atoms: N6_34  and  C17_35 
REMARK   13  A    between atoms: C17_35  and  C18_36 
ROOT
HETATM    1  N1  UNL     1      -6.817  28.773 -14.051  1.00  0.00    -0.271 N 
ENDROOT
BRANCH   1   2
HETATM    2  C2  UNL     1      -5.502  28.749 -13.574  1.00  0.00     0.175 A 
HETATM    3  C1  UNL     1      -5.119  29.262 -12.319  1.00  0.00     0.190 A 
HETATM    4  N6  UNL     1      -3.834  29.080 -12.080  1.00  0.00    -0.320 N 
HETATM    5  C16 UNL     1      -3.359  28.448 -13.172  1.00  0.00     0.186 A 
HETATM    6  N5  UNL     1      -4.350  28.253 -14.057  1.00  0.00    -0.334 N 
ATOM      7  H5  UNL     1      -4.244  27.795 -14.963  1.00  0.00     0.168 HD
BRANCH   3   8
HETATM    8  O1  UNL     1      -6.011  29.880 -11.457  1.00  0.00    -0.343 OA
ATOM      9  H1  UNL     1      -6.353  30.754 -11.609  1.00  0.00     0.219 HD
ENDBRANCH   3   8
BRANCH   4  10
HETATM   10  C17 UNL     1      -3.149  29.500 -10.890  1.00  0.00     0.136 C 
BRANCH  10  11
HETATM   11  C18 UNL     1      -2.166  30.631 -11.106  1.00  0.00     0.004 C 
HETATM   12  C19 UNL     1      -2.616  31.834 -10.340  1.00  0.00     0.006 C 
HETATM   13  C20 UNL     1      -1.479  32.703  -9.862  1.00  0.00     0.000 C 
HETATM   14  C21 UNL     1      -0.643  31.799  -8.951  1.00  0.00     0.000 C 
HETATM   15  C22 UNL     1       0.041  30.832  -9.854  1.00  0.00     0.000 C 
HETATM   16  C23 UNL     1      -0.771  30.210 -10.915  1.00  0.00     0.006 C 
ENDBRANCH  10  11
ENDBRANCH   4  10
ENDBRANCH   1   2
BRANCH   1  17
HETATM   17  C3  UNL     1      -7.270  27.468 -14.563  1.00  0.00     0.214 C 
BRANCH  17  18
HETATM   18  C4  UNL     1      -7.518  27.409 -16.011  1.00  0.00     0.376 C 
BRANCH  18  19
HETATM   19  O2  UNL     1      -8.175  28.510 -16.541  1.00  0.00    -0.366 OA
ATOM     20  H2  UNL     1      -8.404  28.439 -17.460  1.00  0.00     0.212 HD
ENDBRANCH  18  19
BRANCH  18  21
HETATM   21  N2  UNL     1      -6.392  27.076 -16.846  1.00  0.00     0.122 N 
HETATM   22  C5  UNL     1      -5.764  25.833 -16.467  1.00  0.00     0.302 C 
HETATM   23  C6  UNL     1      -6.557  24.634 -16.974  1.00  0.00     0.198 C 
HETATM   24  O3  UNL     1      -6.491  24.604 -18.343  1.00  0.00    -0.388 OA
HETATM   25  C7  UNL     1      -6.203  25.809 -18.951  1.00  0.00     0.198 C 
HETATM   26  C8  UNL     1      -6.882  26.930 -18.204  1.00  0.00     0.302 C 
ENDBRANCH  18  21
ENDBRANCH  17  18
ENDBRANCH   1  17
BRANCH   1  27
HETATM   27  N3  UNL     1      -7.631  29.823 -14.023  1.00  0.00    -0.298 N 
ATOM     28  H3  UNL     1      -8.607  29.639 -13.790  1.00  0.00     0.183 HD
BRANCH  27  29
HETATM   29  C9  UNL     1      -7.288  31.152 -14.281  1.00  0.00     0.285 C 
BRANCH  29  30
HETATM   30  O4  UNL     1      -7.736  31.363 -15.654  1.00  0.00    -0.370 OA
ATOM     31  H4  UNL     1      -8.186  30.556 -15.870  1.00  0.00     0.212 HD
ENDBRANCH  29  30
BRANCH  29  32
HETATM   32  C10 UNL     1      -8.047  32.200 -13.556  1.00  0.00     0.084 A 
HETATM   33  C11 UNL     1      -9.208  32.814 -14.046  1.00  0.00     0.067 A 
HETATM   34  C12 UNL     1      -9.667  33.746 -13.129  1.00  0.00     0.085 A 
HETATM   35  O5  UNL     1      -8.813  33.684 -12.143  1.00  0.00    -0.242 OA
HETATM   36  N4  UNL     1      -7.889  32.805 -12.380  1.00  0.00    -0.261 N 
ATOM     37  H4  UNL     1      -7.125  32.600 -11.736  1.00  0.00     0.194 HD
BRANCH  34  38
HETATM   38  C13 UNL     1     -10.863  34.618 -13.246  1.00  0.00     0.082 A 
HETATM   39  C14 UNL     1     -10.666  36.139 -13.109  1.00  0.00     0.052 A 
HETATM   40  C15 UNL     1     -10.984  35.532 -14.427  1.00  0.00     0.181 A 
HETATM   41  F1  UNL     1     -12.206  35.799 -14.971  1.00  0.00    -0.249 F 
ENDBRANCH  34  38
ENDBRANCH  29  32
ENDBRANCH  27  29
ENDBRANCH   1  27
TORSDOF 13
ENDMDL
MODEL 3
REMARK VINA RESULT: -8.550556651      2.167      6.888
REMARK  13 active torsions:
REMARK  status: ('A' for Active; 'I' for Inactive)
REMARK    1  A    between atoms: O1_1  and  C1_3 
REMARK    2  A    between atoms: C2_4  and  N1_5 
REMARK    3  A    between atoms: N1_5  and  C3_6 
REMARK    4  A    between atoms: N1_5  and  N3_16 
REMARK    5  A    between atoms: C3_6  and  C4_7 
REMARK    6  A    between atoms: C4_7  and  O2_8 
REMARK    7  A    between atoms: C4_7  and  N2_10 
REMARK    8  A    between atoms: N3_16  and  C9_18 
REMARK    9  A    between atoms: C9_18  and  O4_19 
REMARK   10  A    between atoms: C9_18  and  C10_21 
REMARK   11  A    between atoms: C12_23  and  C13_24 
REMARK   12  A    between atoms: N6_34  and  C17_35 
REMARK   13  A    between atoms: C17_35  and  C18_36 
ROOT
HETATM    1  N1  UNL     1      -7.604  29.286 -12.098  1.00  0.00    -0.271 N 
ENDROOT
BRANCH   1   2
HETATM    2  C2  UNL     1      -7.877  28.226 -12.969  1.00  0.00     0.175 A 
HETATM    3  C1  UNL     1      -7.424  28.177 -14.302  1.00  0.00     0.190 A 
HETATM    4  N6  UNL     1      -7.772  27.054 -14.903  1.00  0.00    -0.320 N 
HETATM    5  C16 UNL     1      -8.455  26.355 -13.975  1.00  0.00     0.186 A 
HETATM    6  N5  UNL     1      -8.516  27.052 -12.828  1.00  0.00    -0.334 N 
ATOM      7  H5  UNL     1      -8.980  26.737 -11.975  1.00  0.00     0.168 HD
BRANCH   3   8
HETATM    8  O1  UNL     1      -6.699  29.204 -14.887  1.00  0.00    -0.343 OA
ATOM      9  H1  UNL     1      -6.018  29.051 -15.531  1.00  0.00     0.219 HD
ENDBRANCH   3   8
BRANCH   4  10
HETATM   10  C17 UNL     1      -7.461  26.717 -16.264  1.00  0.00     0.136 C 
BRANCH  10  11
HETATM   11  C18 UNL     1      -7.002  25.287 -16.458  1.00  0.00     0.004 C 
HETATM   12  C19 UNL     1      -7.983  24.564 -17.326  1.00  0.00     0.006 C 
HETATM   13  C20 UNL     1      -7.356  23.484 -18.172  1.00  0.00     0.000 C 
HETATM   14  C21 UNL     1      -6.333  24.209 -19.051  1.00  0.00     0.000 C 
HETATM   15  C22 UNL     1      -5.220  24.601 -18.141  1.00  0.00     0.000 C 
HETATM   16  C23 UNL     1      -5.587  25.197 -16.844  1.00  0.00     0.006 C 
ENDBRANCH  10  11
ENDBRANCH   4  10
ENDBRANCH   1   2
BRANCH   1  17
HETATM   17  C3  UNL     1      -6.259  29.215 -11.503  1.00  0.00     0.214 C 
BRANCH  17  18
HETATM   18  C4  UNL     1      -5.381  30.362 -11.782  1.00  0.00     0.376 C 
BRANCH  18  19
HETATM   19  O2  UNL     1      -5.751  31.132 -12.874  1.00  0.00    -0.366 OA
ATOM     20  H2  UNL     1      -5.037  31.575 -13.316  1.00  0.00     0.212 HD
ENDBRANCH  18  19
BRANCH  18  21
HETATM   21  N2  UNL     1      -5.072  31.224 -10.670  1.00  0.00     0.122 N 
HETATM   22  C5  UNL     1      -4.786  30.494  -9.459  1.00  0.00     0.302 C 
HETATM   23  C6  UNL     1      -3.372  29.926  -9.476  1.00  0.00     0.198 C 
HETATM   24  O3  UNL     1      -2.476  30.963  -9.425  1.00  0.00    -0.388 OA
HETATM   25  C7  UNL     1      -2.956  32.185  -9.852  1.00  0.00     0.198 C 
HETATM   26  C8  UNL     1      -3.887  31.984 -11.021  1.00  0.00     0.302 C 
ENDBRANCH  18  21
ENDBRANCH  17  18
ENDBRANCH   1  17
BRANCH   1  27
HETATM   27  N3  UNL     1      -8.420  30.302 -11.837  1.00  0.00    -0.298 N 
ATOM     28  H3  UNL     1      -8.308  30.758 -10.931  1.00  0.00     0.183 HD
BRANCH  27  29
HETATM   29  C9  UNL     1      -9.414  30.810 -12.675  1.00  0.00     0.285 C 
BRANCH  29  30
HETATM   30  O4  UNL     1     -10.501  31.141 -11.760  1.00  0.00    -0.370 OA
ATOM     31  H4  UNL     1     -11.284  30.927 -12.254  1.00  0.00     0.212 HD
ENDBRANCH  29  30
BRANCH  29  32
HETATM   32  C10 UNL     1      -9.155  32.123 -13.315  1.00  0.00     0.084 A 
HETATM   33  C11 UNL     1     -10.038  33.212 -13.268  1.00  0.00     0.067 A 
HETATM   34  C12 UNL     1      -9.498  34.282 -13.963  1.00  0.00     0.085 A 
HETATM   35  O5  UNL     1      -8.349  33.843 -14.402  1.00  0.00    -0.242 OA
HETATM   36  N4  UNL     1      -8.148  32.615 -14.035  1.00  0.00    -0.261 N 
ATOM     37  H4  UNL     1      -7.310  32.084 -14.272  1.00  0.00     0.194 HD
BRANCH  34  38
HETATM   38  C13 UNL     1     -10.098  35.626 -14.162  1.00  0.00     0.082 A 
HETATM   39  C14 UNL     1     -11.602  35.707 -14.483  1.00  0.00     0.052 A 
HETATM   40  C15 UNL     1     -11.086  36.137 -13.159  1.00  0.00     0.181 A 
HETATM   41  F1  UNL     1     -11.139  37.467 -12.858  1.00  0.00    -0.249 F 
ENDBRANCH  34  38
ENDBRANCH  29  32
ENDBRANCH  27  29
ENDBRANCH   1  27
TORSDOF 13
ENDMDL
MODEL 4
REMARK VINA RESULT: -8.512143585      1.681      7.372
REMARK  13 active torsions:
REMARK  status: ('A' for Active; 'I' for Inactive)
REMARK    1  A    between atoms: O1_1  and  C1_3 
REMARK    2  A    between atoms: C2_4  and  N1_5 
REMARK    3  A    between atoms: N1_5  and  C3_6 
REMARK    4  A    between atoms: N1_5  and  N3_16 
REMARK    5  A    between atoms: C3_6  and  C4_7 
REMARK    6  A    between atoms: C4_7  and  O2_8 
REMARK    7  A    between atoms: C4_7  and  N2_10 
REMARK    8  A    between atoms: N3_16  and  C9_18 
REMARK    9  A    between atoms: C9_18  and  O4_19 
REMARK   10  A    between atoms: C9_18  and  C10_21 
REMARK   11  A    between atoms: C12_23  and  C13_24 
REMARK   12  A    between atoms: N6_34  and  C17_35 
REMARK   13  A    between atoms: C17_35  and  C18_36 
ROOT
HETATM    1  N1  UNL     1      -6.920  29.204 -13.391  1.00  0.00    -0.271 N 
ENDROOT
BRANCH   1   2
HETATM    2  C2  UNL     1      -7.439  28.010 -13.903  1.00  0.00     0.175 A 
HETATM    3  C1  UNL     1      -7.019  27.436 -15.119  1.00  0.00     0.190 A 
HETATM    4  N6  UNL     1      -7.624  26.289 -15.361  1.00  0.00    -0.320 N 
HETATM    5  C16 UNL     1      -8.447  26.096 -14.310  1.00  0.00     0.186 A 
HETATM    6  N5  UNL     1      -8.336  27.119 -13.447  1.00  0.00    -0.334 N 
ATOM      7  H5  UNL     1      -8.855  27.206 -12.573  1.00  0.00     0.168 HD
BRANCH   3   8
HETATM    8  O1  UNL     1      -6.077  28.031 -15.944  1.00  0.00    -0.343 OA
ATOM      9  H1  UNL     1      -6.313  28.577 -16.685  1.00  0.00     0.219 HD
ENDBRANCH   3   8
BRANCH   4  10
HETATM   10  C17 UNL     1      -7.410  25.472 -16.523  1.00  0.00     0.136 C 
BRANCH  10  11
HETATM   11  C18 UNL     1      -8.108  25.973 -17.769  1.00  0.00     0.004 C 
HETATM   12  C19 UNL     1      -7.120  26.068 -18.888  1.00  0.00     0.006 C 
HETATM   13  C20 UNL     1      -7.725  25.825 -20.249  1.00  0.00     0.000 C 
HETATM   14  C21 UNL     1      -8.290  24.404 -20.185  1.00  0.00     0.000 C 
HETATM   15  C22 UNL     1      -9.487  24.480 -19.302  1.00  0.00     0.000 C 
HETATM   16  C23 UNL     1      -9.353  25.245 -18.049  1.00  0.00     0.006 C 
ENDBRANCH  10  11
ENDBRANCH   4  10
ENDBRANCH   1   2
BRANCH   1  17
HETATM   17  C3  UNL     1      -5.756  28.999 -12.512  1.00  0.00     0.214 C 
BRANCH  17  18
HETATM   18  C4  UNL     1      -5.407  30.137 -11.648  1.00  0.00     0.376 C 
BRANCH  18  19
HETATM   19  O2  UNL     1      -6.470  30.693 -10.951  1.00  0.00    -0.366 OA
ATOM     20  H2  UNL     1      -6.231  31.168 -10.164  1.00  0.00     0.212 HD
ENDBRANCH  18  19
BRANCH  18  21
HETATM   21  N2  UNL     1      -4.293  29.951 -10.754  1.00  0.00     0.122 N 
HETATM   22  C5  UNL     1      -3.088  30.592 -11.221  1.00  0.00     0.302 C 
HETATM   23  C6  UNL     1      -3.118  32.092 -10.951  1.00  0.00     0.198 C 
HETATM   24  O3  UNL     1      -3.069  32.301  -9.597  1.00  0.00    -0.388 OA
HETATM   25  C7  UNL     1      -3.486  31.241  -8.816  1.00  0.00     0.198 C 
HETATM   26  C8  UNL     1      -4.649  30.548  -9.480  1.00  0.00     0.302 C 
ENDBRANCH  18  21
ENDBRANCH  17  18
ENDBRANCH   1  17
BRANCH   1  27
HETATM   27  N3  UNL     1      -7.362  30.425 -13.674  1.00  0.00    -0.298 N 
ATOM     28  H3  UNL     1      -6.665  31.105 -13.977  1.00  0.00     0.183 HD
BRANCH  27  29
HETATM   29  C9  UNL     1      -8.683  30.872 -13.600  1.00  0.00     0.285 C 
BRANCH  29  30
HETATM   30  O4  UNL     1      -9.037  30.671 -12.199  1.00  0.00    -0.370 OA
ATOM     31  H4  UNL     1      -8.716  31.457 -11.772  1.00  0.00     0.212 HD
ENDBRANCH  29  30
BRANCH  29  32
HETATM   32  C10 UNL     1      -8.915  32.328 -13.759  1.00  0.00     0.084 A 
HETATM   33  C11 UNL     1     -10.047  33.004 -13.280  1.00  0.00     0.067 A 
HETATM   34  C12 UNL     1      -9.955  34.350 -13.595  1.00  0.00     0.085 A 
HETATM   35  O5  UNL     1      -8.821  34.462 -14.232  1.00  0.00    -0.242 OA
HETATM   36  N4  UNL     1      -8.224  33.315 -14.328  1.00  0.00    -0.261 N 
ATOM     37  H4  UNL     1      -7.324  33.182 -14.789  1.00  0.00     0.194 HD
BRANCH  34  38
HETATM   38  C13 UNL     1     -10.932  35.422 -13.275  1.00  0.00     0.082 A 
HETATM   39  C14 UNL     1     -11.943  35.826 -14.364  1.00  0.00     0.052 A 
HETATM   40  C15 UNL     1     -12.384  35.072 -13.163  1.00  0.00     0.181 A 
HETATM   41  F1  UNL     1     -13.183  35.718 -12.265  1.00  0.00    -0.249 F 
ENDBRANCH  34  38
ENDBRANCH  29  32
ENDBRANCH  27  29
ENDBRANCH   1  27
TORSDOF 13
ENDMDL
MODEL 5
REMARK VINA RESULT: -8.472830305      3.830      7.419
REMARK  13 active torsions:
REMARK  status: ('A' for Active; 'I' for Inactive)
REMARK    1  A    between atoms: O1_1  and  C1_3 
REMARK    2  A    between atoms: C2_4  and  N1_5 
REMARK    3  A    between atoms: N1_5  and  C3_6 
REMARK    4  A    between atoms: N1_5  and  N3_16 
REMARK    5  A    between atoms: C3_6  and  C4_7 
REMARK    6  A    between atoms: C4_7  and  O2_8 
REMARK    7  A    between atoms: C4_7  and  N2_10 
REMARK    8  A    between atoms: N3_16  and  C9_18 
REMARK    9  A    between atoms: C9_18  and  O4_19 
REMARK   10  A    between atoms: C9_18  and  C10_21 
REMARK   11  A    between atoms: C12_23  and  C13_24 
REMARK   12  A    between atoms: N6_34  and  C17_35 
REMARK   13  A    between atoms: C17_35  and  C18_36 
ROOT
HETATM    1  N1  UNL     1      -8.171  29.167 -13.537  1.00  0.00    -0.271 N 
ENDROOT
BRANCH   1   2
HETATM    2  C2  UNL     1      -8.205  27.903 -14.136  1.00  0.00     0.175 A 
HETATM    3  C1  UNL     1      -7.515  27.585 -15.322  1.00  0.00     0.190 A 
HETATM    4  N6  UNL     1      -7.666  26.318 -15.660  1.00  0.00    -0.320 N 
HETATM    5  C16 UNL     1      -8.456  25.791 -14.702  1.00  0.00     0.186 A 
HETATM    6  N5  UNL     1      -8.775  26.733 -13.800  1.00  0.00    -0.334 N 
ATOM      7  H5  UNL     1      -9.362  26.583 -12.979  1.00  0.00     0.168 HD
BRANCH   3   8
HETATM    8  O1  UNL     1      -6.770  28.516 -16.030  1.00  0.00    -0.343 OA
ATOM      9  H1  UNL     1      -6.468  28.366 -16.918  1.00  0.00     0.219 HD
ENDBRANCH   3   8
BRANCH   4  10
HETATM   10  C17 UNL     1      -7.089  25.699 -16.820  1.00  0.00     0.136 C 
BRANCH  10  11
HETATM   11  C18 UNL     1      -8.021  24.751 -17.545  1.00  0.00     0.004 C 
HETATM   12  C19 UNL     1      -9.161  25.524 -18.129  1.00  0.00     0.006 C 
HETATM   13  C20 UNL     1      -9.704  24.925 -19.403  1.00  0.00     0.000 C 
HETATM   14  C21 UNL     1      -8.525  24.932 -20.380  1.00  0.00     0.000 C 
HETATM   15  C22 UNL     1      -7.588  23.880 -19.897  1.00  0.00     0.000 C 
HETATM   16  C23 UNL     1      -7.307  23.841 -18.451  1.00  0.00     0.006 C 
ENDBRANCH  10  11
ENDBRANCH   4  10
ENDBRANCH   1   2
BRANCH   1  17
HETATM   17  C3  UNL     1      -9.383  29.469 -12.756  1.00  0.00     0.214 C 
BRANCH  17  18
HETATM   18  C4  UNL     1      -9.205  29.496 -11.296  1.00  0.00     0.376 C 
BRANCH  18  19
HETATM   19  O2  UNL     1      -8.829  30.723 -10.772  1.00  0.00    -0.366 OA
ATOM     20  H2  UNL     1      -9.270  30.970  -9.967  1.00  0.00     0.212 HD
ENDBRANCH  18  19
BRANCH  18  21
HETATM   21  N2  UNL     1     -10.277  28.945 -10.506  1.00  0.00     0.122 N 
HETATM   22  C5  UNL     1     -11.198  29.951 -10.035  1.00  0.00     0.302 C 
HETATM   23  C6  UNL     1     -12.163  30.376 -11.136  1.00  0.00     0.198 C 
HETATM   24  O3  UNL     1     -12.988  29.323 -11.435  1.00  0.00    -0.388 OA
HETATM   25  C7  UNL     1     -12.503  28.074 -11.102  1.00  0.00     0.198 C 
HETATM   26  C8  UNL     1     -11.016  28.025 -11.349  1.00  0.00     0.302 C 
ENDBRANCH  18  21
ENDBRANCH  17  18
ENDBRANCH   1  17
BRANCH   1  27
HETATM   27  N3  UNL     1      -7.157  30.023 -13.594  1.00  0.00    -0.298 N 
ATOM     28  H3  UNL     1      -6.270  29.711 -13.197  1.00  0.00     0.183 HD
BRANCH  27  29
HETATM   29  C9  UNL     1      -7.180  31.308 -14.141  1.00  0.00     0.285 C 
BRANCH  29  30
HETATM   30  O4  UNL     1      -7.910  31.137 -15.393  1.00  0.00    -0.370 OA
ATOM     31  H4  UNL     1      -7.511  31.774 -15.974  1.00  0.00     0.212 HD
ENDBRANCH  29  30
BRANCH  29  32
HETATM   32  C10 UNL     1      -8.010  32.324 -13.450  1.00  0.00     0.084 A 
HETATM   33  C11 UNL     1      -9.163  32.906 -13.997  1.00  0.00     0.067 A 
HETATM   34  C12 UNL     1      -9.700  33.813 -13.098  1.00  0.00     0.085 A 
HETATM   35  O5  UNL     1      -8.899  33.769 -12.068  1.00  0.00    -0.242 OA
HETATM   36  N4  UNL     1      -7.935  32.923 -12.261  1.00  0.00    -0.261 N 
ATOM     37  H4  UNL     1      -7.200  32.736 -11.580  1.00  0.00     0.194 HD
BRANCH  34  38
HETATM   38  C13 UNL     1     -10.917  34.647 -13.272  1.00  0.00     0.082 A 
HETATM   39  C14 UNL     1     -10.781  36.170 -13.093  1.00  0.00     0.052 A 
HETATM   40  C15 UNL     1     -10.996  35.582 -14.439  1.00  0.00     0.181 A 
HETATM   41  F1  UNL     1     -12.191  35.821 -15.054  1.00  0.00    -0.249 F 
ENDBRANCH  34  38
ENDBRANCH  29  32
ENDBRANCH  27  29
ENDBRANCH   1  27
TORSDOF 13
ENDMDL
