MODEL 1
REMARK VINA RESULT: -8.870085867      0.000      0.000
REMARK  13 active torsions:
REMARK  status: ('A' for Active; 'I' for Inactive)
REMARK    1  A    between atoms: O1_2  and  C2_3 
REMARK    2  A    between atoms: C4_5  and  C5_6 
REMARK    3  A    between atoms: N1_7  and  N2_9 
REMARK       I    between atoms: N2_9  and  C6_11 
REMARK       I    between atoms: C6_11  and  N4_16 
REMARK    4  A    between atoms: N3_12  and  O2_14 
REMARK    5  A    between atoms: N4_16  and  N5_18 
REMARK    6  A    between atoms: N5_18  and  C7_19 
REMARK    7  A    between atoms: C7_19  and  C8_20 
REMARK    8  A    between atoms: C10_22  and  O3_23 
REMARK    9  A    between atoms: C12_25  and  O4_26 
REMARK   10  A    between atoms: C14_28  and  O5_29 
REMARK   11  A    between atoms: C18_34  and  O6_35 
REMARK   12  A    between atoms: O6_35  and  C19_36 
REMARK   13  A    between atoms: C21_39  and  O8_40 
ROOT
HETATM    1  N2  UNL     1     -10.425  28.282 -12.230  1.00  0.00    -0.129 N 
ATOM      2  H2  UNL     1     -10.780  28.432 -13.174  1.00  0.00     0.205 HD
HETATM    3  C6  UNL     1      -9.928  27.012 -11.868  1.00  0.00     0.741 C 
HETATM    4  N3  UNL     1     -10.009  26.593 -10.683  1.00  0.00    -0.095 N 
ATOM      5  H3  UNL     1     -10.440  27.179  -9.968  1.00  0.00     0.213 HD
HETATM    6  N4  UNL     1      -9.319  26.187 -12.882  1.00  0.00    -0.062 N 
ATOM      7  H4  UNL     1      -9.573  25.200 -12.907  1.00  0.00     0.221 HD
ENDROOT
BRANCH   1   8
HETATM    8  N1  UNL     1     -10.435  29.296 -11.348  1.00  0.00    -0.297 N 
HETATM    9  C5  UNL     1      -9.983  30.429 -11.167  1.00  0.00     0.119 C 
ATOM     10  H1  UNL     1     -11.022  29.040 -10.553  1.00  0.00     0.186 HD
BRANCH   9  11
HETATM   11  C4  UNL     1      -9.117  31.171 -12.034  1.00  0.00    -0.014 A 
HETATM   12  C3  UNL     1      -9.587  32.196 -12.815  1.00  0.00     0.052 A 
HETATM   13  C2  UNL     1      -8.712  32.888 -13.644  1.00  0.00     0.104 A 
HETATM   14  C21 UNL     1      -7.387  32.555 -13.688  1.00  0.00     0.133 A 
HETATM   15  C18 UNL     1      -6.872  31.520 -12.907  1.00  0.00     0.116 A 
HETATM   16  C17 UNL     1      -7.743  30.845 -12.095  1.00  0.00     0.053 A 
BRANCH  13  17
HETATM   17  O1  UNL     1      -9.201  33.907 -14.416  1.00  0.00    -0.353 OA
HETATM   18  C1  UNL     1     -10.134  34.812 -13.878  1.00  0.00     0.210 C 
ENDBRANCH  13  17
BRANCH  14  19
HETATM   19  O8  UNL     1      -6.473  33.216 -14.498  1.00  0.00    -0.356 OA
ATOM     20  H8  UNL     1      -5.541  33.231 -14.316  1.00  0.00     0.218 HD
ENDBRANCH  14  19
BRANCH  15  21
HETATM   21  O6  UNL     1      -5.531  31.164 -12.936  1.00  0.00    -0.276 OA
BRANCH  21  22
HETATM   22  C19 UNL     1      -4.603  31.950 -12.286  1.00  0.00     0.260 C 
HETATM   23  C20 UNL     1      -4.381  31.720 -10.834  1.00  0.00     0.126 C 
HETATM   24  O7  UNL     1      -3.994  32.818 -12.958  1.00  0.00    -0.265 OA
ENDBRANCH  21  22
ENDBRANCH  15  21
ENDBRANCH   9  11
ENDBRANCH   1   8
BRANCH   4  25
HETATM   25  O2  UNL     1      -9.522  25.356 -10.345  1.00  0.00    -0.276 OA
ATOM     26  H2  UNL     1      -9.728  24.969  -9.502  1.00  0.00     0.245 HD
ENDBRANCH   4  25
BRANCH   6  27
HETATM   27  N5  UNL     1      -8.470  26.616 -13.765  1.00  0.00    -0.323 NA
BRANCH  27  28
HETATM   28  C7  UNL     1      -7.917  26.835 -14.785  1.00  0.00     0.224 C 
BRANCH  28  29
HETATM   29  C8  UNL     1      -7.554  25.918 -15.867  1.00  0.00     0.039 A 
HETATM   30  C9  UNL     1      -8.570  25.313 -16.589  1.00  0.00     0.057 A 
HETATM   31  C10 UNL     1      -8.293  24.443 -17.610  1.00  0.00     0.105 A 
HETATM   32  C12 UNL     1      -7.001  24.128 -17.968  1.00  0.00     0.138 A 
HETATM   33  C14 UNL     1      -6.007  24.737 -17.240  1.00  0.00     0.144 A 
HETATM   34  C16 UNL     1      -6.260  25.629 -16.194  1.00  0.00     0.165 A 
HETATM   35  F1  UNL     1      -5.213  26.180 -15.541  1.00  0.00    -0.202 F 
BRANCH  31  36
HETATM   36  O3  UNL     1      -9.319  23.831 -18.339  1.00  0.00    -0.353 OA
HETATM   37  C11 UNL     1     -10.026  24.519 -19.362  1.00  0.00     0.210 C 
ENDBRANCH  31  36
BRANCH  32  38
HETATM   38  O4  UNL     1      -6.708  23.245 -19.003  1.00  0.00    -0.351 OA
HETATM   39  C13 UNL     1      -6.606  23.601 -20.347  1.00  0.00     0.210 C 
ENDBRANCH  32  38
BRANCH  33  40
HETATM   40  O5  UNL     1      -4.690  24.465 -17.547  1.00  0.00    -0.350 OA
HETATM   41  C15 UNL     1      -3.997  25.329 -18.402  1.00  0.00     0.210 C 
ENDBRANCH  33  40
ENDBRANCH  28  29
ENDBRANCH  27  28
ENDBRANCH   6  27
TORSDOF 13
ENDMDL
MODEL 2
REMARK VINA RESULT: -8.759019686      0.763      2.663
REMARK  13 active torsions:
REMARK  status: ('A' for Active; 'I' for Inactive)
REMARK    1  A    between atoms: O1_2  and  C2_3 
REMARK    2  A    between atoms: C4_5  and  C5_6 
REMARK    3  A    between atoms: N1_7  and  N2_9 
REMARK       I    between atoms: N2_9  and  C6_11 
REMARK       I    between atoms: C6_11  and  N4_16 
REMARK    4  A    between atoms: N3_12  and  O2_14 
REMARK    5  A    between atoms: N4_16  and  N5_18 
REMARK    6  A    between atoms: N5_18  and  C7_19 
REMARK    7  A    between atoms: C7_19  and  C8_20 
REMARK    8  A    between atoms: C10_22  and  O3_23 
REMARK    9  A    between atoms: C12_25  and  O4_26 
REMARK   10  A    between atoms: C14_28  and  O5_29 
REMARK   11  A    between atoms: C18_34  and  O6_35 
REMARK   12  A    between atoms: O6_35  and  C19_36 
REMARK   13  A    between atoms: C21_39  and  O8_40 
ROOT
HETATM    1  N2  UNL     1     -10.620  28.066 -12.076  1.00  0.00    -0.129 N 
ATOM      2  H2  UNL     1     -10.987  28.154 -13.023  1.00  0.00     0.205 HD
HETATM    3  C6  UNL     1      -9.996  26.864 -11.680  1.00  0.00     0.741 C 
HETATM    4  N3  UNL     1     -10.035  26.471 -10.484  1.00  0.00    -0.095 N 
ATOM      5  H3  UNL     1     -10.526  27.028  -9.785  1.00  0.00     0.213 HD
HETATM    6  N4  UNL     1      -9.303  26.079 -12.672  1.00  0.00    -0.062 N 
ATOM      7  H4  UNL     1      -9.454  25.071 -12.670  1.00  0.00     0.221 HD
ENDROOT
BRANCH   1   8
HETATM    8  N1  UNL     1     -10.737  29.097 -11.222  1.00  0.00    -0.297 N 
HETATM    9  C5  UNL     1     -10.315  30.237 -11.013  1.00  0.00     0.119 C 
ATOM     10  H1  UNL     1     -11.409  28.852 -10.494  1.00  0.00     0.186 HD
BRANCH   9  11
HETATM   11  C4  UNL     1      -9.360  30.969 -11.791  1.00  0.00    -0.014 A 
HETATM   12  C3  UNL     1      -8.010  30.821 -11.599  1.00  0.00     0.052 A 
HETATM   13  C2  UNL     1      -7.119  31.554 -12.374  1.00  0.00     0.104 A 
HETATM   14  C21 UNL     1      -7.577  32.421 -13.327  1.00  0.00     0.133 A 
HETATM   15  C18 UNL     1      -8.943  32.597 -13.552  1.00  0.00     0.116 A 
HETATM   16  C17 UNL     1      -9.811  31.870 -12.783  1.00  0.00     0.053 A 
BRANCH  13  17
HETATM   17  O1  UNL     1      -5.776  31.393 -12.165  1.00  0.00    -0.353 OA
HETATM   18  C1  UNL     1      -5.174  30.142 -12.395  1.00  0.00     0.210 C 
ENDBRANCH  13  17
BRANCH  14  19
HETATM   19  O8  UNL     1      -6.728  33.174 -14.127  1.00  0.00    -0.356 OA
ATOM     20  H8  UNL     1      -5.782  33.139 -14.048  1.00  0.00     0.218 HD
ENDBRANCH  14  19
BRANCH  15  21
HETATM   21  O6  UNL     1      -9.431  33.470 -14.513  1.00  0.00    -0.276 OA
BRANCH  21  22
HETATM   22  C19 UNL     1      -9.520  34.817 -14.229  1.00  0.00     0.260 C 
HETATM   23  C20 UNL     1     -10.669  35.287 -13.410  1.00  0.00     0.126 C 
HETATM   24  O7  UNL     1      -8.624  35.573 -14.677  1.00  0.00    -0.265 OA
ENDBRANCH  21  22
ENDBRANCH  15  21
ENDBRANCH   9  11
ENDBRANCH   1   8
BRANCH   4  25
HETATM   25  O2  UNL     1      -9.424  25.301 -10.113  1.00  0.00    -0.276 OA
ATOM     26  H2  UNL     1      -8.632  25.010 -10.549  1.00  0.00     0.245 HD
ENDBRANCH   4  25
BRANCH   6  27
HETATM   27  N5  UNL     1      -8.501  26.570 -13.567  1.00  0.00    -0.323 NA
BRANCH  27  28
HETATM   28  C7  UNL     1      -8.011  26.874 -14.597  1.00  0.00     0.224 C 
BRANCH  28  29
HETATM   29  C8  UNL     1      -7.538  26.027 -15.694  1.00  0.00     0.039 A 
HETATM   30  C9  UNL     1      -8.475  25.347 -16.454  1.00  0.00     0.057 A 
HETATM   31  C10 UNL     1      -8.093  24.536 -17.490  1.00  0.00     0.105 A 
HETATM   32  C12 UNL     1      -6.769  24.358 -17.826  1.00  0.00     0.138 A 
HETATM   33  C14 UNL     1      -5.855  25.042 -17.060  1.00  0.00     0.144 A 
HETATM   34  C16 UNL     1      -6.215  25.876 -15.998  1.00  0.00     0.165 A 
HETATM   35  F1  UNL     1      -5.242  26.508 -15.308  1.00  0.00    -0.202 F 
BRANCH  31  36
HETATM   36  O3  UNL     1      -9.038  23.847 -18.258  1.00  0.00    -0.353 OA
HETATM   37  C11 UNL     1      -9.916  24.521 -19.150  1.00  0.00     0.210 C 
ENDBRANCH  31  36
BRANCH  32  38
HETATM   38  O4  UNL     1      -6.369  23.538 -18.876  1.00  0.00    -0.351 OA
HETATM   39  C13 UNL     1      -6.419  23.890 -20.225  1.00  0.00     0.210 C 
ENDBRANCH  32  38
BRANCH  33  40
HETATM   40  O5  UNL     1      -4.511  24.909 -17.344  1.00  0.00    -0.350 OA
HETATM   41  C15 UNL     1      -3.922  25.770 -18.275  1.00  0.00     0.210 C 
ENDBRANCH  33  40
ENDBRANCH  28  29
ENDBRANCH  27  28
ENDBRANCH   6  27
TORSDOF 13
ENDMDL
MODEL 3
REMARK VINA RESULT: -8.634148449      1.356      1.595
REMARK  13 active torsions:
REMARK  status: ('A' for Active; 'I' for Inactive)
REMARK    1  A    between atoms: O1_2  and  C2_3 
REMARK    2  A    between atoms: C4_5  and  C5_6 
REMARK    3  A    between atoms: N1_7  and  N2_9 
REMARK       I    between atoms: N2_9  and  C6_11 
REMARK       I    between atoms: C6_11  and  N4_16 
REMARK    4  A    between atoms: N3_12  and  O2_14 
REMARK    5  A    between atoms: N4_16  and  N5_18 
REMARK    6  A    between atoms: N5_18  and  C7_19 
REMARK    7  A    between atoms: C7_19  and  C8_20 
REMARK    8  A    between atoms: C10_22  and  O3_23 
REMARK    9  A    between atoms: C12_25  and  O4_26 
REMARK   10  A    between atoms: C14_28  and  O5_29 
REMARK   11  A    between atoms: C18_34  and  O6_35 
REMARK   12  A    between atoms: O6_35  and  C19_36 
REMARK   13  A    between atoms: C21_39  and  O8_40 
ROOT
HETATM    1  N2  UNL     1     -10.913  28.162 -12.132  1.00  0.00    -0.129 N 
ATOM      2  H2  UNL     1     -11.338  27.675 -12.920  1.00  0.00     0.205 HD
HETATM    3  C6  UNL     1      -9.774  27.612 -11.506  1.00  0.00     0.741 C 
HETATM    4  N3  UNL     1      -9.547  27.800 -10.282  1.00  0.00    -0.095 N 
ATOM      5  H3  UNL     1     -10.195  28.359  -9.728  1.00  0.00     0.213 HD
HETATM    6  N4  UNL     1      -8.860  26.823 -12.294  1.00  0.00    -0.062 N 
ATOM      7  H4  UNL     1      -8.519  25.949 -11.894  1.00  0.00     0.221 HD
ENDROOT
BRANCH   1   8
HETATM    8  N1  UNL     1     -11.444  29.320 -11.704  1.00  0.00    -0.297 N 
HETATM    9  C5  UNL     1     -11.226  30.533 -11.667  1.00  0.00     0.119 C 
ATOM     10  H1  UNL     1     -12.340  29.129 -11.254  1.00  0.00     0.186 HD
BRANCH   9  11
HETATM   11  C4  UNL     1     -10.086  31.230 -12.185  1.00  0.00    -0.014 A 
HETATM   12  C3  UNL     1     -10.219  32.269 -13.070  1.00  0.00     0.052 A 
HETATM   13  C2  UNL     1      -9.085  32.916 -13.549  1.00  0.00     0.104 A 
HETATM   14  C21 UNL     1      -7.839  32.524 -13.145  1.00  0.00     0.133 A 
HETATM   15  C18 UNL     1      -7.665  31.472 -12.246  1.00  0.00     0.116 A 
HETATM   16  C17 UNL     1      -8.787  30.843 -11.781  1.00  0.00     0.053 A 
BRANCH  13  17
HETATM   17  O1  UNL     1      -9.239  33.950 -14.433  1.00  0.00    -0.353 OA
HETATM   18  C1  UNL     1     -10.067  35.039 -14.103  1.00  0.00     0.210 C 
ENDBRANCH  13  17
BRANCH  14  19
HETATM   19  O8  UNL     1      -6.677  33.138 -13.594  1.00  0.00    -0.356 OA
ATOM     20  H8  UNL     1      -5.949  32.652 -13.964  1.00  0.00     0.218 HD
ENDBRANCH  14  19
BRANCH  15  21
HETATM   21  O6  UNL     1      -6.410  31.057 -11.823  1.00  0.00    -0.276 OA
BRANCH  21  22
HETATM   22  C19 UNL     1      -6.063  29.726 -11.918  1.00  0.00     0.260 C 
HETATM   23  C20 UNL     1      -5.031  29.340 -12.917  1.00  0.00     0.126 C 
HETATM   24  O7  UNL     1      -6.637  28.912 -11.155  1.00  0.00    -0.265 OA
ENDBRANCH  21  22
ENDBRANCH  15  21
ENDBRANCH   9  11
ENDBRANCH   1   8
BRANCH   4  25
HETATM   25  O2  UNL     1      -8.436  27.260  -9.687  1.00  0.00    -0.276 OA
ATOM     26  H2  UNL     1      -7.588  27.678  -9.778  1.00  0.00     0.245 HD
ENDBRANCH   4  25
BRANCH   6  27
HETATM   27  N5  UNL     1      -8.441  27.149 -13.479  1.00  0.00    -0.323 NA
BRANCH  27  28
HETATM   28  C7  UNL     1      -7.752  27.343 -14.418  1.00  0.00     0.224 C 
BRANCH  28  29
HETATM   29  C8  UNL     1      -7.268  26.405 -15.433  1.00  0.00     0.039 A 
HETATM   30  C9  UNL     1      -8.127  25.415 -15.880  1.00  0.00     0.057 A 
HETATM   31  C10 UNL     1      -7.730  24.506 -16.825  1.00  0.00     0.105 A 
HETATM   32  C12 UNL     1      -6.466  24.529 -17.372  1.00  0.00     0.138 A 
HETATM   33  C14 UNL     1      -5.629  25.518 -16.915  1.00  0.00     0.144 A 
HETATM   34  C16 UNL     1      -6.006  26.460 -15.953  1.00  0.00     0.165 A 
HETATM   35  F1  UNL     1      -5.111  27.396 -15.572  1.00  0.00    -0.202 F 
BRANCH  31  36
HETATM   36  O3  UNL     1      -8.597  23.505 -17.278  1.00  0.00    -0.353 OA
HETATM   37  C11 UNL     1      -8.959  22.399 -16.462  1.00  0.00     0.210 C 
ENDBRANCH  31  36
BRANCH  32  38
HETATM   38  O4  UNL     1      -6.051  23.611 -18.332  1.00  0.00    -0.351 OA
HETATM   39  C13 UNL     1      -6.381  23.671 -19.686  1.00  0.00     0.210 C 
ENDBRANCH  32  38
BRANCH  33  40
HETATM   40  O5  UNL     1      -4.348  25.599 -17.423  1.00  0.00    -0.350 OA
HETATM   41  C15 UNL     1      -4.099  26.433 -18.517  1.00  0.00     0.210 C 
ENDBRANCH  33  40
ENDBRANCH  28  29
ENDBRANCH  27  28
ENDBRANCH   6  27
TORSDOF 13
ENDMDL
MODEL 4
REMARK VINA RESULT: -8.553053993      1.903      3.831
REMARK  13 active torsions:
REMARK  status: ('A' for Active; 'I' for Inactive)
REMARK    1  A    between atoms: O1_2  and  C2_3 
REMARK    2  A    between atoms: C4_5  and  C5_6 
REMARK    3  A    between atoms: N1_7  and  N2_9 
REMARK       I    between atoms: N2_9  and  C6_11 
REMARK       I    between atoms: C6_11  and  N4_16 
REMARK    4  A    between atoms: N3_12  and  O2_14 
REMARK    5  A    between atoms: N4_16  and  N5_18 
REMARK    6  A    between atoms: N5_18  and  C7_19 
REMARK    7  A    between atoms: C7_19  and  C8_20 
REMARK    8  A    between atoms: C10_22  and  O3_23 
REMARK    9  A    between atoms: C12_25  and  O4_26 
REMARK   10  A    between atoms: C14_28  and  O5_29 
REMARK   11  A    between atoms: C18_34  and  O6_35 
REMARK   12  A    between atoms: O6_35  and  C19_36 
REMARK   13  A    between atoms: C21_39  and  O8_40 
ROOT
HETATM    1  N2  UNL     1      -8.748  27.723 -11.162  1.00  0.00    -0.129 N 
ATOM      2  H2  UNL     1      -9.164  28.195 -11.965  1.00  0.00     0.205 HD
HETATM    3  C6  UNL     1      -9.301  26.508 -10.706  1.00  0.00     0.741 C 
HETATM    4  N3  UNL     1      -9.245  26.181  -9.491  1.00  0.00    -0.095 N 
ATOM      5  H3  UNL     1      -8.793  26.803  -8.821  1.00  0.00     0.213 HD
HETATM    6  N4  UNL     1      -9.940  25.632 -11.657  1.00  0.00    -0.062 N 
ATOM      7  H4  UNL     1     -10.833  25.217 -11.395  1.00  0.00     0.221 HD
ENDROOT
BRANCH   1   8
HETATM    8  N1  UNL     1      -7.680  28.268 -10.554  1.00  0.00    -0.297 N 
HETATM    9  C5  UNL     1      -6.950  29.261 -10.582  1.00  0.00     0.119 C 
ATOM     10  H1  UNL     1      -7.366  27.644  -9.811  1.00  0.00     0.186 HD
BRANCH   9  11
HETATM   11  C4  UNL     1      -7.037  30.383 -11.468  1.00  0.00    -0.014 A 
HETATM   12  C3  UNL     1      -5.958  31.194 -11.711  1.00  0.00     0.052 A 
HETATM   13  C2  UNL     1      -6.089  32.275 -12.576  1.00  0.00     0.104 A 
HETATM   14  C21 UNL     1      -7.284  32.535 -13.187  1.00  0.00     0.133 A 
HETATM   15  C18 UNL     1      -8.402  31.731 -12.966  1.00  0.00     0.116 A 
HETATM   16  C17 UNL     1      -8.262  30.671 -12.113  1.00  0.00     0.053 A 
BRANCH  13  17
HETATM   17  O1  UNL     1      -5.000  33.073 -12.803  1.00  0.00    -0.353 OA
HETATM   18  C1  UNL     1      -3.706  32.589 -12.542  1.00  0.00     0.210 C 
ENDBRANCH  13  17
BRANCH  14  19
HETATM   19  O8  UNL     1      -7.464  33.600 -14.059  1.00  0.00    -0.356 OA
ATOM     20  H8  UNL     1      -8.182  33.640 -14.681  1.00  0.00     0.218 HD
ENDBRANCH  14  19
BRANCH  15  21
HETATM   21  O6  UNL     1      -9.625  31.976 -13.575  1.00  0.00    -0.276 OA
BRANCH  21  22
HETATM   22  C19 UNL     1     -10.512  32.858 -12.995  1.00  0.00     0.260 C 
HETATM   23  C20 UNL     1     -11.794  32.319 -12.467  1.00  0.00     0.126 C 
HETATM   24  O7  UNL     1     -10.188  34.069 -12.944  1.00  0.00    -0.265 OA
ENDBRANCH  21  22
ENDBRANCH  15  21
ENDBRANCH   9  11
ENDBRANCH   1   8
BRANCH   4  25
HETATM   25  O2  UNL     1      -9.787  24.997  -9.061  1.00  0.00    -0.276 OA
ATOM     26  H2  UNL     1      -9.862  24.257  -9.651  1.00  0.00     0.245 HD
ENDBRANCH   4  25
BRANCH   6  27
HETATM   27  N5  UNL     1      -9.454  25.338 -12.824  1.00  0.00    -0.323 NA
BRANCH  27  28
HETATM   28  C7  UNL     1      -9.349  24.984 -13.946  1.00  0.00     0.224 C 
BRANCH  28  29
HETATM   29  C8  UNL     1      -8.494  25.504 -15.015  1.00  0.00     0.039 A 
HETATM   30  C9  UNL     1      -7.663  26.576 -14.732  1.00  0.00     0.057 A 
HETATM   31  C10 UNL     1      -6.844  27.109 -15.692  1.00  0.00     0.105 A 
HETATM   32  C12 UNL     1      -6.804  26.609 -16.975  1.00  0.00     0.138 A 
HETATM   33  C14 UNL     1      -7.636  25.547 -17.235  1.00  0.00     0.144 A 
HETATM   34  C16 UNL     1      -8.482  24.982 -16.277  1.00  0.00     0.165 A 
HETATM   35  F1  UNL     1      -9.259  23.936 -16.630  1.00  0.00    -0.202 F 
BRANCH  31  36
HETATM   36  O3  UNL     1      -6.004  28.191 -15.408  1.00  0.00    -0.353 OA
HETATM   37  C11 UNL     1      -5.472  28.409 -14.109  1.00  0.00     0.210 C 
ENDBRANCH  31  36
BRANCH  32  38
HETATM   38  O4  UNL     1      -5.976  27.143 -17.958  1.00  0.00    -0.351 OA
HETATM   39  C13 UNL     1      -4.648  26.772 -18.166  1.00  0.00     0.210 C 
ENDBRANCH  32  38
BRANCH  33  40
HETATM   40  O5  UNL     1      -7.645  24.998 -18.502  1.00  0.00    -0.350 OA
HETATM   41  C15 UNL     1      -6.874  23.860 -18.758  1.00  0.00     0.210 C 
ENDBRANCH  33  40
ENDBRANCH  28  29
ENDBRANCH  27  28
ENDBRANCH   6  27
TORSDOF 13
ENDMDL
MODEL 5
REMARK VINA RESULT: -8.501533571      2.122      3.636
REMARK  13 active torsions:
REMARK  status: ('A' for Active; 'I' for Inactive)
REMARK    1  A    between atoms: O1_2  and  C2_3 
REMARK    2  A    between atoms: C4_5  and  C5_6 
REMARK    3  A    between atoms: N1_7  and  N2_9 
REMARK       I    between atoms: N2_9  and  C6_11 
REMARK       I    between atoms: C6_11  and  N4_16 
REMARK    4  A    between atoms: N3_12  and  O2_14 
REMARK    5  A    between atoms: N4_16  and  N5_18 
REMARK    6  A    between atoms: N5_18  and  C7_19 
REMARK    7  A    between atoms: C7_19  and  C8_20 
REMARK    8  A    between atoms: C10_22  and  O3_23 
REMARK    9  A    between atoms: C12_25  and  O4_26 
REMARK   10  A    between atoms: C14_28  and  O5_29 
REMARK   11  A    between atoms: C18_34  and  O6_35 
REMARK   12  A    between atoms: O6_35  and  C19_36 
REMARK   13  A    between atoms: C21_39  and  O8_40 
ROOT
HETATM    1  N2  UNL     1     -11.059  28.551 -11.510  1.00  0.00    -0.129 N 
ATOM      2  H2  UNL     1     -10.785  28.630 -12.489  1.00  0.00     0.205 HD
HETATM    3  C6  UNL     1     -11.879  27.479 -11.101  1.00  0.00     0.741 C 
HETATM    4  N3  UNL     1     -12.681  27.600 -10.138  1.00  0.00    -0.095 N 
ATOM      5  H3  UNL     1     -12.743  28.489  -9.641  1.00  0.00     0.213 HD
HETATM    6  N4  UNL     1     -11.788  26.224 -11.807  1.00  0.00    -0.062 N 
ATOM      7  H4  UNL     1     -12.659  25.753 -12.053  1.00  0.00     0.221 HD
ENDROOT
BRANCH   1   8
HETATM    8  N1  UNL     1     -10.632  29.470 -10.626  1.00  0.00    -0.297 N 
HETATM    9  C5  UNL     1      -9.869  30.433 -10.520  1.00  0.00     0.119 C 
ATOM     10  H1  UNL     1     -11.104  29.319  -9.735  1.00  0.00     0.186 HD
BRANCH   9  11
HETATM   11  C4  UNL     1      -9.017  30.986 -11.531  1.00  0.00    -0.014 A 
HETATM   12  C3  UNL     1      -7.677  30.700 -11.578  1.00  0.00     0.052 A 
HETATM   13  C2  UNL     1      -6.887  31.262 -12.574  1.00  0.00     0.104 A 
HETATM   14  C21 UNL     1      -7.435  32.097 -13.508  1.00  0.00     0.133 A 
HETATM   15  C18 UNL     1      -8.795  32.409 -13.493  1.00  0.00     0.116 A 
HETATM   16  C17 UNL     1      -9.562  31.851 -12.507  1.00  0.00     0.053 A 
BRANCH  13  17
HETATM   17  O1  UNL     1      -5.551  30.965 -12.602  1.00  0.00    -0.353 OA
HETATM   18  C1  UNL     1      -5.129  29.643 -12.835  1.00  0.00     0.210 C 
ENDBRANCH  13  17
BRANCH  14  19
HETATM   19  O8  UNL     1      -6.689  32.681 -14.523  1.00  0.00    -0.356 OA
ATOM     20  H8  UNL     1      -6.134  33.439 -14.381  1.00  0.00     0.218 HD
ENDBRANCH  14  19
BRANCH  15  21
HETATM   21  O6  UNL     1      -9.373  33.254 -14.430  1.00  0.00    -0.276 OA
BRANCH  21  22
HETATM   22  C19 UNL     1      -9.421  34.610 -14.188  1.00  0.00     0.260 C 
HETATM   23  C20 UNL     1     -10.586  35.148 -13.435  1.00  0.00     0.126 C 
HETATM   24  O7  UNL     1      -8.478  35.318 -14.616  1.00  0.00    -0.265 OA
ENDBRANCH  21  22
ENDBRANCH  15  21
ENDBRANCH   9  11
ENDBRANCH   1   8
BRANCH   4  25
HETATM   25  O2  UNL     1     -13.473  26.550  -9.752  1.00  0.00    -0.276 OA
ATOM     26  H2  UNL     1     -14.418  26.638  -9.734  1.00  0.00     0.245 HD
ENDBRANCH   4  25
BRANCH   6  27
HETATM   27  N5  UNL     1     -10.674  25.654 -12.150  1.00  0.00    -0.323 NA
BRANCH  27  28
HETATM   28  C7  UNL     1      -9.558  25.472 -12.489  1.00  0.00     0.224 C 
BRANCH  28  29
HETATM   29  C8  UNL     1      -8.918  25.733 -13.781  1.00  0.00     0.039 A 
HETATM   30  C9  UNL     1      -9.002  24.763 -14.766  1.00  0.00     0.057 A 
HETATM   31  C10 UNL     1      -8.420  24.948 -15.993  1.00  0.00     0.105 A 
HETATM   32  C12 UNL     1      -7.729  26.098 -16.306  1.00  0.00     0.138 A 
HETATM   33  C14 UNL     1      -7.658  27.047 -15.315  1.00  0.00     0.144 A 
HETATM   34  C16 UNL     1      -8.241  26.887 -14.055  1.00  0.00     0.165 A 
HETATM   35  F1  UNL     1      -8.119  27.881 -13.150  1.00  0.00    -0.202 F 
BRANCH  31  36
HETATM   36  O3  UNL     1      -8.503  23.969 -16.989  1.00  0.00    -0.353 OA
HETATM   37  C11 UNL     1      -8.783  22.609 -16.685  1.00  0.00     0.210 C 
ENDBRANCH  31  36
BRANCH  32  38
HETATM   38  O4  UNL     1      -7.135  26.296 -17.548  1.00  0.00    -0.351 OA
HETATM   39  C13 UNL     1      -7.788  26.805 -18.671  1.00  0.00     0.210 C 
ENDBRANCH  32  38
BRANCH  33  40
HETATM   40  O5  UNL     1      -6.980  28.224 -15.563  1.00  0.00    -0.350 OA
HETATM   41  C15 UNL     1      -7.709  29.397 -15.785  1.00  0.00     0.210 C 
ENDBRANCH  33  40
ENDBRANCH  28  29
ENDBRANCH  27  28
ENDBRANCH   6  27
TORSDOF 13
ENDMDL
