MODEL 1
REMARK VINA RESULT: -7.004561993      0.000      0.000
REMARK  11 active torsions:
REMARK  status: ('A' for Active; 'I' for Inactive)
REMARK    1  A    between atoms: S1_2  and  C2_3 
REMARK    2  A    between atoms: C2_3  and  C3_4 
REMARK    3  A    between atoms: C3_4  and  C4_6 
REMARK    4  A    between atoms: C6_11  and  C7_12 
REMARK    5  A    between atoms: N3_13  and  C8_15 
REMARK    6  A    between atoms: C8_15  and  C9_16 
REMARK    7  A    between atoms: C8_15  and  C15_28 
REMARK    8  A    between atoms: C9_16  and  C10_17 
REMARK    9  A    between atoms: C10_17  and  C11_18 
REMARK   10  A    between atoms: C14_25  and  O2_26 
REMARK   11  A    between atoms: C16_31  and  O5_32 
ROOT
HETATM    1  C7  UNL     1     -16.554  -7.823  11.633  1.00  0.00     0.118 C 
HETATM    2  N3  UNL     1     -15.986  -7.679  10.520  1.00  0.00    -0.383 N 
ATOM      3  H3  UNL     1     -16.523  -8.032   9.727  1.00  0.00     0.159 HD
ENDROOT
BRANCH   2   4
HETATM    4  C8  UNL     1     -14.737  -7.115  10.173  1.00  0.00     0.183 C 
BRANCH   4   5
HETATM    5  C9  UNL     1     -13.771  -8.104   9.583  1.00  0.00     0.042 C 
BRANCH   5   6
HETATM    6  C10 UNL     1     -14.462  -9.348   9.112  1.00  0.00     0.064 C 
BRANCH   6   7
HETATM    7  C11 UNL     1     -14.532  -9.296   7.609  1.00  0.00     0.063 A 
HETATM    8  N4  UNL     1     -13.621  -9.753   6.733  1.00  0.00    -0.333 N 
HETATM    9  C12 UNL     1     -14.060  -9.514   5.497  1.00  0.00     0.180 A 
ATOM     10  H4  UNL     1     -12.739 -10.206   6.974  1.00  0.00     0.168 HD
HETATM   11  S2  UNL     1     -13.325  -9.875   4.087  1.00  0.00    -0.040 SA
HETATM   12  N5  UNL     1     -15.260  -8.901   5.574  1.00  0.00    -0.307 N 
HETATM   13  C13 UNL     1     -16.073  -8.472   4.439  1.00  0.00     0.161 C 
HETATM   14  C14 UNL     1     -15.554  -8.766   6.867  1.00  0.00     0.167 A 
BRANCH  14  15
HETATM   15  O2  UNL     1     -16.691  -8.189   7.433  1.00  0.00    -0.344 OA
ATOM     16  H2  UNL     1     -17.107  -7.409   7.085  1.00  0.00     0.219 HD
ENDBRANCH  14  15
ENDBRANCH   6   7
ENDBRANCH   5   6
ENDBRANCH   4   5
BRANCH   4  17
HETATM   17  C15 UNL     1     -14.872  -5.918   9.317  1.00  0.00     0.196 C 
HETATM   18  O3  UNL     1     -15.376  -4.851   9.774  1.00  0.00    -0.646 OA
HETATM   19  O4  UNL     1     -14.460  -5.913   7.997  1.00  0.00    -0.646 OA
ENDBRANCH   4  17
ENDBRANCH   2   4
BRANCH   1  20
HETATM   20  C6  UNL     1     -17.858  -8.436  11.794  1.00  0.00     0.101 A 
HETATM   21  N2  UNL     1     -18.646  -8.419  12.910  1.00  0.00    -0.292 N 
HETATM   22  N1  UNL     1     -19.760  -9.083  12.664  1.00  0.00    -0.292 N 
HETATM   23  C5  UNL     1     -18.226  -7.745  14.126  1.00  0.00     0.178 C 
HETATM   24  C4  UNL     1     -19.765  -9.558  11.409  1.00  0.00     0.130 A 
ATOM     25  H1  UNL     1     -20.514  -9.216  13.337  1.00  0.00     0.187 HD
HETATM   26  C16 UNL     1     -18.544  -9.143  10.849  1.00  0.00     0.127 A 
BRANCH  24  27
HETATM   27  C3  UNL     1     -20.789 -10.339  10.729  1.00  0.00     0.189 C 
HETATM   28  O1  UNL     1     -20.803 -10.398   9.476  1.00  0.00    -0.290 OA
BRANCH  27  29
HETATM   29  C2  UNL     1     -21.835 -11.080  11.466  1.00  0.00     0.159 C 
BRANCH  29  30
HETATM   30  S1  UNL     1     -22.059 -12.756  10.812  1.00  0.00    -0.166 SA
HETATM   31  C1  UNL     1     -22.631 -13.881  12.111  1.00  0.00     0.090 C 
ENDBRANCH  29  30
ENDBRANCH  27  29
ENDBRANCH  24  27
BRANCH  26  32
HETATM   32  O5  UNL     1     -18.195  -9.452   9.555  1.00  0.00    -0.356 OA
ATOM     33  H5  UNL     1     -18.574  -8.999   8.810  1.00  0.00     0.218 HD
ENDBRANCH  26  32
ENDBRANCH   1  20
TORSDOF 11
ENDMDL
MODEL 2
REMARK VINA RESULT: -6.973004804      3.958      7.884
REMARK  11 active torsions:
REMARK  status: ('A' for Active; 'I' for Inactive)
REMARK    1  A    between atoms: S1_2  and  C2_3 
REMARK    2  A    between atoms: C2_3  and  C3_4 
REMARK    3  A    between atoms: C3_4  and  C4_6 
REMARK    4  A    between atoms: C6_11  and  C7_12 
REMARK    5  A    between atoms: N3_13  and  C8_15 
REMARK    6  A    between atoms: C8_15  and  C9_16 
REMARK    7  A    between atoms: C8_15  and  C15_28 
REMARK    8  A    between atoms: C9_16  and  C10_17 
REMARK    9  A    between atoms: C10_17  and  C11_18 
REMARK   10  A    between atoms: C14_25  and  O2_26 
REMARK   11  A    between atoms: C16_31  and  O5_32 
ROOT
HETATM    1  C7  UNL     1     -12.910  -8.181   8.024  1.00  0.00     0.118 C 
HETATM    2  N3  UNL     1     -14.035  -8.066   8.573  1.00  0.00    -0.383 N 
ATOM      3  H3  UNL     1     -14.164  -8.658   9.394  1.00  0.00     0.159 HD
ENDROOT
BRANCH   2   4
HETATM    4  C8  UNL     1     -15.154  -7.262   8.254  1.00  0.00     0.183 C 
BRANCH   4   5
HETATM    5  C9  UNL     1     -16.473  -7.903   8.587  1.00  0.00     0.042 C 
BRANCH   5   6
HETATM    6  C10 UNL     1     -16.308  -9.080   9.501  1.00  0.00     0.064 C 
BRANCH   6   7
HETATM    7  C11 UNL     1     -17.192  -8.860  10.699  1.00  0.00     0.063 A 
HETATM    8  N4  UNL     1     -18.459  -9.278  10.866  1.00  0.00    -0.333 N 
HETATM    9  C12 UNL     1     -18.885  -8.878  12.065  1.00  0.00     0.180 A 
ATOM     10  H4  UNL     1     -19.004  -9.811  10.188  1.00  0.00     0.168 HD
HETATM   11  S2  UNL     1     -20.347  -9.131  12.741  1.00  0.00    -0.040 SA
HETATM   12  N5  UNL     1     -17.891  -8.200  12.674  1.00  0.00    -0.307 N 
HETATM   13  C13 UNL     1     -17.959  -7.598  14.003  1.00  0.00     0.161 C 
HETATM   14  C14 UNL     1     -16.851  -8.186  11.842  1.00  0.00     0.167 A 
BRANCH  14  15
HETATM   15  O2  UNL     1     -15.600  -7.602  12.039  1.00  0.00    -0.344 OA
ATOM     16  H2  UNL     1     -15.198  -7.510  12.895  1.00  0.00     0.219 HD
ENDBRANCH  14  15
ENDBRANCH   6   7
ENDBRANCH   5   6
ENDBRANCH   4   5
BRANCH   4  17
HETATM   17  C15 UNL     1     -15.058  -5.902   8.824  1.00  0.00     0.196 C 
HETATM   18  O3  UNL     1     -15.198  -4.882   8.089  1.00  0.00    -0.646 OA
HETATM   19  O4  UNL     1     -14.813  -5.689  10.169  1.00  0.00    -0.646 OA
ENDBRANCH   4  17
ENDBRANCH   2   4
BRANCH   1  20
HETATM   20  C6  UNL     1     -11.872  -9.073   8.503  1.00  0.00     0.101 A 
HETATM   21  N2  UNL     1     -10.522  -8.870   8.456  1.00  0.00    -0.292 N 
HETATM   22  N1  UNL     1      -9.908  -9.906   8.994  1.00  0.00    -0.292 N 
HETATM   23  C5  UNL     1      -9.956  -7.664   7.879  1.00  0.00     0.178 C 
HETATM   24  C4  UNL     1     -10.796 -10.822   9.414  1.00  0.00     0.130 A 
ATOM     25  H1  UNL     1      -8.897 -10.000   9.080  1.00  0.00     0.187 HD
HETATM   26  C16 UNL     1     -12.058 -10.287   9.099  1.00  0.00     0.127 A 
BRANCH  24  27
HETATM   27  C3  UNL     1     -10.554 -12.104  10.061  1.00  0.00     0.189 C 
HETATM   28  O1  UNL     1     -11.236 -13.107   9.738  1.00  0.00    -0.290 OA
BRANCH  27  29
HETATM   29  C2  UNL     1      -9.520 -12.279  11.103  1.00  0.00     0.159 C 
BRANCH  29  30
HETATM   30  S1  UNL     1      -8.636 -13.850  10.915  1.00  0.00    -0.166 SA
HETATM   31  C1  UNL     1      -9.387 -15.137  11.945  1.00  0.00     0.090 C 
ENDBRANCH  29  30
ENDBRANCH  27  29
ENDBRANCH  24  27
BRANCH  26  32
HETATM   32  O5  UNL     1     -13.224 -10.958   9.387  1.00  0.00    -0.356 OA
ATOM     33  H5  UNL     1     -14.046 -10.501   9.521  1.00  0.00     0.218 HD
ENDBRANCH  26  32
ENDBRANCH   1  20
TORSDOF 11
ENDMDL
MODEL 3
REMARK VINA RESULT: -6.698784392      2.849      6.517
REMARK  11 active torsions:
REMARK  status: ('A' for Active; 'I' for Inactive)
REMARK    1  A    between atoms: S1_2  and  C2_3 
REMARK    2  A    between atoms: C2_3  and  C3_4 
REMARK    3  A    between atoms: C3_4  and  C4_6 
REMARK    4  A    between atoms: C6_11  and  C7_12 
REMARK    5  A    between atoms: N3_13  and  C8_15 
REMARK    6  A    between atoms: C8_15  and  C9_16 
REMARK    7  A    between atoms: C8_15  and  C15_28 
REMARK    8  A    between atoms: C9_16  and  C10_17 
REMARK    9  A    between atoms: C10_17  and  C11_18 
REMARK   10  A    between atoms: C14_25  and  O2_26 
REMARK   11  A    between atoms: C16_31  and  O5_32 
ROOT
HETATM    1  C7  UNL     1     -15.282  -8.017   6.258  1.00  0.00     0.118 C 
HETATM    2  N3  UNL     1     -15.775  -7.607   7.340  1.00  0.00    -0.383 N 
ATOM      3  H3  UNL     1     -16.549  -8.173   7.690  1.00  0.00     0.159 HD
ENDROOT
BRANCH   2   4
HETATM    4  C8  UNL     1     -15.447  -6.501   8.158  1.00  0.00     0.183 C 
BRANCH   4   5
HETATM    5  C9  UNL     1     -14.626  -6.863   9.363  1.00  0.00     0.042 C 
BRANCH   5   6
HETATM    6  C10 UNL     1     -14.846  -8.285   9.784  1.00  0.00     0.064 C 
BRANCH   6   7
HETATM    7  C11 UNL     1     -16.057  -8.319  10.678  1.00  0.00     0.063 A 
HETATM    8  N4  UNL     1     -16.166  -7.822  11.923  1.00  0.00    -0.333 N 
HETATM    9  C12 UNL     1     -17.401  -8.057  12.368  1.00  0.00     0.180 A 
ATOM     10  H4  UNL     1     -15.427  -7.346  12.440  1.00  0.00     0.168 HD
HETATM   11  S2  UNL     1     -18.035  -7.656  13.816  1.00  0.00    -0.040 SA
HETATM   12  N5  UNL     1     -18.092  -8.708  11.409  1.00  0.00    -0.307 N 
HETATM   13  C13 UNL     1     -19.481  -9.146  11.507  1.00  0.00     0.161 C 
HETATM   14  C14 UNL     1     -17.273  -8.870  10.371  1.00  0.00     0.167 A 
BRANCH  14  15
HETATM   15  O2  UNL     1     -17.544  -9.489   9.151  1.00  0.00    -0.344 OA
ATOM     16  H2  UNL     1     -18.097 -10.257   9.068  1.00  0.00     0.219 HD
ENDBRANCH  14  15
ENDBRANCH   6   7
ENDBRANCH   5   6
ENDBRANCH   4   5
BRANCH   4  17
HETATM   17  C15 UNL     1     -14.829  -5.395   7.397  1.00  0.00     0.196 C 
HETATM   18  O3  UNL     1     -13.611  -5.446   7.059  1.00  0.00    -0.646 OA
HETATM   19  O4  UNL     1     -15.547  -4.272   7.028  1.00  0.00    -0.646 OA
ENDBRANCH   4  17
ENDBRANCH   2   4
BRANCH   1  20
HETATM   20  C6  UNL     1     -15.761  -9.191   5.554  1.00  0.00     0.101 A 
HETATM   21  N2  UNL     1     -15.051  -9.989   4.702  1.00  0.00    -0.292 N 
HETATM   22  N1  UNL     1     -15.831 -10.959   4.266  1.00  0.00    -0.292 N 
HETATM   23  C5  UNL     1     -13.658  -9.720   4.394  1.00  0.00     0.178 C 
HETATM   24  C4  UNL     1     -17.062 -10.855   4.792  1.00  0.00     0.130 A 
ATOM     25  H1  UNL     1     -15.539 -11.688   3.616  1.00  0.00     0.187 HD
HETATM   26  C16 UNL     1     -17.017  -9.720   5.620  1.00  0.00     0.127 A 
BRANCH  24  27
HETATM   27  C3  UNL     1     -18.223 -11.709   4.581  1.00  0.00     0.189 C 
HETATM   28  O1  UNL     1     -18.960 -12.013   5.550  1.00  0.00    -0.290 OA
BRANCH  27  29
HETATM   29  C2  UNL     1     -18.578 -12.243   3.249  1.00  0.00     0.159 C 
BRANCH  29  30
HETATM   30  S1  UNL     1     -19.351 -10.980   2.203  1.00  0.00    -0.166 SA
HETATM   31  C1  UNL     1     -20.157  -9.714   3.217  1.00  0.00     0.090 C 
ENDBRANCH  29  30
ENDBRANCH  27  29
ENDBRANCH  24  27
BRANCH  26  32
HETATM   32  O5  UNL     1     -18.114  -9.298   6.334  1.00  0.00    -0.356 OA
ATOM     33  H5  UNL     1     -18.342  -8.378   6.408  1.00  0.00     0.218 HD
ENDBRANCH  26  32
ENDBRANCH   1  20
TORSDOF 11
ENDMDL
MODEL 4
REMARK VINA RESULT: -6.696126496      2.832      8.006
REMARK  11 active torsions:
REMARK  status: ('A' for Active; 'I' for Inactive)
REMARK    1  A    between atoms: S1_2  and  C2_3 
REMARK    2  A    between atoms: C2_3  and  C3_4 
REMARK    3  A    between atoms: C3_4  and  C4_6 
REMARK    4  A    between atoms: C6_11  and  C7_12 
REMARK    5  A    between atoms: N3_13  and  C8_15 
REMARK    6  A    between atoms: C8_15  and  C9_16 
REMARK    7  A    between atoms: C8_15  and  C15_28 
REMARK    8  A    between atoms: C9_16  and  C10_17 
REMARK    9  A    between atoms: C10_17  and  C11_18 
REMARK   10  A    between atoms: C14_25  and  O2_26 
REMARK   11  A    between atoms: C16_31  and  O5_32 
ROOT
HETATM    1  C7  UNL     1     -14.059  -7.624   6.422  1.00  0.00     0.118 C 
HETATM    2  N3  UNL     1     -14.806  -7.959   7.377  1.00  0.00    -0.383 N 
ATOM      3  H3  UNL     1     -14.848  -8.964   7.545  1.00  0.00     0.159 HD
ENDROOT
BRANCH   2   4
HETATM    4  C8  UNL     1     -15.599  -7.189   8.259  1.00  0.00     0.183 C 
BRANCH   4   5
HETATM    5  C9  UNL     1     -16.858  -7.881   8.701  1.00  0.00     0.042 C 
BRANCH   5   6
HETATM    6  C10 UNL     1     -16.571  -9.022   9.630  1.00  0.00     0.064 C 
BRANCH   6   7
HETATM    7  C11 UNL     1     -17.452  -8.864  10.841  1.00  0.00     0.063 A 
HETATM    8  N4  UNL     1     -18.711  -9.307  10.997  1.00  0.00    -0.333 N 
HETATM    9  C12 UNL     1     -19.136  -8.962  12.213  1.00  0.00     0.180 A 
ATOM     10  H4  UNL     1     -19.252  -9.821  10.302  1.00  0.00     0.168 HD
HETATM   11  S2  UNL     1     -20.590  -9.263  12.888  1.00  0.00    -0.040 SA
HETATM   12  N5  UNL     1     -18.148  -8.293  12.844  1.00  0.00    -0.307 N 
HETATM   13  C13 UNL     1     -18.218  -7.746  14.196  1.00  0.00     0.161 C 
HETATM   14  C14 UNL     1     -17.113  -8.231  12.007  1.00  0.00     0.167 A 
BRANCH  14  15
HETATM   15  O2  UNL     1     -15.870  -7.636  12.221  1.00  0.00    -0.344 OA
ATOM     16  H2  UNL     1     -15.383  -7.726  13.031  1.00  0.00     0.219 HD
ENDBRANCH  14  15
ENDBRANCH   6   7
ENDBRANCH   5   6
ENDBRANCH   4   5
BRANCH   4  17
HETATM   17  C15 UNL     1     -14.831  -6.678   9.414  1.00  0.00     0.196 C 
HETATM   18  O3  UNL     1     -15.165  -5.599   9.984  1.00  0.00    -0.646 OA
HETATM   19  O4  UNL     1     -13.730  -7.349   9.913  1.00  0.00    -0.646 OA
ENDBRANCH   4  17
ENDBRANCH   2   4
BRANCH   1  20
HETATM   20  C6  UNL     1     -13.314  -8.574   5.618  1.00  0.00     0.101 A 
HETATM   21  N2  UNL     1     -11.998  -8.915   5.752  1.00  0.00    -0.292 N 
HETATM   22  N1  UNL     1     -11.688  -9.814   4.838  1.00  0.00    -0.292 N 
HETATM   23  C5  UNL     1     -11.160  -8.319   6.778  1.00  0.00     0.178 C 
HETATM   24  C4  UNL     1     -12.752 -10.104   4.073  1.00  0.00     0.130 A 
ATOM     25  H1  UNL     1     -10.764 -10.231   4.727  1.00  0.00     0.187 HD
HETATM   26  C16 UNL     1     -13.797  -9.308   4.574  1.00  0.00     0.127 A 
BRANCH  24  27
HETATM   27  C3  UNL     1     -12.853 -11.035   2.958  1.00  0.00     0.189 C 
HETATM   28  O1  UNL     1     -13.105 -10.606   1.806  1.00  0.00    -0.290 OA
BRANCH  27  29
HETATM   29  C2  UNL     1     -12.667 -12.492   3.127  1.00  0.00     0.159 C 
BRANCH  29  30
HETATM   30  S1  UNL     1     -14.142 -13.420   2.625  1.00  0.00    -0.166 SA
HETATM   31  C1  UNL     1     -15.593 -12.870   3.558  1.00  0.00     0.090 C 
ENDBRANCH  29  30
ENDBRANCH  27  29
ENDBRANCH  24  27
BRANCH  26  32
HETATM   32  O5  UNL     1     -15.061  -9.340   4.030  1.00  0.00    -0.356 OA
ATOM     33  H5  UNL     1     -15.766  -9.840   4.425  1.00  0.00     0.218 HD
ENDBRANCH  26  32
ENDBRANCH   1  20
TORSDOF 11
ENDMDL
MODEL 5
REMARK VINA RESULT: -6.573986438      2.292      2.736
REMARK  11 active torsions:
REMARK  status: ('A' for Active; 'I' for Inactive)
REMARK    1  A    between atoms: S1_2  and  C2_3 
REMARK    2  A    between atoms: C2_3  and  C3_4 
REMARK    3  A    between atoms: C3_4  and  C4_6 
REMARK    4  A    between atoms: C6_11  and  C7_12 
REMARK    5  A    between atoms: N3_13  and  C8_15 
REMARK    6  A    between atoms: C8_15  and  C9_16 
REMARK    7  A    between atoms: C8_15  and  C15_28 
REMARK    8  A    between atoms: C9_16  and  C10_17 
REMARK    9  A    between atoms: C10_17  and  C11_18 
REMARK   10  A    between atoms: C14_25  and  O2_26 
REMARK   11  A    between atoms: C16_31  and  O5_32 
ROOT
HETATM    1  C7  UNL     1     -17.613  -8.416  11.481  1.00  0.00     0.118 C 
HETATM    2  N3  UNL     1     -17.092  -8.726  10.379  1.00  0.00    -0.383 N 
ATOM      3  H3  UNL     1     -17.634  -9.398   9.833  1.00  0.00     0.159 HD
ENDROOT
BRANCH   2   4
HETATM    4  C8  UNL     1     -15.891  -8.310   9.762  1.00  0.00     0.183 C 
BRANCH   4   5
HETATM    5  C9  UNL     1     -16.040  -7.994   8.300  1.00  0.00     0.042 C 
BRANCH   5   6
HETATM    6  C10 UNL     1     -15.715  -9.175   7.436  1.00  0.00     0.064 C 
BRANCH   6   7
HETATM    7  C11 UNL     1     -16.960  -9.544   6.673  1.00  0.00     0.063 A 
HETATM    8  N4  UNL     1     -18.139  -9.944   7.179  1.00  0.00    -0.333 N 
HETATM    9  C12 UNL     1     -18.980 -10.173   6.170  1.00  0.00     0.180 A 
ATOM     10  H4  UNL     1     -18.354 -10.054   8.170  1.00  0.00     0.168 HD
HETATM   11  S2  UNL     1     -20.529 -10.676   6.253  1.00  0.00    -0.040 SA
HETATM   12  N5  UNL     1     -18.342  -9.921   5.007  1.00  0.00    -0.307 N 
HETATM   13  C13 UNL     1     -18.919 -10.052   3.673  1.00  0.00     0.161 C 
HETATM   14  C14 UNL     1     -17.104  -9.534   5.310  1.00  0.00     0.167 A 
BRANCH  14  15
HETATM   15  O2  UNL     1     -16.080  -9.170   4.436  1.00  0.00    -0.344 OA
ATOM     16  H2  UNL     1     -16.054  -8.334   3.985  1.00  0.00     0.219 HD
ENDBRANCH  14  15
ENDBRANCH   6   7
ENDBRANCH   5   6
ENDBRANCH   4   5
BRANCH   4  17
HETATM   17  C15 UNL     1     -15.232  -7.204  10.487  1.00  0.00     0.196 C 
HETATM   18  O3  UNL     1     -14.538  -7.432  11.520  1.00  0.00    -0.646 OA
HETATM   19  O4  UNL     1     -15.346  -5.889  10.074  1.00  0.00    -0.646 OA
ENDBRANCH   4  17
ENDBRANCH   2   4
BRANCH   1  20
HETATM   20  C6  UNL     1     -18.874  -8.957  11.952  1.00  0.00     0.101 A 
HETATM   21  N2  UNL     1     -19.354  -8.938  13.231  1.00  0.00    -0.292 N 
HETATM   22  N1  UNL     1     -20.535  -9.524  13.259  1.00  0.00    -0.292 N 
HETATM   23  C5  UNL     1     -18.597  -8.339  14.316  1.00  0.00     0.178 C 
HETATM   24  C4  UNL     1     -20.887  -9.949  12.035  1.00  0.00     0.130 A 
ATOM     25  H1  UNL     1     -21.104  -9.639  14.098  1.00  0.00     0.187 HD
HETATM   26  C16 UNL     1     -19.820  -9.585  11.195  1.00  0.00     0.127 A 
BRANCH  24  27
HETATM   27  C3  UNL     1     -22.099 -10.640  11.618  1.00  0.00     0.189 C 
HETATM   28  O1  UNL     1     -22.230 -11.011  10.427  1.00  0.00    -0.290 OA
BRANCH  27  29
HETATM   29  C2  UNL     1     -23.204 -10.929  12.557  1.00  0.00     0.159 C 
BRANCH  29  30
HETATM   30  S1  UNL     1     -24.014 -12.506  12.176  1.00  0.00    -0.166 SA
HETATM   31  C1  UNL     1     -22.860 -13.886  12.383  1.00  0.00     0.090 C 
ENDBRANCH  29  30
ENDBRANCH  27  29
ENDBRANCH  24  27
BRANCH  26  32
HETATM   32  O5  UNL     1     -19.828  -9.862   9.847  1.00  0.00    -0.356 OA
ATOM     33  H5  UNL     1     -19.481  -9.252   9.207  1.00  0.00     0.218 HD
ENDBRANCH  26  32
ENDBRANCH   1  20
TORSDOF 11
ENDMDL
