MODEL 1
REMARK VINA RESULT: -5.324370166      0.000      0.000
REMARK  2 active torsions:
REMARK  status: ('A' for Active; 'I' for Inactive)
REMARK       I    between atoms: C1_2  and  N2_4 
REMARK    1  A    between atoms: N3_7  and  C4_8 
REMARK       I    between atoms: N4_10  and  C6_11 
REMARK    2  A    between atoms: C6_11  and  C7_13 
ROOT
HETATM    1  C4  UNL     1     -12.089  -7.758  15.101  1.00  0.00     0.269 C 
HETATM    2  C5  UNL     1     -12.784  -6.495  14.658  1.00  0.00     0.165 C 
HETATM    3  N4  UNL     1     -14.019  -7.304  14.641  1.00  0.00    -0.338 N 
HETATM    4  C6  UNL     1     -15.266  -7.080  14.027  1.00  0.00     0.230 C 
HETATM    5  O2  UNL     1     -16.176  -7.926  14.159  1.00  0.00    -0.273 OA
HETATM    6  C8  UNL     1     -13.404  -8.352  15.484  1.00  0.00     0.068 C 
HETATM    7  C9  UNL     1     -13.720  -8.051  16.931  1.00  0.00     0.033 C 
HETATM    8  C10 UNL     1     -13.803  -9.304  17.769  1.00  0.00     0.002 C 
HETATM    9  C11 UNL     1     -14.965 -10.092  17.218  1.00  0.00     0.000 C 
HETATM   10  C12 UNL     1     -14.709 -10.497  15.819  1.00  0.00     0.002 C 
HETATM   11  C13 UNL     1     -13.710  -9.710  15.045  1.00  0.00     0.033 C 
ENDROOT
BRANCH   1  12
HETATM   12  N3  UNL     1     -11.218  -8.389  14.197  1.00  0.00     0.100 N 
HETATM   13  C3  UNL     1     -10.362  -9.331  14.962  1.00  0.00     0.293 C 
HETATM   14  C2  UNL     1      -9.723 -10.325  14.043  1.00  0.00     0.157 C 
HETATM   15  N2  UNL     1      -8.905  -9.533  13.113  1.00  0.00    -0.333 N 
HETATM   16  C1  UNL     1      -8.150 -10.162  12.091  1.00  0.00     0.330 C 
HETATM   17  C15 UNL     1      -8.921  -8.102  13.315  1.00  0.00     0.157 C 
HETATM   18  N1  UNL     1      -8.187 -11.563  11.982  1.00  0.00    -0.040 NA
HETATM   19  O1  UNL     1      -7.475  -9.437  11.326  1.00  0.00    -0.251 OA
HETATM   20  C14 UNL     1     -10.331  -7.564  13.437  1.00  0.00     0.293 C 
ENDBRANCH   1  12
BRANCH   4  21
HETATM   21  C7  UNL     1     -15.506  -5.867  13.235  1.00  0.00     0.188 C 
HETATM   22 BR1  UNL     1     -17.387  -5.756  12.775  1.00  0.00    -0.087 Br
ENDBRANCH   4  21
TORSDOF 2
ENDMDL
MODEL 2
REMARK VINA RESULT: -5.145537056      3.056      6.833
REMARK  2 active torsions:
REMARK  status: ('A' for Active; 'I' for Inactive)
REMARK       I    between atoms: C1_2  and  N2_4 
REMARK    1  A    between atoms: N3_7  and  C4_8 
REMARK       I    between atoms: N4_10  and  C6_11 
REMARK    2  A    between atoms: C6_11  and  C7_13 
ROOT
HETATM    1  C4  UNL     1     -11.633  -8.497  15.427  1.00  0.00     0.269 C 
HETATM    2  C5  UNL     1     -11.357  -9.966  15.626  1.00  0.00     0.165 C 
HETATM    3  N4  UNL     1     -10.296  -9.797  14.613  1.00  0.00    -0.338 N 
HETATM    4  C6  UNL     1      -9.603 -10.741  13.830  1.00  0.00     0.230 C 
HETATM    5  O2  UNL     1      -8.730 -10.349  13.027  1.00  0.00    -0.273 OA
HETATM    6  C8  UNL     1     -10.297  -8.329  14.783  1.00  0.00     0.068 C 
HETATM    7  C9  UNL     1      -9.254  -7.964  15.815  1.00  0.00     0.033 C 
HETATM    8  C10 UNL     1      -8.664  -6.596  15.571  1.00  0.00     0.002 C 
HETATM    9  C11 UNL     1      -7.959  -6.682  14.241  1.00  0.00     0.000 C 
HETATM   10  C12 UNL     1      -8.920  -6.962  13.153  1.00  0.00     0.002 C 
HETATM   11  C13 UNL     1     -10.217  -7.594  13.524  1.00  0.00     0.033 C 
ENDROOT
BRANCH   1  12
HETATM   12  N3  UNL     1     -12.826  -8.126  14.782  1.00  0.00     0.100 N 
HETATM   13  C3  UNL     1     -13.339  -6.894  15.435  1.00  0.00     0.293 C 
HETATM   14  C2  UNL     1     -14.343  -6.215  14.556  1.00  0.00     0.157 C 
HETATM   15  N2  UNL     1     -15.430  -7.187  14.376  1.00  0.00    -0.333 N 
HETATM   16  C1  UNL     1     -16.566  -6.871  13.588  1.00  0.00     0.330 C 
HETATM   17  C15 UNL     1     -15.267  -8.455  15.050  1.00  0.00     0.157 C 
HETATM   18  N1  UNL     1     -16.642  -5.605  12.982  1.00  0.00    -0.040 NA
HETATM   19  O1  UNL     1     -17.459  -7.740  13.466  1.00  0.00    -0.251 OA
HETATM   20  C14 UNL     1     -13.906  -9.064  14.785  1.00  0.00     0.293 C 
ENDBRANCH   1  12
BRANCH   4  21
HETATM   21  C7  UNL     1      -9.895 -12.175  13.949  1.00  0.00     0.188 C 
HETATM   22 BR1  UNL     1      -8.503 -13.194  13.064  1.00  0.00    -0.087 Br
ENDBRANCH   4  21
TORSDOF 2
ENDMDL
MODEL 3
REMARK VINA RESULT: -5.038194844      2.987      6.706
REMARK  2 active torsions:
REMARK  status: ('A' for Active; 'I' for Inactive)
REMARK       I    between atoms: C1_2  and  N2_4 
REMARK    1  A    between atoms: N3_7  and  C4_8 
REMARK       I    between atoms: N4_10  and  C6_11 
REMARK    2  A    between atoms: C6_11  and  C7_13 
ROOT
HETATM    1  C4  UNL     1     -11.706  -8.764  15.018  1.00  0.00     0.269 C 
HETATM    2  C5  UNL     1     -11.050  -9.963  14.380  1.00  0.00     0.165 C 
HETATM    3  N4  UNL     1     -10.026  -9.015  13.896  1.00  0.00    -0.338 N 
HETATM    4  C6  UNL     1      -9.064  -9.131  12.875  1.00  0.00     0.230 C 
HETATM    5  O2  UNL     1      -8.291  -8.175  12.647  1.00  0.00    -0.273 OA
HETATM    6  C8  UNL     1     -10.436  -7.992  14.882  1.00  0.00     0.068 C 
HETATM    7  C9  UNL     1      -9.585  -8.150  16.121  1.00  0.00     0.033 C 
HETATM    8  C10 UNL     1      -9.379  -6.840  16.843  1.00  0.00     0.002 C 
HETATM    9  C11 UNL     1      -8.612  -5.959  15.889  1.00  0.00     0.000 C 
HETATM   10  C12 UNL     1      -9.405  -5.687  14.671  1.00  0.00     0.002 C 
HETATM   11  C13 UNL     1     -10.497  -6.641  14.331  1.00  0.00     0.033 C 
ENDROOT
BRANCH   1  12
HETATM   12  N3  UNL     1     -12.921  -8.307  14.479  1.00  0.00     0.100 N 
HETATM   13  C3  UNL     1     -13.484  -7.293  15.406  1.00  0.00     0.293 C 
HETATM   14  C2  UNL     1     -14.527  -6.471  14.715  1.00  0.00     0.157 C 
HETATM   15  N2  UNL     1     -15.570  -7.422  14.306  1.00  0.00    -0.333 N 
HETATM   16  C1  UNL     1     -16.726  -6.980  13.614  1.00  0.00     0.330 C 
HETATM   17  C15 UNL     1     -15.341  -8.805  14.656  1.00  0.00     0.157 C 
HETATM   18  N1  UNL     1     -16.867  -5.611  13.329  1.00  0.00    -0.040 NA
HETATM   19  O1  UNL     1     -17.579  -7.836  13.286  1.00  0.00    -0.251 OA
HETATM   20  C14 UNL     1     -13.956  -9.268  14.255  1.00  0.00     0.293 C 
ENDBRANCH   1  12
BRANCH   4  21
HETATM   21  C7  UNL     1      -8.959 -10.359  12.077  1.00  0.00     0.188 C 
HETATM   22 BR1  UNL     1      -7.467 -10.207  10.847  1.00  0.00    -0.087 Br
ENDBRANCH   4  21
TORSDOF 2
ENDMDL
MODEL 4
REMARK VINA RESULT: -5.019029857      9.504     11.657
REMARK  2 active torsions:
REMARK  status: ('A' for Active; 'I' for Inactive)
REMARK       I    between atoms: C1_2  and  N2_4 
REMARK    1  A    between atoms: N3_7  and  C4_8 
REMARK       I    between atoms: N4_10  and  C6_11 
REMARK    2  A    between atoms: C6_11  and  C7_13 
ROOT
HETATM    1  C4  UNL     1     -21.047  -2.225  14.257  1.00  0.00     0.269 C 
HETATM    2  C5  UNL     1     -19.870  -1.893  15.139  1.00  0.00     0.165 C 
HETATM    3  N4  UNL     1     -20.020  -0.511  14.641  1.00  0.00    -0.338 N 
HETATM    4  C6  UNL     1     -19.131   0.581  14.656  1.00  0.00     0.230 C 
HETATM    5  O2  UNL     1     -19.492   1.673  14.166  1.00  0.00    -0.273 OA
HETATM    6  C8  UNL     1     -21.396  -0.777  14.170  1.00  0.00     0.068 C 
HETATM    7  C9  UNL     1     -22.362  -0.397  15.268  1.00  0.00     0.033 C 
HETATM    8  C10 UNL     1     -23.694   0.060  14.724  1.00  0.00     0.002 C 
HETATM    9  C11 UNL     1     -23.408   1.313  13.934  1.00  0.00     0.000 C 
HETATM   10  C12 UNL     1     -22.524   1.020  12.785  1.00  0.00     0.002 C 
HETATM   11  C13 UNL     1     -21.684  -0.207  12.857  1.00  0.00     0.033 C 
ENDROOT
BRANCH   1  12
HETATM   12  N3  UNL     1     -20.820  -3.011  13.114  1.00  0.00     0.100 N 
HETATM   13  C3  UNL     1     -21.998  -3.893  12.919  1.00  0.00     0.293 C 
HETATM   14  C2  UNL     1     -22.022  -4.436  11.523  1.00  0.00     0.157 C 
HETATM   15  N2  UNL     1     -20.779  -5.206  11.379  1.00  0.00    -0.333 N 
HETATM   16  C1  UNL     1     -20.470  -5.867  10.163  1.00  0.00     0.330 C 
HETATM   17  C15 UNL     1     -19.917  -5.245  12.538  1.00  0.00     0.157 C 
HETATM   18  N1  UNL     1     -21.378  -5.783   9.093  1.00  0.00    -0.040 NA
HETATM   19  O1  UNL     1     -19.395  -6.505  10.096  1.00  0.00    -0.251 OA
HETATM   20  C14 UNL     1     -19.671  -3.863  13.106  1.00  0.00     0.293 C 
ENDBRANCH   1  12
BRANCH   4  21
HETATM   21  C7  UNL     1     -17.790   0.451  15.239  1.00  0.00     0.188 C 
HETATM   22 BR1  UNL     1     -16.483   1.233  14.038  1.00  0.00    -0.087 Br
ENDBRANCH   4  21
TORSDOF 2
ENDMDL
MODEL 5
REMARK VINA RESULT: -4.947426497      1.397      1.416
REMARK  2 active torsions:
REMARK  status: ('A' for Active; 'I' for Inactive)
REMARK       I    between atoms: C1_2  and  N2_4 
REMARK    1  A    between atoms: N3_7  and  C4_8 
REMARK       I    between atoms: N4_10  and  C6_11 
REMARK    2  A    between atoms: C6_11  and  C7_13 
ROOT
HETATM    1  C4  UNL     1     -11.640  -8.268  15.591  1.00  0.00     0.269 C 
HETATM    2  C5  UNL     1     -11.789  -6.767  15.569  1.00  0.00     0.165 C 
HETATM    3  N4  UNL     1     -13.199  -7.016  15.211  1.00  0.00    -0.338 N 
HETATM    4  C6  UNL     1     -14.175  -6.173  14.644  1.00  0.00     0.230 C 
HETATM    5  O2  UNL     1     -15.322  -6.619  14.430  1.00  0.00    -0.273 OA
HETATM    6  C8  UNL     1     -13.123  -8.417  15.676  1.00  0.00     0.068 C 
HETATM    7  C9  UNL     1     -13.568  -8.469  17.120  1.00  0.00     0.033 C 
HETATM    8  C10 UNL     1     -14.206  -9.790  17.473  1.00  0.00     0.002 C 
HETATM    9  C11 UNL     1     -15.449  -9.889  16.624  1.00  0.00     0.000 C 
HETATM   10  C12 UNL     1     -15.103  -9.921  15.187  1.00  0.00     0.002 C 
HETATM   11  C13 UNL     1     -13.780  -9.367  14.783  1.00  0.00     0.033 C 
ENDROOT
BRANCH   1  12
HETATM   12  N3  UNL     1     -10.885  -8.875  14.573  1.00  0.00     0.100 N 
HETATM   13  C3  UNL     1      -9.854  -9.732  15.213  1.00  0.00     0.293 C 
HETATM   14  C2  UNL     1      -9.305 -10.717  14.228  1.00  0.00     0.157 C 
HETATM   15  N2  UNL     1      -8.703  -9.908  13.158  1.00  0.00    -0.333 N 
HETATM   16  C1  UNL     1      -8.079 -10.525  12.044  1.00  0.00     0.330 C 
HETATM   17  C15 UNL     1      -8.783  -8.475  13.323  1.00  0.00     0.157 C 
HETATM   18  N1  UNL     1      -8.038 -11.928  11.978  1.00  0.00    -0.040 NA
HETATM   19  O1  UNL     1      -7.587  -9.786  11.161  1.00  0.00    -0.251 OA
HETATM   20  C14 UNL     1     -10.189  -8.023  13.659  1.00  0.00     0.293 C 
ENDBRANCH   1  12
BRANCH   4  21
HETATM   21  C7  UNL     1     -13.858  -4.781  14.302  1.00  0.00     0.188 C 
HETATM   22 BR1  UNL     1     -13.992  -3.678  15.892  1.00  0.00    -0.087 Br
ENDBRANCH   4  21
TORSDOF 2
ENDMDL
