MODEL 1
REMARK VINA RESULT: -7.009219084      0.000      0.000
REMARK  8 active torsions:
REMARK  status: ('A' for Active; 'I' for Inactive)
REMARK    1  A    between atoms: C2_3  and  C3_4 
REMARK    2  A    between atoms: C3_4  and  C4_5 
REMARK    3  A    between atoms: C4_5  and  C5_6 
REMARK    4  A    between atoms: C5_6  and  N2_7 
REMARK    5  A    between atoms: C6_8  and  O1_9 
REMARK    6  A    between atoms: O1_9  and  C7_10 
REMARK    7  A    between atoms: C18_23  and  N4_24 
REMARK    8  A    between atoms: C19_27  and  N5_28 
ROOT
HETATM    1  N1  UNL     1      11.567 -10.439   0.062  1.00  0.00    -0.197 NA
HETATM    2  C1  UNL     1      11.182 -11.246   0.803  1.00  0.00     0.059 C 
HETATM    3  C2  UNL     1      10.715 -12.286   1.736  1.00  0.00     0.124 C 
ENDROOT
BRANCH   3   4
HETATM    4  C3  UNL     1      11.543 -13.514   1.475  1.00  0.00     0.016 C 
BRANCH   4   5
HETATM    5  C4  UNL     1      11.531 -14.498   2.624  1.00  0.00     0.021 C 
BRANCH   5   6
HETATM    6  C5  UNL     1      10.357 -14.202   3.510  1.00  0.00     0.133 C 
BRANCH   6   7
HETATM    7  N2  UNL     1      10.541 -14.573   4.873  1.00  0.00    -0.311 N 
HETATM    8  C6  UNL     1      10.068 -15.721   5.367  1.00  0.00     0.159 A 
HETATM    9  C13 UNL     1      10.255 -16.042   6.742  1.00  0.00     0.044 A 
HETATM   10  C14 UNL     1       9.750 -17.250   7.239  1.00  0.00     0.019 A 
HETATM   11  C17 UNL     1      10.909 -15.190   7.557  1.00  0.00     0.084 A 
HETATM   12  C15 UNL     1       9.948 -17.526   8.569  1.00  0.00     0.018 A 
HETATM   13  C16 UNL     1      10.619 -16.621   9.336  1.00  0.00     0.088 A 
HETATM   14  N3  UNL     1      11.107 -15.460   8.875  1.00  0.00    -0.363 N 
ATOM     15  H3  UNL     1      11.604 -14.811   9.484  1.00  0.00     0.165 HD
HETATM   16  C18 UNL     1      11.397 -13.997   7.028  1.00  0.00     0.174 A 
HETATM   17  C19 UNL     1      11.194 -13.731   5.701  1.00  0.00     0.139 A 
BRANCH   8  18
HETATM   18  O1  UNL     1       9.418 -16.628   4.666  1.00  0.00    -0.329 OA
BRANCH  18  19
HETATM   19  C7  UNL     1       8.772 -17.127   3.642  1.00  0.00     0.130 C 
HETATM   20  C8  UNL     1       7.652 -18.089   4.040  1.00  0.00     0.032 C 
HETATM   21  C9  UNL     1       6.921 -18.552   2.801  1.00  0.00     0.002 C 
HETATM   22  C10 UNL     1       7.894 -19.481   2.061  1.00  0.00     0.000 C 
HETATM   23  C11 UNL     1       9.046 -18.596   1.634  1.00  0.00     0.002 C 
HETATM   24  C12 UNL     1       9.759 -18.026   2.837  1.00  0.00     0.032 C 
ENDBRANCH  18  19
ENDBRANCH   8  18
BRANCH  16  25
HETATM   25  N4  UNL     1      12.091 -13.101   7.896  1.00  0.00    -0.109 N 
HETATM   26  O2  UNL     1      11.506 -12.678   8.911  1.00  0.00    -0.532 OA
HETATM   27  O3  UNL     1      13.394 -12.709   7.617  1.00  0.00    -0.532 OA
ENDBRANCH  16  25
BRANCH  17  28
HETATM   28  N5  UNL     1      11.669 -12.599   5.243  1.00  0.00    -0.383 N 
ATOM     29  H52 UNL     1      11.478 -11.761   5.792  1.00  0.00     0.157 HD
ATOM     30  H51 UNL     1      12.203 -12.584   4.374  1.00  0.00     0.157 HD
ENDBRANCH  17  28
ENDBRANCH   6   7
ENDBRANCH   5   6
ENDBRANCH   4   5
ENDBRANCH   3   4
TORSDOF 8
ENDMDL
MODEL 2
REMARK VINA RESULT: -6.885479237      0.766      1.263
REMARK  8 active torsions:
REMARK  status: ('A' for Active; 'I' for Inactive)
REMARK    1  A    between atoms: C2_3  and  C3_4 
REMARK    2  A    between atoms: C3_4  and  C4_5 
REMARK    3  A    between atoms: C4_5  and  C5_6 
REMARK    4  A    between atoms: C5_6  and  N2_7 
REMARK    5  A    between atoms: C6_8  and  O1_9 
REMARK    6  A    between atoms: O1_9  and  C7_10 
REMARK    7  A    between atoms: C18_23  and  N4_24 
REMARK    8  A    between atoms: C19_27  and  N5_28 
ROOT
HETATM    1  N1  UNL     1      11.657  -9.613  -0.087  1.00  0.00    -0.197 NA
HETATM    2  C1  UNL     1      11.245 -10.160   0.851  1.00  0.00     0.059 C 
HETATM    3  C2  UNL     1      10.734 -10.877   2.032  1.00  0.00     0.124 C 
ENDROOT
BRANCH   3   4
HETATM    4  C3  UNL     1      10.923 -12.346   1.768  1.00  0.00     0.016 C 
BRANCH   4   5
HETATM    5  C4  UNL     1      10.309 -13.228   2.832  1.00  0.00     0.021 C 
BRANCH   5   6
HETATM    6  C5  UNL     1      11.386 -14.065   3.456  1.00  0.00     0.133 C 
BRANCH   6   7
HETATM    7  N2  UNL     1      11.161 -14.389   4.826  1.00  0.00    -0.311 N 
HETATM    8  C6  UNL     1      10.370 -15.399   5.197  1.00  0.00     0.159 A 
HETATM    9  C13 UNL     1      10.155 -15.672   6.578  1.00  0.00     0.044 A 
HETATM   10  C14 UNL     1       9.320 -16.735   6.944  1.00  0.00     0.019 A 
HETATM   11  C17 UNL     1      10.748 -14.914   7.523  1.00  0.00     0.084 A 
HETATM   12  C15 UNL     1       9.136 -16.970   8.285  1.00  0.00     0.018 A 
HETATM   13  C16 UNL     1       9.766 -16.165   9.187  1.00  0.00     0.088 A 
HETATM   14  N3  UNL     1      10.567 -15.144   8.850  1.00  0.00    -0.363 N 
ATOM     15  H3  UNL     1      11.020 -14.566   9.558  1.00  0.00     0.165 HD
HETATM   16  C18 UNL     1      11.572 -13.866   7.120  1.00  0.00     0.174 A 
HETATM   17  C19 UNL     1      11.749 -13.640   5.782  1.00  0.00     0.139 A 
BRANCH   8  18
HETATM   18  O1  UNL     1       9.743 -16.206   4.364  1.00  0.00    -0.329 OA
BRANCH  18  19
HETATM   19  C7  UNL     1       9.495 -17.316   3.717  1.00  0.00     0.130 C 
HETATM   20  C8  UNL     1       9.878 -17.255   2.237  1.00  0.00     0.032 C 
HETATM   21  C9  UNL     1       9.625 -18.599   1.595  1.00  0.00     0.002 C 
HETATM   22  C10 UNL     1       8.099 -18.753   1.526  1.00  0.00     0.000 C 
HETATM   23  C11 UNL     1       7.637 -18.816   2.966  1.00  0.00     0.002 C 
HETATM   24  C12 UNL     1       7.950 -17.527   3.688  1.00  0.00     0.032 C 
ENDBRANCH  18  19
ENDBRANCH   8  18
BRANCH  16  25
HETATM   25  N4  UNL     1      12.198 -13.068   8.126  1.00  0.00    -0.109 N 
HETATM   26  O2  UNL     1      11.482 -12.510   8.979  1.00  0.00    -0.532 OA
HETATM   27  O3  UNL     1      13.579 -12.919   8.155  1.00  0.00    -0.532 OA
ENDBRANCH  16  25
BRANCH  17  28
HETATM   28  N5  UNL     1      12.531 -12.643   5.446  1.00  0.00    -0.383 N 
ATOM     29  H52 UNL     1      13.465 -12.632   5.854  1.00  0.00     0.157 HD
ATOM     30  H51 UNL     1      12.195 -11.926   4.804  1.00  0.00     0.157 HD
ENDBRANCH  17  28
ENDBRANCH   6   7
ENDBRANCH   5   6
ENDBRANCH   4   5
ENDBRANCH   3   4
TORSDOF 8
ENDMDL
MODEL 3
REMARK VINA RESULT: -6.570179375      2.455      5.286
REMARK  8 active torsions:
REMARK  status: ('A' for Active; 'I' for Inactive)
REMARK    1  A    between atoms: C2_3  and  C3_4 
REMARK    2  A    between atoms: C3_4  and  C4_5 
REMARK    3  A    between atoms: C4_5  and  C5_6 
REMARK    4  A    between atoms: C5_6  and  N2_7 
REMARK    5  A    between atoms: C6_8  and  O1_9 
REMARK    6  A    between atoms: O1_9  and  C7_10 
REMARK    7  A    between atoms: C18_23  and  N4_24 
REMARK    8  A    between atoms: C19_27  and  N5_28 
ROOT
HETATM    1  N1  UNL     1       6.616 -18.777   1.089  1.00  0.00    -0.197 NA
HETATM    2  C1  UNL     1       7.643 -18.982   1.592  1.00  0.00     0.059 C 
HETATM    3  C2  UNL     1       8.951 -19.216   2.227  1.00  0.00     0.124 C 
ENDROOT
BRANCH   3   4
HETATM    4  C3  UNL     1       9.785 -17.990   1.977  1.00  0.00     0.016 C 
BRANCH   4   5
HETATM    5  C4  UNL     1      10.389 -17.411   3.238  1.00  0.00     0.021 C 
BRANCH   5   6
HETATM    6  C5  UNL     1       9.432 -16.419   3.829  1.00  0.00     0.133 C 
BRANCH   6   7
HETATM    7  N2  UNL     1       9.817 -15.919   5.106  1.00  0.00    -0.311 N 
HETATM    8  C6  UNL     1      10.676 -14.904   5.243  1.00  0.00     0.159 A 
HETATM    9  C13 UNL     1      11.051 -14.451   6.540  1.00  0.00     0.044 A 
HETATM   10  C14 UNL     1      11.953 -13.387   6.660  1.00  0.00     0.019 A 
HETATM   11  C17 UNL     1      10.543 -15.042   7.641  1.00  0.00     0.084 A 
HETATM   12  C15 UNL     1      12.293 -12.978   7.926  1.00  0.00     0.018 A 
HETATM   13  C16 UNL     1      11.742 -13.619   8.995  1.00  0.00     0.088 A 
HETATM   14  N3  UNL     1      10.877 -14.638   8.895  1.00  0.00    -0.363 N 
ATOM     15  H3  UNL     1      10.488 -15.091   9.723  1.00  0.00     0.165 HD
HETATM   16  C18 UNL     1       9.648 -16.098   7.482  1.00  0.00     0.174 A 
HETATM   17  C19 UNL     1       9.317 -16.499   6.217  1.00  0.00     0.139 A 
BRANCH   8  18
HETATM   18  O1  UNL     1      11.231 -14.251   4.242  1.00  0.00    -0.329 OA
BRANCH  18  19
HETATM   19  C7  UNL     1      11.434 -13.257   3.415  1.00  0.00     0.130 C 
HETATM   20  C8  UNL     1      10.453 -12.099   3.604  1.00  0.00     0.032 C 
HETATM   21  C9  UNL     1      10.811 -10.976   2.659  1.00  0.00     0.002 C 
HETATM   22  C10 UNL     1      10.451 -11.476   1.253  1.00  0.00     0.000 C 
HETATM   23  C11 UNL     1      11.384 -12.638   0.990  1.00  0.00     0.002 C 
HETATM   24  C12 UNL     1      11.135 -13.760   1.969  1.00  0.00     0.032 C 
ENDBRANCH  18  19
ENDBRANCH   8  18
BRANCH  16  25
HETATM   25  N4  UNL     1       9.113 -16.718   8.653  1.00  0.00    -0.109 N 
HETATM   26  O2  UNL     1       9.723 -17.682   9.151  1.00  0.00    -0.532 OA
HETATM   27  O3  UNL     1       7.936 -16.252   9.227  1.00  0.00    -0.532 OA
ENDBRANCH  16  25
BRANCH  17  28
HETATM   28  N5  UNL     1       8.472 -17.495   6.112  1.00  0.00    -0.383 N 
ATOM     29  H52 UNL     1       8.023 -17.627   5.206  1.00  0.00     0.157 HD
ATOM     30  H51 UNL     1       8.291 -18.097   6.915  1.00  0.00     0.157 HD
ENDBRANCH  17  28
ENDBRANCH   6   7
ENDBRANCH   5   6
ENDBRANCH   4   5
ENDBRANCH   3   4
TORSDOF 8
ENDMDL
MODEL 4
REMARK VINA RESULT: -6.568874809      2.452      5.701
REMARK  8 active torsions:
REMARK  status: ('A' for Active; 'I' for Inactive)
REMARK    1  A    between atoms: C2_3  and  C3_4 
REMARK    2  A    between atoms: C3_4  and  C4_5 
REMARK    3  A    between atoms: C4_5  and  C5_6 
REMARK    4  A    between atoms: C5_6  and  N2_7 
REMARK    5  A    between atoms: C6_8  and  O1_9 
REMARK    6  A    between atoms: O1_9  and  C7_10 
REMARK    7  A    between atoms: C18_23  and  N4_24 
REMARK    8  A    between atoms: C19_27  and  N5_28 
ROOT
HETATM    1  N1  UNL     1      11.548 -10.352   0.416  1.00  0.00    -0.197 NA
HETATM    2  C1  UNL     1      11.100 -10.706   1.427  1.00  0.00     0.059 C 
HETATM    3  C2  UNL     1      10.545 -11.178   2.708  1.00  0.00     0.124 C 
ENDROOT
BRANCH   3   4
HETATM    4  C3  UNL     1      10.892 -12.637   2.824  1.00  0.00     0.016 C 
BRANCH   4   5
HETATM    5  C4  UNL     1      10.425 -13.260   4.121  1.00  0.00     0.021 C 
BRANCH   5   6
HETATM    6  C5  UNL     1      11.076 -14.602   4.282  1.00  0.00     0.133 C 
BRANCH   6   7
HETATM    7  N2  UNL     1      10.165 -15.675   4.504  1.00  0.00    -0.311 N 
HETATM    8  C6  UNL     1       9.711 -15.981   5.723  1.00  0.00     0.159 A 
HETATM    9  C13 UNL     1       8.819 -17.076   5.904  1.00  0.00     0.044 A 
HETATM   10  C14 UNL     1       8.357 -17.379   7.190  1.00  0.00     0.019 A 
HETATM   11  C17 UNL     1       8.425 -17.815   4.846  1.00  0.00     0.084 A 
HETATM   12  C15 UNL     1       7.499 -18.442   7.326  1.00  0.00     0.018 A 
HETATM   13  C16 UNL     1       7.141 -19.146   6.215  1.00  0.00     0.088 A 
HETATM   14  N3  UNL     1       7.576 -18.868   4.978  1.00  0.00    -0.363 N 
ATOM     15  H3  UNL     1       7.283 -19.421   4.172  1.00  0.00     0.165 HD
HETATM   16  C18 UNL     1       8.906 -17.483   3.581  1.00  0.00     0.174 A 
HETATM   17  C19 UNL     1       9.762 -16.423   3.456  1.00  0.00     0.139 A 
BRANCH   8  18
HETATM   18  O1  UNL     1      10.024 -15.329   6.826  1.00  0.00    -0.329 OA
BRANCH  18  19
HETATM   19  C7  UNL     1      10.095 -14.312   7.647  1.00  0.00     0.130 C 
HETATM   20  C8  UNL     1      11.416 -14.244   8.416  1.00  0.00     0.032 C 
HETATM   21  C9  UNL     1      11.433 -13.003   9.279  1.00  0.00     0.002 C 
HETATM   22  C10 UNL     1      10.418 -13.258  10.403  1.00  0.00     0.000 C 
HETATM   23  C11 UNL     1       9.072 -13.344   9.716  1.00  0.00     0.002 C 
HETATM   24  C12 UNL     1       9.029 -14.517   8.766  1.00  0.00     0.032 C 
ENDBRANCH  18  19
ENDBRANCH   8  18
BRANCH  16  25
HETATM   25  N4  UNL     1       8.484 -18.269   2.465  1.00  0.00    -0.109 N 
HETATM   26  O2  UNL     1       9.335 -18.934   1.846  1.00  0.00    -0.532 OA
HETATM   27  O3  UNL     1       7.149 -18.293   2.080  1.00  0.00    -0.532 OA
ENDBRANCH  16  25
BRANCH  17  28
HETATM   28  N5  UNL     1      10.191 -16.145   2.250  1.00  0.00    -0.383 N 
ATOM     29  H52 UNL     1       9.910 -15.248   1.854  1.00  0.00     0.157 HD
ATOM     30  H51 UNL     1      10.779 -16.813   1.751  1.00  0.00     0.157 HD
ENDBRANCH  17  28
ENDBRANCH   6   7
ENDBRANCH   5   6
ENDBRANCH   4   5
ENDBRANCH   3   4
TORSDOF 8
ENDMDL
MODEL 5
REMARK VINA RESULT: -6.555795813      2.405      5.656
REMARK  8 active torsions:
REMARK  status: ('A' for Active; 'I' for Inactive)
REMARK    1  A    between atoms: C2_3  and  C3_4 
REMARK    2  A    between atoms: C3_4  and  C4_5 
REMARK    3  A    between atoms: C4_5  and  C5_6 
REMARK    4  A    between atoms: C5_6  and  N2_7 
REMARK    5  A    between atoms: C6_8  and  O1_9 
REMARK    6  A    between atoms: O1_9  and  C7_10 
REMARK    7  A    between atoms: C18_23  and  N4_24 
REMARK    8  A    between atoms: C19_27  and  N5_28 
ROOT
HETATM    1  N1  UNL     1      11.544 -10.576   0.044  1.00  0.00    -0.197 NA
HETATM    2  C1  UNL     1      11.137 -10.948   1.066  1.00  0.00     0.059 C 
HETATM    3  C2  UNL     1      10.631 -11.444   2.358  1.00  0.00     0.124 C 
ENDROOT
BRANCH   3   4
HETATM    4  C3  UNL     1      10.841 -12.933   2.368  1.00  0.00     0.016 C 
BRANCH   4   5
HETATM    5  C4  UNL     1      10.447 -13.583   3.676  1.00  0.00     0.021 C 
BRANCH   5   6
HETATM    6  C5  UNL     1      11.068 -14.947   3.752  1.00  0.00     0.133 C 
BRANCH   6   7
HETATM    7  N2  UNL     1      10.160 -15.988   4.103  1.00  0.00    -0.311 N 
HETATM    8  C6  UNL     1       9.723 -16.157   5.354  1.00  0.00     0.159 A 
HETATM    9  C13 UNL     1       8.834 -17.226   5.665  1.00  0.00     0.044 A 
HETATM   10  C14 UNL     1       8.389 -17.385   6.983  1.00  0.00     0.019 A 
HETATM   11  C17 UNL     1       8.426 -18.075   4.700  1.00  0.00     0.084 A 
HETATM   12  C15 UNL     1       7.533 -18.426   7.247  1.00  0.00     0.018 A 
HETATM   13  C16 UNL     1       7.160 -19.247   6.224  1.00  0.00     0.088 A 
HETATM   14  N3  UNL     1       7.579 -19.106   4.958  1.00  0.00    -0.363 N 
ATOM     15  H3  UNL     1       7.275 -19.744   4.222  1.00  0.00     0.165 HD
HETATM   16  C18 UNL     1       8.890 -17.885   3.401  1.00  0.00     0.174 A 
HETATM   17  C19 UNL     1       9.743 -16.845   3.149  1.00  0.00     0.139 A 
BRANCH   8  18
HETATM   18  O1  UNL     1      10.050 -15.390   6.374  1.00  0.00    -0.329 OA
BRANCH  18  19
HETATM   19  C7  UNL     1      10.676 -15.042   7.471  1.00  0.00     0.130 C 
HETATM   20  C8  UNL     1       9.736 -14.594   8.591  1.00  0.00     0.032 C 
HETATM   21  C9  UNL     1      10.541 -14.285   9.831  1.00  0.00     0.002 C 
HETATM   22  C10 UNL     1      11.311 -12.993   9.523  1.00  0.00     0.000 C 
HETATM   23  C11 UNL     1      12.270 -13.355   8.408  1.00  0.00     0.002 C 
HETATM   24  C12 UNL     1      11.517 -13.765   7.165  1.00  0.00     0.032 C 
ENDBRANCH  18  19
ENDBRANCH   8  18
BRANCH  16  25
HETATM   25  N4  UNL     1       8.453 -18.788   2.383  1.00  0.00    -0.109 N 
HETATM   26  O2  UNL     1       9.124 -19.813   2.165  1.00  0.00    -0.532 OA
HETATM   27  O3  UNL     1       7.300 -18.528   1.653  1.00  0.00    -0.532 OA
ENDBRANCH  16  25
BRANCH  17  28
HETATM   28  N5  UNL     1      10.156 -16.702   1.913  1.00  0.00    -0.383 N 
ATOM     29  H52 UNL     1      10.949 -17.273   1.621  1.00  0.00     0.157 HD
ATOM     30  H51 UNL     1       9.687 -16.042   1.293  1.00  0.00     0.157 HD
ENDBRANCH  17  28
ENDBRANCH   6   7
ENDBRANCH   5   6
ENDBRANCH   4   5
ENDBRANCH   3   4
TORSDOF 8
ENDMDL
