MODEL 1
REMARK VINA RESULT: -4.924013393      0.000      0.000
REMARK  1 active torsions:
REMARK  status: ('A' for Active; 'I' for Inactive)
REMARK    1  A    between atoms: C3_3  and  C4_4 
ROOT
HETATM    1  C1  UNL     1      -3.550 -10.313 -16.834  1.00  0.00     0.017 C 
HETATM    2  C2  UNL     1      -3.209 -11.298 -16.226  1.00  0.00    -0.087 C 
HETATM    3  C3  UNL     1      -2.802 -12.468 -15.531  1.00  0.00     0.093 C 
ENDROOT
BRANCH   3   4
HETATM    4  C4  UNL     1      -2.324 -13.510 -16.175  1.00  0.00     0.046 A 
HETATM    5  N1  UNL     1      -2.448 -13.712 -17.510  1.00  0.00    -0.356 N 
HETATM    6  C5  UNL     1      -1.844 -14.866 -17.813  1.00  0.00     0.023 A 
ATOM      7  H1  UNL     1      -2.919 -13.092 -18.168  1.00  0.00     0.166 HD
HETATM    8  C6  UNL     1      -1.760 -15.397 -19.032  1.00  0.00     0.043 C 
HETATM    9  C7  UNL     1      -1.308 -15.442 -16.656  1.00  0.00     0.037 A 
HETATM   10  C8  UNL     1      -1.618 -14.575 -15.632  1.00  0.00    -0.033 A 
HETATM   11  C9  UNL     1      -1.274 -14.725 -14.196  1.00  0.00     0.050 C 
ENDBRANCH   3   4
TORSDOF 1
ENDMDL
MODEL 2
REMARK VINA RESULT: -4.749855536      1.422      1.483
REMARK  1 active torsions:
REMARK  status: ('A' for Active; 'I' for Inactive)
REMARK    1  A    between atoms: C3_3  and  C4_4 
ROOT
HETATM    1  C1  UNL     1      -0.299  -9.850 -16.052  1.00  0.00     0.017 C 
HETATM    2  C2  UNL     1      -1.223 -10.620 -16.150  1.00  0.00    -0.087 C 
HETATM    3  C3  UNL     1      -2.295 -11.544 -16.269  1.00  0.00     0.093 C 
ENDROOT
BRANCH   3   4
HETATM    4  C4  UNL     1      -2.070 -12.827 -16.453  1.00  0.00     0.046 A 
HETATM    5  N1  UNL     1      -2.041 -13.437 -17.662  1.00  0.00    -0.356 N 
HETATM    6  C5  UNL     1      -1.786 -14.736 -17.467  1.00  0.00     0.023 A 
ATOM      7  H1  UNL     1      -2.189 -12.986 -18.565  1.00  0.00     0.166 HD
HETATM    8  C6  UNL     1      -1.683 -15.655 -18.425  1.00  0.00     0.043 C 
HETATM    9  C7  UNL     1      -1.641 -14.992 -16.099  1.00  0.00     0.037 A 
HETATM   10  C8  UNL     1      -1.822 -13.779 -15.473  1.00  0.00    -0.033 A 
HETATM   11  C9  UNL     1      -1.769 -13.506 -14.015  1.00  0.00     0.050 C 
ENDBRANCH   3   4
TORSDOF 1
ENDMDL
MODEL 3
REMARK VINA RESULT: -4.734328537      2.025      3.775
REMARK  1 active torsions:
REMARK  status: ('A' for Active; 'I' for Inactive)
REMARK    1  A    between atoms: C3_3  and  C4_4 
ROOT
HETATM    1  C1  UNL     1      -1.567 -15.739 -18.511  1.00  0.00     0.017 C 
HETATM    2  C2  UNL     1      -1.939 -14.825 -17.817  1.00  0.00    -0.087 C 
HETATM    3  C3  UNL     1      -2.355 -13.745 -16.993  1.00  0.00     0.093 C 
ENDROOT
BRANCH   3   4
HETATM    4  C4  UNL     1      -1.486 -13.051 -16.293  1.00  0.00     0.046 A 
HETATM    5  N1  UNL     1      -1.020 -11.826 -16.640  1.00  0.00    -0.356 N 
HETATM    6  C5  UNL     1      -0.157 -11.427 -15.699  1.00  0.00     0.023 A 
ATOM      7  H1  UNL     1      -1.282 -11.301 -17.474  1.00  0.00     0.166 HD
HETATM    8  C6  UNL     1       0.505 -10.271 -15.699  1.00  0.00     0.043 C 
HETATM    9  C7  UNL     1      -0.048 -12.406 -14.707  1.00  0.00     0.037 A 
HETATM   10  C8  UNL     1      -0.892 -13.423 -15.093  1.00  0.00    -0.033 A 
HETATM   11  C9  UNL     1      -1.143 -14.701 -14.381  1.00  0.00     0.050 C 
ENDBRANCH   3   4
TORSDOF 1
ENDMDL
MODEL 4
REMARK VINA RESULT: -4.695234636      2.442      4.507
REMARK  1 active torsions:
REMARK  status: ('A' for Active; 'I' for Inactive)
REMARK    1  A    between atoms: C3_3  and  C4_4 
ROOT
HETATM    1  C1  UNL     1      -1.356 -15.746 -17.356  1.00  0.00     0.017 C 
HETATM    2  C2  UNL     1      -1.406 -15.243 -16.260  1.00  0.00    -0.087 C 
HETATM    3  C3  UNL     1      -1.455 -14.632 -14.979  1.00  0.00     0.093 C 
ENDROOT
BRANCH   3   4
HETATM    4  C4  UNL     1      -1.063 -13.389 -14.804  1.00  0.00     0.046 A 
HETATM    5  N1  UNL     1       0.148 -13.026 -14.315  1.00  0.00    -0.356 N 
HETATM    6  C5  UNL     1       0.197 -11.689 -14.276  1.00  0.00     0.023 A 
ATOM      7  H1  UNL     1       0.892 -13.661 -14.026  1.00  0.00     0.166 HD
HETATM    8  C6  UNL     1       1.233 -10.967 -13.851  1.00  0.00     0.043 C 
HETATM    9  C7  UNL     1      -1.005 -11.155 -14.750  1.00  0.00     0.037 A 
HETATM   10  C8  UNL     1      -1.789 -12.237 -15.080  1.00  0.00    -0.033 A 
HETATM   11  C9  UNL     1      -3.167 -12.213 -15.632  1.00  0.00     0.050 C 
ENDBRANCH   3   4
TORSDOF 1
ENDMDL
MODEL 5
REMARK VINA RESULT: -4.664124721      0.990      1.238
REMARK  1 active torsions:
REMARK  status: ('A' for Active; 'I' for Inactive)
REMARK    1  A    between atoms: C3_3  and  C4_4 
ROOT
HETATM    1  C1  UNL     1      -1.256 -10.752 -14.323  1.00  0.00     0.017 C 
HETATM    2  C2  UNL     1      -1.994 -11.566 -14.822  1.00  0.00    -0.087 C 
HETATM    3  C3  UNL     1      -2.844 -12.535 -15.418  1.00  0.00     0.093 C 
ENDROOT
BRANCH   3   4
HETATM    4  C4  UNL     1      -2.350 -13.547 -16.097  1.00  0.00     0.046 A 
HETATM    5  N1  UNL     1      -2.479 -13.711 -17.437  1.00  0.00    -0.356 N 
HETATM    6  C5  UNL     1      -1.854 -14.843 -17.779  1.00  0.00     0.023 A 
ATOM      7  H1  UNL     1      -2.968 -13.081 -18.072  1.00  0.00     0.166 HD
HETATM    8  C6  UNL     1      -1.769 -15.334 -19.015  1.00  0.00     0.043 C 
HETATM    9  C7  UNL     1      -1.298 -15.442 -16.645  1.00  0.00     0.037 A 
HETATM   10  C8  UNL     1      -1.617 -14.614 -15.592  1.00  0.00    -0.033 A 
HETATM   11  C9  UNL     1      -1.260 -14.799 -14.164  1.00  0.00     0.050 C 
ENDBRANCH   3   4
TORSDOF 1
ENDMDL
