MODEL 1
REMARK VINA RESULT: -8.512407908      0.000      0.000
REMARK  12 active torsions:
REMARK  status: ('A' for Active; 'I' for Inactive)
REMARK    1  A    between atoms: N1_1  and  C1_5 
REMARK    2  A    between atoms: N2_8  and  C4_9 
REMARK    3  A    between atoms: C4_9  and  C5_10 
REMARK    4  A    between atoms: C5_10  and  C6_11 
REMARK    5  A    between atoms: C6_11  and  C7_12 
REMARK    6  A    between atoms: C7_12  and  C8_13 
REMARK    7  A    between atoms: C8_13  and  C9_14 
REMARK    8  A    between atoms: C9_14  and  N3_15 
REMARK    9  A    between atoms: N5_25  and  C16_27 
REMARK   10  A    between atoms: C16_27  and  C17_28 
REMARK   11  A    between atoms: C17_28  and  C18_29 
REMARK   12  A    between atoms: C18_29  and  N6_30 
ROOT
HETATM    1  N3  UNL     1       9.640 129.940 358.804  1.00  0.00    -0.365 N 
HETATM    2  C10 UNL     1       9.304 129.147 359.841  1.00  0.00     0.092 A 
HETATM    3  C11 UNL     1       8.058 128.551 359.838  1.00  0.00     0.047 A 
HETATM    4  C12 UNL     1       7.171 128.772 358.779  1.00  0.00     0.047 A 
HETATM    5  N4  UNL     1       5.950 128.200 358.756  1.00  0.00    -0.363 N 
ATOM      6  H4  UNL     1       5.670 127.595 359.528  1.00  0.00     0.165 HD
HETATM    7  C13 UNL     1       5.096 128.408 357.744  1.00  0.00     0.114 A 
HETATM    8  C14 UNL     1       5.438 129.231 356.663  1.00  0.00     0.076 A 
HETATM    9 CL1  UNL     1       4.249 129.434 355.392  1.00  0.00    -0.080 Cl
HETATM   10  C15 UNL     1       6.676 129.820 356.673  1.00  0.00     0.065 A 
HETATM   11  N5  UNL     1       7.070 130.567 355.755  1.00  0.00    -0.388 N 
ATOM     12  H5  UNL     1       8.012 130.933 355.894  1.00  0.00     0.159 HD
HETATM   13  C22 UNL     1       7.560 129.585 357.752  1.00  0.00     0.034 A 
HETATM   14  C23 UNL     1       8.806 130.177 357.762  1.00  0.00     0.106 A 
ENDROOT
BRANCH   1  15
HETATM   15  C9  UNL     1      10.979 130.546 358.859  1.00  0.00     0.128 C 
BRANCH  15  16
HETATM   16  C8  UNL     1      11.968 129.504 359.313  1.00  0.00     0.020 C 
BRANCH  16  17
HETATM   17  C7  UNL     1      13.362 130.095 359.441  1.00  0.00     0.002 C 
BRANCH  17  18
HETATM   18  C6  UNL     1      13.804 130.203 360.858  1.00  0.00     0.002 C 
BRANCH  18  19
HETATM   19  C5  UNL     1      13.013 131.251 361.576  1.00  0.00     0.019 C 
BRANCH  19  20
HETATM   20  C4  UNL     1      13.042 131.052 363.071  1.00  0.00     0.117 C 
BRANCH  20  21
HETATM   21  N2  UNL     1      11.711 130.664 363.495  1.00  0.00    -0.412 N 
HETATM   22  C3  UNL     1      11.452 130.819 364.887  1.00  0.00     0.119 C 
HETATM   23  C2  UNL     1      10.533 132.013 365.155  1.00  0.00     0.052 C 
HETATM   24  C1  UNL     1       9.244 131.869 364.419  1.00  0.00     0.186 C 
HETATM   25  C25 UNL     1       9.344 130.804 363.325  1.00  0.00     0.052 C 
HETATM   26  C24 UNL     1      10.672 131.108 362.622  1.00  0.00     0.119 C 
BRANCH  24  27
HETATM   27  N1  UNL     1       8.128 131.649 365.296  1.00  0.00    -0.075 N 
ATOM     28  H13 UNL     1       8.186 132.248 366.120  1.00  0.00     0.274 HD
ATOM     29  H12 UNL     1       7.265 132.010 364.890  1.00  0.00     0.274 HD
ATOM     30  H11 UNL     1       8.026 130.670 365.562  1.00  0.00     0.274 HD
ENDBRANCH  24  27
ENDBRANCH  20  21
ENDBRANCH  19  20
ENDBRANCH  18  19
ENDBRANCH  17  18
ENDBRANCH  16  17
ENDBRANCH  15  16
ENDBRANCH   1  15
BRANCH  11  31
HETATM   31  C16 UNL     1       6.465 130.998 354.574  1.00  0.00     0.121 C 
BRANCH  31  32
HETATM   32  C17 UNL     1       6.760 132.485 354.279  1.00  0.00     0.040 C 
BRANCH  32  33
HETATM   33  C18 UNL     1       5.411 133.171 354.127  1.00  0.00     0.139 C 
BRANCH  33  34
HETATM   34  N6  UNL     1       5.524 134.594 354.144  1.00  0.00    -0.226 N 
HETATM   35  C19 UNL     1       4.692 135.416 354.675  1.00  0.00     0.677 A 
HETATM   36  N7  UNL     1       3.557 135.116 355.317  1.00  0.00    -0.201 N 
HETATM   37  N8  UNL     1       4.845 136.744 354.661  1.00  0.00    -0.201 N 
HETATM   38  C20 UNL     1       2.997 136.272 355.709  1.00  0.00     0.123 A 
ATOM     39  H7  UNL     1       3.184 134.181 355.479  1.00  0.00     0.183 HD
HETATM   40  C21 UNL     1       3.806 137.306 355.297  1.00  0.00     0.123 A 
ATOM     41  H8  UNL     1       5.624 137.247 354.237  1.00  0.00     0.183 HD
ATOM     42  H6  UNL     1       6.344 134.996 353.690  1.00  0.00     0.177 HD
ENDBRANCH  33  34
ENDBRANCH  32  33
ENDBRANCH  31  32
ENDBRANCH  11  31
TORSDOF 12
ENDMDL
MODEL 2
REMARK VINA RESULT: -8.498053328      7.836     11.197
REMARK  12 active torsions:
REMARK  status: ('A' for Active; 'I' for Inactive)
REMARK    1  A    between atoms: N1_1  and  C1_5 
REMARK    2  A    between atoms: N2_8  and  C4_9 
REMARK    3  A    between atoms: C4_9  and  C5_10 
REMARK    4  A    between atoms: C5_10  and  C6_11 
REMARK    5  A    between atoms: C6_11  and  C7_12 
REMARK    6  A    between atoms: C7_12  and  C8_13 
REMARK    7  A    between atoms: C8_13  and  C9_14 
REMARK    8  A    between atoms: C9_14  and  N3_15 
REMARK    9  A    between atoms: N5_25  and  C16_27 
REMARK   10  A    between atoms: C16_27  and  C17_28 
REMARK   11  A    between atoms: C17_28  and  C18_29 
REMARK   12  A    between atoms: C18_29  and  N6_30 
ROOT
HETATM    1  N3  UNL     1       6.671 133.401 351.615  1.00  0.00    -0.365 N 
HETATM    2  C10 UNL     1       6.363 132.171 352.072  1.00  0.00     0.092 A 
HETATM    3  C11 UNL     1       5.521 132.064 353.161  1.00  0.00     0.047 A 
HETATM    4  C12 UNL     1       5.005 133.213 353.771  1.00  0.00     0.047 A 
HETATM    5  N4  UNL     1       4.182 133.132 354.835  1.00  0.00    -0.363 N 
ATOM      6  H4  UNL     1       3.931 132.213 355.202  1.00  0.00     0.165 HD
HETATM    7  C13 UNL     1       3.683 134.229 355.424  1.00  0.00     0.114 A 
HETATM    8  C14 UNL     1       3.999 135.511 354.955  1.00  0.00     0.076 A 
HETATM    9 CL1  UNL     1       3.293 136.876 355.795  1.00  0.00    -0.080 Cl
HETATM   10  C15 UNL     1       4.836 135.608 353.873  1.00  0.00     0.065 A 
HETATM   11  N5  UNL     1       5.173 136.706 353.384  1.00  0.00    -0.388 N 
ATOM     12  H5  UNL     1       5.798 136.627 352.582  1.00  0.00     0.159 HD
HETATM   13  C22 UNL     1       5.349 134.436 353.269  1.00  0.00     0.034 A 
HETATM   14  C23 UNL     1       6.190 134.534 352.180  1.00  0.00     0.106 A 
ENDROOT
BRANCH   1  15
HETATM   15  C9  UNL     1       7.569 133.454 350.452  1.00  0.00     0.128 C 
BRANCH  15  16
HETATM   16  C8  UNL     1       8.728 132.519 350.686  1.00  0.00     0.020 C 
BRANCH  16  17
HETATM   17  C7  UNL     1      10.038 133.155 350.253  1.00  0.00     0.002 C 
BRANCH  17  18
HETATM   18  C6  UNL     1       9.934 134.633 350.118  1.00  0.00     0.002 C 
BRANCH  18  19
HETATM   19  C5  UNL     1      10.593 135.093 348.855  1.00  0.00     0.019 C 
BRANCH  19  20
HETATM   20  C4  UNL     1       9.920 134.524 347.631  1.00  0.00     0.117 C 
BRANCH  20  21
HETATM   21  N2  UNL     1       9.138 135.581 347.019  1.00  0.00    -0.412 N 
HETATM   22  C3  UNL     1       7.728 135.396 347.073  1.00  0.00     0.119 C 
HETATM   23  C2  UNL     1       7.079 136.335 348.094  1.00  0.00     0.052 C 
HETATM   24  C1  UNL     1       7.387 137.760 347.778  1.00  0.00     0.186 C 
HETATM   25  C25 UNL     1       8.548 137.872 346.789  1.00  0.00     0.052 C 
HETATM   26  C24 UNL     1       9.600 136.896 347.328  1.00  0.00     0.119 C 
BRANCH  24  27
HETATM   27  N1  UNL     1       6.229 138.492 347.347  1.00  0.00    -0.075 N 
ATOM     28  H13 UNL     1       5.537 137.870 346.930  1.00  0.00     0.274 HD
ATOM     29  H12 UNL     1       5.689 138.827 348.145  1.00  0.00     0.274 HD
ATOM     30  H11 UNL     1       6.462 139.257 346.714  1.00  0.00     0.274 HD
ENDBRANCH  24  27
ENDBRANCH  20  21
ENDBRANCH  19  20
ENDBRANCH  18  19
ENDBRANCH  17  18
ENDBRANCH  16  17
ENDBRANCH  15  16
ENDBRANCH   1  15
BRANCH  11  31
HETATM   31  C16 UNL     1       4.857 138.020 353.728  1.00  0.00     0.121 C 
BRANCH  31  32
HETATM   32  C17 UNL     1       5.354 139.032 352.672  1.00  0.00     0.040 C 
BRANCH  32  33
HETATM   33  C18 UNL     1       4.276 140.098 352.553  1.00  0.00     0.139 C 
BRANCH  33  34
HETATM   34  N6  UNL     1       4.664 141.329 353.161  1.00  0.00    -0.226 N 
HETATM   35  C19 UNL     1       3.954 142.398 353.234  1.00  0.00     0.677 A 
HETATM   36  N7  UNL     1       2.716 142.580 352.761  1.00  0.00    -0.201 N 
HETATM   37  N8  UNL     1       4.367 143.528 353.816  1.00  0.00    -0.201 N 
HETATM   38  C20 UNL     1       2.353 143.839 353.053  1.00  0.00     0.123 A 
ATOM     39  H7  UNL     1       2.150 141.889 352.269  1.00  0.00     0.183 HD
HETATM   40  C21 UNL     1       3.393 144.445 353.720  1.00  0.00     0.123 A 
ATOM     41  H8  UNL     1       5.274 143.670 354.260  1.00  0.00     0.183 HD
ATOM     42  H6  UNL     1       5.594 141.364 353.578  1.00  0.00     0.177 HD
ENDBRANCH  33  34
ENDBRANCH  32  33
ENDBRANCH  31  32
ENDBRANCH  11  31
TORSDOF 12
ENDMDL
MODEL 3
REMARK VINA RESULT: -8.487144218      2.079      3.269
REMARK  12 active torsions:
REMARK  status: ('A' for Active; 'I' for Inactive)
REMARK    1  A    between atoms: N1_1  and  C1_5 
REMARK    2  A    between atoms: N2_8  and  C4_9 
REMARK    3  A    between atoms: C4_9  and  C5_10 
REMARK    4  A    between atoms: C5_10  and  C6_11 
REMARK    5  A    between atoms: C6_11  and  C7_12 
REMARK    6  A    between atoms: C7_12  and  C8_13 
REMARK    7  A    between atoms: C8_13  and  C9_14 
REMARK    8  A    between atoms: C9_14  and  N3_15 
REMARK    9  A    between atoms: N5_25  and  C16_27 
REMARK   10  A    between atoms: C16_27  and  C17_28 
REMARK   11  A    between atoms: C17_28  and  C18_29 
REMARK   12  A    between atoms: C18_29  and  N6_30 
ROOT
HETATM    1  N3  UNL     1       8.751 129.055 359.284  1.00  0.00    -0.365 N 
HETATM    2  C10 UNL     1       8.936 129.593 360.506  1.00  0.00     0.092 A 
HETATM    3  C11 UNL     1       7.846 129.706 361.347  1.00  0.00     0.047 A 
HETATM    4  C12 UNL     1       6.584 129.270 360.931  1.00  0.00     0.047 A 
HETATM    5  N4  UNL     1       5.507 129.371 361.737  1.00  0.00    -0.363 N 
ATOM      6  H4  UNL     1       5.618 129.774 362.667  1.00  0.00     0.165 HD
HETATM    7  C13 UNL     1       4.294 128.955 361.344  1.00  0.00     0.114 A 
HETATM    8  C14 UNL     1       4.095 128.395 360.075  1.00  0.00     0.076 A 
HETATM    9 CL1  UNL     1       2.472 127.883 359.663  1.00  0.00    -0.080 Cl
HETATM   10  C15 UNL     1       5.181 128.287 359.246  1.00  0.00     0.065 A 
HETATM   11  N5  UNL     1       5.102 127.801 358.099  1.00  0.00    -0.388 N 
ATOM     12  H5  UNL     1       5.989 127.782 357.595  1.00  0.00     0.159 HD
HETATM   13  C22 UNL     1       6.450 128.733 359.682  1.00  0.00     0.034 A 
HETATM   14  C23 UNL     1       7.543 128.623 358.848  1.00  0.00     0.106 A 
ENDROOT
BRANCH   1  15
HETATM   15  C9  UNL     1       9.946 128.958 358.432  1.00  0.00     0.128 C 
BRANCH  15  16
HETATM   16  C8  UNL     1      11.041 129.804 359.027  1.00  0.00     0.020 C 
BRANCH  16  17
HETATM   17  C7  UNL     1      12.377 129.082 358.979  1.00  0.00     0.002 C 
BRANCH  17  18
HETATM   18  C6  UNL     1      13.436 129.795 359.744  1.00  0.00     0.002 C 
BRANCH  18  19
HETATM   19  C5  UNL     1      12.847 130.927 360.526  1.00  0.00     0.019 C 
BRANCH  19  20
HETATM   20  C4  UNL     1      13.401 130.991 361.927  1.00  0.00     0.117 C 
BRANCH  20  21
HETATM   21  N2  UNL     1      12.474 131.756 362.739  1.00  0.00    -0.412 N 
HETATM   22  C3  UNL     1      11.105 131.391 362.596  1.00  0.00     0.119 C 
HETATM   23  C2  UNL     1      10.600 130.623 363.820  1.00  0.00     0.052 C 
HETATM   24  C1  UNL     1      10.777 131.428 365.064  1.00  0.00     0.186 C 
HETATM   25  C25 UNL     1      11.742 132.594 364.839  1.00  0.00     0.052 C 
HETATM   26  C24 UNL     1      12.918 131.971 364.078  1.00  0.00     0.119 C 
BRANCH  24  27
HETATM   27  N1  UNL     1       9.528 131.852 365.630  1.00  0.00    -0.075 N 
ATOM     28  H13 UNL     1       8.786 131.838 364.930  1.00  0.00     0.274 HD
ATOM     29  H12 UNL     1       9.160 131.152 366.274  1.00  0.00     0.274 HD
ATOM     30  H11 UNL     1       9.591 132.766 366.079  1.00  0.00     0.274 HD
ENDBRANCH  24  27
ENDBRANCH  20  21
ENDBRANCH  19  20
ENDBRANCH  18  19
ENDBRANCH  17  18
ENDBRANCH  16  17
ENDBRANCH  15  16
ENDBRANCH   1  15
BRANCH  11  31
HETATM   31  C16 UNL     1       4.030 127.280 357.375  1.00  0.00     0.121 C 
BRANCH  31  32
HETATM   32  C17 UNL     1       3.567 128.235 356.253  1.00  0.00     0.040 C 
BRANCH  32  33
HETATM   33  C18 UNL     1       4.827 128.847 355.659  1.00  0.00     0.139 C 
BRANCH  33  34
HETATM   34  N6  UNL     1       4.607 130.171 355.175  1.00  0.00    -0.226 N 
HETATM   35  C19 UNL     1       5.058 131.256 355.694  1.00  0.00     0.677 A 
HETATM   36  N7  UNL     1       5.822 131.372 356.788  1.00  0.00    -0.201 N 
HETATM   37  N8  UNL     1       4.821 132.475 355.200  1.00  0.00    -0.201 N 
HETATM   38  C20 UNL     1       6.063 132.680 356.975  1.00  0.00     0.123 A 
ATOM     39  H7  UNL     1       6.159 130.608 357.372  1.00  0.00     0.183 HD
HETATM   40  C21 UNL     1       5.433 133.383 355.974  1.00  0.00     0.123 A 
ATOM     41  H8  UNL     1       4.266 132.680 354.369  1.00  0.00     0.183 HD
ATOM     42  H6  UNL     1       4.036 130.265 354.334  1.00  0.00     0.177 HD
ENDBRANCH  33  34
ENDBRANCH  32  33
ENDBRANCH  31  32
ENDBRANCH  11  31
TORSDOF 12
ENDMDL
MODEL 4
REMARK VINA RESULT: -8.480289727      2.543      4.950
REMARK  12 active torsions:
REMARK  status: ('A' for Active; 'I' for Inactive)
REMARK    1  A    between atoms: N1_1  and  C1_5 
REMARK    2  A    between atoms: N2_8  and  C4_9 
REMARK    3  A    between atoms: C4_9  and  C5_10 
REMARK    4  A    between atoms: C5_10  and  C6_11 
REMARK    5  A    between atoms: C6_11  and  C7_12 
REMARK    6  A    between atoms: C7_12  and  C8_13 
REMARK    7  A    between atoms: C8_13  and  C9_14 
REMARK    8  A    between atoms: C9_14  and  N3_15 
REMARK    9  A    between atoms: N5_25  and  C16_27 
REMARK   10  A    between atoms: C16_27  and  C17_28 
REMARK   11  A    between atoms: C17_28  and  C18_29 
REMARK   12  A    between atoms: C18_29  and  N6_30 
ROOT
HETATM    1  N3  UNL     1       6.334 131.696 357.381  1.00  0.00    -0.365 N 
HETATM    2  C10 UNL     1       7.092 130.685 356.911  1.00  0.00     0.092 A 
HETATM    3  C11 UNL     1       7.440 130.689 355.575  1.00  0.00     0.047 A 
HETATM    4  C12 UNL     1       7.011 131.723 354.736  1.00  0.00     0.047 A 
HETATM    5  N4  UNL     1       7.340 131.746 353.428  1.00  0.00    -0.363 N 
ATOM      6  H4  UNL     1       7.913 130.994 353.046  1.00  0.00     0.165 HD
HETATM    7  C13 UNL     1       6.933 132.735 352.619  1.00  0.00     0.114 A 
HETATM    8  C14 UNL     1       6.145 133.789 353.100  1.00  0.00     0.076 A 
HETATM    9 CL1  UNL     1       5.669 135.030 351.960  1.00  0.00    -0.080 Cl
HETATM   10  C15 UNL     1       5.803 133.777 354.428  1.00  0.00     0.065 A 
HETATM   11  N5  UNL     1       5.106 134.673 354.948  1.00  0.00    -0.388 N 
ATOM     12  H5  UNL     1       4.932 134.536 355.943  1.00  0.00     0.159 HD
HETATM   13  C22 UNL     1       6.245 132.724 355.262  1.00  0.00     0.034 A 
HETATM   14  C23 UNL     1       5.901 132.713 356.598  1.00  0.00     0.106 A 
ENDROOT
BRANCH   1  15
HETATM   15  C9  UNL     1       5.996 131.641 358.812  1.00  0.00     0.128 C 
BRANCH  15  16
HETATM   16  C8  UNL     1       5.549 130.243 359.155  1.00  0.00     0.020 C 
BRANCH  16  17
HETATM   17  C7  UNL     1       6.201 129.762 360.440  1.00  0.00     0.002 C 
BRANCH  17  18
HETATM   18  C6  UNL     1       7.586 130.282 360.603  1.00  0.00     0.002 C 
BRANCH  18  19
HETATM   19  C5  UNL     1       8.350 129.442 361.578  1.00  0.00     0.019 C 
BRANCH  19  20
HETATM   20  C4  UNL     1       8.497 130.126 362.915  1.00  0.00     0.117 C 
BRANCH  20  21
HETATM   21  N2  UNL     1       9.644 131.010 362.840  1.00  0.00    -0.412 N 
HETATM   22  C3  UNL     1       9.863 131.813 363.995  1.00  0.00     0.119 C 
HETATM   23  C2  UNL     1      11.063 131.314 364.804  1.00  0.00     0.052 C 
HETATM   24  C1  UNL     1      12.298 131.293 363.968  1.00  0.00     0.186 C 
HETATM   25  C25 UNL     1      11.962 131.393 362.478  1.00  0.00     0.052 C 
HETATM   26  C24 UNL     1      10.809 130.402 362.282  1.00  0.00     0.119 C 
BRANCH  24  27
HETATM   27  N1  UNL     1      13.260 132.276 364.379  1.00  0.00    -0.075 N 
ATOM     28  H13 UNL     1      13.754 132.663 363.575  1.00  0.00     0.274 HD
ATOM     29  H12 UNL     1      12.800 133.123 364.713  1.00  0.00     0.274 HD
ATOM     30  H11 UNL     1      13.915 131.917 365.073  1.00  0.00     0.274 HD
ENDBRANCH  24  27
ENDBRANCH  20  21
ENDBRANCH  19  20
ENDBRANCH  18  19
ENDBRANCH  17  18
ENDBRANCH  16  17
ENDBRANCH  15  16
ENDBRANCH   1  15
BRANCH  11  31
HETATM   31  C16 UNL     1       4.521 135.826 354.424  1.00  0.00     0.121 C 
BRANCH  31  32
HETATM   32  C17 UNL     1       3.743 136.620 355.496  1.00  0.00     0.040 C 
BRANCH  32  33
HETATM   33  C18 UNL     1       4.266 138.048 355.440  1.00  0.00     0.139 C 
BRANCH  33  34
HETATM   34  N6  UNL     1       3.742 138.771 354.327  1.00  0.00    -0.226 N 
HETATM   35  C19 UNL     1       3.949 140.011 354.061  1.00  0.00     0.677 A 
HETATM   36  N7  UNL     1       4.691 140.876 354.763  1.00  0.00    -0.201 N 
HETATM   37  N8  UNL     1       3.431 140.642 353.003  1.00  0.00    -0.201 N 
HETATM   38  C20 UNL     1       4.636 142.060 354.132  1.00  0.00     0.123 A 
ATOM     39  H7  UNL     1       5.205 140.673 355.620  1.00  0.00     0.183 HD
HETATM   40  C21 UNL     1       3.840 141.920 353.019  1.00  0.00     0.123 A 
ATOM     41  H8  UNL     1       2.825 140.222 352.299  1.00  0.00     0.183 HD
ATOM     42  H6  UNL     1       3.145 138.254 353.682  1.00  0.00     0.177 HD
ENDBRANCH  33  34
ENDBRANCH  32  33
ENDBRANCH  31  32
ENDBRANCH  11  31
TORSDOF 12
ENDMDL
MODEL 5
REMARK VINA RESULT: -8.367633024      1.366      1.766
REMARK  12 active torsions:
REMARK  status: ('A' for Active; 'I' for Inactive)
REMARK    1  A    between atoms: N1_1  and  C1_5 
REMARK    2  A    between atoms: N2_8  and  C4_9 
REMARK    3  A    between atoms: C4_9  and  C5_10 
REMARK    4  A    between atoms: C5_10  and  C6_11 
REMARK    5  A    between atoms: C6_11  and  C7_12 
REMARK    6  A    between atoms: C7_12  and  C8_13 
REMARK    7  A    between atoms: C8_13  and  C9_14 
REMARK    8  A    between atoms: C9_14  and  N3_15 
REMARK    9  A    between atoms: N5_25  and  C16_27 
REMARK   10  A    between atoms: C16_27  and  C17_28 
REMARK   11  A    between atoms: C17_28  and  C18_29 
REMARK   12  A    between atoms: C18_29  and  N6_30 
ROOT
HETATM    1  N3  UNL     1       8.450 129.758 359.178  1.00  0.00    -0.365 N 
HETATM    2  C10 UNL     1       8.342 129.544 360.505  1.00  0.00     0.092 A 
HETATM    3  C11 UNL     1       7.120 129.144 361.010  1.00  0.00     0.047 A 
HETATM    4  C12 UNL     1       6.026 128.969 360.157  1.00  0.00     0.047 A 
HETATM    5  N4  UNL     1       4.824 128.579 360.629  1.00  0.00    -0.363 N 
ATOM      6  H4  UNL     1       4.714 128.409 361.629  1.00  0.00     0.165 HD
HETATM    7  C13 UNL     1       3.771 128.408 359.817  1.00  0.00     0.114 A 
HETATM    8  C14 UNL     1       3.876 128.628 358.437  1.00  0.00     0.076 A 
HETATM    9 CL1  UNL     1       2.441 128.375 357.466  1.00  0.00    -0.080 Cl
HETATM   10  C15 UNL     1       5.092 129.026 357.943  1.00  0.00     0.065 A 
HETATM   11  N5  UNL     1       5.282 129.245 356.729  1.00  0.00    -0.388 N 
ATOM     12  H5  UNL     1       6.235 129.532 356.505  1.00  0.00     0.159 HD
HETATM   13  C22 UNL     1       6.188 129.199 358.820  1.00  0.00     0.034 A 
HETATM   14  C23 UNL     1       7.411 129.598 358.323  1.00  0.00     0.106 A 
ENDROOT
BRANCH   1  15
HETATM   15  C9  UNL     1       9.774 130.179 358.696  1.00  0.00     0.128 C 
BRANCH  15  16
HETATM   16  C8  UNL     1      10.830 129.356 359.386  1.00  0.00     0.020 C 
BRANCH  16  17
HETATM   17  C7  UNL     1      12.218 129.725 358.892  1.00  0.00     0.002 C 
BRANCH  17  18
HETATM   18  C6  UNL     1      13.154 130.037 360.006  1.00  0.00     0.002 C 
BRANCH  18  19
HETATM   19  C5  UNL     1      12.655 131.205 360.798  1.00  0.00     0.019 C 
BRANCH  19  20
HETATM   20  C4  UNL     1      13.201 131.206 362.204  1.00  0.00     0.117 C 
BRANCH  20  21
HETATM   21  N2  UNL     1      12.135 130.796 363.098  1.00  0.00    -0.412 N 
HETATM   22  C3  UNL     1      12.313 131.169 364.460  1.00  0.00     0.119 C 
HETATM   23  C2  UNL     1      11.380 132.317 364.852  1.00  0.00     0.052 C 
HETATM   24  C1  UNL     1       9.954 131.948 364.616  1.00  0.00     0.186 C 
HETATM   25  C25 UNL     1       9.839 130.721 363.709  1.00  0.00     0.052 C 
HETATM   26  C24 UNL     1      10.825 131.000 362.568  1.00  0.00     0.119 C 
BRANCH  24  27
HETATM   27  N1  UNL     1       9.213 131.798 365.836  1.00  0.00    -0.075 N 
ATOM     28  H13 UNL     1       9.694 131.172 366.482  1.00  0.00     0.274 HD
ATOM     29  H12 UNL     1       9.237 132.656 366.389  1.00  0.00     0.274 HD
ATOM     30  H11 UNL     1       8.253 131.492 365.677  1.00  0.00     0.274 HD
ENDBRANCH  24  27
ENDBRANCH  20  21
ENDBRANCH  19  20
ENDBRANCH  18  19
ENDBRANCH  17  18
ENDBRANCH  16  17
ENDBRANCH  15  16
ENDBRANCH   1  15
BRANCH  11  31
HETATM   31  C16 UNL     1       4.438 129.172 355.621  1.00  0.00     0.121 C 
BRANCH  31  32
HETATM   32  C17 UNL     1       4.663 130.344 354.642  1.00  0.00     0.040 C 
BRANCH  32  33
HETATM   33  C18 UNL     1       5.433 131.408 355.410  1.00  0.00     0.139 C 
BRANCH  33  34
HETATM   34  N6  UNL     1       5.732 132.546 354.603  1.00  0.00    -0.226 N 
HETATM   35  C19 UNL     1       5.144 133.688 354.650  1.00  0.00     0.677 A 
HETATM   36  N7  UNL     1       4.139 134.047 355.458  1.00  0.00    -0.201 N 
HETATM   37  N8  UNL     1       5.463 134.724 353.869  1.00  0.00    -0.201 N 
HETATM   38  C20 UNL     1       3.829 135.322 355.177  1.00  0.00     0.123 A 
ATOM     39  H7  UNL     1       3.690 133.458 356.160  1.00  0.00     0.183 HD
HETATM   40  C21 UNL     1       4.663 135.757 354.172  1.00  0.00     0.123 A 
ATOM     41  H8  UNL     1       6.195 134.728 353.158  1.00  0.00     0.183 HD
ATOM     42  H6  UNL     1       6.485 132.443 353.922  1.00  0.00     0.177 HD
ENDBRANCH  33  34
ENDBRANCH  32  33
ENDBRANCH  31  32
ENDBRANCH  11  31
TORSDOF 12
ENDMDL
