MODEL 1
REMARK VINA RESULT: -6.651219128      0.000      0.000
REMARK  3 active torsions:
REMARK  status: ('A' for Active; 'I' for Inactive)
REMARK    1  A    between atoms: C2_2  and  C3_3 
REMARK    2  A    between atoms: C3_3  and  N1_4 
REMARK       I    between atoms: N1_4  and  C4_6 
REMARK    3  A    between atoms: C4_6  and  C5_8 
ROOT
HETATM    1  C5  UNL     1       4.257 143.879 352.223  1.00  0.00     0.086 C 
HETATM    2  C6  UNL     1       4.780 145.121 352.964  1.00  0.00     0.019 C 
HETATM    3  C7  UNL     1       3.540 145.980 352.931  1.00  0.00    -0.006 C 
HETATM    4  C8  UNL     1       3.195 146.117 351.435  1.00  0.00     0.049 C 
HETATM    5  C9  UNL     1       2.216 144.978 351.332  1.00  0.00     0.109 C 
HETATM    6  F1  UNL     1       1.695 144.627 350.186  1.00  0.00    -0.242 F 
HETATM    7  C10 UNL     1       1.278 145.344 352.493  1.00  0.00     0.049 C 
HETATM    8  C11 UNL     1       2.479 145.000 353.333  1.00  0.00     0.001 C 
HETATM    9  C12 UNL     1       2.774 143.923 352.274  1.00  0.00     0.043 C 
ENDROOT
BRANCH   1  10
HETATM   10  C4  UNL     1       4.861 142.704 352.863  1.00  0.00     0.222 C 
HETATM   11  N1  UNL     1       4.355 141.416 352.562  1.00  0.00    -0.357 N 
ATOM     12  H1  UNL     1       3.579 141.334 351.905  1.00  0.00     0.162 HD
HETATM   13  O1  UNL     1       5.818 142.763 353.679  1.00  0.00    -0.273 OA
BRANCH  11  14
HETATM   14  C3  UNL     1       4.898 140.208 353.153  1.00  0.00     0.149 C 
BRANCH  14  15
HETATM   15  C2  UNL     1       3.837 139.221 353.474  1.00  0.00    -0.018 C 
HETATM   16  C1  UNL     1       3.735 138.784 354.716  1.00  0.00     0.008 C 
ENDBRANCH  14  15
ENDBRANCH  11  14
ENDBRANCH   1  10
TORSDOF 3
ENDMDL
MODEL 2
REMARK VINA RESULT: -6.477864329      2.798      5.824
REMARK  3 active torsions:
REMARK  status: ('A' for Active; 'I' for Inactive)
REMARK    1  A    between atoms: C2_2  and  C3_3 
REMARK    2  A    between atoms: C3_3  and  N1_4 
REMARK       I    between atoms: N1_4  and  C4_6 
REMARK    3  A    between atoms: C4_6  and  C5_8 
ROOT
HETATM    1  C5  UNL     1       3.276 140.932 352.839  1.00  0.00     0.086 C 
HETATM    2  C6  UNL     1       4.694 141.525 352.878  1.00  0.00     0.019 C 
HETATM    3  C7  UNL     1       5.489 140.313 352.460  1.00  0.00    -0.006 C 
HETATM    4  C8  UNL     1       5.126 139.227 353.493  1.00  0.00     0.049 C 
HETATM    5  C9  UNL     1       4.014 138.563 352.727  1.00  0.00     0.109 C 
HETATM    6  F1  UNL     1       3.304 137.600 353.252  1.00  0.00    -0.242 F 
HETATM    7  C10 UNL     1       4.738 138.311 351.395  1.00  0.00     0.049 C 
HETATM    8  C11 UNL     1       4.693 139.812 351.294  1.00  0.00     0.001 C 
HETATM    9  C12 UNL     1       3.329 139.709 351.999  1.00  0.00     0.043 C 
ENDROOT
BRANCH   1  10
HETATM   10  C4  UNL     1       2.378 141.982 352.342  1.00  0.00     0.222 C 
HETATM   11  N1  UNL     1       2.932 143.187 351.844  1.00  0.00    -0.357 N 
ATOM     12  H1  UNL     1       3.945 143.297 351.842  1.00  0.00     0.162 HD
HETATM   13  O1  UNL     1       1.123 141.883 352.327  1.00  0.00    -0.273 OA
BRANCH  11  14
HETATM   14  C3  UNL     1       2.111 144.269 351.336  1.00  0.00     0.149 C 
BRANCH  14  15
HETATM   15  C2  UNL     1       2.040 145.406 352.287  1.00  0.00    -0.018 C 
HETATM   16  C1  UNL     1       3.050 146.256 352.332  1.00  0.00     0.008 C 
ENDBRANCH  14  15
ENDBRANCH  11  14
ENDBRANCH   1  10
TORSDOF 3
ENDMDL
MODEL 3
REMARK VINA RESULT: -6.421656013      1.412      1.468
REMARK  3 active torsions:
REMARK  status: ('A' for Active; 'I' for Inactive)
REMARK    1  A    between atoms: C2_2  and  C3_3 
REMARK    2  A    between atoms: C3_3  and  N1_4 
REMARK       I    between atoms: N1_4  and  C4_6 
REMARK    3  A    between atoms: C4_6  and  C5_8 
ROOT
HETATM    1  C5  UNL     1       3.419 142.869 351.887  1.00  0.00     0.086 C 
HETATM    2  C6  UNL     1       4.277 143.586 352.942  1.00  0.00     0.019 C 
HETATM    3  C7  UNL     1       3.477 144.856 353.102  1.00  0.00    -0.006 C 
HETATM    4  C8  UNL     1       3.410 145.460 351.685  1.00  0.00     0.049 C 
HETATM    5  C9  UNL     1       2.092 144.872 351.260  1.00  0.00     0.109 C 
HETATM    6  F1  UNL     1       1.630 145.035 350.048  1.00  0.00    -0.242 F 
HETATM    7  C10 UNL     1       1.223 145.309 352.450  1.00  0.00     0.049 C 
HETATM    8  C11 UNL     1       2.079 144.325 353.203  1.00  0.00     0.001 C 
HETATM    9  C12 UNL     1       2.074 143.496 351.907  1.00  0.00     0.043 C 
ENDROOT
BRANCH   1  10
HETATM   10  C4  UNL     1       3.436 141.438 352.212  1.00  0.00     0.222 C 
HETATM   11  N1  UNL     1       4.676 140.753 352.259  1.00  0.00    -0.357 N 
ATOM     12  H1  UNL     1       5.531 141.274 352.066  1.00  0.00     0.162 HD
HETATM   13  O1  UNL     1       2.403 140.761 352.457  1.00  0.00    -0.273 OA
BRANCH  11  14
HETATM   14  C3  UNL     1       4.773 139.341 352.574  1.00  0.00     0.149 C 
BRANCH  14  15
HETATM   15  C2  UNL     1       4.822 139.100 354.038  1.00  0.00    -0.018 C 
HETATM   16  C1  UNL     1       3.807 138.480 354.610  1.00  0.00     0.008 C 
ENDBRANCH  14  15
ENDBRANCH  11  14
ENDBRANCH   1  10
TORSDOF 3
ENDMDL
MODEL 4
REMARK VINA RESULT: -6.350776360      2.648      5.811
REMARK  3 active torsions:
REMARK  status: ('A' for Active; 'I' for Inactive)
REMARK    1  A    between atoms: C2_2  and  C3_3 
REMARK    2  A    between atoms: C3_3  and  N1_4 
REMARK       I    between atoms: N1_4  and  C4_6 
REMARK    3  A    between atoms: C4_6  and  C5_8 
ROOT
HETATM    1  C5  UNL     1       3.573 141.316 351.975  1.00  0.00     0.086 C 
HETATM    2  C6  UNL     1       3.121 140.126 351.113  1.00  0.00     0.019 C 
HETATM    3  C7  UNL     1       3.725 138.993 351.905  1.00  0.00    -0.006 C 
HETATM    4  C8  UNL     1       5.231 139.315 351.969  1.00  0.00     0.049 C 
HETATM    5  C9  UNL     1       5.244 140.034 353.291  1.00  0.00     0.109 C 
HETATM    6  F1  UNL     1       6.329 140.597 353.753  1.00  0.00    -0.242 F 
HETATM    7  C10 UNL     1       4.525 138.986 354.157  1.00  0.00     0.049 C 
HETATM    8  C11 UNL     1       3.341 139.360 353.306  1.00  0.00     0.001 C 
HETATM    9  C12 UNL     1       3.922 140.785 353.317  1.00  0.00     0.043 C 
ENDROOT
BRANCH   1  10
HETATM   10  C4  UNL     1       2.482 142.298 351.967  1.00  0.00     0.222 C 
HETATM   11  N1  UNL     1       2.750 143.627 351.554  1.00  0.00    -0.357 N 
ATOM     12  H1  UNL     1       3.699 143.871 351.271  1.00  0.00     0.162 HD
HETATM   13  O1  UNL     1       1.299 142.037 352.308  1.00  0.00    -0.273 OA
BRANCH  11  14
HETATM   14  C3  UNL     1       1.725 144.652 351.518  1.00  0.00     0.149 C 
BRANCH  14  15
HETATM   15  C2  UNL     1       2.027 145.771 352.446  1.00  0.00    -0.018 C 
HETATM   16  C1  UNL     1       3.194 146.381 352.343  1.00  0.00     0.008 C 
ENDBRANCH  14  15
ENDBRANCH  11  14
ENDBRANCH   1  10
TORSDOF 3
ENDMDL
MODEL 5
REMARK VINA RESULT: -6.333270620      2.663      6.289
REMARK  3 active torsions:
REMARK  status: ('A' for Active; 'I' for Inactive)
REMARK    1  A    between atoms: C2_2  and  C3_3 
REMARK    2  A    between atoms: C3_3  and  N1_4 
REMARK       I    between atoms: N1_4  and  C4_6 
REMARK    3  A    between atoms: C4_6  and  C5_8 
ROOT
HETATM    1  C5  UNL     1       3.489 139.750 352.428  1.00  0.00     0.086 C 
HETATM    2  C6  UNL     1       3.767 139.390 353.897  1.00  0.00     0.019 C 
HETATM    3  C7  UNL     1       4.534 138.105 353.704  1.00  0.00    -0.006 C 
HETATM    4  C8  UNL     1       3.585 137.196 352.899  1.00  0.00     0.049 C 
HETATM    5  C9  UNL     1       4.092 137.518 351.520  1.00  0.00     0.109 C 
HETATM    6  F1  UNL     1       3.515 137.037 350.450  1.00  0.00    -0.242 F 
HETATM    7  C10 UNL     1       5.592 137.262 351.734  1.00  0.00     0.049 C 
HETATM    8  C11 UNL     1       5.490 138.480 352.612  1.00  0.00     0.001 C 
HETATM    9  C12 UNL     1       4.456 138.993 351.594  1.00  0.00     0.043 C 
ENDROOT
BRANCH   1  10
HETATM   10  C4  UNL     1       3.586 141.210 352.312  1.00  0.00     0.222 C 
HETATM   11  N1  UNL     1       2.500 141.935 351.763  1.00  0.00    -0.357 N 
ATOM     12  H1  UNL     1       1.672 141.422 351.460  1.00  0.00     0.162 HD
HETATM   13  O1  UNL     1       4.590 141.878 352.675  1.00  0.00    -0.273 OA
BRANCH  11  14
HETATM   14  C3  UNL     1       2.521 143.377 351.617  1.00  0.00     0.149 C 
BRANCH  14  15
HETATM   15  C2  UNL     1       1.765 144.056 352.699  1.00  0.00    -0.018 C 
HETATM   16  C1  UNL     1       1.374 145.303 352.511  1.00  0.00     0.008 C 
ENDBRANCH  14  15
ENDBRANCH  11  14
ENDBRANCH   1  10
TORSDOF 3
ENDMDL
