MODEL 1
REMARK VINA RESULT: -6.157099710      0.000      0.000
REMARK  6 active torsions:
REMARK  status: ('A' for Active; 'I' for Inactive)
REMARK    1  A    between atoms: O1_2  and  C2_3 
REMARK    2  A    between atoms: C2_3  and  C3_5 
REMARK    3  A    between atoms: C3_5  and  C4_6 
REMARK    4  A    between atoms: C4_6  and  C5_7 
REMARK    5  A    between atoms: C5_7  and  C6_8 
REMARK    6  A    between atoms: C8_11  and  C9_12 
ROOT
HETATM    1  C6  UNL     1     -11.952 -13.528  -0.691  1.00  0.00     0.063 C 
HETATM    2  C7  UNL     1     -11.037 -12.513  -0.048  1.00  0.00     0.025 A 
HETATM    3  S1  UNL     1      -9.957 -11.227  -0.335  1.00  0.00    -0.084 SA
HETATM    4  C8  UNL     1      -9.526 -10.862   1.278  1.00  0.00     0.090 A 
HETATM    5  C10 UNL     1     -10.257 -11.778   2.004  1.00  0.00    -0.004 A 
HETATM    6  C11 UNL     1     -10.121 -11.747   3.517  1.00  0.00     0.053 C 
HETATM    7  C12 UNL     1     -11.031 -12.623   1.300  1.00  0.00     0.091 A 
HETATM    8  O5  UNL     1     -11.929 -13.693   1.553  1.00  0.00    -0.339 OA
HETATM    9  C13 UNL     1     -12.053 -14.530   0.431  1.00  0.00     0.069 C 
HETATM   10  C14 UNL     1     -10.889 -15.481   0.429  1.00  0.00     0.047 C 
HETATM   11  C15 UNL     1     -13.383 -15.220   0.478  1.00  0.00     0.047 C 
ENDROOT
BRANCH   1  12
HETATM   12  C5  UNL     1     -13.266 -12.932  -1.073  1.00  0.00     0.013 C 
BRANCH  12  13
HETATM   13  C4  UNL     1     -13.544 -13.338  -2.524  1.00  0.00     0.011 C 
BRANCH  13  14
HETATM   14  C3  UNL     1     -12.686 -12.548  -3.477  1.00  0.00     0.111 C 
BRANCH  14  15
HETATM   15  C2  UNL     1     -13.077 -11.120  -3.339  1.00  0.00     0.258 C 
HETATM   16  O2  UNL     1     -12.268 -10.224  -2.967  1.00  0.00    -0.265 OA
BRANCH  15  17
HETATM   17  O1  UNL     1     -14.377 -10.691  -3.619  1.00  0.00    -0.326 OA
HETATM   18  C1  UNL     1     -15.056  -9.827  -2.718  1.00  0.00     0.213 C 
ENDBRANCH  15  17
ENDBRANCH  14  15
ENDBRANCH  13  14
ENDBRANCH  12  13
ENDBRANCH   1  12
BRANCH   4  19
HETATM   19  C9  UNL     1      -8.601  -9.825   1.784  1.00  0.00     0.217 C 
HETATM   20  O3  UNL     1      -8.754  -8.639   1.428  1.00  0.00    -0.643 OA
HETATM   21  O4  UNL     1      -7.574 -10.139   2.640  1.00  0.00    -0.643 OA
ENDBRANCH   4  19
TORSDOF 6
ENDMDL
MODEL 2
REMARK VINA RESULT: -6.114493416      2.201      6.457
REMARK  6 active torsions:
REMARK  status: ('A' for Active; 'I' for Inactive)
REMARK    1  A    between atoms: O1_2  and  C2_3 
REMARK    2  A    between atoms: C2_3  and  C3_5 
REMARK    3  A    between atoms: C3_5  and  C4_6 
REMARK    4  A    between atoms: C4_6  and  C5_7 
REMARK    5  A    between atoms: C5_7  and  C6_8 
REMARK    6  A    between atoms: C8_11  and  C9_12 
ROOT
HETATM    1  C6  UNL     1     -11.839 -12.433  -1.203  1.00  0.00     0.063 C 
HETATM    2  C7  UNL     1     -12.527 -13.611  -0.555  1.00  0.00     0.025 A 
HETATM    3  S1  UNL     1     -12.309 -14.995   0.413  1.00  0.00    -0.084 SA
HETATM    4  C8  UNL     1     -13.923 -15.555   0.463  1.00  0.00     0.090 A 
HETATM    5  C10 UNL     1     -14.594 -14.620  -0.295  1.00  0.00    -0.004 A 
HETATM    6  C11 UNL     1     -16.092 -14.800  -0.472  1.00  0.00     0.053 C 
HETATM    7  C12 UNL     1     -13.854 -13.623  -0.812  1.00  0.00     0.091 A 
HETATM    8  O5  UNL     1     -14.050 -12.472  -1.620  1.00  0.00    -0.339 OA
HETATM    9  C13 UNL     1     -12.859 -12.090  -2.260  1.00  0.00     0.069 C 
HETATM   10  C14 UNL     1     -12.693 -12.946  -3.485  1.00  0.00     0.047 C 
HETATM   11  C15 UNL     1     -12.912 -10.623  -2.563  1.00  0.00     0.047 C 
ENDROOT
BRANCH   1  12
HETATM   12  C5  UNL     1     -11.595 -11.325  -0.234  1.00  0.00     0.013 C 
BRANCH  12  13
HETATM   13  C4  UNL     1     -10.104 -11.353   0.122  1.00  0.00     0.011 C 
BRANCH  13  14
HETATM   14  C3  UNL     1      -9.903 -11.178   1.604  1.00  0.00     0.111 C 
BRANCH  14  15
HETATM   15  C2  UNL     1      -8.892 -10.105   1.788  1.00  0.00     0.258 C 
HETATM   16  O2  UNL     1      -8.932  -9.014   1.153  1.00  0.00    -0.265 OA
BRANCH  15  17
HETATM   17  O1  UNL     1      -7.831 -10.251   2.685  1.00  0.00    -0.326 OA
HETATM   18  C1  UNL     1      -7.925 -11.170   3.765  1.00  0.00     0.213 C 
ENDBRANCH  15  17
ENDBRANCH  14  15
ENDBRANCH  13  14
ENDBRANCH  12  13
ENDBRANCH   1  12
BRANCH   4  19
HETATM   19  C9  UNL     1     -14.477 -16.744   1.147  1.00  0.00     0.217 C 
HETATM   20  O3  UNL     1     -14.263 -17.880   0.674  1.00  0.00    -0.643 OA
HETATM   21  O4  UNL     1     -15.223 -16.627   2.294  1.00  0.00    -0.643 OA
ENDBRANCH   4  19
TORSDOF 6
ENDMDL
MODEL 3
REMARK VINA RESULT: -5.865109430      2.762      5.505
REMARK  6 active torsions:
REMARK  status: ('A' for Active; 'I' for Inactive)
REMARK    1  A    between atoms: O1_2  and  C2_3 
REMARK    2  A    between atoms: C2_3  and  C3_5 
REMARK    3  A    between atoms: C3_5  and  C4_6 
REMARK    4  A    between atoms: C4_6  and  C5_7 
REMARK    5  A    between atoms: C5_7  and  C6_8 
REMARK    6  A    between atoms: C8_11  and  C9_12 
ROOT
HETATM    1  C6  UNL     1     -12.434 -16.083   0.746  1.00  0.00     0.063 C 
HETATM    2  C7  UNL     1     -11.829 -14.707   0.592  1.00  0.00     0.025 A 
HETATM    3  S1  UNL     1     -10.665 -13.619   1.194  1.00  0.00    -0.084 SA
HETATM    4  C8  UNL     1     -10.947 -12.302   0.141  1.00  0.00     0.090 A 
HETATM    5  C10 UNL     1     -11.964 -12.768  -0.664  1.00  0.00    -0.004 A 
HETATM    6  C11 UNL     1     -12.485 -11.840  -1.749  1.00  0.00     0.053 C 
HETATM    7  C12 UNL     1     -12.406 -14.013  -0.414  1.00  0.00     0.091 A 
HETATM    8  O5  UNL     1     -13.381 -14.911  -0.925  1.00  0.00    -0.339 OA
HETATM    9  C13 UNL     1     -13.747 -15.866   0.037  1.00  0.00     0.069 C 
HETATM   10  C14 UNL     1     -14.769 -15.243   0.946  1.00  0.00     0.047 C 
HETATM   11  C15 UNL     1     -14.243 -17.098  -0.658  1.00  0.00     0.047 C 
ENDROOT
BRANCH   1  12
HETATM   12  C5  UNL     1     -11.588 -17.138   0.117  1.00  0.00     0.013 C 
BRANCH  12  13
HETATM   13  C4  UNL     1     -10.791 -17.812   1.240  1.00  0.00     0.011 C 
BRANCH  13  14
HETATM   14  C3  UNL     1      -9.603 -18.552   0.685  1.00  0.00     0.111 C 
BRANCH  14  15
HETATM   15  C2  UNL     1      -8.596 -17.534   0.288  1.00  0.00     0.258 C 
HETATM   16  O2  UNL     1      -8.273 -16.567   1.034  1.00  0.00    -0.265 OA
BRANCH  15  17
HETATM   17  O1  UNL     1      -7.946 -17.596  -0.947  1.00  0.00    -0.326 OA
HETATM   18  C1  UNL     1      -8.350 -18.544  -1.924  1.00  0.00     0.213 C 
ENDBRANCH  15  17
ENDBRANCH  14  15
ENDBRANCH  13  14
ENDBRANCH  12  13
ENDBRANCH   1  12
BRANCH   4  19
HETATM   19  C9  UNL     1     -10.274 -10.986   0.094  1.00  0.00     0.217 C 
HETATM   20  O3  UNL     1     -10.248 -10.272   1.116  1.00  0.00    -0.643 OA
HETATM   21  O4  UNL     1      -9.674 -10.531  -1.055  1.00  0.00    -0.643 OA
ENDBRANCH   4  19
TORSDOF 6
ENDMDL
MODEL 4
REMARK VINA RESULT: -5.864545650      1.175      1.704
REMARK  6 active torsions:
REMARK  status: ('A' for Active; 'I' for Inactive)
REMARK    1  A    between atoms: O1_2  and  C2_3 
REMARK    2  A    between atoms: C2_3  and  C3_5 
REMARK    3  A    between atoms: C3_5  and  C4_6 
REMARK    4  A    between atoms: C4_6  and  C5_7 
REMARK    5  A    between atoms: C5_7  and  C6_8 
REMARK    6  A    between atoms: C8_11  and  C9_12 
ROOT
HETATM    1  C6  UNL     1     -11.902 -13.292  -0.702  1.00  0.00     0.063 C 
HETATM    2  C7  UNL     1     -10.972 -12.320  -0.016  1.00  0.00     0.025 A 
HETATM    3  S1  UNL     1      -9.889 -11.026  -0.247  1.00  0.00    -0.084 SA
HETATM    4  C8  UNL     1      -9.431 -10.756   1.378  1.00  0.00     0.090 A 
HETATM    5  C10 UNL     1     -10.155 -11.708   2.062  1.00  0.00    -0.004 A 
HETATM    6  C11 UNL     1      -9.996 -11.765   3.572  1.00  0.00     0.053 C 
HETATM    7  C12 UNL     1     -10.946 -12.507   1.323  1.00  0.00     0.091 A 
HETATM    8  O5  UNL     1     -11.845 -13.586   1.529  1.00  0.00    -0.339 OA
HETATM    9  C13 UNL     1     -11.992 -14.357   0.363  1.00  0.00     0.069 C 
HETATM   10  C14 UNL     1     -10.833 -15.311   0.287  1.00  0.00     0.047 C 
HETATM   11  C15 UNL     1     -13.324 -15.042   0.392  1.00  0.00     0.047 C 
ENDROOT
BRANCH   1  12
HETATM   12  C5  UNL     1     -13.219 -12.670  -1.028  1.00  0.00     0.013 C 
BRANCH  12  13
HETATM   13  C4  UNL     1     -13.010 -11.787  -2.263  1.00  0.00     0.011 C 
BRANCH  13  14
HETATM   14  C3  UNL     1     -12.441 -12.587  -3.405  1.00  0.00     0.111 C 
BRANCH  14  15
HETATM   15  C2  UNL     1     -13.584 -13.031  -4.244  1.00  0.00     0.258 C 
HETATM   16  O2  UNL     1     -14.295 -12.227  -4.909  1.00  0.00    -0.265 OA
BRANCH  15  17
HETATM   17  O1  UNL     1     -13.936 -14.380  -4.340  1.00  0.00    -0.326 OA
HETATM   18  C1  UNL     1     -14.913 -14.931  -3.469  1.00  0.00     0.213 C 
ENDBRANCH  15  17
ENDBRANCH  14  15
ENDBRANCH  13  14
ENDBRANCH  12  13
ENDBRANCH   1  12
BRANCH   4  19
HETATM   19  C9  UNL     1      -8.492  -9.753   1.928  1.00  0.00     0.217 C 
HETATM   20  O3  UNL     1      -8.618  -8.553   1.608  1.00  0.00    -0.643 OA
HETATM   21  O4  UNL     1      -7.482 -10.115   2.784  1.00  0.00    -0.643 OA
ENDBRANCH   4  19
TORSDOF 6
ENDMDL
MODEL 5
REMARK VINA RESULT: -5.747185008      3.150      6.302
REMARK  6 active torsions:
REMARK  status: ('A' for Active; 'I' for Inactive)
REMARK    1  A    between atoms: O1_2  and  C2_3 
REMARK    2  A    between atoms: C2_3  and  C3_5 
REMARK    3  A    between atoms: C3_5  and  C4_6 
REMARK    4  A    between atoms: C4_6  and  C5_7 
REMARK    5  A    between atoms: C5_7  and  C6_8 
REMARK    6  A    between atoms: C8_11  and  C9_12 
ROOT
HETATM    1  C6  UNL     1     -12.426 -16.094   0.682  1.00  0.00     0.063 C 
HETATM    2  C7  UNL     1     -11.821 -14.716   0.554  1.00  0.00     0.025 A 
HETATM    3  S1  UNL     1     -10.641 -13.648   1.161  1.00  0.00    -0.084 SA
HETATM    4  C8  UNL     1     -10.943 -12.301   0.152  1.00  0.00     0.090 A 
HETATM    5  C10 UNL     1     -11.979 -12.741  -0.643  1.00  0.00    -0.004 A 
HETATM    6  C11 UNL     1     -12.521 -11.781  -1.688  1.00  0.00     0.053 C 
HETATM    7  C12 UNL     1     -12.419 -13.992  -0.419  1.00  0.00     0.091 A 
HETATM    8  O5  UNL     1     -13.407 -14.872  -0.933  1.00  0.00    -0.339 OA
HETATM    9  C13 UNL     1     -13.754 -15.854   0.009  1.00  0.00     0.069 C 
HETATM   10  C14 UNL     1     -14.754 -15.255   0.959  1.00  0.00     0.047 C 
HETATM   11  C15 UNL     1     -14.270 -17.064  -0.709  1.00  0.00     0.047 C 
ENDROOT
BRANCH   1  12
HETATM   12  C5  UNL     1     -11.598 -17.133   0.004  1.00  0.00     0.013 C 
BRANCH  12  13
HETATM   13  C4  UNL     1     -11.114 -18.105   1.085  1.00  0.00     0.011 C 
BRANCH  13  14
HETATM   14  C3  UNL     1      -9.735 -17.734   1.563  1.00  0.00     0.111 C 
BRANCH  14  15
HETATM   15  C2  UNL     1      -9.350 -18.719   2.606  1.00  0.00     0.258 C 
HETATM   16  O2  UNL     1      -9.012 -18.380   3.774  1.00  0.00    -0.265 OA
BRANCH  15  17
HETATM   17  O1  UNL     1      -9.344 -20.092   2.344  1.00  0.00    -0.326 OA
HETATM   18  C1  UNL     1      -9.941 -21.001   3.258  1.00  0.00     0.213 C 
ENDBRANCH  15  17
ENDBRANCH  14  15
ENDBRANCH  13  14
ENDBRANCH  12  13
ENDBRANCH   1  12
BRANCH   4  19
HETATM   19  C9  UNL     1     -10.267 -10.985   0.127  1.00  0.00     0.217 C 
HETATM   20  O3  UNL     1     -10.231 -10.293   1.165  1.00  0.00    -0.643 OA
HETATM   21  O4  UNL     1      -9.676 -10.506  -1.017  1.00  0.00    -0.643 OA
ENDBRANCH   4  19
TORSDOF 6
ENDMDL
