MODEL 1
REMARK VINA RESULT: -5.976400687      0.000      0.000
REMARK  7 active torsions:
REMARK  status: ('A' for Active; 'I' for Inactive)
REMARK    1  A    between atoms: O1_2  and  C2_3 
REMARK    2  A    between atoms: C2_3  and  O3_5 
REMARK    3  A    between atoms: O3_5  and  C3_6 
REMARK    4  A    between atoms: C3_6  and  C4_7 
REMARK    5  A    between atoms: C9_12  and  C10_13 
REMARK    6  A    between atoms: C14_20  and  C15_21 
REMARK    7  A    between atoms: C15_21  and  C16_22 
ROOT
HETATM    1  C4  UNL     1     -11.662 -13.728  -0.040  1.00  0.00     0.039 C 
HETATM    2  C5  UNL     1     -10.913 -14.931   0.385  1.00  0.00     0.011 C 
HETATM    3  C6  UNL     1     -11.711 -16.105   0.753  1.00  0.00     0.004 C 
HETATM    4  C7  UNL     1     -13.173 -15.865   0.943  1.00  0.00     0.027 C 
HETATM    5  C8  UNL     1     -13.682 -15.055  -0.189  1.00  0.00    -0.023 C 
HETATM    6  C9  UNL     1     -12.999 -14.050  -0.675  1.00  0.00    -0.071 C 
ENDROOT
BRANCH   6   7
HETATM    7  C10 UNL     1     -13.363 -13.238  -1.861  1.00  0.00     0.048 C 
HETATM    8  C11 UNL     1     -12.081 -12.455  -2.300  1.00  0.00     0.043 C 
HETATM    9  C12 UNL     1     -12.489 -11.008  -2.343  1.00  0.00     0.183 C 
HETATM   10  C13 UNL     1     -12.940 -10.560  -3.692  1.00  0.00     0.040 C 
HETATM   11  N1  UNL     1     -13.589 -10.950  -1.362  1.00  0.00    -0.066 N 
HETATM   12  C14 UNL     1     -14.302 -12.133  -1.763  1.00  0.00     0.201 C 
ATOM     13  H12 UNL     1     -13.318 -10.896  -0.380  1.00  0.00     0.278 HD
ATOM     14  H11 UNL     1     -14.127 -10.084  -1.335  1.00  0.00     0.278 HD
BRANCH  12  15
HETATM   15  C15 UNL     1     -15.652 -12.292  -1.222  1.00  0.00     0.111 C 
BRANCH  15  16
HETATM   16  C16 UNL     1     -16.445 -11.038  -1.478  1.00  0.00     0.125 C 
HETATM   17  C17 UNL     1     -17.373 -10.583  -0.379  1.00  0.00     0.091 C 
HETATM   18  O4  UNL     1     -16.358 -10.409  -2.505  1.00  0.00    -0.298 OA
ENDBRANCH  15  16
ENDBRANCH  12  15
ENDBRANCH   6   7
BRANCH   1  19
HETATM   19  C3  UNL     1     -11.684 -12.623   0.938  1.00  0.00     0.190 C 
BRANCH  19  20
HETATM   20  O3  UNL     1     -11.151 -11.419   0.815  1.00  0.00    -0.297 OA
BRANCH  20  21
HETATM   21  C2  UNL     1     -10.010 -10.782   0.533  1.00  0.00     0.406 C 
HETATM   22  O2  UNL     1      -9.449 -10.981  -0.563  1.00  0.00    -0.230 OA
BRANCH  21  23
HETATM   23  O1  UNL     1      -9.360  -9.881   1.381  1.00  0.00    -0.303 OA
HETATM   24  C1  UNL     1      -8.593 -10.330   2.481  1.00  0.00     0.215 C 
ENDBRANCH  21  23
ENDBRANCH  20  21
ENDBRANCH  19  20
ENDBRANCH   1  19
TORSDOF 7
ENDMDL
MODEL 2
REMARK VINA RESULT: -5.811847249      2.189      5.770
REMARK  7 active torsions:
REMARK  status: ('A' for Active; 'I' for Inactive)
REMARK    1  A    between atoms: O1_2  and  C2_3 
REMARK    2  A    between atoms: C2_3  and  O3_5 
REMARK    3  A    between atoms: O3_5  and  C3_6 
REMARK    4  A    between atoms: C3_6  and  C4_7 
REMARK    5  A    between atoms: C9_12  and  C10_13 
REMARK    6  A    between atoms: C14_20  and  C15_21 
REMARK    7  A    between atoms: C15_21  and  C16_22 
ROOT
HETATM    1  C4  UNL     1     -14.402 -12.143  -1.785  1.00  0.00     0.039 C 
HETATM    2  C5  UNL     1     -14.954 -13.423  -2.283  1.00  0.00     0.011 C 
HETATM    3  C6  UNL     1     -14.210 -14.083  -3.360  1.00  0.00     0.004 C 
HETATM    4  C7  UNL     1     -13.160 -13.256  -4.029  1.00  0.00     0.027 C 
HETATM    5  C8  UNL     1     -12.348 -12.574  -2.993  1.00  0.00    -0.023 C 
HETATM    6  C9  UNL     1     -12.898 -12.045  -1.929  1.00  0.00    -0.071 C 
ENDROOT
BRANCH   6   7
HETATM    7  C10 UNL     1     -12.178 -11.429  -0.788  1.00  0.00     0.048 C 
HETATM    8  C11 UNL     1     -10.940 -10.672  -1.374  1.00  0.00     0.043 C 
HETATM    9  C12 UNL     1      -9.750 -11.212  -0.628  1.00  0.00     0.183 C 
HETATM   10  C13 UNL     1      -9.384 -10.403   0.569  1.00  0.00     0.040 C 
HETATM   11  N1  UNL     1     -10.191 -12.567  -0.248  1.00  0.00    -0.066 N 
HETATM   12  C14 UNL     1     -11.514 -12.243   0.216  1.00  0.00     0.201 C 
ATOM     13  H12 UNL     1     -10.127 -13.284  -0.970  1.00  0.00     0.278 HD
ATOM     14  H11 UNL     1      -9.593 -13.071   0.407  1.00  0.00     0.278 HD
BRANCH  12  15
HETATM   15  C15 UNL     1     -12.209 -13.285   0.971  1.00  0.00     0.111 C 
BRANCH  15  16
HETATM   16  C16 UNL     1     -11.698 -14.637   0.548  1.00  0.00     0.125 C 
HETATM   17  C17 UNL     1     -12.610 -15.469  -0.319  1.00  0.00     0.091 C 
HETATM   18  O4  UNL     1     -10.613 -15.056   0.873  1.00  0.00    -0.298 OA
ENDBRANCH  15  16
ENDBRANCH  12  15
ENDBRANCH   6   7
BRANCH   1  19
HETATM   19  C3  UNL     1     -15.150 -10.937  -2.188  1.00  0.00     0.190 C 
BRANCH  19  20
HETATM   20  O3  UNL     1     -16.254 -10.447  -1.648  1.00  0.00    -0.297 OA
BRANCH  20  21
HETATM   21  C2  UNL     1     -17.202 -10.705  -0.742  1.00  0.00     0.406 C 
HETATM   22  O2  UNL     1     -17.232 -10.052   0.320  1.00  0.00    -0.230 OA
BRANCH  21  23
HETATM   23  O1  UNL     1     -18.201 -11.673  -0.875  1.00  0.00    -0.303 OA
HETATM   24  C1  UNL     1     -18.059 -12.959  -0.304  1.00  0.00     0.215 C 
ENDBRANCH  21  23
ENDBRANCH  20  21
ENDBRANCH  19  20
ENDBRANCH   1  19
TORSDOF 7
ENDMDL
MODEL 3
REMARK VINA RESULT: -5.773335354      2.257      5.361
REMARK  7 active torsions:
REMARK  status: ('A' for Active; 'I' for Inactive)
REMARK    1  A    between atoms: O1_2  and  C2_3 
REMARK    2  A    between atoms: C2_3  and  O3_5 
REMARK    3  A    between atoms: O3_5  and  C3_6 
REMARK    4  A    between atoms: C3_6  and  C4_7 
REMARK    5  A    between atoms: C9_12  and  C10_13 
REMARK    6  A    between atoms: C14_20  and  C15_21 
REMARK    7  A    between atoms: C15_21  and  C16_22 
ROOT
HETATM    1  C4  UNL     1     -14.416 -12.266  -1.471  1.00  0.00     0.039 C 
HETATM    2  C5  UNL     1     -14.951 -13.567  -1.930  1.00  0.00     0.011 C 
HETATM    3  C6  UNL     1     -14.263 -14.197  -3.062  1.00  0.00     0.004 C 
HETATM    4  C7  UNL     1     -13.302 -13.327  -3.805  1.00  0.00     0.027 C 
HETATM    5  C8  UNL     1     -12.443 -12.612  -2.831  1.00  0.00    -0.023 C 
HETATM    6  C9  UNL     1     -12.932 -12.106  -1.728  1.00  0.00    -0.071 C 
ENDROOT
BRANCH   6   7
HETATM    7  C10 UNL     1     -12.155 -11.461  -0.642  1.00  0.00     0.048 C 
HETATM    8  C11 UNL     1     -10.996 -10.655  -1.317  1.00  0.00     0.043 C 
HETATM    9  C12 UNL     1      -9.732 -11.146  -0.664  1.00  0.00     0.183 C 
HETATM   10  C13 UNL     1      -9.311 -10.322   0.504  1.00  0.00     0.040 C 
HETATM   11  N1  UNL     1     -10.088 -12.518  -0.255  1.00  0.00    -0.066 N 
HETATM   12  C14 UNL     1     -11.385 -12.247   0.307  1.00  0.00     0.201 C 
ATOM     13  H12 UNL     1     -10.050 -13.232  -0.982  1.00  0.00     0.278 HD
ATOM     14  H11 UNL     1      -9.423 -12.997   0.352  1.00  0.00     0.278 HD
BRANCH  12  15
HETATM   15  C15 UNL     1     -11.979 -13.316   1.110  1.00  0.00     0.111 C 
BRANCH  15  16
HETATM   16  C16 UNL     1     -11.455 -14.647   0.639  1.00  0.00     0.125 C 
HETATM   17  C17 UNL     1     -12.414 -15.523  -0.128  1.00  0.00     0.091 C 
HETATM   18  O4  UNL     1     -10.326 -15.016   0.852  1.00  0.00    -0.298 OA
ENDBRANCH  15  16
ENDBRANCH  12  15
ENDBRANCH   6   7
BRANCH   1  19
HETATM   19  C3  UNL     1     -15.241 -11.092  -1.813  1.00  0.00     0.190 C 
BRANCH  19  20
HETATM   20  O3  UNL     1     -15.149 -10.317  -2.881  1.00  0.00    -0.297 OA
BRANCH  20  21
HETATM   21  C2  UNL     1     -14.611  -9.178  -3.327  1.00  0.00     0.406 C 
HETATM   22  O2  UNL     1     -13.411  -9.154  -3.665  1.00  0.00    -0.230 OA
BRANCH  21  23
HETATM   23  O1  UNL     1     -15.291  -7.963  -3.457  1.00  0.00    -0.303 OA
HETATM   24  C1  UNL     1     -15.046  -6.887  -2.572  1.00  0.00     0.215 C 
ENDBRANCH  21  23
ENDBRANCH  20  21
ENDBRANCH  19  20
ENDBRANCH   1  19
TORSDOF 7
ENDMDL
MODEL 4
REMARK VINA RESULT: -5.666175765      3.036      4.609
REMARK  7 active torsions:
REMARK  status: ('A' for Active; 'I' for Inactive)
REMARK    1  A    between atoms: O1_2  and  C2_3 
REMARK    2  A    between atoms: C2_3  and  O3_5 
REMARK    3  A    between atoms: O3_5  and  C3_6 
REMARK    4  A    between atoms: C3_6  and  C4_7 
REMARK    5  A    between atoms: C9_12  and  C10_13 
REMARK    6  A    between atoms: C14_20  and  C15_21 
REMARK    7  A    between atoms: C15_21  and  C16_22 
ROOT
HETATM    1  C4  UNL     1     -11.981 -16.004   0.086  1.00  0.00     0.039 C 
HETATM    2  C5  UNL     1     -13.110 -16.842  -0.374  1.00  0.00     0.011 C 
HETATM    3  C6  UNL     1     -14.456 -16.385  -0.014  1.00  0.00     0.004 C 
HETATM    4  C7  UNL     1     -14.523 -15.304   1.015  1.00  0.00     0.027 C 
HETATM    5  C8  UNL     1     -13.542 -14.248   0.673  1.00  0.00    -0.023 C 
HETATM    6  C9  UNL     1     -12.344 -14.541   0.233  1.00  0.00    -0.071 C 
ENDROOT
BRANCH   6   7
HETATM    7  C10 UNL     1     -11.322 -13.572  -0.230  1.00  0.00     0.048 C 
HETATM    8  C11 UNL     1     -10.759 -12.849   1.038  1.00  0.00     0.043 C 
HETATM    9  C12 UNL     1     -10.929 -11.378   0.771  1.00  0.00     0.183 C 
HETATM   10  C13 UNL     1      -9.726 -10.743   0.162  1.00  0.00     0.040 C 
HETATM   11  N1  UNL     1     -12.080 -11.346  -0.152  1.00  0.00    -0.066 N 
HETATM   12  C14 UNL     1     -11.684 -12.414  -1.031  1.00  0.00     0.201 C 
ATOM     13  H12 UNL     1     -13.004 -11.427   0.272  1.00  0.00     0.278 HD
ATOM     14  H11 UNL     1     -12.282 -10.449  -0.593  1.00  0.00     0.278 HD
BRANCH  12  15
HETATM   15  C15 UNL     1     -12.422 -12.526  -2.288  1.00  0.00     0.111 C 
BRANCH  15  16
HETATM   16  C16 UNL     1     -13.404 -11.389  -2.396  1.00  0.00     0.125 C 
HETATM   17  C17 UNL     1     -13.066 -10.288  -3.371  1.00  0.00     0.091 C 
HETATM   18  O4  UNL     1     -14.419 -11.339  -1.745  1.00  0.00    -0.298 OA
ENDBRANCH  15  16
ENDBRANCH  12  15
ENDBRANCH   6   7
BRANCH   1  19
HETATM   19  C3  UNL     1     -11.192 -16.568   1.198  1.00  0.00     0.190 C 
BRANCH  19  20
HETATM   20  O3  UNL     1      -9.905 -16.872   1.210  1.00  0.00    -0.297 OA
BRANCH  20  21
HETATM   21  C2  UNL     1      -9.025 -17.761   1.682  1.00  0.00     0.406 C 
HETATM   22  O2  UNL     1      -8.077 -18.131   0.960  1.00  0.00    -0.230 OA
BRANCH  21  23
HETATM   23  O1  UNL     1      -9.065 -18.336   2.955  1.00  0.00    -0.303 OA
HETATM   24  C1  UNL     1      -9.479 -19.675   3.142  1.00  0.00     0.215 C 
ENDBRANCH  21  23
ENDBRANCH  20  21
ENDBRANCH  19  20
ENDBRANCH   1  19
TORSDOF 7
ENDMDL
MODEL 5
REMARK VINA RESULT: -5.664361498      2.908      4.465
REMARK  7 active torsions:
REMARK  status: ('A' for Active; 'I' for Inactive)
REMARK    1  A    between atoms: O1_2  and  C2_3 
REMARK    2  A    between atoms: C2_3  and  O3_5 
REMARK    3  A    between atoms: O3_5  and  C3_6 
REMARK    4  A    between atoms: C3_6  and  C4_7 
REMARK    5  A    between atoms: C9_12  and  C10_13 
REMARK    6  A    between atoms: C14_20  and  C15_21 
REMARK    7  A    between atoms: C15_21  and  C16_22 
ROOT
HETATM    1  C4  UNL     1     -11.938 -15.996  -0.022  1.00  0.00     0.039 C 
HETATM    2  C5  UNL     1     -13.084 -16.834  -0.439  1.00  0.00     0.011 C 
HETATM    3  C6  UNL     1     -14.411 -16.400   0.006  1.00  0.00     0.004 C 
HETATM    4  C7  UNL     1     -14.430 -15.346   1.065  1.00  0.00     0.027 C 
HETATM    5  C8  UNL     1     -13.479 -14.271   0.695  1.00  0.00    -0.023 C 
HETATM    6  C9  UNL     1     -12.305 -14.541   0.182  1.00  0.00    -0.071 C 
ENDROOT
BRANCH   6   7
HETATM    7  C10 UNL     1     -11.319 -13.551  -0.313  1.00  0.00     0.048 C 
HETATM    8  C11 UNL     1     -10.727 -12.820   0.937  1.00  0.00     0.043 C 
HETATM    9  C12 UNL     1     -10.936 -11.352   0.681  1.00  0.00     0.183 C 
HETATM   10  C13 UNL     1      -9.767 -10.692   0.033  1.00  0.00     0.040 C 
HETATM   11  N1  UNL     1     -12.118 -11.340  -0.201  1.00  0.00    -0.066 N 
HETATM   12  C14 UNL     1     -11.732 -12.398  -1.097  1.00  0.00     0.201 C 
ATOM     13  H12 UNL     1     -13.025 -11.441   0.254  1.00  0.00     0.278 HD
ATOM     14  H11 UNL     1     -12.353 -10.446  -0.632  1.00  0.00     0.278 HD
BRANCH  12  15
HETATM   15  C15 UNL     1     -12.511 -12.521  -2.329  1.00  0.00     0.111 C 
BRANCH  15  16
HETATM   16  C16 UNL     1     -13.476 -11.370  -2.428  1.00  0.00     0.125 C 
HETATM   17  C17 UNL     1     -13.140 -10.284  -3.420  1.00  0.00     0.091 C 
HETATM   18  O4  UNL     1     -14.477 -11.297  -1.757  1.00  0.00    -0.298 OA
ENDBRANCH  15  16
ENDBRANCH  12  15
ENDBRANCH   6   7
BRANCH   1  19
HETATM   19  C3  UNL     1     -11.083 -16.579   1.030  1.00  0.00     0.190 C 
BRANCH  19  20
HETATM   20  O3  UNL     1      -9.764 -16.667   1.049  1.00  0.00    -0.297 OA
BRANCH  20  21
HETATM   21  C2  UNL     1      -8.739 -17.410   0.617  1.00  0.00     0.406 C 
HETATM   22  O2  UNL     1      -8.204 -18.229   1.390  1.00  0.00    -0.230 OA
BRANCH  21  23
HETATM   23  O1  UNL     1      -8.189 -17.353  -0.666  1.00  0.00    -0.303 OA
HETATM   24  C1  UNL     1      -8.220 -18.474  -1.528  1.00  0.00     0.215 C 
ENDBRANCH  21  23
ENDBRANCH  20  21
ENDBRANCH  19  20
ENDBRANCH   1  19
TORSDOF 7
ENDMDL
