MODEL 1
REMARK VINA RESULT: -3.822070056      0.000      0.000
REMARK  1 active torsions:
REMARK  status: ('A' for Active; 'I' for Inactive)
REMARK    1  A    between atoms: S1_2  and  C2_3 
ROOT
HETATM    1  C2  UNL     1       2.072  23.605  75.823  1.00  0.00     0.126 C 
HETATM    2  C3  UNL     1       3.278  24.270  75.234  1.00  0.00     0.134 C 
HETATM    3  N1  UNL     1       4.410  23.425  75.477  1.00  0.00    -0.420 N 
ATOM      4  H1  UNL     1       5.218  23.744  76.011  1.00  0.00     0.153 HD
HETATM    5  C4  UNL     1       4.338  22.114  74.925  1.00  0.00     0.119 C 
HETATM    6  C5  UNL     1       2.994  21.560  74.654  1.00  0.00     0.089 C 
HETATM    7  C6  UNL     1       1.822  22.265  75.219  1.00  0.00     0.179 C 
HETATM    8  O1  UNL     1       0.883  22.450  74.190  1.00  0.00    -0.352 OA
HETATM    9  C7  UNL     1       0.196  21.228  74.229  1.00  0.00     0.197 C 
HETATM   10  C8  UNL     1      -0.076  21.185  75.729  1.00  0.00     0.197 C 
HETATM   11  O2  UNL     1       1.176  21.512  76.210  1.00  0.00    -0.352 OA
ENDROOT
BRANCH   1  12
HETATM   12  S1  UNL     1       2.233  23.516  77.628  1.00  0.00    -0.162 SA
HETATM   13  C1  UNL     1       0.803  24.230  78.475  1.00  0.00     0.090 C 
ENDBRANCH   1  12
TORSDOF 1
ENDMDL
MODEL 2
REMARK VINA RESULT: -3.547876038      2.087      3.390
REMARK  1 active torsions:
REMARK  status: ('A' for Active; 'I' for Inactive)
REMARK    1  A    between atoms: S1_2  and  C2_3 
ROOT
HETATM    1  C2  UNL     1       1.216  21.798  76.082  1.00  0.00     0.126 C 
HETATM    2  C3  UNL     1       0.177  20.761  75.786  1.00  0.00     0.134 C 
HETATM    3  N1  UNL     1      -0.526  21.167  74.604  1.00  0.00    -0.420 N 
ATOM      4  H1  UNL     1      -1.532  21.334  74.604  1.00  0.00     0.153 HD
HETATM    5  C4  UNL     1       0.265  21.321  73.430  1.00  0.00     0.119 C 
HETATM    6  C5  UNL     1       1.709  21.586  73.610  1.00  0.00     0.089 C 
HETATM    7  C6  UNL     1       2.188  21.951  74.962  1.00  0.00     0.179 C 
HETATM    8  O1  UNL     1       3.295  21.142  75.268  1.00  0.00    -0.352 OA
HETATM    9  C7  UNL     1       4.336  21.873  74.676  1.00  0.00     0.197 C 
HETATM   10  C8  UNL     1       3.999  23.238  75.268  1.00  0.00     0.197 C 
HETATM   11  O2  UNL     1       2.640  23.277  75.025  1.00  0.00    -0.352 OA
ENDROOT
BRANCH   1  12
HETATM   12  S1  UNL     1       0.419  23.370  76.509  1.00  0.00    -0.162 SA
HETATM   13  C1  UNL     1       0.890  23.947  78.157  1.00  0.00     0.090 C 
ENDBRANCH   1  12
TORSDOF 1
ENDMDL
MODEL 3
REMARK VINA RESULT: -3.428300087      2.293      3.797
REMARK  1 active torsions:
REMARK  status: ('A' for Active; 'I' for Inactive)
REMARK    1  A    between atoms: S1_2  and  C2_3 
ROOT
HETATM    1  C2  UNL     1       1.447  22.538  74.730  1.00  0.00     0.126 C 
HETATM    2  C3  UNL     1       0.524  22.046  73.658  1.00  0.00     0.134 C 
HETATM    3  N1  UNL     1       0.045  20.753  74.049  1.00  0.00    -0.420 N 
ATOM      4  H1  UNL     1       0.205  19.922  73.480  1.00  0.00     0.153 HD
HETATM    5  C4  UNL     1      -0.668  20.698  75.281  1.00  0.00     0.119 C 
HETATM    6  C5  UNL     1      -0.404  21.766  76.270  1.00  0.00     0.089 C 
HETATM    7  C6  UNL     1       0.763  22.647  76.050  1.00  0.00     0.179 C 
HETATM    8  O1  UNL     1       0.338  23.980  76.181  1.00  0.00    -0.352 OA
HETATM    9  C7  UNL     1       0.433  24.160  77.568  1.00  0.00     0.197 C 
HETATM   10  C8  UNL     1       1.849  23.622  77.754  1.00  0.00     0.197 C 
HETATM   11  O2  UNL     1       1.762  22.458  77.016  1.00  0.00    -0.352 OA
ENDROOT
BRANCH   1  12
HETATM   12  S1  UNL     1       2.919  21.482  74.813  1.00  0.00    -0.162 SA
HETATM   13  C1  UNL     1       4.446  22.448  74.910  1.00  0.00     0.090 C 
ENDBRANCH   1  12
TORSDOF 1
ENDMDL
MODEL 4
REMARK VINA RESULT: -3.402068046      1.829      3.228
REMARK  1 active torsions:
REMARK  status: ('A' for Active; 'I' for Inactive)
REMARK    1  A    between atoms: S1_2  and  C2_3 
ROOT
HETATM    1  C2  UNL     1       2.796  23.366  76.628  1.00  0.00     0.126 C 
HETATM    2  C3  UNL     1       2.628  24.120  77.911  1.00  0.00     0.134 C 
HETATM    3  N1  UNL     1       1.905  25.324  77.623  1.00  0.00    -0.420 N 
ATOM      4  H1  UNL     1       2.295  26.247  77.811  1.00  0.00     0.153 HD
HETATM    5  C4  UNL     1       0.608  25.152  77.059  1.00  0.00     0.119 C 
HETATM    6  C5  UNL     1       0.338  23.887  76.341  1.00  0.00     0.089 C 
HETATM    7  C6  UNL     1       1.486  23.015  76.010  1.00  0.00     0.179 C 
HETATM    8  O1  UNL     1       1.177  21.708  76.423  1.00  0.00    -0.352 OA
HETATM    9  C7  UNL     1       0.465  21.234  75.311  1.00  0.00     0.197 C 
HETATM   10  C8  UNL     1       1.460  21.648  74.231  1.00  0.00     0.197 C 
HETATM   11  O2  UNL     1       1.720  22.945  74.629  1.00  0.00    -0.352 OA
ENDROOT
BRANCH   1  12
HETATM   12  S1  UNL     1       3.853  24.305  75.492  1.00  0.00    -0.162 SA
HETATM   13  C1  UNL     1       5.377  23.418  75.090  1.00  0.00     0.090 C 
ENDBRANCH   1  12
TORSDOF 1
ENDMDL
MODEL 5
REMARK VINA RESULT: -3.319370232      2.758      3.611
REMARK  1 active torsions:
REMARK  status: ('A' for Active; 'I' for Inactive)
REMARK    1  A    between atoms: S1_2  and  C2_3 
ROOT
HETATM    1  C2  UNL     1       1.197  25.603  76.932  1.00  0.00     0.126 C 
HETATM    2  C3  UNL     1       2.086  26.354  77.875  1.00  0.00     0.134 C 
HETATM    3  N1  UNL     1       1.813  25.888  79.203  1.00  0.00    -0.420 N 
ATOM      4  H1  UNL     1       1.485  26.513  79.939  1.00  0.00     0.153 HD
HETATM    5  C4  UNL     1       2.029  24.499  79.432  1.00  0.00     0.119 C 
HETATM    6  C5  UNL     1       1.975  23.597  78.261  1.00  0.00     0.089 C 
HETATM    7  C6  UNL     1       1.432  24.133  76.993  1.00  0.00     0.179 C 
HETATM    8  O1  UNL     1       2.335  23.820  75.963  1.00  0.00    -0.352 OA
HETATM    9  C7  UNL     1       1.919  22.526  75.622  1.00  0.00     0.197 C 
HETATM   10  C8  UNL     1       0.427  22.812  75.485  1.00  0.00     0.197 C 
HETATM   11  O2  UNL     1       0.213  23.534  76.642  1.00  0.00    -0.352 OA
ENDROOT
BRANCH   1  12
HETATM   12  S1  UNL     1      -0.539  26.027  77.247  1.00  0.00    -0.162 SA
HETATM   13  C1  UNL     1      -1.208  27.138  75.986  1.00  0.00     0.090 C 
ENDBRANCH   1  12
TORSDOF 1
ENDMDL
