MODEL 1
REMARK VINA RESULT: -6.529291762      0.000      0.000
REMARK  3 active torsions:
REMARK  status: ('A' for Active; 'I' for Inactive)
REMARK    1  A    between atoms: C2_2  and  S1_4 
REMARK    2  A    between atoms: S1_4  and  C3_5 
REMARK    3  A    between atoms: N4_12  and  C4_13 
ROOT
HETATM    1  C3  UNL     1       4.539  24.020 -18.326  1.00  0.00     0.184 A 
HETATM    2  N1  UNL     1       4.777  24.877 -17.316  1.00  0.00    -0.263 N 
ATOM      3  H1  UNL     1       4.394  25.820 -17.252  1.00  0.00     0.190 HD
HETATM    4  N2  UNL     1       5.568  24.332 -16.427  1.00  0.00    -0.226 N 
ATOM      5  H2  UNL     1       5.902  24.767 -15.566  1.00  0.00     0.210 HD
HETATM    6  N3  UNL     1       5.851  23.123 -16.846  1.00  0.00    -0.224 N 
ATOM      7  H3  UNL     1       6.449  22.456 -16.358  1.00  0.00     0.210 HD
HETATM    8  N4  UNL     1       5.242  22.901 -17.998  1.00  0.00    -0.249 N 
ENDROOT
BRANCH   8   9
HETATM    9  C4  UNL     1       5.320  21.692 -18.750  1.00  0.00     0.112 C 
HETATM   10  C5  UNL     1       6.313  20.691 -18.205  1.00  0.00     0.027 C 
HETATM   11  C6  UNL     1       5.803  19.281 -18.309  1.00  0.00     0.002 C 
HETATM   12  C7  UNL     1       5.039  19.001 -19.561  1.00  0.00     0.000 C 
HETATM   13  C8  UNL     1       3.896  19.944 -19.813  1.00  0.00     0.002 C 
HETATM   14  C9  UNL     1       3.955  21.034 -18.761  1.00  0.00     0.027 C 
ENDBRANCH   8   9
BRANCH   1  15
HETATM   15  S1  UNL     1       3.529  24.293 -19.768  1.00  0.00    -0.044 SA
BRANCH  15  16
HETATM   16  C2  UNL     1       3.433  26.037 -20.072  1.00  0.00     0.045 C 
HETATM   17  C1  UNL     1       2.893  26.899 -19.226  1.00  0.00     0.039 C 
HETATM   18 BR1  UNL     1       4.149  26.745 -21.717  1.00  0.00    -0.044 Br
ENDBRANCH  15  16
ENDBRANCH   1  15
TORSDOF 3
ENDMDL
MODEL 2
REMARK VINA RESULT: -6.185844647      2.562      5.382
REMARK  3 active torsions:
REMARK  status: ('A' for Active; 'I' for Inactive)
REMARK    1  A    between atoms: C2_2  and  S1_4 
REMARK    2  A    between atoms: S1_4  and  C3_5 
REMARK    3  A    between atoms: N4_12  and  C4_13 
ROOT
HETATM    1  C3  UNL     1       4.950  22.859 -18.193  1.00  0.00     0.184 A 
HETATM    2  N1  UNL     1       6.098  22.520 -17.576  1.00  0.00    -0.263 N 
ATOM      3  H1  UNL     1       6.380  21.565 -17.358  1.00  0.00     0.190 HD
HETATM    4  N2  UNL     1       6.801  23.588 -17.295  1.00  0.00    -0.226 N 
ATOM      5  H2  UNL     1       7.709  23.609 -16.828  1.00  0.00     0.210 HD
HETATM    6  N3  UNL     1       6.124  24.625 -17.723  1.00  0.00    -0.224 N 
ATOM      7  H3  UNL     1       6.423  25.597 -17.643  1.00  0.00     0.210 HD
HETATM    8  N4  UNL     1       4.994  24.218 -18.274  1.00  0.00    -0.249 N 
ENDROOT
BRANCH   8   9
HETATM    9  C4  UNL     1       4.005  25.069 -18.849  1.00  0.00     0.112 C 
HETATM   10  C5  UNL     1       4.116  26.515 -18.425  1.00  0.00     0.027 C 
HETATM   11  C6  UNL     1       3.824  27.457 -19.559  1.00  0.00     0.002 C 
HETATM   12  C7  UNL     1       2.722  27.003 -20.458  1.00  0.00     0.000 C 
HETATM   13  C8  UNL     1       2.909  25.621 -21.018  1.00  0.00     0.002 C 
HETATM   14  C9  UNL     1       4.132  25.016 -20.358  1.00  0.00     0.027 C 
ENDBRANCH   8   9
BRANCH   1  15
HETATM   15  S1  UNL     1       3.666  21.769 -18.773  1.00  0.00    -0.044 SA
BRANCH  15  16
HETATM   16  C2  UNL     1       4.378  20.180 -19.107  1.00  0.00     0.045 C 
HETATM   17  C1  UNL     1       3.969  19.385 -20.081  1.00  0.00     0.039 C 
HETATM   18 BR1  UNL     1       5.831  19.551 -18.005  1.00  0.00    -0.044 Br
ENDBRANCH  15  16
ENDBRANCH   1  15
TORSDOF 3
ENDMDL
MODEL 3
REMARK VINA RESULT: -5.712157543      3.264      5.847
REMARK  3 active torsions:
REMARK  status: ('A' for Active; 'I' for Inactive)
REMARK    1  A    between atoms: C2_2  and  S1_4 
REMARK    2  A    between atoms: S1_4  and  C3_5 
REMARK    3  A    between atoms: N4_12  and  C4_13 
ROOT
HETATM    1  C3  UNL     1       3.975  22.953 -18.571  1.00  0.00     0.184 A 
HETATM    2  N1  UNL     1       3.230  21.840 -18.699  1.00  0.00    -0.263 N 
ATOM      3  H1  UNL     1       3.331  21.004 -18.122  1.00  0.00     0.190 HD
HETATM    4  N2  UNL     1       2.357  21.978 -19.665  1.00  0.00    -0.226 N 
ATOM      5  H2  UNL     1       1.674  21.283 -19.967  1.00  0.00     0.210 HD
HETATM    6  N3  UNL     1       2.524  23.175 -20.173  1.00  0.00    -0.224 N 
ATOM      7  H3  UNL     1       1.985  23.567 -20.944  1.00  0.00     0.210 HD
HETATM    8  N4  UNL     1       3.500  23.794 -19.532  1.00  0.00    -0.249 N 
ENDROOT
BRANCH   8   9
HETATM    9  C4  UNL     1       3.959  25.115 -19.811  1.00  0.00     0.112 C 
HETATM   10  C5  UNL     1       3.346  25.731 -21.048  1.00  0.00     0.027 C 
HETATM   11  C6  UNL     1       3.052  27.193 -20.859  1.00  0.00     0.002 C 
HETATM   12  C7  UNL     1       4.087  27.925 -20.069  1.00  0.00     0.000 C 
HETATM   13  C8  UNL     1       4.384  27.318 -18.726  1.00  0.00     0.002 C 
HETATM   14  C9  UNL     1       3.627  26.008 -18.633  1.00  0.00     0.027 C 
ENDBRANCH   8   9
BRANCH   1  15
HETATM   15  S1  UNL     1       5.288  23.255 -17.405  1.00  0.00    -0.044 SA
BRANCH  15  16
HETATM   16  C2  UNL     1       6.618  22.132 -17.745  1.00  0.00     0.045 C 
HETATM   17  C1  UNL     1       7.865  22.517 -17.957  1.00  0.00     0.039 C 
HETATM   18 BR1  UNL     1       6.254  20.239 -17.813  1.00  0.00    -0.044 Br
ENDBRANCH  15  16
ENDBRANCH   1  15
TORSDOF 3
ENDMDL
MODEL 4
REMARK VINA RESULT: -5.680753392      2.436      5.365
REMARK  3 active torsions:
REMARK  status: ('A' for Active; 'I' for Inactive)
REMARK    1  A    between atoms: C2_2  and  S1_4 
REMARK    2  A    between atoms: S1_4  and  C3_5 
REMARK    3  A    between atoms: N4_12  and  C4_13 
ROOT
HETATM    1  C3  UNL     1       5.032  22.900 -18.159  1.00  0.00     0.184 A 
HETATM    2  N1  UNL     1       6.183  22.645 -17.509  1.00  0.00    -0.263 N 
ATOM      3  H1  UNL     1       6.522  21.712 -17.274  1.00  0.00     0.190 HD
HETATM    4  N2  UNL     1       6.806  23.760 -17.222  1.00  0.00    -0.226 N 
ATOM      5  H2  UNL     1       7.698  23.845 -16.733  1.00  0.00     0.210 HD
HETATM    6  N3  UNL     1       6.073  24.745 -17.679  1.00  0.00    -0.224 N 
ATOM      7  H3  UNL     1       6.305  25.736 -17.602  1.00  0.00     0.210 HD
HETATM    8  N4  UNL     1       4.988  24.259 -18.254  1.00  0.00    -0.249 N 
ENDROOT
BRANCH   8   9
HETATM    9  C4  UNL     1       3.960  25.037 -18.864  1.00  0.00     0.112 C 
HETATM   10  C5  UNL     1       3.922  26.475 -18.402  1.00  0.00     0.027 C 
HETATM   11  C6  UNL     1       3.609  27.419 -19.529  1.00  0.00     0.002 C 
HETATM   12  C7  UNL     1       2.600  26.897 -20.498  1.00  0.00     0.000 C 
HETATM   13  C8  UNL     1       2.937  25.551 -21.078  1.00  0.00     0.002 C 
HETATM   14  C9  UNL     1       4.171  25.036 -20.365  1.00  0.00     0.027 C 
ENDBRANCH   8   9
BRANCH   1  15
HETATM   15  S1  UNL     1       3.838  21.723 -18.760  1.00  0.00    -0.044 SA
BRANCH  15  16
HETATM   16  C2  UNL     1       4.621  20.137 -18.889  1.00  0.00     0.045 C 
HETATM   17  C1  UNL     1       5.600  19.737 -18.095  1.00  0.00     0.039 C 
HETATM   18 BR1  UNL     1       4.030  18.906 -20.251  1.00  0.00    -0.044 Br
ENDBRANCH  15  16
ENDBRANCH   1  15
TORSDOF 3
ENDMDL
MODEL 5
REMARK VINA RESULT: -5.545003526      2.616      4.948
REMARK  3 active torsions:
REMARK  status: ('A' for Active; 'I' for Inactive)
REMARK    1  A    between atoms: C2_2  and  S1_4 
REMARK    2  A    between atoms: S1_4  and  C3_5 
REMARK    3  A    between atoms: N4_12  and  C4_13 
ROOT
HETATM    1  C3  UNL     1       5.488  22.479 -17.680  1.00  0.00     0.184 A 
HETATM    2  N1  UNL     1       6.720  21.950 -17.561  1.00  0.00    -0.263 N 
ATOM      3  H1  UNL     1       6.914  20.966 -17.377  1.00  0.00     0.190 HD
HETATM    4  N2  UNL     1       7.634  22.875 -17.713  1.00  0.00    -0.226 N 
ATOM      5  H2  UNL     1       8.645  22.739 -17.670  1.00  0.00     0.210 HD
HETATM    6  N3  UNL     1       7.011  24.007 -17.932  1.00  0.00    -0.224 N 
ATOM      7  H3  UNL     1       7.464  24.907 -18.088  1.00  0.00     0.210 HD
HETATM    8  N4  UNL     1       5.705  23.803 -17.918  1.00  0.00    -0.249 N 
ENDROOT
BRANCH   8   9
HETATM    9  C4  UNL     1       4.713  24.807 -18.120  1.00  0.00     0.112 C 
HETATM   10  C5  UNL     1       5.167  26.202 -17.759  1.00  0.00     0.027 C 
HETATM   11  C6  UNL     1       4.647  27.229 -18.725  1.00  0.00     0.002 C 
HETATM   12  C7  UNL     1       3.252  26.973 -19.193  1.00  0.00     0.000 C 
HETATM   13  C8  UNL     1       3.039  25.607 -19.784  1.00  0.00     0.002 C 
HETATM   14  C9  UNL     1       4.313  24.812 -19.582  1.00  0.00     0.027 C 
ENDBRANCH   8   9
BRANCH   1  15
HETATM   15  S1  UNL     1       3.925  21.633 -17.554  1.00  0.00    -0.044 SA
BRANCH  15  16
HETATM   16  C2  UNL     1       3.390  21.185 -19.185  1.00  0.00     0.045 C 
HETATM   17  C1  UNL     1       2.581  21.929 -19.920  1.00  0.00     0.039 C 
HETATM   18 BR1  UNL     1       4.008  19.528 -19.954  1.00  0.00    -0.044 Br
ENDBRANCH  15  16
ENDBRANCH   1  15
TORSDOF 3
ENDMDL
