MODEL 1
REMARK VINA RESULT: -6.802107906      0.000      0.000
REMARK  1 active torsions:
REMARK  status: ('A' for Active; 'I' for Inactive)
REMARK       I    between atoms: C2_2  and  N1_4 
REMARK       I    between atoms: N1_4  and  C3_6 
REMARK       I    between atoms: C3_6  and  N2_7 
REMARK       I    between atoms: C3_6  and  N3_11 
REMARK    1  A    between atoms: N3_11  and  C4_13 
ROOT
HETATM    1  C1  UNL     1      -9.267 -44.289  10.027  1.00  0.00     0.117 C 
HETATM    2  C2  UNL     1      -8.330 -43.318  10.597  1.00  0.00     0.216 C 
HETATM    3  O1  UNL     1      -8.774 -42.210  10.995  1.00  0.00    -0.274 OA
HETATM    4  N1  UNL     1      -6.932 -43.544  10.734  1.00  0.00    -0.318 N 
ATOM      5  H1  UNL     1      -6.551 -44.435  10.416  1.00  0.00     0.166 HD
HETATM    6  C3  UNL     1      -6.027 -42.574  11.299  1.00  0.00     0.385 C 
HETATM    7  N2  UNL     1      -5.191 -42.137  10.159  1.00  0.00    -0.041 N 
ATOM      8  H21 UNL     1      -4.551 -41.452  10.559  1.00  0.00     0.279 HD
ATOM      9  H22 UNL     1      -5.724 -41.794   9.360  1.00  0.00     0.279 HD
ATOM     10  H23 UNL     1      -4.728 -42.901   9.667  1.00  0.00     0.279 HD
HETATM   11  N3  UNL     1      -5.204 -43.031  12.363  1.00  0.00    -0.376 N 
ATOM     12  H3  UNL     1      -4.189 -43.058  12.264  1.00  0.00     0.157 HD
ENDROOT
BRANCH  11  13
HETATM   13  C4  UNL     1      -5.825 -43.450  13.564  1.00  0.00     0.080 C 
HETATM   14  C5  UNL     1      -4.951 -44.099  14.588  1.00  0.00     0.025 C 
HETATM   15  C6  UNL     1      -5.309 -43.591  15.995  1.00  0.00     0.002 C 
HETATM   16  C7  UNL     1      -6.795 -43.922  16.154  1.00  0.00     0.000 C 
HETATM   17  C8  UNL     1      -7.513 -42.856  15.331  1.00  0.00     0.002 C 
HETATM   18  C9  UNL     1      -6.706 -42.380  14.179  1.00  0.00     0.025 C 
ENDBRANCH  11  13
TORSDOF 1
ENDMDL
MODEL 2
REMARK VINA RESULT: -6.615821129      3.220      4.493
REMARK  1 active torsions:
REMARK  status: ('A' for Active; 'I' for Inactive)
REMARK       I    between atoms: C2_2  and  N1_4 
REMARK       I    between atoms: N1_4  and  C3_6 
REMARK       I    between atoms: C3_6  and  N2_7 
REMARK       I    between atoms: C3_6  and  N3_11 
REMARK    1  A    between atoms: N3_11  and  C4_13 
ROOT
HETATM    1  C1  UNL     1      -8.272 -43.141   6.066  1.00  0.00     0.117 C 
HETATM    2  C2  UNL     1      -8.884 -43.674   7.285  1.00  0.00     0.216 C 
HETATM    3  O1  UNL     1      -8.646 -44.864   7.612  1.00  0.00    -0.274 OA
HETATM    4  N1  UNL     1      -9.745 -42.927   8.138  1.00  0.00    -0.318 N 
ATOM      5  H1  UNL     1      -9.953 -41.960   7.891  1.00  0.00     0.166 HD
HETATM    6  C3  UNL     1     -10.337 -43.471   9.334  1.00  0.00     0.385 C 
HETATM    7  N2  UNL     1     -11.781 -43.560   9.027  1.00  0.00    -0.041 N 
ATOM      8  H21 UNL     1     -12.201 -43.945   9.873  1.00  0.00     0.279 HD
ATOM      9  H22 UNL     1     -11.995 -44.086   8.180  1.00  0.00     0.279 HD
ATOM     10  H23 UNL     1     -12.196 -42.679   8.721  1.00  0.00     0.279 HD
HETATM   11  N3  UNL     1     -10.136 -42.727  10.527  1.00  0.00    -0.376 N 
ATOM     12  H3  UNL     1     -10.925 -42.313  11.024  1.00  0.00     0.157 HD
ENDROOT
BRANCH  11  13
HETATM   13  C4  UNL     1      -8.814 -42.573  11.010  1.00  0.00     0.080 C 
HETATM   14  C5  UNL     1      -8.599 -41.551  12.081  1.00  0.00     0.025 C 
HETATM   15  C6  UNL     1      -7.642 -42.096  13.154  1.00  0.00     0.002 C 
HETATM   16  C7  UNL     1      -6.370 -42.458  12.383  1.00  0.00     0.000 C 
HETATM   17  C8  UNL     1      -6.708 -43.771  11.684  1.00  0.00     0.002 C 
HETATM   18  C9  UNL     1      -8.152 -43.892  11.356  1.00  0.00     0.025 C 
ENDBRANCH  11  13
TORSDOF 1
ENDMDL
MODEL 3
REMARK VINA RESULT: -6.392164781      1.886      2.464
REMARK  1 active torsions:
REMARK  status: ('A' for Active; 'I' for Inactive)
REMARK       I    between atoms: C2_2  and  N1_4 
REMARK       I    between atoms: N1_4  and  C3_6 
REMARK       I    between atoms: C3_6  and  N2_7 
REMARK       I    between atoms: C3_6  and  N3_11 
REMARK    1  A    between atoms: N3_11  and  C4_13 
ROOT
HETATM    1  C1  UNL     1      -7.483 -45.071   9.085  1.00  0.00     0.117 C 
HETATM    2  C2  UNL     1      -8.235 -44.551  10.230  1.00  0.00     0.216 C 
HETATM    3  O1  UNL     1      -8.975 -45.337  10.875  1.00  0.00    -0.274 OA
HETATM    4  N1  UNL     1      -8.187 -43.198  10.668  1.00  0.00    -0.318 N 
ATOM      5  H1  UNL     1      -7.594 -42.544  10.159  1.00  0.00     0.166 HD
HETATM    6  C3  UNL     1      -8.935 -42.708  11.798  1.00  0.00     0.385 C 
HETATM    7  N2  UNL     1      -9.948 -41.804  11.210  1.00  0.00    -0.041 N 
ATOM      8  H21 UNL     1     -10.478 -41.457  12.009  1.00  0.00     0.279 HD
ATOM      9  H22 UNL     1     -10.522 -42.238  10.487  1.00  0.00     0.279 HD
ATOM     10  H23 UNL     1      -9.557 -41.070  10.619  1.00  0.00     0.279 HD
HETATM   11  N3  UNL     1      -8.189 -42.022  12.794  1.00  0.00    -0.376 N 
ATOM     12  H3  UNL     1      -8.362 -41.037  12.991  1.00  0.00     0.157 HD
ENDROOT
BRANCH  11  13
HETATM   13  C4  UNL     1      -7.197 -42.740  13.506  1.00  0.00     0.080 C 
HETATM   14  C5  UNL     1      -5.798 -42.218  13.430  1.00  0.00     0.025 C 
HETATM   15  C6  UNL     1      -5.127 -42.289  14.812  1.00  0.00     0.002 C 
HETATM   16  C7  UNL     1      -5.214 -43.766  15.204  1.00  0.00     0.000 C 
HETATM   17  C8  UNL     1      -6.664 -43.960  15.639  1.00  0.00     0.002 C 
HETATM   18  C9  UNL     1      -7.601 -43.049  14.934  1.00  0.00     0.025 C 
ENDBRANCH  11  13
TORSDOF 1
ENDMDL
MODEL 4
REMARK VINA RESULT: -6.389755468      3.112      6.477
REMARK  1 active torsions:
REMARK  status: ('A' for Active; 'I' for Inactive)
REMARK       I    between atoms: C2_2  and  N1_4 
REMARK       I    between atoms: N1_4  and  C3_6 
REMARK       I    between atoms: C3_6  and  N2_7 
REMARK       I    between atoms: C3_6  and  N3_11 
REMARK    1  A    between atoms: N3_11  and  C4_13 
ROOT
HETATM    1  C1  UNL     1      -7.956 -42.712  13.112  1.00  0.00     0.117 C 
HETATM    2  C2  UNL     1      -8.714 -42.079  12.031  1.00  0.00     0.216 C 
HETATM    3  O1  UNL     1      -8.382 -40.927  11.653  1.00  0.00    -0.274 OA
HETATM    4  N1  UNL     1      -9.818 -42.686  11.370  1.00  0.00    -0.318 N 
ATOM      5  H1  UNL     1     -10.106 -43.619  11.662  1.00  0.00     0.166 HD
HETATM    6  C3  UNL     1     -10.551 -42.045  10.307  1.00  0.00     0.385 C 
HETATM    7  N2  UNL     1     -11.882 -41.764  10.889  1.00  0.00    -0.041 N 
ATOM      8  H21 UNL     1     -12.400 -41.311  10.137  1.00  0.00     0.279 HD
ATOM      9  H22 UNL     1     -11.852 -41.228  11.756  1.00  0.00     0.279 HD
ATOM     10  H23 UNL     1     -12.347 -42.585  11.278  1.00  0.00     0.279 HD
HETATM   11  N3  UNL     1     -10.690 -42.789   9.105  1.00  0.00    -0.376 N 
ATOM     12  H3  UNL     1     -11.610 -43.082   8.775  1.00  0.00     0.157 HD
ENDROOT
BRANCH  11  13
HETATM   13  C4  UNL     1      -9.522 -43.114   8.375  1.00  0.00     0.080 C 
HETATM   14  C5  UNL     1      -8.759 -44.321   8.821  1.00  0.00     0.025 C 
HETATM   15  C6  UNL     1      -8.292 -45.136   7.603  1.00  0.00     0.002 C 
HETATM   16  C7  UNL     1      -7.460 -44.150   6.780  1.00  0.00     0.000 C 
HETATM   17  C8  UNL     1      -8.492 -43.266   6.086  1.00  0.00     0.002 C 
HETATM   18  C9  UNL     1      -9.741 -43.115   6.875  1.00  0.00     0.025 C 
ENDBRANCH  11  13
TORSDOF 1
ENDMDL
MODEL 5
REMARK VINA RESULT: -6.273816920      2.160      4.970
REMARK  1 active torsions:
REMARK  status: ('A' for Active; 'I' for Inactive)
REMARK       I    between atoms: C2_2  and  N1_4 
REMARK       I    between atoms: N1_4  and  C3_6 
REMARK       I    between atoms: C3_6  and  N2_7 
REMARK       I    between atoms: C3_6  and  N3_11 
REMARK    1  A    between atoms: N3_11  and  C4_13 
ROOT
HETATM    1  C1  UNL     1      -7.975 -43.586  16.743  1.00  0.00     0.117 C 
HETATM    2  C2  UNL     1      -7.133 -43.631  15.545  1.00  0.00     0.216 C 
HETATM    3  O1  UNL     1      -6.498 -44.687  15.291  1.00  0.00    -0.274 OA
HETATM    4  N1  UNL     1      -6.980 -42.547  14.636  1.00  0.00    -0.318 N 
ATOM      5  H1  UNL     1      -7.485 -41.682  14.824  1.00  0.00     0.166 HD
HETATM    6  C3  UNL     1      -6.147 -42.613  13.462  1.00  0.00     0.385 C 
HETATM    7  N2  UNL     1      -5.029 -41.688  13.747  1.00  0.00    -0.041 N 
ATOM      8  H21 UNL     1      -4.439 -41.734  12.917  1.00  0.00     0.279 HD
ATOM      9  H22 UNL     1      -4.537 -41.886  14.618  1.00  0.00     0.279 HD
ATOM     10  H23 UNL     1      -5.324 -40.743  13.995  1.00  0.00     0.279 HD
HETATM   11  N3  UNL     1      -6.768 -42.266  12.232  1.00  0.00    -0.376 N 
ATOM     12  H3  UNL     1      -6.453 -41.456  11.698  1.00  0.00     0.157 HD
ENDROOT
BRANCH  11  13
HETATM   13  C4  UNL     1      -7.836 -43.070  11.766  1.00  0.00     0.080 C 
HETATM   14  C5  UNL     1      -9.114 -42.371  11.431  1.00  0.00     0.025 C 
HETATM   15  C6  UNL     1      -9.710 -42.940  10.133  1.00  0.00     0.002 C 
HETATM   16  C7  UNL     1      -9.880 -44.435  10.414  1.00  0.00     0.000 C 
HETATM   17  C8  UNL     1      -8.471 -45.009  10.295  1.00  0.00     0.002 C 
HETATM   18  C9  UNL     1      -7.419 -44.028  10.667  1.00  0.00     0.025 C 
ENDBRANCH  11  13
TORSDOF 1
ENDMDL
