MODEL 1
REMARK VINA RESULT: -8.821976024      0.000      0.000
REMARK  13 active torsions:
REMARK  status: ('A' for Active; 'I' for Inactive)
REMARK    1  A    between atoms: N2_3  and  C2_4 
REMARK    2  A    between atoms: N2_3  and  C9_11 
REMARK    3  A    between atoms: C2_4  and  C3_5 
REMARK    4  A    between atoms: C14_16  and  C15_17 
REMARK    5  A    between atoms: C15_17  and  O1_18 
REMARK    6  A    between atoms: O1_18  and  C16_19 
REMARK    7  A    between atoms: C19_22  and  S1_23 
REMARK    8  A    between atoms: S1_23  and  N3_26 
REMARK    9  A    between atoms: C20_29  and  C21_30 
REMARK   10  A    between atoms: C20_29  and  C27_37 
REMARK   11  A    between atoms: C30_40  and  C31_41 
REMARK   12  A    between atoms: C31_41  and  O5_42 
REMARK   13  A    between atoms: N5_44  and  O6_46 
ROOT
HETATM    1  N1  UNL     1      35.684   0.200  22.097  1.00  0.00    -0.172 NA
HETATM    2  C1  UNL     1      35.174   0.000  21.077  1.00  0.00     0.185 C 
HETATM    3  N2  UNL     1      34.532  -0.229  19.833  1.00  0.00    -0.280 N 
ENDROOT
BRANCH   3   4
HETATM    4  C2  UNL     1      34.747   0.715  18.766  1.00  0.00     0.179 C 
BRANCH   4   5
HETATM    5  C3  UNL     1      34.050   1.984  19.043  1.00  0.00    -0.039 A 
HETATM    6  C4  UNL     1      32.683   1.918  19.255  1.00  0.00     0.009 A 
HETATM    7  C5  UNL     1      31.980   3.044  19.516  1.00  0.00     0.001 A 
HETATM    8  C6  UNL     1      32.550   4.312  19.591  1.00  0.00     0.000 A 
HETATM    9  C7  UNL     1      33.918   4.362  19.377  1.00  0.00     0.001 A 
HETATM   10  C8  UNL     1      34.657   3.230  19.108  1.00  0.00     0.009 A 
ENDBRANCH   4   5
ENDBRANCH   3   4
BRANCH   3  11
HETATM   11  C9  UNL     1      33.654  -1.341  19.668  1.00  0.00     0.053 A 
HETATM   12  C10 UNL     1      32.457  -1.377  20.348  1.00  0.00     0.031 A 
HETATM   13  C11 UNL     1      31.617  -2.480  20.265  1.00  0.00     0.002 A 
HETATM   14  C12 UNL     1      32.042  -3.522  19.474  1.00  0.00     0.001 A 
HETATM   15  C13 UNL     1      33.233  -3.494  18.792  1.00  0.00     0.011 A 
HETATM   16  C14 UNL     1      34.056  -2.395  18.881  1.00  0.00    -0.007 A 
BRANCH  16  17
HETATM   17  C15 UNL     1      35.312  -2.350  18.041  1.00  0.00     0.216 C 
BRANCH  17  18
HETATM   18  O1  UNL     1      35.589  -3.634  17.629  1.00  0.00    -0.347 OA
BRANCH  18  19
HETATM   19  C16 UNL     1      36.515  -4.529  18.127  1.00  0.00     0.069 A 
HETATM   20  C17 UNL     1      36.926  -5.614  17.332  1.00  0.00     0.038 A 
HETATM   21  C18 UNL     1      37.852  -6.527  17.782  1.00  0.00     0.027 A 
HETATM   22  C19 UNL     1      38.419  -6.421  19.030  1.00  0.00     0.076 A 
HETATM   23  C32 UNL     1      38.021  -5.363  19.817  1.00  0.00     0.027 A 
HETATM   24  C33 UNL     1      37.086  -4.438  19.371  1.00  0.00     0.038 A 
BRANCH  22  25
HETATM   25  S1  UNL     1      39.623  -7.577  19.596  1.00  0.00     0.260 S 
HETATM   26  O2  UNL     1      39.220  -7.912  21.023  1.00  0.00    -0.204 OA
HETATM   27  O3  UNL     1      40.933  -6.881  19.684  1.00  0.00    -0.204 OA
BRANCH  25  28
HETATM   28  N3  UNL     1      39.617  -8.988  18.704  1.00  0.00    -0.078 NA
HETATM   29  N4  UNL     1      40.409  -9.089  17.592  1.00  0.00     0.012 NA
HETATM   30  O4  UNL     1      40.541 -10.405  17.306  1.00  0.00    -0.251 OA
HETATM   31  C20 UNL     1      39.784 -11.144  18.208  1.00  0.00     0.142 C 
HETATM   32  C30 UNL     1      39.915 -10.221  19.444  1.00  0.00     0.213 C 
BRANCH  31  33
HETATM   33  C21 UNL     1      40.423 -12.452  18.458  1.00  0.00    -0.019 A 
HETATM   34  C22 UNL     1      41.313 -12.921  17.518  1.00  0.00     0.013 A 
HETATM   35  C23 UNL     1      41.935 -14.136  17.704  1.00  0.00     0.043 A 
HETATM   36  C24 UNL     1      41.686 -14.905  18.821  1.00  0.00     0.116 A 
HETATM   37  F1  UNL     1      42.286 -16.103  19.022  1.00  0.00    -0.206 F 
HETATM   38  C25 UNL     1      40.802 -14.454  19.764  1.00  0.00     0.043 A 
HETATM   39  C26 UNL     1      40.187 -13.236  19.564  1.00  0.00     0.013 A 
ENDBRANCH  31  33
BRANCH  31  40
HETATM   40  C27 UNL     1      38.368 -11.255  17.755  1.00  0.00     0.029 A 
HETATM   41  C28 UNL     1      37.970 -11.258  16.331  1.00  0.00     0.009 A 
HETATM   42  C29 UNL     1      37.839 -12.521  17.159  1.00  0.00     0.009 A 
ENDBRANCH  31  40
BRANCH  32  43
HETATM   43  C31 UNL     1      41.337 -10.286  19.826  1.00  0.00     0.159 C 
HETATM   44  N5  UNL     1      41.689 -10.543  21.034  1.00  0.00    -0.249 N 
ATOM     45  H5  UNL     1      40.960 -10.704  21.728  1.00  0.00     0.196 HD
BRANCH  43  46
HETATM   46  O5  UNL     1      42.343 -10.072  18.896  1.00  0.00    -0.347 OA
ATOM     47  H5  UNL     1      42.488 -10.675  18.176  1.00  0.00     0.219 HD
ENDBRANCH  43  46
BRANCH  44  48
HETATM   48  O6  UNL     1      42.991 -10.612  21.435  1.00  0.00    -0.288 OA
ATOM     49  H6  UNL     1      43.403 -11.415  21.733  1.00  0.00     0.244 HD
ENDBRANCH  44  48
ENDBRANCH  32  43
ENDBRANCH  25  28
ENDBRANCH  22  25
ENDBRANCH  18  19
ENDBRANCH  17  18
ENDBRANCH  16  17
ENDBRANCH   3  11
TORSDOF 13
ENDMDL
MODEL 2
REMARK VINA RESULT: -8.743365486      2.239      2.851
REMARK  13 active torsions:
REMARK  status: ('A' for Active; 'I' for Inactive)
REMARK    1  A    between atoms: N2_3  and  C2_4 
REMARK    2  A    between atoms: N2_3  and  C9_11 
REMARK    3  A    between atoms: C2_4  and  C3_5 
REMARK    4  A    between atoms: C14_16  and  C15_17 
REMARK    5  A    between atoms: C15_17  and  O1_18 
REMARK    6  A    between atoms: O1_18  and  C16_19 
REMARK    7  A    between atoms: C19_22  and  S1_23 
REMARK    8  A    between atoms: S1_23  and  N3_26 
REMARK    9  A    between atoms: C20_29  and  C21_30 
REMARK   10  A    between atoms: C20_29  and  C27_37 
REMARK   11  A    between atoms: C30_40  and  C31_41 
REMARK   12  A    between atoms: C31_41  and  O5_42 
REMARK   13  A    between atoms: N5_44  and  O6_46 
ROOT
HETATM    1  N1  UNL     1      35.687   0.294  22.099  1.00  0.00    -0.172 NA
HETATM    2  C1  UNL     1      35.046   0.066  21.162  1.00  0.00     0.185 C 
HETATM    3  N2  UNL     1      34.247  -0.192  20.019  1.00  0.00    -0.280 N 
ENDROOT
BRANCH   3   4
HETATM    4  C2  UNL     1      34.496   0.567  18.821  1.00  0.00     0.179 C 
BRANCH   4   5
HETATM    5  C3  UNL     1      34.102   1.975  19.004  1.00  0.00    -0.039 A 
HETATM    6  C4  UNL     1      32.770   2.223  19.295  1.00  0.00     0.009 A 
HETATM    7  C5  UNL     1      32.339   3.492  19.477  1.00  0.00     0.001 A 
HETATM    8  C6  UNL     1      33.164   4.610  19.391  1.00  0.00     0.000 A 
HETATM    9  C7  UNL     1      34.492   4.347  19.099  1.00  0.00     0.001 A 
HETATM   10  C8  UNL     1      34.957   3.063  18.908  1.00  0.00     0.009 A 
ENDBRANCH   4   5
ENDBRANCH   3   4
BRANCH   3  11
HETATM   11  C9  UNL     1      33.188  -1.147  20.081  1.00  0.00     0.053 A 
HETATM   12  C10 UNL     1      31.972  -0.790  20.617  1.00  0.00     0.031 A 
HETATM   13  C11 UNL     1      30.948  -1.718  20.757  1.00  0.00     0.002 A 
HETATM   14  C12 UNL     1      31.214  -2.999  20.334  1.00  0.00     0.001 A 
HETATM   15  C13 UNL     1      32.424  -3.364  19.797  1.00  0.00     0.011 A 
HETATM   16  C14 UNL     1      33.429  -2.435  19.662  1.00  0.00    -0.007 A 
BRANCH  16  17
HETATM   17  C15 UNL     1      34.714  -2.841  18.976  1.00  0.00     0.216 C 
BRANCH  17  18
HETATM   18  O1  UNL     1      34.488  -4.035  18.330  1.00  0.00    -0.347 OA
BRANCH  18  19
HETATM   19  C16 UNL     1      35.385  -4.860  17.682  1.00  0.00     0.069 A 
HETATM   20  C17 UNL     1      34.938  -6.077  17.137  1.00  0.00     0.038 A 
HETATM   21  C18 UNL     1      35.794  -6.927  16.475  1.00  0.00     0.027 A 
HETATM   22  C19 UNL     1      37.126  -6.627  16.316  1.00  0.00     0.076 A 
HETATM   23  C32 UNL     1      37.574  -5.439  16.849  1.00  0.00     0.027 A 
HETATM   24  C33 UNL     1      36.717  -4.575  17.519  1.00  0.00     0.038 A 
BRANCH  22  25
HETATM   25  S1  UNL     1      38.216  -7.707  15.448  1.00  0.00     0.260 S 
HETATM   26  O2  UNL     1      39.459  -6.879  15.162  1.00  0.00    -0.204 OA
HETATM   27  O3  UNL     1      37.609  -8.018  14.127  1.00  0.00    -0.204 OA
BRANCH  25  28
HETATM   28  N3  UNL     1      38.664  -9.028  16.363  1.00  0.00    -0.078 NA
HETATM   29  N4  UNL     1      39.839  -9.676  16.085  1.00  0.00     0.012 NA
HETATM   30  O4  UNL     1      40.166 -10.407  17.176  1.00  0.00    -0.251 OA
HETATM   31  C20 UNL     1      39.168 -10.267  18.133  1.00  0.00     0.142 C 
HETATM   32  C30 UNL     1      38.731  -8.816  17.815  1.00  0.00     0.213 C 
BRANCH  31  33
HETATM   33  C21 UNL     1      39.746 -10.357  19.490  1.00  0.00    -0.019 A 
HETATM   34  C22 UNL     1      41.096 -10.604  19.596  1.00  0.00     0.013 A 
HETATM   35  C23 UNL     1      41.683 -10.699  20.838  1.00  0.00     0.043 A 
HETATM   36  C24 UNL     1      40.945 -10.550  21.993  1.00  0.00     0.116 A 
HETATM   37  F1  UNL     1      41.503 -10.640  23.224  1.00  0.00    -0.206 F 
HETATM   38  C25 UNL     1      39.601 -10.305  21.904  1.00  0.00     0.043 A 
HETATM   39  C26 UNL     1      39.027 -10.214  20.653  1.00  0.00     0.013 A 
ENDBRANCH  31  33
BRANCH  31  40
HETATM   40  C27 UNL     1      38.060 -11.237  17.897  1.00  0.00     0.029 A 
HETATM   41  C28 UNL     1      38.223 -12.479  17.112  1.00  0.00     0.009 A 
HETATM   42  C29 UNL     1      38.011 -12.551  18.612  1.00  0.00     0.009 A 
ENDBRANCH  31  40
BRANCH  32  43
HETATM   43  C31 UNL     1      39.885  -7.976  18.181  1.00  0.00     0.159 C 
HETATM   44  N5  UNL     1      39.919  -7.345  19.300  1.00  0.00    -0.249 N 
ATOM     45  H5  UNL     1      39.126  -7.439  19.933  1.00  0.00     0.196 HD
BRANCH  43  46
HETATM   46  O5  UNL     1      40.973  -7.837  17.333  1.00  0.00    -0.347 OA
ATOM     47  H5  UNL     1      41.596  -7.127  17.440  1.00  0.00     0.219 HD
ENDBRANCH  43  46
BRANCH  44  48
HETATM   48  O6  UNL     1      40.963  -6.556  19.682  1.00  0.00    -0.288 OA
ATOM     49  H6  UNL     1      41.331  -6.565  20.558  1.00  0.00     0.244 HD
ENDBRANCH  44  48
ENDBRANCH  32  43
ENDBRANCH  25  28
ENDBRANCH  22  25
ENDBRANCH  18  19
ENDBRANCH  17  18
ENDBRANCH  16  17
ENDBRANCH   3  11
TORSDOF 13
ENDMDL
MODEL 3
REMARK VINA RESULT: -8.596329641      1.253      1.442
REMARK  13 active torsions:
REMARK  status: ('A' for Active; 'I' for Inactive)
REMARK    1  A    between atoms: N2_3  and  C2_4 
REMARK    2  A    between atoms: N2_3  and  C9_11 
REMARK    3  A    between atoms: C2_4  and  C3_5 
REMARK    4  A    between atoms: C14_16  and  C15_17 
REMARK    5  A    between atoms: C15_17  and  O1_18 
REMARK    6  A    between atoms: O1_18  and  C16_19 
REMARK    7  A    between atoms: C19_22  and  S1_23 
REMARK    8  A    between atoms: S1_23  and  N3_26 
REMARK    9  A    between atoms: C20_29  and  C21_30 
REMARK   10  A    between atoms: C20_29  and  C27_37 
REMARK   11  A    between atoms: C30_40  and  C31_41 
REMARK   12  A    between atoms: C31_41  and  O5_42 
REMARK   13  A    between atoms: N5_44  and  O6_46 
ROOT
HETATM    1  N1  UNL     1      35.710   0.453  22.176  1.00  0.00    -0.172 NA
HETATM    2  C1  UNL     1      35.176   0.107  21.209  1.00  0.00     0.185 C 
HETATM    3  N2  UNL     1      34.504  -0.302  20.028  1.00  0.00    -0.280 N 
ENDROOT
BRANCH   3   4
HETATM    4  C2  UNL     1      34.652   0.502  18.842  1.00  0.00     0.179 C 
BRANCH   4   5
HETATM    5  C3  UNL     1      34.045   1.832  19.034  1.00  0.00    -0.039 A 
HETATM    6  C4  UNL     1      32.679   1.874  19.256  1.00  0.00     0.009 A 
HETATM    7  C5  UNL     1      32.056   3.061  19.441  1.00  0.00     0.001 A 
HETATM    8  C6  UNL     1      32.712   4.289  19.426  1.00  0.00     0.000 A 
HETATM    9  C7  UNL     1      34.078   4.231  19.203  1.00  0.00     0.001 A 
HETATM   10  C8  UNL     1      34.736   3.035  19.009  1.00  0.00     0.009 A 
ENDBRANCH   4   5
ENDBRANCH   3   4
BRANCH   3  11
HETATM   11  C9  UNL     1      33.662  -1.454  20.039  1.00  0.00     0.053 A 
HETATM   12  C10 UNL     1      32.316  -1.317  20.291  1.00  0.00     0.031 A 
HETATM   13  C11 UNL     1      31.485  -2.426  20.381  1.00  0.00     0.002 A 
HETATM   14  C12 UNL     1      32.076  -3.656  20.206  1.00  0.00     0.001 A 
HETATM   15  C13 UNL     1      33.418  -3.801  19.953  1.00  0.00     0.011 A 
HETATM   16  C14 UNL     1      34.230  -2.694  19.864  1.00  0.00    -0.007 A 
BRANCH  16  17
HETATM   17  C15 UNL     1      35.682  -2.879  19.486  1.00  0.00     0.216 C 
BRANCH  17  18
HETATM   18  O1  UNL     1      36.374  -3.217  20.626  1.00  0.00    -0.347 OA
BRANCH  18  19
HETATM   19  C16 UNL     1      37.157  -4.327  20.873  1.00  0.00     0.069 A 
HETATM   20  C17 UNL     1      38.021  -4.801  19.870  1.00  0.00     0.038 A 
HETATM   21  C18 UNL     1      38.827  -5.899  20.073  1.00  0.00     0.027 A 
HETATM   22  C19 UNL     1      38.825  -6.582  21.265  1.00  0.00     0.076 A 
HETATM   23  C32 UNL     1      37.980  -6.127  22.253  1.00  0.00     0.027 A 
HETATM   24  C33 UNL     1      37.163  -5.021  22.057  1.00  0.00     0.038 A 
BRANCH  22  25
HETATM   25  S1  UNL     1      39.875  -7.973  21.532  1.00  0.00     0.260 S 
HETATM   26  O2  UNL     1      39.255  -8.727  22.697  1.00  0.00    -0.204 OA
HETATM   27  O3  UNL     1      41.193  -7.478  22.008  1.00  0.00    -0.204 OA
BRANCH  25  28
HETATM   28  N3  UNL     1      39.924  -8.994  20.212  1.00  0.00    -0.078 NA
HETATM   29  N4  UNL     1      40.896  -8.825  19.262  1.00  0.00     0.012 NA
HETATM   30  O4  UNL     1      40.977  -9.977  18.557  1.00  0.00    -0.251 OA
HETATM   31  C20 UNL     1      40.014 -10.865  19.023  1.00  0.00     0.142 C 
HETATM   32  C30 UNL     1      39.987 -10.431  20.510  1.00  0.00     0.213 C 
BRANCH  31  33
HETATM   33  C21 UNL     1      40.495 -12.255  18.890  1.00  0.00    -0.019 A 
HETATM   34  C22 UNL     1      41.409 -12.525  17.897  1.00  0.00     0.013 A 
HETATM   35  C23 UNL     1      41.887 -13.806  17.730  1.00  0.00     0.043 A 
HETATM   36  C24 UNL     1      41.470 -14.838  18.542  1.00  0.00     0.116 A 
HETATM   37  F1  UNL     1      41.927 -16.104  18.395  1.00  0.00    -0.206 F 
HETATM   38  C25 UNL     1      40.560 -14.587  19.534  1.00  0.00     0.043 A 
HETATM   39  C26 UNL     1      40.090 -13.299  19.689  1.00  0.00     0.013 A 
ENDBRANCH  31  33
BRANCH  31  40
HETATM   40  C27 UNL     1      38.701 -10.628  18.360  1.00  0.00     0.029 A 
HETATM   41  C28 UNL     1      38.567 -10.262  16.933  1.00  0.00     0.009 A 
HETATM   42  C29 UNL     1      38.115 -11.628  17.413  1.00  0.00     0.009 A 
ENDBRANCH  31  40
BRANCH  32  43
HETATM   43  C31 UNL     1      41.307 -10.809  21.047  1.00  0.00     0.159 C 
HETATM   44  N5  UNL     1      41.411 -11.560  22.083  1.00  0.00    -0.249 N 
ATOM     45  H5  UNL     1      40.556 -11.893  22.529  1.00  0.00     0.196 HD
BRANCH  43  46
HETATM   46  O5  UNL     1      42.480 -10.368  20.453  1.00  0.00    -0.347 OA
ATOM     47  H5  UNL     1      43.299 -10.345  20.934  1.00  0.00     0.219 HD
ENDBRANCH  43  46
BRANCH  44  48
HETATM   48  O6  UNL     1      42.609 -11.936  22.617  1.00  0.00    -0.288 OA
ATOM     49  H6  UNL     1      42.709 -12.237  23.512  1.00  0.00     0.244 HD
ENDBRANCH  44  48
ENDBRANCH  32  43
ENDBRANCH  25  28
ENDBRANCH  22  25
ENDBRANCH  18  19
ENDBRANCH  17  18
ENDBRANCH  16  17
ENDBRANCH   3  11
TORSDOF 13
ENDMDL
MODEL 4
REMARK VINA RESULT: -8.590729959      2.717      3.512
REMARK  13 active torsions:
REMARK  status: ('A' for Active; 'I' for Inactive)
REMARK    1  A    between atoms: N2_3  and  C2_4 
REMARK    2  A    between atoms: N2_3  and  C9_11 
REMARK    3  A    between atoms: C2_4  and  C3_5 
REMARK    4  A    between atoms: C14_16  and  C15_17 
REMARK    5  A    between atoms: C15_17  and  O1_18 
REMARK    6  A    between atoms: O1_18  and  C16_19 
REMARK    7  A    between atoms: C19_22  and  S1_23 
REMARK    8  A    between atoms: S1_23  and  N3_26 
REMARK    9  A    between atoms: C20_29  and  C21_30 
REMARK   10  A    between atoms: C20_29  and  C27_37 
REMARK   11  A    between atoms: C30_40  and  C31_41 
REMARK   12  A    between atoms: C31_41  and  O5_42 
REMARK   13  A    between atoms: N5_44  and  O6_46 
ROOT
HETATM    1  N1  UNL     1      35.610   0.126  21.979  1.00  0.00    -0.172 NA
HETATM    2  C1  UNL     1      34.952  -0.082  21.050  1.00  0.00     0.185 C 
HETATM    3  N2  UNL     1      34.131  -0.316  19.918  1.00  0.00    -0.280 N 
ENDROOT
BRANCH   3   4
HETATM    4  C2  UNL     1      34.352   0.474  18.734  1.00  0.00     0.179 C 
BRANCH   4   5
HETATM    5  C3  UNL     1      33.976   1.880  18.966  1.00  0.00    -0.039 A 
HETATM    6  C4  UNL     1      32.646   2.135  19.259  1.00  0.00     0.009 A 
HETATM    7  C5  UNL     1      32.231   3.402  19.486  1.00  0.00     0.001 A 
HETATM    8  C6  UNL     1      33.072   4.511  19.446  1.00  0.00     0.000 A 
HETATM    9  C7  UNL     1      34.398   4.240  19.152  1.00  0.00     0.001 A 
HETATM   10  C8  UNL     1      34.847   2.958  18.916  1.00  0.00     0.009 A 
ENDBRANCH   4   5
ENDBRANCH   3   4
BRANCH   3  11
HETATM   11  C9  UNL     1      33.078  -1.278  19.977  1.00  0.00     0.053 A 
HETATM   12  C10 UNL     1      31.911  -0.978  20.642  1.00  0.00     0.031 A 
HETATM   13  C11 UNL     1      30.900  -1.920  20.779  1.00  0.00     0.002 A 
HETATM   14  C12 UNL     1      31.126  -3.155  20.218  1.00  0.00     0.001 A 
HETATM   15  C13 UNL     1      32.286  -3.462  19.551  1.00  0.00     0.011 A 
HETATM   16  C14 UNL     1      33.280  -2.520  19.421  1.00  0.00    -0.007 A 
BRANCH  16  17
HETATM   17  C15 UNL     1      34.502  -2.854  18.597  1.00  0.00     0.216 C 
BRANCH  17  18
HETATM   18  O1  UNL     1      34.110  -3.699  17.584  1.00  0.00    -0.347 OA
BRANCH  18  19
HETATM   19  C16 UNL     1      34.631  -4.925  17.220  1.00  0.00     0.069 A 
HETATM   20  C17 UNL     1      35.757  -4.976  16.379  1.00  0.00     0.038 A 
HETATM   21  C18 UNL     1      36.316  -6.174  15.996  1.00  0.00     0.027 A 
HETATM   22  C19 UNL     1      35.800  -7.376  16.419  1.00  0.00     0.076 A 
HETATM   23  C32 UNL     1      34.697  -7.336  17.241  1.00  0.00     0.027 A 
HETATM   24  C33 UNL     1      34.125  -6.132  17.631  1.00  0.00     0.038 A 
BRANCH  22  25
HETATM   25  S1  UNL     1      36.533  -8.908  15.947  1.00  0.00     0.260 S 
HETATM   26  O2  UNL     1      37.638  -8.542  14.970  1.00  0.00    -0.204 OA
HETATM   27  O3  UNL     1      35.530  -9.685  15.171  1.00  0.00    -0.204 OA
BRANCH  25  28
HETATM   28  N3  UNL     1      37.219  -9.709  17.240  1.00  0.00    -0.078 NA
HETATM   29  N4  UNL     1      37.889 -10.886  17.029  1.00  0.00     0.012 NA
HETATM   30  O4  UNL     1      38.674 -11.104  18.109  1.00  0.00    -0.251 OA
HETATM   31  C20 UNL     1      38.463 -10.090  19.037  1.00  0.00     0.142 C 
HETATM   32  C30 UNL     1      38.156  -8.930  18.059  1.00  0.00     0.213 C 
BRANCH  31  33
HETATM   33  C21 UNL     1      39.704  -9.826  19.794  1.00  0.00    -0.019 A 
HETATM   34  C22 UNL     1      39.732  -8.721  20.614  1.00  0.00     0.013 A 
HETATM   35  C23 UNL     1      40.866  -8.430  21.340  1.00  0.00     0.043 A 
HETATM   36  C24 UNL     1      41.989  -9.227  21.266  1.00  0.00     0.116 A 
HETATM   37  F1  UNL     1      43.113  -8.958  21.970  1.00  0.00    -0.206 F 
HETATM   38  C25 UNL     1      41.978 -10.328  20.453  1.00  0.00     0.043 A 
HETATM   39  C26 UNL     1      40.835 -10.607  19.732  1.00  0.00     0.013 A 
ENDBRANCH  31  33
BRANCH  31  40
HETATM   40  C27 UNL     1      37.293 -10.397  19.908  1.00  0.00     0.029 A 
HETATM   41  C28 UNL     1      36.858 -11.773  20.228  1.00  0.00     0.009 A 
HETATM   42  C29 UNL     1      37.474 -10.902  21.305  1.00  0.00     0.009 A 
ENDBRANCH  31  40
BRANCH  32  43
HETATM   43  C31 UNL     1      39.420  -8.685  17.341  1.00  0.00     0.159 C 
HETATM   44  N5  UNL     1      40.037  -7.563  17.447  1.00  0.00    -0.249 N 
ATOM     45  H5  UNL     1      39.633  -6.842  18.044  1.00  0.00     0.196 HD
BRANCH  43  46
HETATM   46  O5  UNL     1      39.986  -9.654  16.527  1.00  0.00    -0.347 OA
ATOM     47  H5  UNL     1      39.467 -10.370  16.177  1.00  0.00     0.219 HD
ENDBRANCH  43  46
BRANCH  44  48
HETATM   48  O6  UNL     1      41.207  -7.290  16.802  1.00  0.00    -0.288 OA
ATOM     49  H6  UNL     1      42.018  -7.089  17.255  1.00  0.00     0.244 HD
ENDBRANCH  44  48
ENDBRANCH  32  43
ENDBRANCH  25  28
ENDBRANCH  22  25
ENDBRANCH  18  19
ENDBRANCH  17  18
ENDBRANCH  16  17
ENDBRANCH   3  11
TORSDOF 13
ENDMDL
MODEL 5
REMARK VINA RESULT: -8.578126030      7.079     11.586
REMARK  13 active torsions:
REMARK  status: ('A' for Active; 'I' for Inactive)
REMARK    1  A    between atoms: N2_3  and  C2_4 
REMARK    2  A    between atoms: N2_3  and  C9_11 
REMARK    3  A    between atoms: C2_4  and  C3_5 
REMARK    4  A    between atoms: C14_16  and  C15_17 
REMARK    5  A    between atoms: C15_17  and  O1_18 
REMARK    6  A    between atoms: O1_18  and  C16_19 
REMARK    7  A    between atoms: C19_22  and  S1_23 
REMARK    8  A    between atoms: S1_23  and  N3_26 
REMARK    9  A    between atoms: C20_29  and  C21_30 
REMARK   10  A    between atoms: C20_29  and  C27_37 
REMARK   11  A    between atoms: C30_40  and  C31_41 
REMARK   12  A    between atoms: C31_41  and  O5_42 
REMARK   13  A    between atoms: N5_44  and  O6_46 
ROOT
HETATM    1  N1  UNL     1      28.153 -11.072   9.740  1.00  0.00    -0.172 NA
HETATM    2  C1  UNL     1      28.888 -11.317  10.599  1.00  0.00     0.185 C 
HETATM    3  N2  UNL     1      29.806 -11.600  11.644  1.00  0.00    -0.280 N 
ENDROOT
BRANCH   3   4
HETATM    4  C2  UNL     1      29.832 -10.727  12.789  1.00  0.00     0.179 C 
BRANCH   4   5
HETATM    5  C3  UNL     1      29.185 -11.367  13.948  1.00  0.00    -0.039 A 
HETATM    6  C4  UNL     1      29.781 -11.179  15.185  1.00  0.00     0.009 A 
HETATM    7  C5  UNL     1      29.239 -11.737  16.292  1.00  0.00     0.001 A 
HETATM    8  C6  UNL     1      28.083 -12.512  16.281  1.00  0.00     0.000 A 
HETATM    9  C7  UNL     1      27.498 -12.691  15.039  1.00  0.00     0.001 A 
HETATM   10  C8  UNL     1      28.031 -12.135  13.895  1.00  0.00     0.009 A 
ENDBRANCH   4   5
ENDBRANCH   3   4
BRANCH   3  11
HETATM   11  C9  UNL     1      30.713 -12.695  11.530  1.00  0.00     0.053 A 
HETATM   12  C10 UNL     1      30.252 -13.985  11.663  1.00  0.00     0.031 A 
HETATM   13  C11 UNL     1      31.122 -15.067  11.630  1.00  0.00     0.002 A 
HETATM   14  C12 UNL     1      32.457 -14.780  11.458  1.00  0.00     0.001 A 
HETATM   15  C13 UNL     1      32.926 -13.497  11.323  1.00  0.00     0.011 A 
HETATM   16  C14 UNL     1      32.053 -12.434  11.355  1.00  0.00    -0.007 A 
BRANCH  16  17
HETATM   17  C15 UNL     1      32.584 -11.041  11.104  1.00  0.00     0.216 C 
BRANCH  17  18
HETATM   18  O1  UNL     1      33.948 -11.134  10.944  1.00  0.00    -0.347 OA
BRANCH  18  19
HETATM   19  C16 UNL     1      34.956 -10.678  11.770  1.00  0.00     0.069 A 
HETATM   20  C17 UNL     1      35.903  -9.767  11.269  1.00  0.00     0.038 A 
HETATM   21  C18 UNL     1      36.920  -9.279  12.057  1.00  0.00     0.027 A 
HETATM   22  C19 UNL     1      37.058  -9.659  13.371  1.00  0.00     0.076 A 
HETATM   23  C32 UNL     1      36.136 -10.552  13.870  1.00  0.00     0.027 A 
HETATM   24  C33 UNL     1      35.107 -11.050  13.082  1.00  0.00     0.038 A 
BRANCH  22  25
HETATM   25  S1  UNL     1      38.347  -9.014  14.385  1.00  0.00     0.260 S 
HETATM   26  O2  UNL     1      39.105  -8.037  13.501  1.00  0.00    -0.204 OA
HETATM   27  O3  UNL     1      39.293 -10.118  14.695  1.00  0.00    -0.204 OA
BRANCH  25  28
HETATM   28  N3  UNL     1      37.759  -8.178  15.706  1.00  0.00    -0.078 NA
HETATM   29  N4  UNL     1      38.636  -7.582  16.573  1.00  0.00     0.012 NA
HETATM   30  O4  UNL     1      37.941  -6.661  17.280  1.00  0.00    -0.251 OA
HETATM   31  C20 UNL     1      36.605  -6.708  16.900  1.00  0.00     0.142 C 
HETATM   32  C30 UNL     1      36.791  -7.113  15.417  1.00  0.00     0.213 C 
BRANCH  31  33
HETATM   33  C21 UNL     1      35.996  -5.366  17.006  1.00  0.00    -0.019 A 
HETATM   34  C22 UNL     1      36.600  -4.454  17.841  1.00  0.00     0.013 A 
HETATM   35  C23 UNL     1      36.071  -3.189  17.977  1.00  0.00     0.043 A 
HETATM   36  C24 UNL     1      34.938  -2.808  17.289  1.00  0.00     0.116 A 
HETATM   37  F1  UNL     1      34.401  -1.571  17.409  1.00  0.00    -0.206 F 
HETATM   38  C25 UNL     1      34.325  -3.706  16.456  1.00  0.00     0.043 A 
HETATM   39  C26 UNL     1      34.866  -4.968  16.331  1.00  0.00     0.013 A 
ENDBRANCH  31  33
BRANCH  31  40
HETATM   40  C27 UNL     1      35.867  -7.754  17.664  1.00  0.00     0.029 A 
HETATM   41  C28 UNL     1      36.169  -8.096  19.070  1.00  0.00     0.009 A 
HETATM   42  C29 UNL     1      34.874  -7.390  18.722  1.00  0.00     0.009 A 
ENDBRANCH  31  40
BRANCH  32  43
HETATM   43  C31 UNL     1      37.443  -5.955  14.779  1.00  0.00     0.159 C 
HETATM   44  N5  UNL     1      36.967  -5.432  13.707  1.00  0.00    -0.249 N 
ATOM     45  H5  UNL     1      36.123  -5.837  13.304  1.00  0.00     0.196 HD
BRANCH  43  46
HETATM   46  O5  UNL     1      38.592  -5.390  15.314  1.00  0.00    -0.347 OA
ATOM     47  H5  UNL     1      38.779  -4.464  15.215  1.00  0.00     0.219 HD
ENDBRANCH  43  46
BRANCH  44  48
HETATM   48  O6  UNL     1      37.536  -4.362  13.081  1.00  0.00    -0.288 OA
ATOM     49  H6  UNL     1      37.049  -3.763  12.527  1.00  0.00     0.244 HD
ENDBRANCH  44  48
ENDBRANCH  32  43
ENDBRANCH  25  28
ENDBRANCH  22  25
ENDBRANCH  18  19
ENDBRANCH  17  18
ENDBRANCH  16  17
ENDBRANCH   3  11
TORSDOF 13
ENDMDL
