MODEL 1
REMARK VINA RESULT: -7.642804012      0.000      0.000
REMARK  8 active torsions:
REMARK  status: ('A' for Active; 'I' for Inactive)
REMARK    1  A    between atoms: C1_2  and  C2_3 
REMARK       I    between atoms: C1_2  and  N1_22 
REMARK    2  A    between atoms: C2_3  and  O2_4 
REMARK    3  A    between atoms: O2_4  and  C3_5 
REMARK    4  A    between atoms: C3_5  and  C4_7 
REMARK    5  A    between atoms: C4_7  and  S1_8 
REMARK    6  A    between atoms: S1_8  and  C5_10 
REMARK    7  A    between atoms: N1_22  and  C15_24 
REMARK    8  A    between atoms: N3_29  and  C18_30 
ROOT
HETATM    1  O2  UNL     1      21.502  -2.899  11.827  1.00  0.00    -0.311 OA
ENDROOT
BRANCH   1   2
HETATM    2  C2  UNL     1      20.488  -2.086  12.328  1.00  0.00     0.281 C 
BRANCH   2   3
HETATM    3  C1  UNL     1      19.414  -1.719  11.379  1.00  0.00     0.247 C 
HETATM    4  O1  UNL     1      18.243  -1.709  11.931  1.00  0.00    -0.271 OA
HETATM    5  N1  UNL     1      19.470  -1.404  10.055  1.00  0.00    -0.310 N 
ATOM      6  H1  UNL     1      19.803  -2.206   9.518  1.00  0.00     0.170 HD
BRANCH   5   7
HETATM    7  C15 UNL     1      19.246  -0.457   9.302  1.00  0.00     0.128 A 
HETATM    8  C16 UNL     1      18.158   0.413   9.462  1.00  0.00     0.069 A 
HETATM    9  C17 UNL     1      18.193   1.334   8.468  1.00  0.00     0.111 A 
HETATM   10  N2  UNL     1      19.252   1.054   7.722  1.00  0.00    -0.306 N 
HETATM   11  N3  UNL     1      19.890  -0.024   8.219  1.00  0.00    -0.247 N 
ATOM     12  H2  UNL     1      19.542   1.576   6.895  1.00  0.00     0.186 HD
BRANCH  11  13
HETATM   13  C18 UNL     1      21.074  -0.545   7.588  1.00  0.00     0.245 C 
HETATM   14  C19 UNL     1      21.869   0.650   7.050  1.00  0.00     0.056 C 
HETATM   15  C20 UNL     1      22.904   0.049   6.103  1.00  0.00     0.006 C 
HETATM   16  C21 UNL     1      23.589  -1.063   6.880  1.00  0.00     0.026 C 
HETATM   17  C22 UNL     1      23.208  -0.996   8.335  1.00  0.00     0.170 C 
HETATM   18  O7  UNL     1      21.865  -1.189   8.550  1.00  0.00    -0.365 OA
ENDBRANCH  11  13
ENDBRANCH   5   7
ENDBRANCH   2   3
ENDBRANCH   1   2
BRANCH   1  19
HETATM   19  C3  UNL     1      22.798  -2.839  12.213  1.00  0.00     0.270 C 
HETATM   20  O3  UNL     1      23.668  -3.612  11.744  1.00  0.00    -0.264 OA
BRANCH  19  21
HETATM   21  C4  UNL     1      23.324  -1.863  13.221  1.00  0.00     0.220 C 
BRANCH  21  22
HETATM   22  S1  UNL     1      23.395  -2.577  14.830  1.00  0.00     0.038 S 
HETATM   23  O4  UNL     1      22.317  -3.859  14.968  1.00  0.00    -0.257 OA
BRANCH  22  24
HETATM   24  C5  UNL     1      22.935  -1.376  16.056  1.00  0.00     0.179 C 
HETATM   25  C6  UNL     1      24.039  -0.379  16.283  1.00  0.00     0.028 C 
HETATM   26  C7  UNL     1      23.985   0.876  15.533  1.00  0.00     0.002 C 
HETATM   27  C8  UNL     1      22.706   1.393  15.028  1.00  0.00     0.000 C 
HETATM   28  C9  UNL     1      21.651   1.810  15.958  1.00  0.00     0.000 C 
HETATM   29  C10 UNL     1      21.988   1.993  17.386  1.00  0.00     0.000 C 
HETATM   30  C11 UNL     1      21.338   1.093  18.373  1.00  0.00     0.002 C 
HETATM   31  C12 UNL     1      20.056   0.453  17.983  1.00  0.00     0.027 C 
HETATM   32  C13 UNL     1      20.223  -1.010  17.556  1.00  0.00     0.178 C 
HETATM   33  O5  UNL     1      21.412  -1.567  18.020  1.00  0.00    -0.321 OA
HETATM   34  C14 UNL     1      22.501  -1.998  17.325  1.00  0.00     0.275 C 
HETATM   35  O6  UNL     1      23.178  -2.958  17.759  1.00  0.00    -0.264 OA
ENDBRANCH  22  24
ENDBRANCH  21  22
ENDBRANCH  19  21
ENDBRANCH   1  19
TORSDOF 8
ENDMDL
MODEL 2
REMARK VINA RESULT: -7.515272221      5.326      9.285
REMARK  8 active torsions:
REMARK  status: ('A' for Active; 'I' for Inactive)
REMARK    1  A    between atoms: C1_2  and  C2_3 
REMARK       I    between atoms: C1_2  and  N1_22 
REMARK    2  A    between atoms: C2_3  and  O2_4 
REMARK    3  A    between atoms: O2_4  and  C3_5 
REMARK    4  A    between atoms: C3_5  and  C4_7 
REMARK    5  A    between atoms: C4_7  and  S1_8 
REMARK    6  A    between atoms: S1_8  and  C5_10 
REMARK    7  A    between atoms: N1_22  and  C15_24 
REMARK    8  A    between atoms: N3_29  and  C18_30 
ROOT
HETATM    1  O2  UNL     1      21.421  -1.506   4.135  1.00  0.00    -0.311 OA
ENDROOT
BRANCH   1   2
HETATM    2  C2  UNL     1      22.161  -1.514   5.315  1.00  0.00     0.281 C 
BRANCH   2   3
HETATM    3  C1  UNL     1      21.397  -1.325   6.568  1.00  0.00     0.247 C 
HETATM    4  O1  UNL     1      20.138  -1.593   6.429  1.00  0.00    -0.271 OA
HETATM    5  N1  UNL     1      21.805  -0.922   7.804  1.00  0.00    -0.310 N 
ATOM      6  H1  UNL     1      22.158   0.034   7.761  1.00  0.00     0.170 HD
BRANCH   5   7
HETATM    7  C15 UNL     1      21.882  -1.350   8.955  1.00  0.00     0.128 A 
HETATM    8  C16 UNL     1      23.095  -1.679   9.575  1.00  0.00     0.069 A 
HETATM    9  C17 UNL     1      22.832  -2.125  10.828  1.00  0.00     0.111 A 
HETATM   10  N2  UNL     1      21.517  -2.077  10.984  1.00  0.00    -0.306 N 
HETATM   11  N3  UNL     1      20.939  -1.612   9.860  1.00  0.00    -0.247 N 
ATOM     12  H2  UNL     1      21.016  -2.352  11.829  1.00  0.00     0.186 HD
BRANCH  11  13
HETATM   13  C18 UNL     1      19.510  -1.468   9.762  1.00  0.00     0.245 C 
HETATM   14  C19 UNL     1      18.943  -1.554  11.183  1.00  0.00     0.056 C 
HETATM   15  C20 UNL     1      17.440  -1.752  11.004  1.00  0.00     0.006 C 
HETATM   16  C21 UNL     1      16.985  -0.666  10.043  1.00  0.00     0.026 C 
HETATM   17  C22 UNL     1      18.085   0.342   9.835  1.00  0.00     0.170 C 
HETATM   18  O7  UNL     1      19.207  -0.196   9.255  1.00  0.00    -0.365 OA
ENDBRANCH  11  13
ENDBRANCH   5   7
ENDBRANCH   2   3
ENDBRANCH   1   2
BRANCH   1  19
HETATM   19  C3  UNL     1      21.706  -0.743   3.053  1.00  0.00     0.270 C 
HETATM   20  O3  UNL     1      20.807  -0.285   2.307  1.00  0.00    -0.264 OA
BRANCH  19  21
HETATM   21  C4  UNL     1      23.096  -0.372   2.637  1.00  0.00     0.220 C 
BRANCH  21  22
HETATM   22  S1  UNL     1      23.556   1.207   3.271  1.00  0.00     0.038 S 
HETATM   23  O4  UNL     1      24.251   2.158   2.072  1.00  0.00    -0.257 OA
BRANCH  22  24
HETATM   24  C5  UNL     1      24.766   1.023   4.558  1.00  0.00     0.179 C 
HETATM   25  C6  UNL     1      25.313   2.358   4.987  1.00  0.00     0.028 C 
HETATM   26  C7  UNL     1      24.690   3.006   6.142  1.00  0.00     0.002 C 
HETATM   27  C8  UNL     1      23.980   2.212   7.154  1.00  0.00     0.000 C 
HETATM   28  C9  UNL     1      24.705   1.246   7.986  1.00  0.00     0.000 C 
HETATM   29  C10 UNL     1      26.183   1.291   8.013  1.00  0.00     0.000 C 
HETATM   30  C11 UNL     1      26.922   0.117   7.482  1.00  0.00     0.002 C 
HETATM   31  C12 UNL     1      26.215  -1.188   7.451  1.00  0.00     0.027 C 
HETATM   32  C13 UNL     1      25.695  -1.553   6.055  1.00  0.00     0.178 C 
HETATM   33  O5  UNL     1      26.343  -0.847   5.044  1.00  0.00    -0.321 OA
HETATM   34  C14 UNL     1      25.853   0.091   4.186  1.00  0.00     0.275 C 
HETATM   35  O6  UNL     1      26.326   0.186   3.031  1.00  0.00    -0.264 OA
ENDBRANCH  22  24
ENDBRANCH  21  22
ENDBRANCH  19  21
ENDBRANCH   1  19
TORSDOF 8
ENDMDL
MODEL 3
REMARK VINA RESULT: -7.438763704      4.628     10.528
REMARK  8 active torsions:
REMARK  status: ('A' for Active; 'I' for Inactive)
REMARK    1  A    between atoms: C1_2  and  C2_3 
REMARK       I    between atoms: C1_2  and  N1_22 
REMARK    2  A    between atoms: C2_3  and  O2_4 
REMARK    3  A    between atoms: O2_4  and  C3_5 
REMARK    4  A    between atoms: C3_5  and  C4_7 
REMARK    5  A    between atoms: C4_7  and  S1_8 
REMARK    6  A    between atoms: S1_8  and  C5_10 
REMARK    7  A    between atoms: N1_22  and  C15_24 
REMARK    8  A    between atoms: N3_29  and  C18_30 
ROOT
HETATM    1  O2  UNL     1      21.812  -0.176   6.850  1.00  0.00    -0.311 OA
ENDROOT
BRANCH   1   2
HETATM    2  C2  UNL     1      23.024  -0.411   7.495  1.00  0.00     0.281 C 
BRANCH   2   3
HETATM    3  C1  UNL     1      22.997  -1.396   8.600  1.00  0.00     0.247 C 
HETATM    4  O1  UNL     1      24.181  -1.772   8.961  1.00  0.00    -0.271 OA
HETATM    5  N1  UNL     1      21.947  -1.950   9.268  1.00  0.00    -0.310 N 
ATOM      6  H1  UNL     1      21.379  -2.507   8.629  1.00  0.00     0.170 HD
BRANCH   5   7
HETATM    7  C15 UNL     1      21.468  -1.990  10.401  1.00  0.00     0.128 A 
HETATM    8  C16 UNL     1      22.219  -2.296  11.545  1.00  0.00     0.069 A 
HETATM    9  C17 UNL     1      21.395  -2.265  12.621  1.00  0.00     0.111 A 
HETATM   10  N2  UNL     1      20.188  -1.954  12.173  1.00  0.00    -0.306 N 
HETATM   11  N3  UNL     1      20.225  -1.787  10.836  1.00  0.00    -0.247 N 
ATOM     12  H2  UNL     1      19.355  -1.855  12.752  1.00  0.00     0.186 HD
BRANCH  11  13
HETATM   13  C18 UNL     1      19.037  -1.450  10.095  1.00  0.00     0.245 C 
HETATM   14  C19 UNL     1      17.885  -1.349  11.100  1.00  0.00     0.056 C 
HETATM   15  C20 UNL     1      16.615  -1.344  10.253  1.00  0.00     0.006 C 
HETATM   16  C21 UNL     1      16.823  -0.280   9.189  1.00  0.00     0.026 C 
HETATM   17  C22 UNL     1      18.044   0.545   9.506  1.00  0.00     0.170 C 
HETATM   18  O7  UNL     1      19.204  -0.189   9.504  1.00  0.00    -0.365 OA
ENDBRANCH  11  13
ENDBRANCH   5   7
ENDBRANCH   2   3
ENDBRANCH   1   2
BRANCH   1  19
HETATM   19  C3  UNL     1      21.074  -1.126   6.229  1.00  0.00     0.270 C 
HETATM   20  O3  UNL     1      20.004  -1.562   6.719  1.00  0.00    -0.264 OA
BRANCH  19  21
HETATM   21  C4  UNL     1      21.446  -1.748   4.918  1.00  0.00     0.220 C 
BRANCH  21  22
HETATM   22  S1  UNL     1      22.146  -0.561   3.820  1.00  0.00     0.038 S 
HETATM   23  O4  UNL     1      21.352  -0.570   2.339  1.00  0.00    -0.257 OA
BRANCH  22  24
HETATM   24  C5  UNL     1      23.850  -0.950   3.500  1.00  0.00     0.179 C 
HETATM   25  C6  UNL     1      24.315  -2.101   4.350  1.00  0.00     0.028 C 
HETATM   26  C7  UNL     1      24.260  -3.441   3.765  1.00  0.00     0.002 C 
HETATM   27  C8  UNL     1      24.290  -3.625   2.308  1.00  0.00     0.000 C 
HETATM   28  C9  UNL     1      25.478  -3.250   1.534  1.00  0.00     0.000 C 
HETATM   29  C10 UNL     1      26.742  -2.973   2.252  1.00  0.00     0.000 C 
HETATM   30  C11 UNL     1      27.293  -1.596   2.180  1.00  0.00     0.002 C 
HETATM   31  C12 UNL     1      26.885  -0.749   1.030  1.00  0.00     0.027 C 
HETATM   32  C13 UNL     1      25.803   0.274   1.396  1.00  0.00     0.178 C 
HETATM   33  O5  UNL     1      25.734   0.509   2.767  1.00  0.00    -0.321 OA
HETATM   34  C14 UNL     1      24.737   0.224   3.651  1.00  0.00     0.275 C 
HETATM   35  O6  UNL     1      24.546   0.970   4.637  1.00  0.00    -0.264 OA
ENDBRANCH  22  24
ENDBRANCH  21  22
ENDBRANCH  19  21
ENDBRANCH   1  19
TORSDOF 8
ENDMDL
MODEL 4
REMARK VINA RESULT: -7.431907820      2.616      5.299
REMARK  8 active torsions:
REMARK  status: ('A' for Active; 'I' for Inactive)
REMARK    1  A    between atoms: C1_2  and  C2_3 
REMARK       I    between atoms: C1_2  and  N1_22 
REMARK    2  A    between atoms: C2_3  and  O2_4 
REMARK    3  A    between atoms: O2_4  and  C3_5 
REMARK    4  A    between atoms: C3_5  and  C4_7 
REMARK    5  A    between atoms: C4_7  and  S1_8 
REMARK    6  A    between atoms: S1_8  and  C5_10 
REMARK    7  A    between atoms: N1_22  and  C15_24 
REMARK    8  A    between atoms: N3_29  and  C18_30 
ROOT
HETATM    1  O2  UNL     1      20.867  -1.603  13.199  1.00  0.00    -0.311 OA
ENDROOT
BRANCH   1   2
HETATM    2  C2  UNL     1      20.499  -2.344  12.078  1.00  0.00     0.281 C 
BRANCH   2   3
HETATM    3  C1  UNL     1      19.363  -1.817  11.289  1.00  0.00     0.247 C 
HETATM    4  O1  UNL     1      18.276  -1.717  11.986  1.00  0.00    -0.271 OA
HETATM    5  N1  UNL     1      19.290  -1.437   9.983  1.00  0.00    -0.310 N 
ATOM      6  H1  UNL     1      19.466  -2.237   9.375  1.00  0.00     0.170 HD
BRANCH   5   7
HETATM    7  C15 UNL     1      19.080  -0.431   9.306  1.00  0.00     0.128 A 
HETATM    8  C16 UNL     1      18.001   0.436   9.529  1.00  0.00     0.069 A 
HETATM    9  C17 UNL     1      18.051   1.431   8.610  1.00  0.00     0.111 A 
HETATM   10  N2  UNL     1      19.110   1.198   7.849  1.00  0.00    -0.306 N 
HETATM   11  N3  UNL     1      19.733   0.077   8.262  1.00  0.00    -0.247 N 
ATOM     12  H2  UNL     1      19.409   1.779   7.066  1.00  0.00     0.186 HD
BRANCH  11  13
HETATM   13  C18 UNL     1      20.915  -0.406   7.596  1.00  0.00     0.245 C 
HETATM   14  C19 UNL     1      20.455  -1.200   6.368  1.00  0.00     0.056 C 
HETATM   15  C20 UNL     1      21.687  -1.973   5.907  1.00  0.00     0.006 C 
HETATM   16  C21 UNL     1      22.810  -0.954   5.807  1.00  0.00     0.026 C 
HETATM   17  C22 UNL     1      22.261   0.443   5.929  1.00  0.00     0.170 C 
HETATM   18  O7  UNL     1      21.670   0.685   7.144  1.00  0.00    -0.365 OA
ENDBRANCH  11  13
ENDBRANCH   5   7
ENDBRANCH   2   3
ENDBRANCH   1   2
BRANCH   1  19
HETATM   19  C3  UNL     1      21.789  -1.993  14.110  1.00  0.00     0.270 C 
HETATM   20  O3  UNL     1      21.719  -1.651  15.315  1.00  0.00    -0.264 OA
BRANCH  19  21
HETATM   21  C4  UNL     1      22.968  -2.859  13.786  1.00  0.00     0.220 C 
BRANCH  21  22
HETATM   22  S1  UNL     1      24.436  -1.902  13.604  1.00  0.00     0.038 S 
HETATM   23  O4  UNL     1      24.101  -0.259  13.707  1.00  0.00    -0.257 OA
BRANCH  22  24
HETATM   24  C5  UNL     1      25.161  -2.187  12.007  1.00  0.00     0.179 C 
HETATM   25  C6  UNL     1      24.341  -3.158  11.202  1.00  0.00     0.028 C 
HETATM   26  C7  UNL     1      23.356  -2.605  10.272  1.00  0.00     0.002 C 
HETATM   27  C8  UNL     1      23.513  -1.248   9.732  1.00  0.00     0.000 C 
HETATM   28  C9  UNL     1      24.643  -0.921   8.855  1.00  0.00     0.000 C 
HETATM   29  C10 UNL     1      25.442  -2.023   8.277  1.00  0.00     0.000 C 
HETATM   30  C11 UNL     1      26.869  -2.128   8.676  1.00  0.00     0.002 C 
HETATM   31  C12 UNL     1      27.539  -0.899   9.172  1.00  0.00     0.027 C 
HETATM   32  C13 UNL     1      27.666  -0.862  10.700  1.00  0.00     0.178 C 
HETATM   33  O5  UNL     1      27.543  -2.125  11.274  1.00  0.00    -0.321 OA
HETATM   34  C14 UNL     1      26.573  -2.618  12.094  1.00  0.00     0.275 C 
HETATM   35  O6  UNL     1      26.865  -3.471  12.962  1.00  0.00    -0.264 OA
ENDBRANCH  22  24
ENDBRANCH  21  22
ENDBRANCH  19  21
ENDBRANCH   1  19
TORSDOF 8
ENDMDL
MODEL 5
REMARK VINA RESULT: -7.383580154      4.564     10.132
REMARK  8 active torsions:
REMARK  status: ('A' for Active; 'I' for Inactive)
REMARK    1  A    between atoms: C1_2  and  C2_3 
REMARK       I    between atoms: C1_2  and  N1_22 
REMARK    2  A    between atoms: C2_3  and  O2_4 
REMARK    3  A    between atoms: O2_4  and  C3_5 
REMARK    4  A    between atoms: C3_5  and  C4_7 
REMARK    5  A    between atoms: C4_7  and  S1_8 
REMARK    6  A    between atoms: S1_8  and  C5_10 
REMARK    7  A    between atoms: N1_22  and  C15_24 
REMARK    8  A    between atoms: N3_29  and  C18_30 
ROOT
HETATM    1  O2  UNL     1      21.812  -0.716   7.014  1.00  0.00    -0.311 OA
ENDROOT
BRANCH   1   2
HETATM    2  C2  UNL     1      23.070  -1.002   7.541  1.00  0.00     0.281 C 
BRANCH   2   3
HETATM    3  C1  UNL     1      23.095  -1.545   8.918  1.00  0.00     0.247 C 
HETATM    4  O1  UNL     1      24.228  -1.346   9.511  1.00  0.00    -0.271 OA
HETATM    5  N1  UNL     1      22.138  -2.203   9.628  1.00  0.00    -0.310 N 
ATOM      6  H1  UNL     1      21.916  -3.092   9.178  1.00  0.00     0.170 HD
BRANCH   5   7
HETATM    7  C15 UNL     1      21.455  -2.063  10.643  1.00  0.00     0.128 A 
HETATM    8  C16 UNL     1      21.932  -2.328  11.935  1.00  0.00     0.069 A 
HETATM    9  C17 UNL     1      20.935  -2.084  12.820  1.00  0.00     0.111 A 
HETATM   10  N2  UNL     1      19.885  -1.686  12.116  1.00  0.00    -0.306 N 
HETATM   11  N3  UNL     1      20.192  -1.671  10.805  1.00  0.00    -0.247 N 
ATOM     12  H2  UNL     1      18.980  -1.428  12.509  1.00  0.00     0.186 HD
BRANCH  11  13
HETATM   13  C18 UNL     1      19.220  -1.281   9.817  1.00  0.00     0.245 C 
HETATM   14  C19 UNL     1      18.017  -0.696  10.565  1.00  0.00     0.056 C 
HETATM   15  C20 UNL     1      16.896  -0.629   9.531  1.00  0.00     0.006 C 
HETATM   16  C21 UNL     1      17.484   0.075   8.319  1.00  0.00     0.026 C 
HETATM   17  C22 UNL     1      18.823   0.673   8.661  1.00  0.00     0.170 C 
HETATM   18  O7  UNL     1      19.760  -0.268   9.012  1.00  0.00    -0.365 OA
ENDBRANCH  11  13
ENDBRANCH   5   7
ENDBRANCH   2   3
ENDBRANCH   1   2
BRANCH   1  19
HETATM   19  C3  UNL     1      21.242  -1.380   5.982  1.00  0.00     0.270 C 
HETATM   20  O3  UNL     1      20.070  -1.825   6.044  1.00  0.00    -0.264 OA
BRANCH  19  21
HETATM   21  C4  UNL     1      21.933  -1.651   4.681  1.00  0.00     0.220 C 
BRANCH  21  22
HETATM   22  S1  UNL     1      22.011  -0.203   3.681  1.00  0.00     0.038 S 
HETATM   23  O4  UNL     1      21.646  -0.556   2.079  1.00  0.00    -0.257 OA
BRANCH  22  24
HETATM   24  C5  UNL     1      23.654   0.472   3.705  1.00  0.00     0.179 C 
HETATM   25  C6  UNL     1      24.640  -0.515   4.270  1.00  0.00     0.028 C 
HETATM   26  C7  UNL     1      25.373  -1.358   3.326  1.00  0.00     0.002 C 
HETATM   27  C8  UNL     1      25.575  -0.927   1.936  1.00  0.00     0.000 C 
HETATM   28  C9  UNL     1      26.387   0.256   1.633  1.00  0.00     0.000 C 
HETATM   29  C10 UNL     1      27.242   0.828   2.696  1.00  0.00     0.000 C 
HETATM   30  C11 UNL     1      26.932   2.201   3.172  1.00  0.00     0.002 C 
HETATM   31  C12 UNL     1      26.179   3.095   2.256  1.00  0.00     0.027 C 
HETATM   32  C13 UNL     1      24.693   3.207   2.618  1.00  0.00     0.178 C 
HETATM   33  O5  UNL     1      24.436   2.828   3.933  1.00  0.00    -0.321 OA
HETATM   34  C14 UNL     1      23.725   1.769   4.412  1.00  0.00     0.275 C 
HETATM   35  O6  UNL     1      23.099   1.874   5.490  1.00  0.00    -0.264 OA
ENDBRANCH  22  24
ENDBRANCH  21  22
ENDBRANCH  19  21
ENDBRANCH   1  19
TORSDOF 8
ENDMDL
