MODEL 1
REMARK VINA RESULT: -1.345343180      0.000      0.000
REMARK  3 active torsions:
REMARK  status: ('A' for Active; 'I' for Inactive)
REMARK    1  A    between atoms: C4_7  and  C5_8 
REMARK    2  A    between atoms: C6_9  and  C7_10 
REMARK    3  A    between atoms: N1_12  and  C9_13 
ROOT
HETATM    1  O1  UNL     1       9.598  15.134  18.530  1.00  0.00    -0.217 OA
HETATM    2  S1  UNL     1       9.582  16.548  18.051  1.00  0.00     0.210 S 
HETATM    3  O2  UNL     1      11.017  16.896  17.687  1.00  0.00    -0.217 OA
HETATM    4  C1  UNL     1       8.633  16.678  16.578  1.00  0.00     0.072 A 
HETATM    5  C2  UNL     1       8.545  15.517  15.878  1.00  0.00     0.026 A 
HETATM    6  C3  UNL     1       7.838  15.399  14.684  1.00  0.00     0.022 A 
HETATM    7  C4  UNL     1       7.201  16.514  14.194  1.00  0.00     0.018 A 
HETATM    8  C15 UNL     1       7.281  17.695  14.891  1.00  0.00     0.031 A 
HETATM    9  C16 UNL     1       7.997  17.802  16.096  1.00  0.00    -0.011 A 
HETATM   10  C17 UNL     1       7.927  19.183  16.640  1.00  0.00     0.216 C 
HETATM   11  O3  UNL     1       7.513  19.232  17.994  1.00  0.00    -0.345 OA
HETATM   12  C18 UNL     1       8.128  18.733  19.131  1.00  0.00     0.091 A 
HETATM   13  C19 UNL     1       7.782  19.479  20.238  1.00  0.00     0.038 A 
HETATM   14  C20 UNL     1       8.280  19.167  21.491  1.00  0.00     0.003 A 
HETATM   15  C21 UNL     1       9.121  18.105  21.619  1.00  0.00     0.002 A 
HETATM   16  C22 UNL     1       9.465  17.359  20.501  1.00  0.00     0.027 A 
HETATM   17  C23 UNL     1       8.979  17.657  19.252  1.00  0.00     0.097 A 
ENDROOT
BRANCH   7  18
HETATM   18  C5  UNL     1       6.466  16.396  12.956  1.00  0.00    -0.060 C 
HETATM   19  C6  UNL     1       5.853  16.278  11.925  1.00  0.00    -0.041 C 
BRANCH  19  20
HETATM   20  C7  UNL     1       5.121  16.111  10.700  1.00  0.00     0.117 A 
HETATM   21  C8  UNL     1       3.807  16.483  10.510  1.00  0.00     0.154 A 
HETATM   22  N1  UNL     1       3.483  16.167   9.244  1.00  0.00    -0.248 N 
HETATM   23  N2  UNL     1       4.541  15.615   8.641  1.00  0.00    -0.014 NA
HETATM   24  N3  UNL     1       5.523  15.585   9.527  1.00  0.00    -0.275 N 
ATOM     25  H3  UNL     1       6.457  15.215   9.347  1.00  0.00     0.185 HD
BRANCH  22  26
HETATM   26  C9  UNL     1       2.206  16.388   8.640  1.00  0.00     0.054 A 
HETATM   27  C10 UNL     1       1.877  17.570   8.023  1.00  0.00     0.031 A 
HETATM   28  C11 UNL     1       0.649  17.805   7.432  1.00  0.00     0.002 A 
HETATM   29  C12 UNL     1      -0.287  16.806   7.464  1.00  0.00     0.000 A 
HETATM   30  C13 UNL     1       0.003  15.604   8.074  1.00  0.00     0.002 A 
HETATM   31  C14 UNL     1       1.237  15.394   8.657  1.00  0.00     0.031 A 
ENDBRANCH  22  26
ENDBRANCH  19  20
ENDBRANCH   7  18
TORSDOF 3
ENDMDL
MODEL 2
REMARK VINA RESULT: -0.325435340      0.785      1.178
REMARK  3 active torsions:
REMARK  status: ('A' for Active; 'I' for Inactive)
REMARK    1  A    between atoms: C4_7  and  C5_8 
REMARK    2  A    between atoms: C6_9  and  C7_10 
REMARK    3  A    between atoms: N1_12  and  C9_13 
ROOT
HETATM    1  O1  UNL     1      10.316  16.160  18.771  1.00  0.00    -0.217 OA
HETATM    2  S1  UNL     1       9.878  17.531  18.378  1.00  0.00     0.210 S 
HETATM    3  O2  UNL     1      11.135  18.285  17.973  1.00  0.00    -0.217 OA
HETATM    4  C1  UNL     1       8.845  17.454  16.959  1.00  0.00     0.072 A 
HETATM    5  C2  UNL     1       9.044  16.348  16.195  1.00  0.00     0.026 A 
HETATM    6  C3  UNL     1       8.330  16.088  15.029  1.00  0.00     0.022 A 
HETATM    7  C4  UNL     1       7.379  16.999  14.635  1.00  0.00     0.018 A 
HETATM    8  C15 UNL     1       7.167  18.122  15.396  1.00  0.00     0.031 A 
HETATM    9  C16 UNL     1       7.894  18.373  16.572  1.00  0.00    -0.011 A 
HETATM   10  C17 UNL     1       7.473  19.652  17.200  1.00  0.00     0.216 C 
HETATM   11  O3  UNL     1       7.142  19.522  18.571  1.00  0.00    -0.345 OA
HETATM   12  C18 UNL     1       7.937  19.167  19.648  1.00  0.00     0.091 A 
HETATM   13  C19 UNL     1       7.463  19.735  20.812  1.00  0.00     0.038 A 
HETATM   14  C20 UNL     1       8.100  19.520  22.021  1.00  0.00     0.003 A 
HETATM   15  C21 UNL     1       9.210  18.734  22.049  1.00  0.00     0.002 A 
HETATM   16  C22 UNL     1       9.683  18.167  20.875  1.00  0.00     0.027 A 
HETATM   17  C23 UNL     1       9.061  18.371  19.668  1.00  0.00     0.097 A 
ENDROOT
BRANCH   7  18
HETATM   18  C5  UNL     1       6.635  16.734  13.425  1.00  0.00    -0.060 C 
HETATM   19  C6  UNL     1       6.024  16.496  12.413  1.00  0.00    -0.041 C 
BRANCH  19  20
HETATM   20  C7  UNL     1       5.310  16.190  11.204  1.00  0.00     0.117 A 
HETATM   21  C8  UNL     1       3.964  16.410  11.007  1.00  0.00     0.154 A 
HETATM   22  N1  UNL     1       3.670  15.998   9.762  1.00  0.00    -0.248 N 
HETATM   23  N2  UNL     1       4.779  15.530   9.178  1.00  0.00    -0.014 NA
HETATM   24  N3  UNL     1       5.762  15.650  10.057  1.00  0.00    -0.275 N 
ATOM     25  H3  UNL     1       6.729  15.372   9.887  1.00  0.00     0.185 HD
BRANCH  22  26
HETATM   26  C9  UNL     1       2.375  16.051   9.159  1.00  0.00     0.054 A 
HETATM   27  C10 UNL     1       1.459  15.038   9.290  1.00  0.00     0.031 A 
HETATM   28  C11 UNL     1       0.201  15.069   8.715  1.00  0.00     0.002 A 
HETATM   29  C12 UNL     1      -0.148  16.169   7.978  1.00  0.00     0.000 A 
HETATM   30  C13 UNL     1       0.744  17.209   7.822  1.00  0.00     0.002 A 
HETATM   31  C14 UNL     1       1.994  17.154   8.406  1.00  0.00     0.031 A 
ENDBRANCH  22  26
ENDBRANCH  19  20
ENDBRANCH   7  18
TORSDOF 3
ENDMDL
MODEL 3
REMARK VINA RESULT: -0.120040992      1.910      2.549
REMARK  3 active torsions:
REMARK  status: ('A' for Active; 'I' for Inactive)
REMARK    1  A    between atoms: C4_7  and  C5_8 
REMARK    2  A    between atoms: C6_9  and  C7_10 
REMARK    3  A    between atoms: N1_12  and  C9_13 
ROOT
HETATM    1  O1  UNL     1       6.263  18.585  20.801  1.00  0.00    -0.217 OA
HETATM    2  S1  UNL     1       7.582  18.162  20.245  1.00  0.00     0.210 S 
HETATM    3  O2  UNL     1       7.929  16.842  20.917  1.00  0.00    -0.217 OA
HETATM    4  C1  UNL     1       7.440  17.840  18.524  1.00  0.00     0.072 A 
HETATM    5  C2  UNL     1       6.181  17.517  18.129  1.00  0.00     0.026 A 
HETATM    6  C3  UNL     1       5.848  17.228  16.808  1.00  0.00     0.022 A 
HETATM    7  C4  UNL     1       6.844  17.273  15.863  1.00  0.00     0.018 A 
HETATM    8  C15 UNL     1       8.122  17.598  16.248  1.00  0.00     0.031 A 
HETATM    9  C16 UNL     1       8.447  17.888  17.584  1.00  0.00    -0.011 A 
HETATM   10  C17 UNL     1       9.891  18.203  17.728  1.00  0.00     0.216 C 
HETATM   11  O3  UNL     1      10.134  19.423  18.407  1.00  0.00    -0.345 OA
HETATM   12  C18 UNL     1       9.846  19.788  19.712  1.00  0.00     0.091 A 
HETATM   13  C19 UNL     1      10.741  20.736  20.161  1.00  0.00     0.038 A 
HETATM   14  C20 UNL     1      10.650  21.251  21.443  1.00  0.00     0.003 A 
HETATM   15  C21 UNL     1       9.658  20.807  22.261  1.00  0.00     0.002 A 
HETATM   16  C22 UNL     1       8.761  19.852  21.803  1.00  0.00     0.027 A 
HETATM   17  C23 UNL     1       8.839  19.333  20.534  1.00  0.00     0.097 A 
ENDROOT
BRANCH   7  18
HETATM   18  C5  UNL     1       6.503  16.974  14.491  1.00  0.00    -0.060 C 
HETATM   19  C6  UNL     1       6.202  16.714  13.353  1.00  0.00    -0.041 C 
BRANCH  19  20
HETATM   20  C7  UNL     1       5.822  16.393  12.005  1.00  0.00     0.117 A 
HETATM   21  C8  UNL     1       4.565  16.589  11.473  1.00  0.00     0.154 A 
HETATM   22  N1  UNL     1       4.602  16.168  10.197  1.00  0.00    -0.248 N 
HETATM   23  N2  UNL     1       5.830  15.720   9.915  1.00  0.00    -0.014 NA
HETATM   24  N3  UNL     1       6.558  15.859  11.012  1.00  0.00    -0.275 N 
ATOM     25  H3  UNL     1       7.541  15.599  11.094  1.00  0.00     0.185 HD
BRANCH  22  26
HETATM   26  C9  UNL     1       3.501  16.197   9.286  1.00  0.00     0.054 A 
HETATM   27  C10 UNL     1       3.595  16.753   8.035  1.00  0.00     0.031 A 
HETATM   28  C11 UNL     1       2.542  16.790   7.137  1.00  0.00     0.002 A 
HETATM   29  C12 UNL     1       1.346  16.245   7.518  1.00  0.00     0.000 A 
HETATM   30  C13 UNL     1       1.210  15.676   8.767  1.00  0.00     0.002 A 
HETATM   31  C14 UNL     1       2.276  15.651   9.645  1.00  0.00     0.031 A 
ENDBRANCH  22  26
ENDBRANCH  19  20
ENDBRANCH   7  18
TORSDOF 3
ENDMDL
MODEL 4
REMARK VINA RESULT: 0.981116752      1.343      1.609
REMARK  3 active torsions:
REMARK  status: ('A' for Active; 'I' for Inactive)
REMARK    1  A    between atoms: C4_7  and  C5_8 
REMARK    2  A    between atoms: C6_9  and  C7_10 
REMARK    3  A    between atoms: N1_12  and  C9_13 
ROOT
HETATM    1  O1  UNL     1       9.532  15.309  18.028  1.00  0.00    -0.217 OA
HETATM    2  S1  UNL     1       9.403  16.761  17.706  1.00  0.00     0.210 S 
HETATM    3  O2  UNL     1      10.739  17.192  17.120  1.00  0.00    -0.217 OA
HETATM    4  C1  UNL     1       8.192  17.000  16.456  1.00  0.00     0.072 A 
HETATM    5  C2  UNL     1       7.993  15.910  15.670  1.00  0.00     0.026 A 
HETATM    6  C3  UNL     1       7.076  15.884  14.622  1.00  0.00     0.022 A 
HETATM    7  C4  UNL     1       6.340  17.018  14.375  1.00  0.00     0.018 A 
HETATM    8  C15 UNL     1       6.531  18.128  15.162  1.00  0.00     0.031 A 
HETATM    9  C16 UNL     1       7.459  18.143  16.217  1.00  0.00    -0.011 A 
HETATM   10  C17 UNL     1       7.471  19.461  16.902  1.00  0.00     0.216 C 
HETATM   11  O3  UNL     1       7.318  19.364  18.307  1.00  0.00    -0.345 OA
HETATM   12  C18 UNL     1       8.143  18.779  19.253  1.00  0.00     0.091 A 
HETATM   13  C19 UNL     1       8.000  19.402  20.475  1.00  0.00     0.038 A 
HETATM   14  C20 UNL     1       8.729  18.987  21.576  1.00  0.00     0.003 A 
HETATM   15  C21 UNL     1       9.596  17.948  21.438  1.00  0.00     0.002 A 
HETATM   16  C22 UNL     1       9.736  17.327  20.205  1.00  0.00     0.027 A 
HETATM   17  C23 UNL     1       9.020  17.727  19.104  1.00  0.00     0.097 A 
ENDROOT
BRANCH   7  18
HETATM   18  C5  UNL     1       5.388  16.995  13.289  1.00  0.00    -0.060 C 
HETATM   19  C6  UNL     1       4.578  16.974  12.396  1.00  0.00    -0.041 C 
BRANCH  19  20
HETATM   20  C7  UNL     1       3.594  16.946  11.349  1.00  0.00     0.117 A 
HETATM   21  C8  UNL     1       3.806  16.445  10.083  1.00  0.00     0.154 A 
HETATM   22  N1  UNL     1       2.659  16.594   9.398  1.00  0.00    -0.248 N 
HETATM   23  N2  UNL     1       1.744  17.168  10.188  1.00  0.00    -0.014 NA
HETATM   24  N3  UNL     1       2.319  17.376  11.362  1.00  0.00    -0.275 N 
ATOM     25  H3  UNL     1       1.858  17.803  12.166  1.00  0.00     0.185 HD
BRANCH  22  26
HETATM   26  C9  UNL     1       2.452  16.201   8.039  1.00  0.00     0.054 A 
HETATM   27  C10 UNL     1       3.323  16.538   7.034  1.00  0.00     0.031 A 
HETATM   28  C11 UNL     1       3.143  16.168   5.713  1.00  0.00     0.002 A 
HETATM   29  C12 UNL     1       2.036  15.428   5.393  1.00  0.00     0.000 A 
HETATM   30  C13 UNL     1       1.136  15.068   6.374  1.00  0.00     0.002 A 
HETATM   31  C14 UNL     1       1.339  15.450   7.685  1.00  0.00     0.031 A 
ENDBRANCH  22  26
ENDBRANCH  19  20
ENDBRANCH   7  18
TORSDOF 3
ENDMDL
MODEL 5
REMARK VINA RESULT: 1.097512276      1.497      2.095
REMARK  3 active torsions:
REMARK  status: ('A' for Active; 'I' for Inactive)
REMARK    1  A    between atoms: C4_7  and  C5_8 
REMARK    2  A    between atoms: C6_9  and  C7_10 
REMARK    3  A    between atoms: N1_12  and  C9_13 
ROOT
HETATM    1  O1  UNL     1      11.216  17.966  19.104  1.00  0.00    -0.217 OA
HETATM    2  S1  UNL     1      10.219  19.050  18.863  1.00  0.00     0.210 S 
HETATM    3  O2  UNL     1      11.013  20.284  18.463  1.00  0.00    -0.217 OA
HETATM    4  C1  UNL     1       9.191  18.637  17.499  1.00  0.00     0.072 A 
HETATM    5  C2  UNL     1       9.762  17.764  16.628  1.00  0.00     0.026 A 
HETATM    6  C3  UNL     1       9.119  17.302  15.482  1.00  0.00     0.022 A 
HETATM    7  C4  UNL     1       7.847  17.755  15.224  1.00  0.00     0.018 A 
HETATM    8  C15 UNL     1       7.258  18.638  16.096  1.00  0.00     0.031 A 
HETATM    9  C16 UNL     1       7.916  19.096  17.250  1.00  0.00    -0.011 A 
HETATM   10  C17 UNL     1       7.062  20.041  18.014  1.00  0.00     0.216 C 
HETATM   11  O3  UNL     1       6.934  19.700  19.383  1.00  0.00    -0.345 OA
HETATM   12  C18 UNL     1       7.895  19.643  20.379  1.00  0.00     0.091 A 
HETATM   13  C19 UNL     1       7.331  19.889  21.614  1.00  0.00     0.038 A 
HETATM   14  C20 UNL     1       8.103  19.885  22.763  1.00  0.00     0.003 A 
HETATM   15  C21 UNL     1       9.435  19.635  22.660  1.00  0.00     0.002 A 
HETATM   16  C22 UNL     1       9.997  19.390  21.414  1.00  0.00     0.027 A 
HETATM   17  C23 UNL     1       9.244  19.390  20.266  1.00  0.00     0.097 A 
ENDROOT
BRANCH   7  18
HETATM   18  C5  UNL     1       7.177  17.279  14.036  1.00  0.00    -0.060 C 
HETATM   19  C6  UNL     1       6.635  16.880  13.035  1.00  0.00    -0.041 C 
BRANCH  19  20
HETATM   20  C7  UNL     1       6.013  16.405  11.831  1.00  0.00     0.117 A 
HETATM   21  C8  UNL     1       4.716  16.681  11.453  1.00  0.00     0.154 A 
HETATM   22  N1  UNL     1       4.504  16.065  10.277  1.00  0.00    -0.248 N 
HETATM   23  N2  UNL     1       5.615  15.418   9.910  1.00  0.00    -0.014 NA
HETATM   24  N3  UNL     1       6.519  15.630  10.854  1.00  0.00    -0.275 N 
ATOM     25  H3  UNL     1       7.468  15.257  10.843  1.00  0.00     0.185 HD
BRANCH  22  26
HETATM   26  C9  UNL     1       3.281  16.096   9.538  1.00  0.00     0.054 A 
HETATM   27  C10 UNL     1       2.144  15.456   9.965  1.00  0.00     0.031 A 
HETATM   28  C11 UNL     1       0.950  15.474   9.266  1.00  0.00     0.002 A 
HETATM   29  C12 UNL     1       0.901  16.167   8.086  1.00  0.00     0.000 A 
HETATM   30  C13 UNL     1       2.021  16.825   7.622  1.00  0.00     0.002 A 
HETATM   31  C14 UNL     1       3.201  16.791   8.338  1.00  0.00     0.031 A 
ENDBRANCH  22  26
ENDBRANCH  19  20
ENDBRANCH   7  18
TORSDOF 3
ENDMDL
