MODEL 1
REMARK VINA RESULT: -6.456247191      0.000      0.000
REMARK  13 active torsions:
REMARK  status: ('A' for Active; 'I' for Inactive)
REMARK    1  A    between atoms: N1_1  and  C1_4 
REMARK    2  A    between atoms: N3_8  and  N4_10 
REMARK    3  A    between atoms: N4_10  and  C3_12 
REMARK    4  A    between atoms: C3_12  and  N5_14 
REMARK    5  A    between atoms: N5_14  and  C4_16 
REMARK    6  A    between atoms: C4_16  and  C5_17 
REMARK    7  A    between atoms: C5_17  and  O1_18 
REMARK    8  A    between atoms: O1_18  and  S2_19 
REMARK    9  A    between atoms: S2_19  and  N6_20 
REMARK   10  A    between atoms: C7_26  and  N7_27 
REMARK   11  A    between atoms: N7_27  and  N8_29 
REMARK   12  A    between atoms: C8_31  and  C9_32 
REMARK   13  A    between atoms: C9_32  and  C10_33 
ROOT
HETATM    1  C1  UNL     1      19.475  17.595  30.777  1.00  0.00     0.679 A 
HETATM    2  N2  UNL     1      20.431  16.761  31.224  1.00  0.00    -0.174 N 
ATOM      3  H2  UNL     1      20.316  16.331  32.142  1.00  0.00     0.186 HD
HETATM    4  C2  UNL     1      21.529  16.472  30.508  1.00  0.00     0.153 A 
HETATM    5  N3  UNL     1      22.456  15.657  30.946  1.00  0.00    -0.282 N 
ATOM      6  H3  UNL     1      23.284  15.448  30.387  1.00  0.00     0.188 HD
HETATM    7  C6  UNL     1      21.633  17.078  29.276  1.00  0.00     0.100 A 
HETATM    8  C7  UNL     1      22.750  16.816  28.485  1.00  0.00     0.138 A 
HETATM    9  N9  UNL     1      22.816  17.422  27.297  1.00  0.00    -0.337 N 
ATOM     10  H9  UNL     1      23.624  17.248  26.698  1.00  0.00     0.168 HD
HETATM   11  C12 UNL     1      21.852  18.255  26.863  1.00  0.00     0.183 A 
HETATM   12  N10 UNL     1      20.782  18.503  27.626  1.00  0.00    -0.337 N 
ATOM     13  H10 UNL     1      20.057  19.136  27.288  1.00  0.00     0.168 HD
HETATM   14  C13 UNL     1      20.652  17.930  28.825  1.00  0.00     0.139 A 
HETATM   15  N11 UNL     1      19.563  18.193  29.580  1.00  0.00    -0.176 N 
ATOM     16  H11 UNL     1      18.833  18.825  29.251  1.00  0.00     0.186 HD
ENDROOT
BRANCH   5  17
HETATM   17  N4  UNL     1      22.268  15.086  32.202  1.00  0.00    -0.275 N 
ATOM     18  H4  UNL     1      22.265  15.660  33.045  1.00  0.00     0.189 HD
BRANCH  17  19
HETATM   19  C3  UNL     1      22.077  13.655  32.274  1.00  0.00     0.186 C 
HETATM   20  S1  UNL     1      22.541  12.738  30.992  1.00  0.00    -0.040 SA
BRANCH  19  21
HETATM   21  N5  UNL     1      21.552  13.110  33.449  1.00  0.00    -0.364 N 
ATOM     22  H5  UNL     1      20.745  12.490  33.373  1.00  0.00     0.162 HD
BRANCH  21  23
HETATM   23  C4  UNL     1      22.077  13.370  34.747  1.00  0.00     0.149 C 
BRANCH  23  24
HETATM   24  C5  UNL     1      21.357  14.359  35.590  1.00  0.00     0.211 C 
BRANCH  24  25
HETATM   25  O1  UNL     1      21.464  15.680  35.247  1.00  0.00    -0.258 OA
BRANCH  25  26
HETATM   26  S2  UNL     1      20.030  16.321  34.701  1.00  0.00     0.355 S 
HETATM   27  O2  UNL     1      20.200  17.708  34.153  1.00  0.00    -0.176 OA
HETATM   28  O3  UNL     1      19.459  15.464  33.586  1.00  0.00    -0.176 OA
BRANCH  26  29
HETATM   29  N6  UNL     1      18.920  16.413  36.006  1.00  0.00    -0.306 N 
ATOM     30  H62 UNL     1      17.915  16.263  35.923  1.00  0.00     0.171 HD
ATOM     31  H61 UNL     1      19.427  16.639  36.862  1.00  0.00     0.171 HD
ENDBRANCH  26  29
ENDBRANCH  25  26
ENDBRANCH  24  25
ENDBRANCH  23  24
ENDBRANCH  21  23
ENDBRANCH  19  21
ENDBRANCH  17  19
ENDBRANCH   5  17
BRANCH   1  32
HETATM   32  N1  UNL     1      18.440  17.830  31.524  1.00  0.00    -0.234 N 
ATOM     33  H12 UNL     1      17.518  17.537  31.200  1.00  0.00     0.174 HD
ATOM     34  H11 UNL     1      18.570  18.304  32.418  1.00  0.00     0.174 HD
ENDBRANCH   1  32
BRANCH   8  35
HETATM   35  N7  UNL     1      23.627  16.030  28.939  1.00  0.00    -0.285 N 
ATOM     36  H7  UNL     1      23.261  15.194  29.393  1.00  0.00     0.188 HD
BRANCH  35  37
HETATM   37  N8  UNL     1      24.990  16.124  28.917  1.00  0.00    -0.314 N 
HETATM   38  C8  UNL     1      25.814  15.642  28.083  1.00  0.00     0.085 C 
ATOM     39  H8  UNL     1      25.404  16.658  29.681  1.00  0.00     0.185 HD
BRANCH  38  40
HETATM   40  C9  UNL     1      27.264  15.914  28.320  1.00  0.00     0.092 C 
BRANCH  40  41
HETATM   41  C10 UNL     1      27.633  17.327  28.040  1.00  0.00    -0.006 A 
HETATM   42  C11 UNL     1      27.258  18.563  27.815  1.00  0.00     0.065 A 
HETATM   43  S3  UNL     1      29.042  18.438  27.787  1.00  0.00    -0.105 SA
ENDBRANCH  40  41
ENDBRANCH  38  40
ENDBRANCH  35  37
ENDBRANCH   8  35
TORSDOF 13
ENDMDL
MODEL 2
REMARK VINA RESULT: -6.321297998      1.391      1.606
REMARK  13 active torsions:
REMARK  status: ('A' for Active; 'I' for Inactive)
REMARK    1  A    between atoms: N1_1  and  C1_4 
REMARK    2  A    between atoms: N3_8  and  N4_10 
REMARK    3  A    between atoms: N4_10  and  C3_12 
REMARK    4  A    between atoms: C3_12  and  N5_14 
REMARK    5  A    between atoms: N5_14  and  C4_16 
REMARK    6  A    between atoms: C4_16  and  C5_17 
REMARK    7  A    between atoms: C5_17  and  O1_18 
REMARK    8  A    between atoms: O1_18  and  S2_19 
REMARK    9  A    between atoms: S2_19  and  N6_20 
REMARK   10  A    between atoms: C7_26  and  N7_27 
REMARK   11  A    between atoms: N7_27  and  N8_29 
REMARK   12  A    between atoms: C8_31  and  C9_32 
REMARK   13  A    between atoms: C9_32  and  C10_33 
ROOT
HETATM    1  C1  UNL     1      19.434  17.516  30.871  1.00  0.00     0.679 A 
HETATM    2  N2  UNL     1      20.418  16.702  31.292  1.00  0.00    -0.174 N 
ATOM      3  H2  UNL     1      20.326  16.252  32.204  1.00  0.00     0.186 HD
HETATM    4  C2  UNL     1      21.517  16.458  30.560  1.00  0.00     0.153 A 
HETATM    5  N3  UNL     1      22.472  15.663  30.973  1.00  0.00    -0.282 N 
ATOM      6  H3  UNL     1      23.300  15.489  30.402  1.00  0.00     0.188 HD
HETATM    7  C6  UNL     1      21.590  17.090  29.338  1.00  0.00     0.100 A 
HETATM    8  C7  UNL     1      22.706  16.876  28.531  1.00  0.00     0.138 A 
HETATM    9  N9  UNL     1      22.741  17.505  27.354  1.00  0.00    -0.337 N 
ATOM     10  H9  UNL     1      23.547  17.366  26.744  1.00  0.00     0.168 HD
HETATM   11  C12 UNL     1      21.749  18.317  26.946  1.00  0.00     0.183 A 
HETATM   12  N10 UNL     1      20.680  18.520  27.724  1.00  0.00    -0.337 N 
ATOM     13  H10 UNL     1      19.934  19.137  27.405  1.00  0.00     0.168 HD
HETATM   14  C13 UNL     1      20.580  17.922  28.914  1.00  0.00     0.139 A 
HETATM   15  N11 UNL     1      19.492  18.139  29.684  1.00  0.00    -0.176 N 
ATOM     16  H11 UNL     1      18.741  18.755  29.375  1.00  0.00     0.186 HD
ENDROOT
BRANCH   5  17
HETATM   17  N4  UNL     1      22.314  15.064  32.220  1.00  0.00    -0.275 N 
ATOM     18  H4  UNL     1      21.550  14.412  32.397  1.00  0.00     0.189 HD
BRANCH  17  19
HETATM   19  C3  UNL     1      23.266  15.395  33.256  1.00  0.00     0.186 C 
HETATM   20  S1  UNL     1      24.167  14.184  33.907  1.00  0.00    -0.040 SA
BRANCH  19  21
HETATM   21  N5  UNL     1      23.414  16.735  33.624  1.00  0.00    -0.364 N 
ATOM     22  H5  UNL     1      23.780  17.386  32.929  1.00  0.00     0.162 HD
BRANCH  21  23
HETATM   23  C4  UNL     1      23.083  17.244  34.912  1.00  0.00     0.149 C 
BRANCH  23  24
HETATM   24  C5  UNL     1      21.643  17.441  35.218  1.00  0.00     0.211 C 
BRANCH  24  25
HETATM   25  O1  UNL     1      20.737  17.129  34.240  1.00  0.00    -0.258 OA
BRANCH  25  26
HETATM   26  S2  UNL     1      19.743  15.864  34.664  1.00  0.00     0.355 S 
HETATM   27  O2  UNL     1      18.470  16.334  35.305  1.00  0.00    -0.176 OA
HETATM   28  O3  UNL     1      19.358  15.060  33.436  1.00  0.00    -0.176 OA
BRANCH  26  29
HETATM   29  N6  UNL     1      20.554  14.865  35.798  1.00  0.00    -0.306 N 
ATOM     30  H62 UNL     1      21.491  15.042  36.160  1.00  0.00     0.171 HD
ATOM     31  H61 UNL     1      19.952  14.079  36.044  1.00  0.00     0.171 HD
ENDBRANCH  26  29
ENDBRANCH  25  26
ENDBRANCH  24  25
ENDBRANCH  23  24
ENDBRANCH  21  23
ENDBRANCH  19  21
ENDBRANCH  17  19
ENDBRANCH   5  17
BRANCH   1  32
HETATM   32  N1  UNL     1      18.401  17.707  31.633  1.00  0.00    -0.234 N 
ATOM     33  H12 UNL     1      17.977  16.907  32.103  1.00  0.00     0.174 HD
ATOM     34  H11 UNL     1      18.034  18.653  31.745  1.00  0.00     0.174 HD
ENDBRANCH   1  32
BRANCH   8  35
HETATM   35  N7  UNL     1      23.609  16.107  28.961  1.00  0.00    -0.285 N 
ATOM     36  H7  UNL     1      23.272  15.252  29.404  1.00  0.00     0.188 HD
BRANCH  35  37
HETATM   37  N8  UNL     1      24.969  16.241  28.927  1.00  0.00    -0.314 N 
HETATM   38  C8  UNL     1      25.793  15.837  28.052  1.00  0.00     0.085 C 
ATOM     39  H8  UNL     1      25.380  16.736  29.718  1.00  0.00     0.185 HD
BRANCH  38  40
HETATM   40  C9  UNL     1      27.239  16.135  28.286  1.00  0.00     0.092 C 
BRANCH  40  41
HETATM   41  C10 UNL     1      27.538  17.590  28.235  1.00  0.00    -0.006 A 
HETATM   42  C11 UNL     1      27.108  18.828  28.284  1.00  0.00     0.065 A 
HETATM   43  S3  UNL     1      28.881  18.792  28.047  1.00  0.00    -0.105 SA
ENDBRANCH  40  41
ENDBRANCH  38  40
ENDBRANCH  35  37
ENDBRANCH   8  35
TORSDOF 13
ENDMDL
MODEL 3
REMARK VINA RESULT: -6.231895863      0.836      1.079
REMARK  13 active torsions:
REMARK  status: ('A' for Active; 'I' for Inactive)
REMARK    1  A    between atoms: N1_1  and  C1_4 
REMARK    2  A    between atoms: N3_8  and  N4_10 
REMARK    3  A    between atoms: N4_10  and  C3_12 
REMARK    4  A    between atoms: C3_12  and  N5_14 
REMARK    5  A    between atoms: N5_14  and  C4_16 
REMARK    6  A    between atoms: C4_16  and  C5_17 
REMARK    7  A    between atoms: C5_17  and  O1_18 
REMARK    8  A    between atoms: O1_18  and  S2_19 
REMARK    9  A    between atoms: S2_19  and  N6_20 
REMARK   10  A    between atoms: C7_26  and  N7_27 
REMARK   11  A    between atoms: N7_27  and  N8_29 
REMARK   12  A    between atoms: C8_31  and  C9_32 
REMARK   13  A    between atoms: C9_32  and  C10_33 
ROOT
HETATM    1  C1  UNL     1      19.432  17.583  30.804  1.00  0.00     0.679 A 
HETATM    2  N2  UNL     1      20.416  16.772  31.232  1.00  0.00    -0.174 N 
ATOM      3  H2  UNL     1      20.325  16.330  32.147  1.00  0.00     0.186 HD
HETATM    4  C2  UNL     1      21.514  16.522  30.501  1.00  0.00     0.153 A 
HETATM    5  N3  UNL     1      22.469  15.730  30.920  1.00  0.00    -0.282 N 
ATOM      6  H3  UNL     1      23.297  15.551  30.350  1.00  0.00     0.188 HD
HETATM    7  C6  UNL     1      21.587  17.144  29.274  1.00  0.00     0.100 A 
HETATM    8  C7  UNL     1      22.702  16.923  28.468  1.00  0.00     0.138 A 
HETATM    9  N9  UNL     1      22.737  17.543  27.286  1.00  0.00    -0.337 N 
ATOM     10  H9  UNL     1      23.543  17.398  26.677  1.00  0.00     0.168 HD
HETATM   11  C12 UNL     1      21.745  18.352  26.872  1.00  0.00     0.183 A 
HETATM   12  N10 UNL     1      20.677  18.561  27.649  1.00  0.00    -0.337 N 
ATOM     13  H10 UNL     1      19.930  19.176  27.326  1.00  0.00     0.168 HD
HETATM   14  C13 UNL     1      20.577  17.973  28.844  1.00  0.00     0.139 A 
HETATM   15  N11 UNL     1      19.490  18.196  29.613  1.00  0.00    -0.176 N 
ATOM     16  H11 UNL     1      18.738  18.810  29.299  1.00  0.00     0.186 HD
ENDROOT
BRANCH   5  17
HETATM   17  N4  UNL     1      22.312  15.141  32.172  1.00  0.00    -0.275 N 
ATOM     18  H4  UNL     1      22.331  15.702  33.023  1.00  0.00     0.189 HD
BRANCH  17  19
HETATM   19  C3  UNL     1      22.120  13.709  32.228  1.00  0.00     0.186 C 
HETATM   20  S1  UNL     1      22.563  12.809  30.926  1.00  0.00    -0.040 SA
BRANCH  19  21
HETATM   21  N5  UNL     1      21.614  13.148  33.404  1.00  0.00    -0.364 N 
ATOM     22  H5  UNL     1      20.815  12.519  33.330  1.00  0.00     0.162 HD
BRANCH  21  23
HETATM   23  C4  UNL     1      22.149  13.405  34.698  1.00  0.00     0.149 C 
BRANCH  23  24
HETATM   24  C5  UNL     1      21.435  14.391  35.549  1.00  0.00     0.211 C 
BRANCH  24  25
HETATM   25  O1  UNL     1      21.502  15.709  35.184  1.00  0.00    -0.258 OA
BRANCH  25  26
HETATM   26  S2  UNL     1      20.034  16.315  34.690  1.00  0.00     0.355 S 
HETATM   27  O2  UNL     1      20.153  17.701  34.125  1.00  0.00    -0.176 OA
HETATM   28  O3  UNL     1      19.440  15.437  33.604  1.00  0.00    -0.176 OA
BRANCH  26  29
HETATM   29  N6  UNL     1      18.974  16.395  36.035  1.00  0.00    -0.306 N 
ATOM     30  H62 UNL     1      18.268  15.694  36.259  1.00  0.00     0.171 HD
ATOM     31  H61 UNL     1      19.166  17.247  36.564  1.00  0.00     0.171 HD
ENDBRANCH  26  29
ENDBRANCH  25  26
ENDBRANCH  24  25
ENDBRANCH  23  24
ENDBRANCH  21  23
ENDBRANCH  19  21
ENDBRANCH  17  19
ENDBRANCH   5  17
BRANCH   1  32
HETATM   32  N1  UNL     1      18.400  17.781  31.565  1.00  0.00    -0.234 N 
ATOM     33  H12 UNL     1      17.626  17.116  31.533  1.00  0.00     0.174 HD
ATOM     34  H11 UNL     1      18.382  18.597  32.178  1.00  0.00     0.174 HD
ENDBRANCH   1  32
BRANCH   8  35
HETATM   35  N7  UNL     1      23.606  16.158  28.904  1.00  0.00    -0.285 N 
ATOM     36  H7  UNL     1      23.269  15.323  29.383  1.00  0.00     0.188 HD
BRANCH  35  37
HETATM   37  N8  UNL     1      24.966  16.272  28.835  1.00  0.00    -0.314 N 
HETATM   38  C8  UNL     1      25.799  15.564  28.194  1.00  0.00     0.085 C 
ATOM     39  H8  UNL     1      25.368  17.037  29.376  1.00  0.00     0.185 HD
BRANCH  38  40
HETATM   40  C9  UNL     1      27.243  15.934  28.310  1.00  0.00     0.092 C 
BRANCH  40  41
HETATM   41  C10 UNL     1      27.683  16.078  29.723  1.00  0.00    -0.006 A 
HETATM   42  C11 UNL     1      27.771  15.573  30.930  1.00  0.00     0.065 A 
HETATM   43  S3  UNL     1      28.508  17.203  30.880  1.00  0.00    -0.105 SA
ENDBRANCH  40  41
ENDBRANCH  38  40
ENDBRANCH  35  37
ENDBRANCH   8  35
TORSDOF 13
ENDMDL
MODEL 4
REMARK VINA RESULT: -6.139488681      3.566      6.917
REMARK  13 active torsions:
REMARK  status: ('A' for Active; 'I' for Inactive)
REMARK    1  A    between atoms: N1_1  and  C1_4 
REMARK    2  A    between atoms: N3_8  and  N4_10 
REMARK    3  A    between atoms: N4_10  and  C3_12 
REMARK    4  A    between atoms: C3_12  and  N5_14 
REMARK    5  A    between atoms: N5_14  and  C4_16 
REMARK    6  A    between atoms: C4_16  and  C5_17 
REMARK    7  A    between atoms: C5_17  and  O1_18 
REMARK    8  A    between atoms: O1_18  and  S2_19 
REMARK    9  A    between atoms: S2_19  and  N6_20 
REMARK   10  A    between atoms: C7_26  and  N7_27 
REMARK   11  A    between atoms: N7_27  and  N8_29 
REMARK   12  A    between atoms: C8_31  and  C9_32 
REMARK   13  A    between atoms: C9_32  and  C10_33 
ROOT
HETATM    1  C1  UNL     1      24.053  18.537  27.768  1.00  0.00     0.679 A 
HETATM    2  N2  UNL     1      24.008  17.275  28.231  1.00  0.00    -0.174 N 
ATOM      3  H2  UNL     1      24.834  16.684  28.128  1.00  0.00     0.186 HD
HETATM    4  C2  UNL     1      22.919  16.761  28.824  1.00  0.00     0.153 A 
HETATM    5  N3  UNL     1      22.880  15.533  29.275  1.00  0.00    -0.282 N 
ATOM      6  H3  UNL     1      22.042  15.160  29.724  1.00  0.00     0.188 HD
HETATM    7  C6  UNL     1      21.832  17.601  28.938  1.00  0.00     0.100 A 
HETATM    8  C7  UNL     1      20.671  17.126  29.545  1.00  0.00     0.138 A 
HETATM    9  N9  UNL     1      19.639  17.969  29.638  1.00  0.00    -0.337 N 
ATOM     10  H9  UNL     1      18.777  17.646  30.078  1.00  0.00     0.168 HD
HETATM   11  C12 UNL     1      19.699  19.228  29.170  1.00  0.00     0.183 A 
HETATM   12  N10 UNL     1      20.815  19.680  28.587  1.00  0.00    -0.337 N 
ATOM     13  H10 UNL     1      20.850  20.636  28.236  1.00  0.00     0.168 HD
HETATM   14  C13 UNL     1      21.885  18.890  28.462  1.00  0.00     0.139 A 
HETATM   15  N11 UNL     1      23.003  19.365  27.871  1.00  0.00    -0.176 N 
ATOM     16  H11 UNL     1      23.048  20.320  27.516  1.00  0.00     0.186 HD
ENDROOT
BRANCH   5  17
HETATM   17  N4  UNL     1      24.024  14.756  29.120  1.00  0.00    -0.275 N 
ATOM     18  H4  UNL     1      24.434  14.601  28.199  1.00  0.00     0.189 HD
BRANCH  17  19
HETATM   19  C3  UNL     1      24.614  14.175  30.305  1.00  0.00     0.186 C 
HETATM   20  S1  UNL     1      23.915  12.835  30.952  1.00  0.00    -0.040 SA
BRANCH  19  21
HETATM   21  N5  UNL     1      25.781  14.747  30.820  1.00  0.00    -0.364 N 
ATOM     22  H5  UNL     1      26.603  14.152  30.925  1.00  0.00     0.162 HD
BRANCH  21  23
HETATM   23  C4  UNL     1      25.889  16.114  31.206  1.00  0.00     0.149 C 
BRANCH  23  24
HETATM   24  C5  UNL     1      27.032  16.889  30.659  1.00  0.00     0.211 C 
BRANCH  24  25
HETATM   25  O1  UNL     1      26.880  17.453  29.420  1.00  0.00    -0.258 OA
BRANCH  25  26
HETATM   26  S2  UNL     1      27.506  16.508  28.203  1.00  0.00     0.355 S 
HETATM   27  O2  UNL     1      26.522  15.484  27.717  1.00  0.00    -0.176 OA
HETATM   28  O3  UNL     1      27.887  17.367  27.011  1.00  0.00    -0.176 OA
BRANCH  26  29
HETATM   29  N6  UNL     1      28.880  15.667  28.792  1.00  0.00    -0.306 N 
ATOM     30  H62 UNL     1      29.210  15.700  29.756  1.00  0.00     0.171 HD
ATOM     31  H61 UNL     1      29.301  15.137  28.029  1.00  0.00     0.171 HD
ENDBRANCH  26  29
ENDBRANCH  25  26
ENDBRANCH  24  25
ENDBRANCH  23  24
ENDBRANCH  21  23
ENDBRANCH  19  21
ENDBRANCH  17  19
ENDBRANCH   5  17
BRANCH   1  32
HETATM   32  N1  UNL     1      25.141  18.965  27.204  1.00  0.00    -0.234 N 
ATOM     33  H12 UNL     1      25.660  18.339  26.588  1.00  0.00     0.174 HD
ATOM     34  H11 UNL     1      25.454  19.919  27.389  1.00  0.00     0.174 HD
ENDBRANCH   1  32
BRANCH   8  35
HETATM   35  N7  UNL     1      20.666  15.936  29.965  1.00  0.00    -0.285 N 
ATOM     36  H7  UNL     1      21.223  15.283  29.414  1.00  0.00     0.188 HD
BRANCH  35  37
HETATM   37  N8  UNL     1      20.031  15.385  31.043  1.00  0.00    -0.314 N 
HETATM   38  C8  UNL     1      20.243  15.568  32.279  1.00  0.00     0.085 C 
ATOM     39  H8  UNL     1      19.279  14.734  30.821  1.00  0.00     0.185 HD
BRANCH  38  40
HETATM   40  C9  UNL     1      19.377  14.819  33.239  1.00  0.00     0.092 C 
BRANCH  40  41
HETATM   41  C10 UNL     1      19.540  15.288  34.641  1.00  0.00    -0.006 A 
HETATM   42  C11 UNL     1      19.670  16.282  35.485  1.00  0.00     0.065 A 
HETATM   43  S3  UNL     1      19.686  14.720  36.355  1.00  0.00    -0.105 SA
ENDBRANCH  40  41
ENDBRANCH  38  40
ENDBRANCH  35  37
ENDBRANCH   8  35
TORSDOF 13
ENDMDL
MODEL 5
REMARK VINA RESULT: -6.093644830      1.123      1.246
REMARK  13 active torsions:
REMARK  status: ('A' for Active; 'I' for Inactive)
REMARK    1  A    between atoms: N1_1  and  C1_4 
REMARK    2  A    between atoms: N3_8  and  N4_10 
REMARK    3  A    between atoms: N4_10  and  C3_12 
REMARK    4  A    between atoms: C3_12  and  N5_14 
REMARK    5  A    between atoms: N5_14  and  C4_16 
REMARK    6  A    between atoms: C4_16  and  C5_17 
REMARK    7  A    between atoms: C5_17  and  O1_18 
REMARK    8  A    between atoms: O1_18  and  S2_19 
REMARK    9  A    between atoms: S2_19  and  N6_20 
REMARK   10  A    between atoms: C7_26  and  N7_27 
REMARK   11  A    between atoms: N7_27  and  N8_29 
REMARK   12  A    between atoms: C8_31  and  C9_32 
REMARK   13  A    between atoms: C9_32  and  C10_33 
ROOT
HETATM    1  C1  UNL     1      19.224  17.691  31.073  1.00  0.00     0.679 A 
HETATM    2  N2  UNL     1      19.993  16.628  31.367  1.00  0.00    -0.174 N 
ATOM      3  H2  UNL     1      19.790  16.094  32.213  1.00  0.00     0.186 HD
HETATM    4  C2  UNL     1      21.018  16.242  30.591  1.00  0.00     0.153 A 
HETATM    5  N3  UNL     1      21.764  15.205  30.879  1.00  0.00    -0.282 N 
ATOM      6  H3  UNL     1      22.539  14.926  30.276  1.00  0.00     0.188 HD
HETATM    7  C6  UNL     1      21.248  16.996  29.461  1.00  0.00     0.100 A 
HETATM    8  C7  UNL     1      22.297  16.645  28.614  1.00  0.00     0.138 A 
HETATM    9  N9  UNL     1      22.489  17.400  27.530  1.00  0.00    -0.337 N 
ATOM     10  H9  UNL     1      23.250  17.164  26.893  1.00  0.00     0.168 HD
HETATM   11  C12 UNL     1      21.711  18.461  27.249  1.00  0.00     0.183 A 
HETATM   12  N10 UNL     1      20.705  18.795  28.065  1.00  0.00    -0.337 N 
ATOM     13  H10 UNL     1      20.121  19.601  27.843  1.00  0.00     0.168 HD
HETATM   14  C13 UNL     1      20.457  18.083  29.167  1.00  0.00     0.139 A 
HETATM   15  N11 UNL     1      19.436  18.436  29.978  1.00  0.00    -0.176 N 
ATOM     16  H11 UNL     1      18.847  19.241  29.765  1.00  0.00     0.186 HD
ENDROOT
BRANCH   5  17
HETATM   17  N4  UNL     1      21.458  14.497  32.039  1.00  0.00    -0.275 N 
ATOM     18  H4  UNL     1      20.629  14.722  32.589  1.00  0.00     0.189 HD
BRANCH  17  19
HETATM   19  C3  UNL     1      22.353  13.435  32.440  1.00  0.00     0.186 C 
HETATM   20  S1  UNL     1      22.748  12.285  31.335  1.00  0.00    -0.040 SA
BRANCH  19  21
HETATM   21  N5  UNL     1      22.881  13.459  33.734  1.00  0.00    -0.364 N 
ATOM     22  H5  UNL     1      23.891  13.555  33.839  1.00  0.00     0.162 HD
BRANCH  21  23
HETATM   23  C4  UNL     1      22.091  13.359  34.914  1.00  0.00     0.149 C 
BRANCH  23  24
HETATM   24  C5  UNL     1      21.995  14.565  35.777  1.00  0.00     0.211 C 
BRANCH  24  25
HETATM   25  O1  UNL     1      20.961  15.431  35.542  1.00  0.00    -0.258 OA
BRANCH  25  26
HETATM   26  S2  UNL     1      21.462  16.856  34.846  1.00  0.00     0.355 S 
HETATM   27  O2  UNL     1      22.328  16.626  33.642  1.00  0.00    -0.176 OA
HETATM   28  O3  UNL     1      20.265  17.670  34.389  1.00  0.00    -0.176 OA
BRANCH  26  29
HETATM   29  N6  UNL     1      22.385  17.747  35.985  1.00  0.00    -0.306 N 
ATOM     30  H62 UNL     1      22.986  18.536  35.752  1.00  0.00     0.171 HD
ATOM     31  H61 UNL     1      22.232  17.360  36.917  1.00  0.00     0.171 HD
ENDBRANCH  26  29
ENDBRANCH  25  26
ENDBRANCH  24  25
ENDBRANCH  23  24
ENDBRANCH  21  23
ENDBRANCH  19  21
ENDBRANCH  17  19
ENDBRANCH   5  17
BRANCH   1  32
HETATM   32  N1  UNL     1      18.250  18.007  31.871  1.00  0.00    -0.234 N 
ATOM     33  H12 UNL     1      18.383  18.768  32.538  1.00  0.00     0.174 HD
ATOM     34  H11 UNL     1      17.373  17.489  31.816  1.00  0.00     0.174 HD
ENDBRANCH   1  32
BRANCH   8  35
HETATM   35  N7  UNL     1      22.999  15.643  28.924  1.00  0.00    -0.285 N 
ATOM     36  H7  UNL     1      22.526  14.950  29.505  1.00  0.00     0.188 HD
BRANCH  35  37
HETATM   37  N8  UNL     1      24.292  15.340  28.603  1.00  0.00    -0.314 N 
HETATM   38  C8  UNL     1      25.329  15.374  29.332  1.00  0.00     0.085 C 
ATOM     39  H8  UNL     1      24.446  15.045  27.640  1.00  0.00     0.185 HD
BRANCH  38  40
HETATM   40  C9  UNL     1      26.624  14.983  28.698  1.00  0.00     0.092 C 
BRANCH  40  41
HETATM   41  C10 UNL     1      27.390  16.153  28.194  1.00  0.00    -0.006 A 
HETATM   42  C11 UNL     1      27.444  17.215  27.426  1.00  0.00     0.065 A 
HETATM   43  S3  UNL     1      28.978  17.015  28.324  1.00  0.00    -0.105 SA
ENDBRANCH  40  41
ENDBRANCH  38  40
ENDBRANCH  35  37
ENDBRANCH   8  35
TORSDOF 13
ENDMDL
