MODEL 1
REMARK VINA RESULT: -4.978420075      0.000      0.000
REMARK  4 active torsions:
REMARK  status: ('A' for Active; 'I' for Inactive)
REMARK    1  A    between atoms: C2_2  and  C3_3 
REMARK    2  A    between atoms: C3_3  and  N1_4 
REMARK    3  A    between atoms: N1_4  and  C4_6 
REMARK    4  A    between atoms: C7_9  and  N2_10 
ROOT
HETATM    1  C4  UNL     1      48.449 -68.067  40.068  1.00  0.00     0.107 C 
HETATM    2  C5  UNL     1      48.373 -66.582  40.072  1.00  0.00     0.029 C 
HETATM    3  C6  UNL     1      48.515 -66.576  41.582  1.00  0.00     0.037 C 
HETATM    4  C7  UNL     1      48.815 -68.049  41.567  1.00  0.00     0.205 C 
ENDROOT
BRANCH   1   5
HETATM    5  N1  UNL     1      47.271 -68.833  39.907  1.00  0.00    -0.412 N 
ATOM      6  H1  UNL     1      46.670 -69.068  40.697  1.00  0.00     0.153 HD
BRANCH   5   7
HETATM    7  C3  UNL     1      46.969 -69.259  38.585  1.00  0.00     0.141 C 
BRANCH   7   8
HETATM    8  C2  UNL     1      46.169 -70.537  38.570  1.00  0.00    -0.018 C 
HETATM    9  C1  UNL     1      45.003 -70.596  37.954  1.00  0.00     0.008 C 
ENDBRANCH   7   8
ENDBRANCH   5   7
ENDBRANCH   1   5
BRANCH   4  10
HETATM   10  N2  UNL     1      50.182 -68.414  41.834  1.00  0.00    -0.073 N 
ATOM     11  H23 UNL     1      50.225 -69.266  42.393  1.00  0.00     0.274 HD
ATOM     12  H22 UNL     1      50.638 -68.746  40.984  1.00  0.00     0.274 HD
ATOM     13  H21 UNL     1      50.729 -67.670  42.269  1.00  0.00     0.274 HD
ENDBRANCH   4  10
TORSDOF 4
ENDMDL
MODEL 2
REMARK VINA RESULT: -4.339362671      1.386      1.741
REMARK  4 active torsions:
REMARK  status: ('A' for Active; 'I' for Inactive)
REMARK    1  A    between atoms: C2_2  and  C3_3 
REMARK    2  A    between atoms: C3_3  and  N1_4 
REMARK    3  A    between atoms: N1_4  and  C4_6 
REMARK    4  A    between atoms: C7_9  and  N2_10 
ROOT
HETATM    1  C4  UNL     1      48.316 -68.425  40.419  1.00  0.00     0.107 C 
HETATM    2  C5  UNL     1      49.500 -68.489  41.315  1.00  0.00     0.029 C 
HETATM    3  C6  UNL     1      49.398 -66.995  41.561  1.00  0.00     0.037 C 
HETATM    4  C7  UNL     1      48.079 -66.960  40.841  1.00  0.00     0.205 C 
ENDROOT
BRANCH   1   5
HETATM    5  N1  UNL     1      48.491 -68.460  39.015  1.00  0.00    -0.412 N 
ATOM      6  H1  UNL     1      49.388 -68.244  38.580  1.00  0.00     0.153 HD
BRANCH   5   7
HETATM    7  C3  UNL     1      47.351 -68.814  38.244  1.00  0.00     0.141 C 
BRANCH   7   8
HETATM    8  C2  UNL     1      46.575 -69.947  38.866  1.00  0.00    -0.018 C 
HETATM    9  C1  UNL     1      45.656 -70.595  38.175  1.00  0.00     0.008 C 
ENDBRANCH   7   8
ENDBRANCH   5   7
ENDBRANCH   1   5
BRANCH   4  10
HETATM   10  N2  UNL     1      46.916 -66.778  41.671  1.00  0.00    -0.073 N 
ATOM     11  H23 UNL     1      46.135 -66.416  41.123  1.00  0.00     0.274 HD
ATOM     12  H22 UNL     1      46.527 -67.678  41.948  1.00  0.00     0.274 HD
ATOM     13  H21 UNL     1      47.083 -66.191  42.489  1.00  0.00     0.274 HD
ENDBRANCH   4  10
TORSDOF 4
ENDMDL
MODEL 3
REMARK VINA RESULT: -4.201413610      1.506      1.914
REMARK  4 active torsions:
REMARK  status: ('A' for Active; 'I' for Inactive)
REMARK    1  A    between atoms: C2_2  and  C3_3 
REMARK    2  A    between atoms: C3_3  and  N1_4 
REMARK    3  A    between atoms: N1_4  and  C4_6 
REMARK    4  A    between atoms: C7_9  and  N2_10 
ROOT
HETATM    1  C4  UNL     1      47.765 -67.436  40.776  1.00  0.00     0.107 C 
HETATM    2  C5  UNL     1      48.526 -68.593  41.317  1.00  0.00     0.029 C 
HETATM    3  C6  UNL     1      49.711 -67.687  41.593  1.00  0.00     0.037 C 
HETATM    4  C7  UNL     1      48.877 -66.482  41.258  1.00  0.00     0.205 C 
ENDROOT
BRANCH   1   5
HETATM    5  N1  UNL     1      47.620 -67.279  39.377  1.00  0.00    -0.412 N 
ATOM      6  H1  UNL     1      47.247 -66.422  38.969  1.00  0.00     0.153 HD
BRANCH   5   7
HETATM    7  C3  UNL     1      48.020 -68.379  38.572  1.00  0.00     0.141 C 
BRANCH   7   8
HETATM    8  C2  UNL     1      46.840 -69.174  38.071  1.00  0.00    -0.018 C 
HETATM    9  C1  UNL     1      46.436 -70.257  38.708  1.00  0.00     0.008 C 
ENDBRANCH   7   8
ENDBRANCH   5   7
ENDBRANCH   1   5
BRANCH   4  10
HETATM   10  N2  UNL     1      48.489 -65.658  42.374  1.00  0.00    -0.073 N 
ATOM     11  H23 UNL     1      47.482 -65.496  42.370  1.00  0.00     0.274 HD
ATOM     12  H22 UNL     1      48.576 -66.173  43.249  1.00  0.00     0.274 HD
ATOM     13  H21 UNL     1      48.995 -64.773  42.426  1.00  0.00     0.274 HD
ENDBRANCH   4  10
TORSDOF 4
ENDMDL
MODEL 4
REMARK VINA RESULT: -4.076591638      1.803      4.128
REMARK  4 active torsions:
REMARK  status: ('A' for Active; 'I' for Inactive)
REMARK    1  A    between atoms: C2_2  and  C3_3 
REMARK    2  A    between atoms: C3_3  and  N1_4 
REMARK    3  A    between atoms: N1_4  and  C4_6 
REMARK    4  A    between atoms: C7_9  and  N2_10 
ROOT
HETATM    1  C4  UNL     1      47.107 -67.662  39.475  1.00  0.00     0.107 C 
HETATM    2  C5  UNL     1      48.053 -67.218  38.417  1.00  0.00     0.029 C 
HETATM    3  C6  UNL     1      48.424 -68.663  38.140  1.00  0.00     0.037 C 
HETATM    4  C7  UNL     1      47.316 -69.128  39.044  1.00  0.00     0.205 C 
ENDROOT
BRANCH   1   5
HETATM    5  N1  UNL     1      47.467 -67.543  40.839  1.00  0.00    -0.412 N 
ATOM      6  H1  UNL     1      46.990 -68.072  41.568  1.00  0.00     0.153 HD
BRANCH   5   7
HETATM    7  C3  UNL     1      48.529 -66.648  41.137  1.00  0.00     0.141 C 
BRANCH   7   8
HETATM    8  C2  UNL     1      49.702 -67.351  41.774  1.00  0.00    -0.018 C 
HETATM    9  C1  UNL     1      49.824 -68.663  41.697  1.00  0.00     0.008 C 
ENDBRANCH   7   8
ENDBRANCH   5   7
ENDBRANCH   1   5
BRANCH   4  10
HETATM   10  N2  UNL     1      46.172 -69.707  38.388  1.00  0.00    -0.073 N 
ATOM     11  H23 UNL     1      45.525 -70.100  39.072  1.00  0.00     0.274 HD
ATOM     12  H22 UNL     1      45.579 -68.980  37.991  1.00  0.00     0.274 HD
ATOM     13  H21 UNL     1      46.412 -70.402  37.680  1.00  0.00     0.274 HD
ENDBRANCH   4  10
TORSDOF 4
ENDMDL
MODEL 5
REMARK VINA RESULT: -3.658944731      1.594      4.312
REMARK  4 active torsions:
REMARK  status: ('A' for Active; 'I' for Inactive)
REMARK    1  A    between atoms: C2_2  and  C3_3 
REMARK    2  A    between atoms: C3_3  and  N1_4 
REMARK    3  A    between atoms: N1_4  and  C4_6 
REMARK    4  A    between atoms: C7_9  and  N2_10 
ROOT
HETATM    1  C4  UNL     1      47.832 -68.315  39.753  1.00  0.00     0.107 C 
HETATM    2  C5  UNL     1      47.924 -67.227  38.743  1.00  0.00     0.029 C 
HETATM    3  C6  UNL     1      47.887 -68.256  37.629  1.00  0.00     0.037 C 
HETATM    4  C7  UNL     1      47.571 -69.335  38.626  1.00  0.00     0.205 C 
ENDROOT
BRANCH   1   5
HETATM    5  N1  UNL     1      48.989 -68.720  40.461  1.00  0.00    -0.412 N 
ATOM      6  H1  UNL     1      49.661 -69.374  40.061  1.00  0.00     0.153 HD
BRANCH   5   7
HETATM    7  C3  UNL     1      49.162 -68.167  41.758  1.00  0.00     0.141 C 
BRANCH   7   8
HETATM    8  C2  UNL     1      49.315 -66.667  41.720  1.00  0.00    -0.018 C 
HETATM    9  C1  UNL     1      48.363 -65.880  42.184  1.00  0.00     0.008 C 
ENDBRANCH   7   8
ENDBRANCH   5   7
ENDBRANCH   1   5
BRANCH   4  10
HETATM   10  N2  UNL     1      46.222 -69.838  38.601  1.00  0.00    -0.073 N 
ATOM     11  H23 UNL     1      45.919 -70.105  39.537  1.00  0.00     0.274 HD
ATOM     12  H22 UNL     1      45.561 -69.083  38.417  1.00  0.00     0.274 HD
ATOM     13  H21 UNL     1      46.082 -70.607  37.945  1.00  0.00     0.274 HD
ENDBRANCH   4  10
TORSDOF 4
ENDMDL
