MODEL 1
REMARK VINA RESULT: -10.458795898      0.000      0.000
REMARK  4 active torsions:
REMARK  status: ('A' for Active; 'I' for Inactive)
REMARK    1  A    between atoms: C2_2  and  C3_3 
REMARK    2  A    between atoms: C4_6  and  C5_7 
REMARK    3  A    between atoms: C5_7  and  O1_8 
REMARK    4  A    between atoms: C5_7  and  C6_10 
ROOT
HETATM    1  C6  UNL     1      -4.384   3.182  14.567  1.00  0.00     0.028 C 
HETATM    2  C7  UNL     1      -4.078   2.198  13.422  1.00  0.00     0.086 C 
HETATM    3  C8  UNL     1      -3.058   2.914  12.557  1.00  0.00     0.136 C 
HETATM    4  O2  UNL     1      -2.279   2.356  11.823  1.00  0.00    -0.297 OA
HETATM    5  C9  UNL     1      -3.294   4.311  12.858  1.00  0.00     0.025 C 
HETATM    6  C10 UNL     1      -4.617   4.793  12.326  1.00  0.00     0.024 C 
HETATM    7  C11 UNL     1      -3.352   4.189  14.404  1.00  0.00     0.009 C 
HETATM    8  C12 UNL     1      -3.551   5.580  14.801  1.00  0.00     0.011 C 
HETATM    9  C13 UNL     1      -2.842   6.361  13.711  1.00  0.00    -0.004 C 
HETATM   10  C14 UNL     1      -2.209   5.283  12.802  1.00  0.00     0.006 C 
HETATM   11  C15 UNL     1      -1.890   5.946  11.529  1.00  0.00     0.007 C 
HETATM   12  C16 UNL     1      -0.791   6.973  11.848  1.00  0.00     0.011 C 
HETATM   13  C17 UNL     1      -1.174   7.911  12.936  1.00  0.00    -0.022 C 
HETATM   14  C18 UNL     1      -2.021   9.040  12.411  1.00  0.00     0.012 C 
HETATM   15  C19 UNL     1      -0.720   9.827  12.207  1.00  0.00     0.018 C 
HETATM   16  C20 UNL     1      -0.095   8.881  13.237  1.00  0.00     0.025 C 
HETATM   17  C21 UNL     1       1.309   8.434  12.837  1.00  0.00     0.024 C 
HETATM   18  C22 UNL     1      -0.100   9.394  14.609  1.00  0.00     0.136 C 
HETATM   19  O3  UNL     1       0.938   9.887  15.065  1.00  0.00    -0.297 OA
HETATM   20  C23 UNL     1      -1.296   9.338  15.454  1.00  0.00     0.079 C 
HETATM   21  C24 UNL     1      -2.231   8.220  15.151  1.00  0.00     0.013 C 
HETATM   22  C25 UNL     1      -1.728   7.217  14.173  1.00  0.00    -0.000 C 
ENDROOT
BRANCH   1  23
HETATM   23  C5  UNL     1      -4.311   2.361  15.834  1.00  0.00     0.145 C 
BRANCH  23  24
HETATM   24  C4  UNL     1      -5.512   1.477  16.028  1.00  0.00     0.145 C 
HETATM   25  C3  UNL     1      -5.711   1.179  17.516  1.00  0.00     0.118 C 
HETATM   26  N1  UNL     1      -6.155  -0.097  17.036  1.00  0.00    -0.141 NA
HETATM   27  N2  UNL     1      -5.280   0.070  15.943  1.00  0.00    -0.139 NA
BRANCH  25  28
HETATM   28  C2  UNL     1      -6.750   2.047  18.175  1.00  0.00     0.020 C 
HETATM   29  C1  UNL     1      -7.248   3.156  17.313  1.00  0.00     0.007 C 
ENDBRANCH  25  28
ENDBRANCH  23  24
BRANCH  23  30
HETATM   30  O1  UNL     1      -3.152   1.591  15.754  1.00  0.00    -0.393 OA
ATOM     31  H1  UNL     1      -3.369   0.667  15.791  1.00  0.00     0.210 HD
ENDBRANCH  23  30
ENDBRANCH   1  23
TORSDOF 4
ENDMDL
MODEL 2
REMARK VINA RESULT: -9.450547873      2.409      3.399
REMARK  4 active torsions:
REMARK  status: ('A' for Active; 'I' for Inactive)
REMARK    1  A    between atoms: C2_2  and  C3_3 
REMARK    2  A    between atoms: C4_6  and  C5_7 
REMARK    3  A    between atoms: C5_7  and  O1_8 
REMARK    4  A    between atoms: C5_7  and  C6_10 
ROOT
HETATM    1  C6  UNL     1      -4.227   3.110  13.458  1.00  0.00     0.028 C 
HETATM    2  C7  UNL     1      -4.373   1.645  13.005  1.00  0.00     0.086 C 
HETATM    3  C8  UNL     1      -3.344   1.475  11.904  1.00  0.00     0.136 C 
HETATM    4  O2  UNL     1      -2.863   0.415  11.582  1.00  0.00    -0.297 OA
HETATM    5  C9  UNL     1      -3.149   2.827  11.422  1.00  0.00     0.025 C 
HETATM    6  C10 UNL     1      -4.362   3.353  10.702  1.00  0.00     0.024 C 
HETATM    7  C11 UNL     1      -3.002   3.524  12.800  1.00  0.00     0.009 C 
HETATM    8  C12 UNL     1      -2.760   4.909  12.403  1.00  0.00     0.011 C 
HETATM    9  C13 UNL     1      -2.043   4.773  11.073  1.00  0.00    -0.004 C 
HETATM   10  C14 UNL     1      -1.868   3.249  10.875  1.00  0.00     0.006 C 
HETATM   11  C15 UNL     1      -1.581   3.046   9.446  1.00  0.00     0.007 C 
HETATM   12  C16 UNL     1      -0.213   3.698   9.189  1.00  0.00     0.011 C 
HETATM   13  C17 UNL     1      -0.161   5.121   9.617  1.00  0.00    -0.022 C 
HETATM   14  C18 UNL     1      -0.746   6.029   8.567  1.00  0.00     0.012 C 
HETATM   15  C19 UNL     1       0.670   6.162   7.993  1.00  0.00     0.018 C 
HETATM   16  C20 UNL     1       1.170   5.726   9.374  1.00  0.00     0.025 C 
HETATM   17  C21 UNL     1       2.326   4.732   9.284  1.00  0.00     0.024 C 
HETATM   18  C22 UNL     1       1.511   6.832  10.271  1.00  0.00     0.136 C 
HETATM   19  O3  UNL     1       2.700   7.142  10.410  1.00  0.00    -0.297 OA
HETATM   20  C23 UNL     1       0.487   7.580  11.005  1.00  0.00     0.079 C 
HETATM   21  C24 UNL     1      -0.746   6.812  11.326  1.00  0.00     0.013 C 
HETATM   22  C25 UNL     1      -0.684   5.355  11.027  1.00  0.00    -0.000 C 
ENDROOT
BRANCH   1  23
HETATM   23  C5  UNL     1      -4.183   3.064  14.967  1.00  0.00     0.145 C 
BRANCH  23  24
HETATM   24  C4  UNL     1      -4.758   1.793  15.531  1.00  0.00     0.145 C 
HETATM   25  C3  UNL     1      -5.318   2.046  16.933  1.00  0.00     0.118 C 
HETATM   26  N1  UNL     1      -4.855   0.712  17.182  1.00  0.00    -0.141 NA
HETATM   27  N2  UNL     1      -3.846   0.941  16.224  1.00  0.00    -0.139 NA
BRANCH  25  28
HETATM   28  C2  UNL     1      -6.808   2.256  16.963  1.00  0.00     0.020 C 
HETATM   29  C1  UNL     1      -7.600   0.996  16.880  1.00  0.00     0.007 C 
ENDBRANCH  25  28
ENDBRANCH  23  24
BRANCH  23  30
HETATM   30  O1  UNL     1      -2.847   3.195  15.340  1.00  0.00    -0.393 OA
ATOM     31  H1  UNL     1      -2.287   3.160  14.573  1.00  0.00     0.210 HD
ENDBRANCH  23  30
ENDBRANCH   1  23
TORSDOF 4
ENDMDL
MODEL 3
REMARK VINA RESULT: -9.355003486      2.613      3.635
REMARK  4 active torsions:
REMARK  status: ('A' for Active; 'I' for Inactive)
REMARK    1  A    between atoms: C2_2  and  C3_3 
REMARK    2  A    between atoms: C4_6  and  C5_7 
REMARK    3  A    between atoms: C5_7  and  O1_8 
REMARK    4  A    between atoms: C5_7  and  C6_10 
ROOT
HETATM    1  C6  UNL     1      -4.146   4.085  14.182  1.00  0.00     0.028 C 
HETATM    2  C7  UNL     1      -5.234   3.207  13.533  1.00  0.00     0.086 C 
HETATM    3  C8  UNL     1      -4.796   3.053  12.088  1.00  0.00     0.136 C 
HETATM    4  O2  UNL     1      -5.129   2.140  11.372  1.00  0.00    -0.297 OA
HETATM    5  C9  UNL     1      -3.955   4.213  11.873  1.00  0.00     0.025 C 
HETATM    6  C10 UNL     1      -4.743   5.495  11.874  1.00  0.00     0.024 C 
HETATM    7  C11 UNL     1      -3.108   4.105  13.169  1.00  0.00     0.009 C 
HETATM    8  C12 UNL     1      -2.192   5.232  13.014  1.00  0.00     0.011 C 
HETATM    9  C13 UNL     1      -2.028   5.348  11.511  1.00  0.00    -0.004 C 
HETATM   10  C14 UNL     1      -2.842   4.167  10.934  1.00  0.00     0.006 C 
HETATM   11  C15 UNL     1      -3.072   4.474   9.514  1.00  0.00     0.007 C 
HETATM   12  C16 UNL     1      -1.690   4.443   8.842  1.00  0.00     0.011 C 
HETATM   13  C17 UNL     1      -0.706   5.343   9.501  1.00  0.00    -0.022 C 
HETATM   14  C18 UNL     1      -0.861   6.763   9.026  1.00  0.00     0.012 C 
HETATM   15  C19 UNL     1       0.177   6.440   7.944  1.00  0.00     0.018 C 
HETATM   16  C20 UNL     1       0.622   5.287   8.847  1.00  0.00     0.025 C 
HETATM   17  C21 UNL     1       0.903   4.009   8.060  1.00  0.00     0.024 C 
HETATM   18  C22 UNL     1       1.749   5.607   9.726  1.00  0.00     0.136 C 
HETATM   19  O3  UNL     1       2.882   5.228   9.405  1.00  0.00    -0.297 OA
HETATM   20  C23 UNL     1       1.574   6.360  10.970  1.00  0.00     0.079 C 
HETATM   21  C24 UNL     1       0.241   6.211  11.615  1.00  0.00     0.013 C 
HETATM   22  C25 UNL     1      -0.645   5.177  11.013  1.00  0.00    -0.000 C 
ENDROOT
BRANCH   1  23
HETATM   23  C5  UNL     1      -3.792   3.394  15.478  1.00  0.00     0.145 C 
BRANCH  23  24
HETATM   24  C4  UNL     1      -4.452   2.050  15.625  1.00  0.00     0.145 C 
HETATM   25  C3  UNL     1      -5.193   1.972  16.962  1.00  0.00     0.118 C 
HETATM   26  N1  UNL     1      -4.782   0.598  16.925  1.00  0.00    -0.141 NA
HETATM   27  N2  UNL     1      -3.651   1.012  16.192  1.00  0.00    -0.139 NA
BRANCH  25  28
HETATM   28  C2  UNL     1      -6.671   2.235  16.854  1.00  0.00     0.020 C 
HETATM   29  C1  UNL     1      -7.510   1.004  16.892  1.00  0.00     0.007 C 
ENDBRANCH  25  28
ENDBRANCH  23  24
BRANCH  23  30
HETATM   30  O1  UNL     1      -2.405   3.254  15.498  1.00  0.00    -0.393 OA
ATOM     31  H1  UNL     1      -2.107   3.062  16.379  1.00  0.00     0.210 HD
ENDBRANCH  23  30
ENDBRANCH   1  23
TORSDOF 4
ENDMDL
MODEL 4
REMARK VINA RESULT: -9.259195573      2.197      3.217
REMARK  4 active torsions:
REMARK  status: ('A' for Active; 'I' for Inactive)
REMARK    1  A    between atoms: C2_2  and  C3_3 
REMARK    2  A    between atoms: C4_6  and  C5_7 
REMARK    3  A    between atoms: C5_7  and  O1_8 
REMARK    4  A    between atoms: C5_7  and  C6_10 
ROOT
HETATM    1  C6  UNL     1      -4.562   1.282  13.601  1.00  0.00     0.028 C 
HETATM    2  C7  UNL     1      -4.487  -0.002  12.753  1.00  0.00     0.086 C 
HETATM    3  C8  UNL     1      -3.425   0.285  11.708  1.00  0.00     0.136 C 
HETATM    4  O2  UNL     1      -2.791  -0.567  11.133  1.00  0.00    -0.297 OA
HETATM    5  C9  UNL     1      -3.420   1.731  11.631  1.00  0.00     0.025 C 
HETATM    6  C10 UNL     1      -4.683   2.272  11.016  1.00  0.00     0.024 C 
HETATM    7  C11 UNL     1      -3.399   2.025  13.154  1.00  0.00     0.009 C 
HETATM    8  C12 UNL     1      -3.353   3.485  13.170  1.00  0.00     0.011 C 
HETATM    9  C13 UNL     1      -2.601   3.827  11.897  1.00  0.00    -0.004 C 
HETATM   10  C14 UNL     1      -2.204   2.459  11.296  1.00  0.00     0.006 C 
HETATM   11  C15 UNL     1      -1.866   2.707   9.886  1.00  0.00     0.007 C 
HETATM   12  C16 UNL     1      -0.603   3.582   9.898  1.00  0.00     0.011 C 
HETATM   13  C17 UNL     1      -0.765   4.821  10.705  1.00  0.00    -0.022 C 
HETATM   14  C18 UNL     1      -1.457   5.900   9.915  1.00  0.00     0.012 C 
HETATM   15  C19 UNL     1      -0.065   6.378   9.483  1.00  0.00     0.018 C 
HETATM   16  C20 UNL     1       0.469   5.642  10.715  1.00  0.00     0.025 C 
HETATM   17  C21 UNL     1       1.758   4.877  10.420  1.00  0.00     0.024 C 
HETATM   18  C22 UNL     1       0.631   6.486  11.901  1.00  0.00     0.136 C 
HETATM   19  O3  UNL     1       1.760   6.900  12.188  1.00  0.00    -0.297 OA
HETATM   20  C23 UNL     1      -0.503   6.851  12.753  1.00  0.00     0.079 C 
HETATM   21  C24 UNL     1      -1.617   5.866  12.778  1.00  0.00     0.013 C 
HETATM   22  C25 UNL     1      -1.340   4.575  12.092  1.00  0.00    -0.000 C 
ENDROOT
BRANCH   1  23
HETATM   23  C5  UNL     1      -4.538   0.818  15.038  1.00  0.00     0.145 C 
BRANCH  23  24
HETATM   24  C4  UNL     1      -5.718   1.308  15.831  1.00  0.00     0.145 C 
HETATM   25  C3  UNL     1      -5.600   2.815  16.075  1.00  0.00     0.118 C 
HETATM   26  N1  UNL     1      -6.218   2.496  17.330  1.00  0.00    -0.141 NA
HETATM   27  N2  UNL     1      -5.599   1.231  17.253  1.00  0.00    -0.139 NA
BRANCH  25  28
HETATM   28  C2  UNL     1      -6.410   3.650  15.121  1.00  0.00     0.020 C 
HETATM   29  C1  UNL     1      -6.027   5.090  15.100  1.00  0.00     0.007 C 
ENDBRANCH  25  28
ENDBRANCH  23  24
BRANCH  23  30
HETATM   30  O1  UNL     1      -4.517  -0.575  15.016  1.00  0.00    -0.393 OA
ATOM     31  H1  UNL     1      -4.140  -0.885  14.201  1.00  0.00     0.210 HD
ENDBRANCH  23  30
ENDBRANCH   1  23
TORSDOF 4
ENDMDL
MODEL 5
REMARK VINA RESULT: -8.785689532      4.301      8.351
REMARK  4 active torsions:
REMARK  status: ('A' for Active; 'I' for Inactive)
REMARK    1  A    between atoms: C2_2  and  C3_3 
REMARK    2  A    between atoms: C4_6  and  C5_7 
REMARK    3  A    between atoms: C5_7  and  O1_8 
REMARK    4  A    between atoms: C5_7  and  C6_10 
ROOT
HETATM    1  C6  UNL     1       0.412   4.565  10.006  1.00  0.00     0.028 C 
HETATM    2  C7  UNL     1       0.969   5.828  10.690  1.00  0.00     0.086 C 
HETATM    3  C8  UNL     1       0.184   5.946  11.983  1.00  0.00     0.136 C 
HETATM    4  O2  UNL     1       0.577   6.532  12.964  1.00  0.00    -0.297 OA
HETATM    5  C9  UNL     1      -1.036   5.220  11.697  1.00  0.00     0.025 C 
HETATM    6  C10 UNL     1      -1.897   5.933  10.689  1.00  0.00     0.024 C 
HETATM    7  C11 UNL     1      -0.391   3.964  11.055  1.00  0.00     0.009 C 
HETATM    8  C12 UNL     1      -1.566   3.147  10.766  1.00  0.00     0.011 C 
HETATM    9  C13 UNL     1      -2.543   3.537  11.859  1.00  0.00    -0.004 C 
HETATM   10  C14 UNL     1      -1.759   4.525  12.753  1.00  0.00     0.006 C 
HETATM   11  C15 UNL     1      -2.760   5.249  13.551  1.00  0.00     0.007 C 
HETATM   12  C16 UNL     1      -3.400   4.204  14.480  1.00  0.00     0.011 C 
HETATM   13  C17 UNL     1      -3.947   3.034  13.745  1.00  0.00    -0.022 C 
HETATM   14  C18 UNL     1      -5.319   3.326  13.196  1.00  0.00     0.012 C 
HETATM   15  C19 UNL     1      -5.886   2.756  14.503  1.00  0.00     0.018 C 
HETATM   16  C20 UNL     1      -4.545   2.034  14.661  1.00  0.00     0.025 C 
HETATM   17  C21 UNL     1      -4.028   2.080  16.097  1.00  0.00     0.024 C 
HETATM   18  C22 UNL     1      -4.535   0.659  14.155  1.00  0.00     0.136 C 
HETATM   19  O3  UNL     1      -4.647  -0.273  14.959  1.00  0.00    -0.297 OA
HETATM   20  C23 UNL     1      -4.397   0.359  12.727  1.00  0.00     0.079 C 
HETATM   21  C24 UNL     1      -3.640   1.370  11.940  1.00  0.00     0.013 C 
HETATM   22  C25 UNL     1      -2.973   2.432  12.743  1.00  0.00    -0.000 C 
ENDROOT
BRANCH   1  23
HETATM   23  C5  UNL     1       1.624   3.776   9.568  1.00  0.00     0.145 C 
BRANCH  23  24
HETATM   24  C4  UNL     1       2.214   4.277   8.279  1.00  0.00     0.145 C 
HETATM   25  C3  UNL     1       1.308   3.899   7.104  1.00  0.00     0.118 C 
HETATM   26  N1  UNL     1       2.550   3.758   6.401  1.00  0.00    -0.141 NA
HETATM   27  N2  UNL     1       3.144   3.408   7.631  1.00  0.00    -0.139 NA
BRANCH  25  28
HETATM   28  C2  UNL     1       0.403   5.014   6.652  1.00  0.00     0.020 C 
HETATM   29  C1  UNL     1      -1.031   4.811   7.002  1.00  0.00     0.007 C 
ENDBRANCH  25  28
ENDBRANCH  23  24
BRANCH  23  30
HETATM   30  O1  UNL     1       2.562   3.868  10.596  1.00  0.00    -0.393 OA
ATOM     31  H1  UNL     1       2.426   3.171  11.227  1.00  0.00     0.210 HD
ENDBRANCH  23  30
ENDBRANCH   1  23
TORSDOF 4
ENDMDL
