MODEL 1
REMARK VINA RESULT: -6.908371654      0.000      0.000
REMARK  6 active torsions:
REMARK  status: ('A' for Active; 'I' for Inactive)
REMARK    1  A    between atoms: C2_2  and  O2_4 
REMARK    2  A    between atoms: O2_4  and  C3_5 
REMARK    3  A    between atoms: C7_9  and  O3_10 
REMARK    4  A    between atoms: C12_19  and  C13_20 
REMARK    5  A    between atoms: C13_20  and  C14_21 
REMARK    6  A    between atoms: C22_29  and  O5_30 
ROOT
HETATM    1  C3  UNL     1      -3.896   4.685  10.946  1.00  0.00     0.143 C 
HETATM    2  C4  UNL     1      -3.038   4.936   9.691  1.00  0.00     0.039 C 
HETATM    3  C5  UNL     1      -1.645   4.999  10.145  1.00  0.00     0.005 C 
HETATM    4  C6  UNL     1      -1.167   3.633  10.596  1.00  0.00     0.024 C 
HETATM    5  C7  UNL     1      -0.153   3.869  11.670  1.00  0.00     0.123 C 
HETATM    6  C8  UNL     1       1.008   4.567  10.934  1.00  0.00     0.038 C 
HETATM    7  C9  UNL     1       0.597   5.776  10.220  1.00  0.00     0.007 C 
HETATM    8  C10 UNL     1       1.778   6.415   9.537  1.00  0.00     0.108 C 
HETATM    9  C11 UNL     1       2.120   5.533   8.385  1.00  0.00     0.218 C 
HETATM   10  O4  UNL     1       3.204   5.683   7.804  1.00  0.00    -0.274 OA
HETATM   11  N1  UNL     1       1.179   4.569   8.022  1.00  0.00    -0.356 N 
ATOM     12  H1  UNL     1       1.487   3.632   7.764  1.00  0.00     0.162 HD
HETATM   13  C12 UNL     1      -0.276   4.903   8.011  1.00  0.00     0.093 C 
HETATM   14  C17 UNL     1      -0.611   5.642   9.269  1.00  0.00    -0.015 C 
HETATM   15  C18 UNL     1      -1.034   7.080   9.062  1.00  0.00     0.018 C 
HETATM   16  C19 UNL     1      -2.286   2.771  10.853  1.00  0.00     0.006 C 
HETATM   17  C20 UNL     1      -2.144   1.542  11.674  1.00  0.00     0.009 C 
HETATM   18  C21 UNL     1      -3.602   1.054  11.717  1.00  0.00     0.033 C 
HETATM   19  C22 UNL     1      -4.467   2.237  11.282  1.00  0.00     0.129 C 
HETATM   20  C23 UNL     1      -3.492   3.400  11.545  1.00  0.00     0.013 C 
HETATM   21  C24 UNL     1      -3.362   3.463  13.036  1.00  0.00     0.021 C 
ENDROOT
BRANCH   1  22
HETATM   22  O2  UNL     1      -5.254   4.839  10.692  1.00  0.00    -0.315 OA
BRANCH  22  23
HETATM   23  C2  UNL     1      -5.836   6.090  10.399  1.00  0.00     0.255 C 
HETATM   24  C1  UNL     1      -5.407   7.338  11.051  1.00  0.00     0.126 C 
HETATM   25  O1  UNL     1      -6.755   6.063   9.538  1.00  0.00    -0.266 OA
ENDBRANCH  22  23
ENDBRANCH   1  22
BRANCH  19  26
HETATM   26  O5  UNL     1      -4.710   2.086   9.925  1.00  0.00    -0.395 OA
ATOM     27  H5  UNL     1      -4.516   2.919   9.513  1.00  0.00     0.210 HD
ENDBRANCH  19  26
BRANCH   5  28
HETATM   28  O3  UNL     1       0.340   2.715  12.230  1.00  0.00    -0.395 OA
ATOM     29  H3  UNL     1       1.178   2.827  12.664  1.00  0.00     0.210 HD
ENDBRANCH   5  28
BRANCH  13  30
HETATM   30  C13 UNL     1      -0.440   5.619   6.715  1.00  0.00     0.029 C 
BRANCH  30  31
HETATM   31  C14 UNL     1      -1.479   5.145   5.763  1.00  0.00    -0.021 C 
HETATM   32  C15 UNL     1      -2.717   6.049   6.056  1.00  0.00     0.009 C 
HETATM   33  C16 UNL     1      -1.050   5.518   4.319  1.00  0.00     0.009 C 
ENDBRANCH  30  31
ENDBRANCH  13  30
TORSDOF 6
ENDMDL
MODEL 2
REMARK VINA RESULT: -6.798616164      2.711      6.561
REMARK  6 active torsions:
REMARK  status: ('A' for Active; 'I' for Inactive)
REMARK    1  A    between atoms: C2_2  and  O2_4 
REMARK    2  A    between atoms: O2_4  and  C3_5 
REMARK    3  A    between atoms: C7_9  and  O3_10 
REMARK    4  A    between atoms: C12_19  and  C13_20 
REMARK    5  A    between atoms: C13_20  and  C14_21 
REMARK    6  A    between atoms: C22_29  and  O5_30 
ROOT
HETATM    1  C3  UNL     1      -2.359   5.456   8.721  1.00  0.00     0.143 C 
HETATM    2  C4  UNL     1      -2.711   4.287   9.660  1.00  0.00     0.039 C 
HETATM    3  C5  UNL     1      -3.244   4.885  10.888  1.00  0.00     0.005 C 
HETATM    4  C6  UNL     1      -4.598   5.515  10.632  1.00  0.00     0.024 C 
HETATM    5  C7  UNL     1      -4.718   6.669  11.577  1.00  0.00     0.123 C 
HETATM    6  C8  UNL     1      -4.750   6.005  12.969  1.00  0.00     0.038 C 
HETATM    7  C9  UNL     1      -3.600   5.138  13.222  1.00  0.00     0.007 C 
HETATM    8  C10 UNL     1      -3.685   4.533  14.600  1.00  0.00     0.108 C 
HETATM    9  C11 UNL     1      -4.774   3.516  14.541  1.00  0.00     0.218 C 
HETATM   10  O4  UNL     1      -5.227   3.049  15.595  1.00  0.00    -0.274 OA
HETATM   11  N1  UNL     1      -5.227   3.144  13.275  1.00  0.00    -0.356 N 
ATOM     12  H1  UNL     1      -6.225   3.012  13.112  1.00  0.00     0.162 HD
HETATM   13  C12 UNL     1      -4.258   2.937  12.159  1.00  0.00     0.093 C 
HETATM   14  C17 UNL     1      -3.284   4.074  12.149  1.00  0.00    -0.015 C 
HETATM   15  C18 UNL     1      -1.858   3.684  12.475  1.00  0.00     0.018 C 
HETATM   16  C19 UNL     1      -4.795   5.727   9.226  1.00  0.00     0.006 C 
HETATM   17  C20 UNL     1      -5.823   6.672   8.721  1.00  0.00     0.009 C 
HETATM   18  C21 UNL     1      -5.564   6.597   7.207  1.00  0.00     0.033 C 
HETATM   19  C22 UNL     1      -4.186   5.957   7.035  1.00  0.00     0.129 C 
HETATM   20  C23 UNL     1      -3.588   6.215   8.430  1.00  0.00     0.013 C 
HETATM   21  C24 UNL     1      -3.389   7.699   8.495  1.00  0.00     0.021 C 
ENDROOT
BRANCH   1  22
HETATM   22  O2  UNL     1      -1.625   5.037   7.616  1.00  0.00    -0.315 OA
BRANCH  22  23
HETATM   23  C2  UNL     1      -0.288   4.602   7.711  1.00  0.00     0.255 C 
HETATM   24  C1  UNL     1       0.749   5.369   8.422  1.00  0.00     0.126 C 
HETATM   25  O1  UNL     1      -0.041   3.506   7.140  1.00  0.00    -0.266 OA
ENDBRANCH  22  23
ENDBRANCH   1  22
BRANCH  19  26
HETATM   26  O5  UNL     1      -4.391   4.602   6.822  1.00  0.00    -0.395 OA
ATOM     27  H5  UNL     1      -3.535   4.193   6.790  1.00  0.00     0.210 HD
ENDBRANCH  19  26
BRANCH   5  28
HETATM   28  O3  UNL     1      -5.880   7.388  11.430  1.00  0.00    -0.395 OA
ATOM     29  H3  UNL     1      -6.524   7.218  12.108  1.00  0.00     0.210 HD
ENDBRANCH   5  28
BRANCH  13  30
HETATM   30  C13 UNL     1      -3.734   1.570  12.425  1.00  0.00     0.029 C 
BRANCH  30  31
HETATM   31  C14 UNL     1      -3.669   0.597  11.301  1.00  0.00    -0.021 C 
HETATM   32  C15 UNL     1      -2.145   0.467  10.987  1.00  0.00     0.009 C 
HETATM   33  C16 UNL     1      -4.086  -0.805  11.821  1.00  0.00     0.009 C 
ENDBRANCH  30  31
ENDBRANCH  13  30
TORSDOF 6
ENDMDL
MODEL 3
REMARK VINA RESULT: -6.779137221      2.573      3.561
REMARK  6 active torsions:
REMARK  status: ('A' for Active; 'I' for Inactive)
REMARK    1  A    between atoms: C2_2  and  O2_4 
REMARK    2  A    between atoms: O2_4  and  C3_5 
REMARK    3  A    between atoms: C7_9  and  O3_10 
REMARK    4  A    between atoms: C12_19  and  C13_20 
REMARK    5  A    between atoms: C13_20  and  C14_21 
REMARK    6  A    between atoms: C22_29  and  O5_30 
ROOT
HETATM    1  C3  UNL     1      -4.581   3.193  13.167  1.00  0.00     0.143 C 
HETATM    2  C4  UNL     1      -4.271   4.453  12.337  1.00  0.00     0.039 C 
HETATM    3  C5  UNL     1      -2.813   4.508  12.193  1.00  0.00     0.005 C 
HETATM    4  C6  UNL     1      -2.322   3.395  11.288  1.00  0.00     0.024 C 
HETATM    5  C7  UNL     1      -0.949   3.036  11.760  1.00  0.00     0.123 C 
HETATM    6  C8  UNL     1      -0.115   4.299  11.466  1.00  0.00     0.038 C 
HETATM    7  C9  UNL     1      -0.663   5.509  12.078  1.00  0.00     0.007 C 
HETATM    8  C10 UNL     1       0.204   6.701  11.765  1.00  0.00     0.108 C 
HETATM    9  C11 UNL     1      -0.020   7.011  10.324  1.00  0.00     0.218 C 
HETATM   10  O4  UNL     1       0.755   7.782   9.740  1.00  0.00    -0.274 OA
HETATM   11  N1  UNL     1      -1.111   6.401   9.705  1.00  0.00    -0.356 N 
ATOM     12  H1  UNL     1      -1.018   6.034   8.759  1.00  0.00     0.162 HD
HETATM   13  C12 UNL     1      -2.415   6.282  10.423  1.00  0.00     0.093 C 
HETATM   14  C17 UNL     1      -2.156   5.803  11.818  1.00  0.00    -0.015 C 
HETATM   15  C18 UNL     1      -2.493   6.805  12.901  1.00  0.00     0.018 C 
HETATM   16  C19 UNL     1      -3.321   2.371  11.167  1.00  0.00     0.006 C 
HETATM   17  C20 UNL     1      -2.979   1.008  10.690  1.00  0.00     0.009 C 
HETATM   18  C21 UNL     1      -4.339   0.303  10.830  1.00  0.00     0.033 C 
HETATM   19  C22 UNL     1      -5.193   1.190  11.736  1.00  0.00     0.129 C 
HETATM   20  C23 UNL     1      -4.093   2.011  12.433  1.00  0.00     0.013 C 
HETATM   21  C24 UNL     1      -3.378   1.030  13.311  1.00  0.00     0.021 C 
ENDROOT
BRANCH   1  22
HETATM   22  O2  UNL     1      -5.909   3.149  13.578  1.00  0.00    -0.315 OA
BRANCH  22  23
HETATM   23  C2  UNL     1      -6.318   3.526  14.873  1.00  0.00     0.255 C 
HETATM   24  C1  UNL     1      -6.318   4.926  15.330  1.00  0.00     0.126 C 
HETATM   25  O1  UNL     1      -6.684   2.576  15.615  1.00  0.00    -0.266 OA
ENDBRANCH  22  23
ENDBRANCH   1  22
BRANCH  19  26
HETATM   26  O5  UNL     1      -5.966   1.991  10.909  1.00  0.00    -0.395 OA
ATOM     27  H5  UNL     1      -6.851   1.649  10.938  1.00  0.00     0.210 HD
ENDBRANCH  19  26
BRANCH   5  28
HETATM   28  O3  UNL     1      -0.382   1.991  11.071  1.00  0.00    -0.395 OA
ATOM     29  H3  UNL     1       0.296   2.258  10.461  1.00  0.00     0.210 HD
ENDBRANCH   5  28
BRANCH  13  30
HETATM   30  C13 UNL     1      -3.012   7.635  10.248  1.00  0.00     0.029 C 
BRANCH  30  31
HETATM   31  C14 UNL     1      -4.379   7.744   9.673  1.00  0.00    -0.021 C 
HETATM   32  C15 UNL     1      -4.637   6.351   9.015  1.00  0.00     0.009 C 
HETATM   33  C16 UNL     1      -5.410   7.832  10.831  1.00  0.00     0.009 C 
ENDBRANCH  30  31
ENDBRANCH  13  30
TORSDOF 6
ENDMDL
MODEL 4
REMARK VINA RESULT: -6.776390446      2.672      6.616
REMARK  6 active torsions:
REMARK  status: ('A' for Active; 'I' for Inactive)
REMARK    1  A    between atoms: C2_2  and  O2_4 
REMARK    2  A    between atoms: O2_4  and  C3_5 
REMARK    3  A    between atoms: C7_9  and  O3_10 
REMARK    4  A    between atoms: C12_19  and  C13_20 
REMARK    5  A    between atoms: C13_20  and  C14_21 
REMARK    6  A    between atoms: C22_29  and  O5_30 
ROOT
HETATM    1  C3  UNL     1      -3.503   5.000   9.284  1.00  0.00     0.143 C 
HETATM    2  C4  UNL     1      -4.166   4.577  10.609  1.00  0.00     0.039 C 
HETATM    3  C5  UNL     1      -3.707   3.213  10.887  1.00  0.00     0.005 C 
HETATM    4  C6  UNL     1      -2.234   3.206  11.245  1.00  0.00     0.024 C 
HETATM    5  C7  UNL     1      -1.689   1.893  10.783  1.00  0.00     0.123 C 
HETATM    6  C8  UNL     1      -2.406   0.860  11.675  1.00  0.00     0.038 C 
HETATM    7  C9  UNL     1      -3.864   0.959  11.616  1.00  0.00     0.007 C 
HETATM    8  C10 UNL     1      -4.502  -0.084  12.497  1.00  0.00     0.108 C 
HETATM    9  C11 UNL     1      -4.265   0.357  13.902  1.00  0.00     0.218 C 
HETATM   10  O4  UNL     1      -4.460  -0.441  14.831  1.00  0.00    -0.274 OA
HETATM   11  N1  UNL     1      -3.827   1.668  14.091  1.00  0.00    -0.356 N 
ATOM     12  H1  UNL     1      -3.105   1.867  14.782  1.00  0.00     0.162 HD
HETATM   13  C12 UNL     1      -4.413   2.780  13.286  1.00  0.00     0.093 C 
HETATM   14  C17 UNL     1      -4.474   2.357  11.851  1.00  0.00    -0.015 C 
HETATM   15  C18 UNL     1      -5.875   2.208  11.298  1.00  0.00     0.018 C 
HETATM   16  C19 UNL     1      -1.609   4.425  10.815  1.00  0.00     0.006 C 
HETATM   17  C20 UNL     1      -0.135   4.529  10.667  1.00  0.00     0.009 C 
HETATM   18  C21 UNL     1      -0.001   5.958  10.114  1.00  0.00     0.033 C 
HETATM   19  C22 UNL     1      -1.391   6.363   9.624  1.00  0.00     0.129 C 
HETATM   20  C23 UNL     1      -2.039   4.976   9.459  1.00  0.00     0.013 C 
HETATM   21  C24 UNL     1      -1.321   4.351   8.303  1.00  0.00     0.021 C 
ENDROOT
BRANCH   1  22
HETATM   22  O2  UNL     1      -4.038   6.183   8.784  1.00  0.00    -0.315 OA
BRANCH  22  23
HETATM   23  C2  UNL     1      -4.593   6.280   7.492  1.00  0.00     0.255 C 
HETATM   24  C1  UNL     1      -3.786   6.593   6.301  1.00  0.00     0.126 C 
HETATM   25  O1  UNL     1      -5.836   6.081   7.429  1.00  0.00    -0.266 OA
ENDBRANCH  22  23
ENDBRANCH   1  22
BRANCH  19  26
HETATM   26  O5  UNL     1      -1.992   7.077  10.650  1.00  0.00    -0.395 OA
ATOM     27  H5  UNL     1      -2.883   7.259  10.377  1.00  0.00     0.210 HD
ENDBRANCH  19  26
BRANCH   5  28
HETATM   28  O3  UNL     1      -0.336   1.752  10.985  1.00  0.00    -0.395 OA
ATOM     29  H3  UNL     1       0.070   1.108  10.418  1.00  0.00     0.210 HD
ENDBRANCH   5  28
BRANCH  13  30
HETATM   30  C13 UNL     1      -5.696   3.057  13.989  1.00  0.00     0.029 C 
BRANCH  30  31
HETATM   31  C14 UNL     1      -5.651   3.661  15.347  1.00  0.00    -0.021 C 
HETATM   32  C15 UNL     1      -6.258   5.087  15.159  1.00  0.00     0.009 C 
HETATM   33  C16 UNL     1      -6.661   2.919  16.264  1.00  0.00     0.009 C 
ENDBRANCH  30  31
ENDBRANCH  13  30
TORSDOF 6
ENDMDL
MODEL 5
REMARK VINA RESULT: -6.761943242      2.785      6.481
REMARK  6 active torsions:
REMARK  status: ('A' for Active; 'I' for Inactive)
REMARK    1  A    between atoms: C2_2  and  O2_4 
REMARK    2  A    between atoms: O2_4  and  C3_5 
REMARK    3  A    between atoms: C7_9  and  O3_10 
REMARK    4  A    between atoms: C12_19  and  C13_20 
REMARK    5  A    between atoms: C13_20  and  C14_21 
REMARK    6  A    between atoms: C22_29  and  O5_30 
ROOT
HETATM    1  C3  UNL     1      -3.689   5.520   9.938  1.00  0.00     0.143 C 
HETATM    2  C4  UNL     1      -4.371   4.891  11.168  1.00  0.00     0.039 C 
HETATM    3  C5  UNL     1      -3.818   3.541  11.307  1.00  0.00     0.005 C 
HETATM    4  C6  UNL     1      -2.366   3.598  11.736  1.00  0.00     0.024 C 
HETATM    5  C7  UNL     1      -1.699   2.394  11.151  1.00  0.00     0.123 C 
HETATM    6  C8  UNL     1      -2.370   1.211  11.877  1.00  0.00     0.038 C 
HETATM    7  C9  UNL     1      -3.828   1.209  11.756  1.00  0.00     0.007 C 
HETATM    8  C10 UNL     1      -4.418   0.022  12.474  1.00  0.00     0.108 C 
HETATM    9  C11 UNL     1      -4.276   0.306  13.931  1.00  0.00     0.218 C 
HETATM   10  O4  UNL     1      -4.446  -0.611  14.748  1.00  0.00    -0.274 OA
HETATM   11  N1  UNL     1      -3.951   1.612  14.295  1.00  0.00    -0.356 N 
ATOM     12  H1  UNL     1      -3.276   1.778  15.041  1.00  0.00     0.162 HD
HETATM   13  C12 UNL     1      -4.588   2.769  13.598  1.00  0.00     0.093 C 
HETATM   14  C17 UNL     1      -4.555   2.520  12.122  1.00  0.00    -0.015 C 
HETATM   15  C18 UNL     1      -5.915   2.336  11.484  1.00  0.00     0.018 C 
HETATM   16  C19 UNL     1      -1.821   4.903  11.486  1.00  0.00     0.006 C 
HETATM   17  C20 UNL     1      -0.355   5.132  11.427  1.00  0.00     0.009 C 
HETATM   18  C21 UNL     1      -0.311   6.623  11.054  1.00  0.00     0.033 C 
HETATM   19  C22 UNL     1      -1.707   6.982  10.545  1.00  0.00     0.129 C 
HETATM   20  C23 UNL     1      -2.236   5.582  10.185  1.00  0.00     0.013 C 
HETATM   21  C24 UNL     1      -1.423   5.156   9.001  1.00  0.00     0.021 C 
ENDROOT
BRANCH   1  22
HETATM   22  O2  UNL     1      -4.294   6.712   9.555  1.00  0.00    -0.315 OA
BRANCH  22  23
HETATM   23  C2  UNL     1      -5.676   6.944   9.702  1.00  0.00     0.255 C 
HETATM   24  C1  UNL     1      -6.220   7.939  10.642  1.00  0.00     0.126 C 
HETATM   25  O1  UNL     1      -6.417   6.237   8.968  1.00  0.00    -0.266 OA
ENDBRANCH  22  23
ENDBRANCH   1  22
BRANCH  19  26
HETATM   26  O5  UNL     1      -2.405   7.520  11.616  1.00  0.00    -0.395 OA
ATOM     27  H5  UNL     1      -3.328   7.376  11.447  1.00  0.00     0.210 HD
ENDBRANCH  19  26
BRANCH   5  28
HETATM   28  O3  UNL     1      -0.350   2.329  11.404  1.00  0.00    -0.395 OA
ATOM     29  H3  UNL     1       0.088   3.171  11.367  1.00  0.00     0.210 HD
ENDBRANCH   5  28
BRANCH  13  30
HETATM   30  C13 UNL     1      -5.917   2.863  14.262  1.00  0.00     0.029 C 
BRANCH  30  31
HETATM   31  C14 UNL     1      -6.361   4.182  14.788  1.00  0.00    -0.021 C 
HETATM   32  C15 UNL     1      -6.630   3.925  16.305  1.00  0.00     0.009 C 
HETATM   33  C16 UNL     1      -5.162   5.168  14.761  1.00  0.00     0.009 C 
ENDBRANCH  30  31
ENDBRANCH  13  30
TORSDOF 6
ENDMDL
