MODEL 1
REMARK VINA RESULT: -6.637632105      0.000      0.000
REMARK  6 active torsions:
REMARK  status: ('A' for Active; 'I' for Inactive)
REMARK    1  A    between atoms: C4_4  and  O1_5 
REMARK    2  A    between atoms: C14_16  and  C15_17 
REMARK    3  A    between atoms: C15_17  and  N1_18 
REMARK    4  A    between atoms: C22_29  and  O3_30 
REMARK    5  A    between atoms: C24_33  and  C25_34 
REMARK    6  A    between atoms: C25_34  and  O4_35 
ROOT
HETATM    1  C1  UNL     1      -7.669   7.798   7.695  1.00  0.00     0.018 C 
HETATM    2  C2  UNL     1      -6.601   8.878   7.881  1.00  0.00    -0.017 C 
HETATM    3  C3  UNL     1      -6.386   9.461   6.489  1.00  0.00     0.018 C 
HETATM    4  C4  UNL     1      -7.146   9.881   8.844  1.00  0.00     0.127 C 
HETATM    5  C5  UNL     1      -6.242   9.931  10.047  1.00  0.00     0.042 C 
HETATM    6  C6  UNL     1      -4.987   9.142   9.676  1.00  0.00    -0.033 C 
HETATM    7  C7  UNL     1      -4.094  10.269   9.106  1.00  0.00     0.016 C 
HETATM    8  C8  UNL     1      -5.330   8.307   8.477  1.00  0.00     0.004 C 
HETATM    9  C9  UNL     1      -5.391   6.842   8.671  1.00  0.00     0.007 C 
HETATM   10  C10 UNL     1      -4.407   6.326   9.703  1.00  0.00     0.011 C 
HETATM   11  C11 UNL     1      -4.568   7.013  11.030  1.00  0.00    -0.030 C 
HETATM   12  C12 UNL     1      -6.009   6.863  11.420  1.00  0.00     0.016 C 
HETATM   13  C13 UNL     1      -4.303   8.497  10.805  1.00  0.00     0.009 C 
HETATM   14  C14 UNL     1      -2.828   8.561  10.859  1.00  0.00     0.017 C 
HETATM   15  C16 UNL     1      -2.401   7.396  11.755  1.00  0.00     0.018 C 
HETATM   16  C17 UNL     1      -3.580   6.534  12.000  1.00  0.00    -0.015 C 
HETATM   17  C18 UNL     1      -3.211   5.061  11.876  1.00  0.00     0.009 C 
HETATM   18  C19 UNL     1      -4.441   4.352  12.476  1.00  0.00     0.084 C 
HETATM   19  C20 UNL     1      -4.935   5.299  13.454  1.00  0.00     0.134 C 
HETATM   20  O2  UNL     1      -5.906   5.163  14.191  1.00  0.00    -0.297 OA
HETATM   21  C21 UNL     1      -4.055   6.505  13.429  1.00  0.00     0.093 C 
HETATM   22  C22 UNL     1      -2.986   6.246  14.437  1.00  0.00     0.130 C 
HETATM   23  C23 UNL     1      -1.841   5.433  13.982  1.00  0.00     0.039 C 
HETATM   24  C24 UNL     1      -2.062   4.637  12.729  1.00  0.00     0.017 C 
ENDROOT
BRANCH  14  25
HETATM   25  C15 UNL     1      -2.157   9.772  11.368  1.00  0.00     0.234 C 
BRANCH  25  26
HETATM   26  N1  UNL     1      -1.850   9.753  12.785  1.00  0.00    -0.079 N 
ATOM     27  H13 UNL     1      -2.685   9.521  13.323  1.00  0.00     0.274 HD
ATOM     28  H12 UNL     1      -1.264   8.947  13.008  1.00  0.00     0.274 HD
ATOM     29  H11 UNL     1      -1.424  10.607  13.146  1.00  0.00     0.274 HD
ENDBRANCH  25  26
ENDBRANCH  14  25
BRANCH  24  30
HETATM   30  C25 UNL     1      -0.791   4.274  12.003  1.00  0.00     0.169 C 
BRANCH  30  31
HETATM   31  O4  UNL     1      -0.735   2.885  11.838  1.00  0.00    -0.400 OA
ATOM     32  H4  UNL     1       0.146   2.636  11.583  1.00  0.00     0.209 HD
ENDBRANCH  30  31
ENDBRANCH  24  30
BRANCH  22  33
HETATM   33  O3  UNL     1      -2.575   7.452  15.000  1.00  0.00    -0.395 OA
ATOM     34  H3  UNL     1      -3.333   7.923  15.329  1.00  0.00     0.210 HD
ENDBRANCH  22  33
BRANCH   4  35
HETATM   35  O1  UNL     1      -7.323  11.115   8.230  1.00  0.00    -0.395 OA
ATOM     36  H1  UNL     1      -8.173  11.166   7.808  1.00  0.00     0.210 HD
ENDBRANCH   4  35
TORSDOF 6
ENDMDL
MODEL 2
REMARK VINA RESULT: -6.476468826      4.707     10.079
REMARK  6 active torsions:
REMARK  status: ('A' for Active; 'I' for Inactive)
REMARK    1  A    between atoms: C4_4  and  O1_5 
REMARK    2  A    between atoms: C14_16  and  C15_17 
REMARK    3  A    between atoms: C15_17  and  N1_18 
REMARK    4  A    between atoms: C22_29  and  O3_30 
REMARK    5  A    between atoms: C24_33  and  C25_34 
REMARK    6  A    between atoms: C25_34  and  O4_35 
ROOT
HETATM    1  C1  UNL     1      -7.794   6.895   7.953  1.00  0.00     0.018 C 
HETATM    2  C2  UNL     1      -7.281   8.154   8.655  1.00  0.00    -0.017 C 
HETATM    3  C3  UNL     1      -7.140   7.757  10.119  1.00  0.00     0.018 C 
HETATM    4  C4  UNL     1      -5.973   8.510   8.029  1.00  0.00     0.127 C 
HETATM    5  C5  UNL     1      -6.090   9.882   7.422  1.00  0.00     0.042 C 
HETATM    6  C6  UNL     1      -7.406  10.468   7.931  1.00  0.00    -0.033 C 
HETATM    7  C7  UNL     1      -6.925  11.202   9.204  1.00  0.00     0.016 C 
HETATM    8  C8  UNL     1      -8.223   9.324   8.456  1.00  0.00     0.004 C 
HETATM    9  C9  UNL     1      -9.442   8.962   7.700  1.00  0.00     0.007 C 
HETATM   10  C10 UNL     1     -10.122  10.149   7.045  1.00  0.00     0.011 C 
HETATM   11  C11 UNL     1      -9.189  10.915   6.152  1.00  0.00    -0.030 C 
HETATM   12  C12 UNL     1      -8.609   9.924   5.185  1.00  0.00     0.016 C 
HETATM   13  C13 UNL     1      -8.050  11.429   7.025  1.00  0.00     0.009 C 
HETATM   14  C14 UNL     1      -8.632  12.657   7.604  1.00  0.00     0.017 C 
HETATM   15  C16 UNL     1      -9.663  13.141   6.582  1.00  0.00     0.018 C 
HETATM   16  C17 UNL     1      -9.852  12.082   5.565  1.00  0.00    -0.015 C 
HETATM   17  C18 UNL     1     -11.329  11.894   5.242  1.00  0.00     0.009 C 
HETATM   18  C19 UNL     1     -11.290  11.025   3.970  1.00  0.00     0.084 C 
HETATM   19  C20 UNL     1     -10.051  11.414   3.331  1.00  0.00     0.134 C 
HETATM   20  O2  UNL     1      -9.597  10.987   2.275  1.00  0.00    -0.297 OA
HETATM   21  C21 UNL     1      -9.386  12.447   4.180  1.00  0.00     0.093 C 
HETATM   22  C22 UNL     1      -9.885  13.762   3.681  1.00  0.00     0.130 C 
HETATM   23  C23 UNL     1     -11.190  14.208   4.205  1.00  0.00     0.039 C 
HETATM   24  C24 UNL     1     -12.037  13.145   4.839  1.00  0.00     0.017 C 
ENDROOT
BRANCH  14  25
HETATM   25  C15 UNL     1      -7.765  13.806   7.929  1.00  0.00     0.234 C 
BRANCH  25  26
HETATM   26  N1  UNL     1      -7.569  14.751   6.846  1.00  0.00    -0.079 N 
ATOM     27  H13 UNL     1      -7.524  14.259   5.953  1.00  0.00     0.274 HD
ATOM     28  H12 UNL     1      -8.415  15.303   6.702  1.00  0.00     0.274 HD
ATOM     29  H11 UNL     1      -6.761  15.365   6.951  1.00  0.00     0.274 HD
ENDBRANCH  25  26
ENDBRANCH  14  25
BRANCH  24  30
HETATM   30  C25 UNL     1     -13.058  13.676   5.814  1.00  0.00     0.169 C 
BRANCH  30  31
HETATM   31  O4  UNL     1     -13.073  12.866   6.955  1.00  0.00    -0.400 OA
ATOM     32  H4  UNL     1     -12.200  12.836   7.329  1.00  0.00     0.209 HD
ENDBRANCH  30  31
ENDBRANCH  24  30
BRANCH  22  33
HETATM   33  O3  UNL     1      -8.897  14.730   3.853  1.00  0.00    -0.395 OA
ATOM     34  H3  UNL     1      -9.219  15.412   4.430  1.00  0.00     0.210 HD
ENDBRANCH  22  33
BRANCH   4  35
HETATM   35  O1  UNL     1      -4.935   8.394   8.946  1.00  0.00    -0.395 OA
ATOM     36  H1  UNL     1      -4.248   9.025   8.763  1.00  0.00     0.210 HD
ENDBRANCH   4  35
TORSDOF 6
ENDMDL
MODEL 3
REMARK VINA RESULT: -6.331096276      2.447      4.632
REMARK  6 active torsions:
REMARK  status: ('A' for Active; 'I' for Inactive)
REMARK    1  A    between atoms: C4_4  and  O1_5 
REMARK    2  A    between atoms: C14_16  and  C15_17 
REMARK    3  A    between atoms: C15_17  and  N1_18 
REMARK    4  A    between atoms: C22_29  and  O3_30 
REMARK    5  A    between atoms: C24_33  and  C25_34 
REMARK    6  A    between atoms: C25_34  and  O4_35 
ROOT
HETATM    1  C1  UNL     1      -0.246  10.663  11.607  1.00  0.00     0.018 C 
HETATM    2  C2  UNL     1      -1.669  10.762  11.053  1.00  0.00    -0.017 C 
HETATM    3  C3  UNL     1      -2.080  12.211  11.284  1.00  0.00     0.018 C 
HETATM    4  C4  UNL     1      -1.608  10.408   9.604  1.00  0.00     0.127 C 
HETATM    5  C5  UNL     1      -2.473   9.199   9.369  1.00  0.00     0.042 C 
HETATM    6  C6  UNL     1      -3.281   8.991  10.649  1.00  0.00    -0.033 C 
HETATM    7  C7  UNL     1      -4.550   9.815  10.330  1.00  0.00     0.016 C 
HETATM    8  C8  UNL     1      -2.600   9.777  11.732  1.00  0.00     0.004 C 
HETATM    9  C9  UNL     1      -1.939   9.008  12.809  1.00  0.00     0.007 C 
HETATM   10  C10 UNL     1      -2.640   7.704  13.139  1.00  0.00     0.011 C 
HETATM   11  C11 UNL     1      -2.804   6.829  11.929  1.00  0.00    -0.030 C 
HETATM   12  C12 UNL     1      -1.438   6.663  11.330  1.00  0.00     0.016 C 
HETATM   13  C13 UNL     1      -3.657   7.599  10.928  1.00  0.00     0.009 C 
HETATM   14  C14 UNL     1      -5.026   7.326  11.410  1.00  0.00     0.017 C 
HETATM   15  C16 UNL     1      -4.948   5.970  12.116  1.00  0.00     0.018 C 
HETATM   16  C17 UNL     1      -3.523   5.595  12.259  1.00  0.00    -0.015 C 
HETATM   17  C18 UNL     1      -3.244   5.034  13.647  1.00  0.00     0.009 C 
HETATM   18  C19 UNL     1      -1.843   4.413  13.487  1.00  0.00     0.084 C 
HETATM   19  C20 UNL     1      -1.805   4.014  12.096  1.00  0.00     0.134 C 
HETATM   20  O2  UNL     1      -0.880   3.463  11.508  1.00  0.00    -0.297 OA
HETATM   21  C21 UNL     1      -3.105   4.385  11.464  1.00  0.00     0.093 C 
HETATM   22  C22 UNL     1      -3.990   3.195  11.628  1.00  0.00     0.130 C 
HETATM   23  C23 UNL     1      -4.685   3.071  12.924  1.00  0.00     0.039 C 
HETATM   24  C24 UNL     1      -4.130   3.900  14.045  1.00  0.00     0.017 C 
ENDROOT
BRANCH  14  25
HETATM   25  C15 UNL     1      -6.149   7.258  10.456  1.00  0.00     0.234 C 
BRANCH  25  26
HETATM   26  N1  UNL     1      -5.793   6.812   9.122  1.00  0.00    -0.079 N 
ATOM     27  H13 UNL     1      -4.786   6.660   9.059  1.00  0.00     0.274 HD
ATOM     28  H12 UNL     1      -6.127   5.861   8.967  1.00  0.00     0.274 HD
ATOM     29  H11 UNL     1      -6.105   7.423   8.366  1.00  0.00     0.274 HD
ENDBRANCH  25  26
ENDBRANCH  14  25
BRANCH  24  30
HETATM   30  C25 UNL     1      -5.121   4.184  15.146  1.00  0.00     0.169 C 
BRANCH  30  31
HETATM   31  O4  UNL     1      -6.418   3.977  14.663  1.00  0.00    -0.400 OA
ATOM     32  H4  UNL     1      -6.823   4.818  14.484  1.00  0.00     0.209 HD
ENDBRANCH  30  31
ENDBRANCH  24  30
BRANCH  22  33
HETATM   33  O3  UNL     1      -4.875   3.120  10.555  1.00  0.00    -0.395 OA
ATOM     34  H3  UNL     1      -5.056   2.209  10.355  1.00  0.00     0.210 HD
ENDBRANCH  22  33
BRANCH   4  35
HETATM   35  O1  UNL     1      -1.947  11.497   8.811  1.00  0.00    -0.395 OA
ATOM     36  H1  UNL     1      -2.263  11.214   7.960  1.00  0.00     0.210 HD
ENDBRANCH   4  35
TORSDOF 6
ENDMDL
MODEL 4
REMARK VINA RESULT: -6.281630736      2.245      3.479
REMARK  6 active torsions:
REMARK  status: ('A' for Active; 'I' for Inactive)
REMARK    1  A    between atoms: C4_4  and  O1_5 
REMARK    2  A    between atoms: C14_16  and  C15_17 
REMARK    3  A    between atoms: C15_17  and  N1_18 
REMARK    4  A    between atoms: C22_29  and  O3_30 
REMARK    5  A    between atoms: C24_33  and  C25_34 
REMARK    6  A    between atoms: C25_34  and  O4_35 
ROOT
HETATM    1  C1  UNL     1      -2.698   6.928   5.347  1.00  0.00     0.018 C 
HETATM    2  C2  UNL     1      -3.812   7.822   5.896  1.00  0.00    -0.017 C 
HETATM    3  C3  UNL     1      -3.733   9.100   5.068  1.00  0.00     0.018 C 
HETATM    4  C4  UNL     1      -5.102   7.094   5.704  1.00  0.00     0.127 C 
HETATM    5  C5  UNL     1      -5.731   6.872   7.052  1.00  0.00     0.042 C 
HETATM    6  C6  UNL     1      -4.939   7.721   8.044  1.00  0.00    -0.033 C 
HETATM    7  C7  UNL     1      -5.750   9.037   8.014  1.00  0.00     0.016 C 
HETATM    8  C8  UNL     1      -3.641   8.078   7.380  1.00  0.00     0.004 C 
HETATM    9  C9  UNL     1      -2.411   7.469   7.931  1.00  0.00     0.007 C 
HETATM   10  C10 UNL     1      -2.465   7.250   9.431  1.00  0.00     0.011 C 
HETATM   11  C11 UNL     1      -3.655   6.429   9.840  1.00  0.00    -0.030 C 
HETATM   12  C12 UNL     1      -3.605   5.166   9.032  1.00  0.00     0.016 C 
HETATM   13  C13 UNL     1      -4.900   7.200   9.417  1.00  0.00     0.009 C 
HETATM   14  C14 UNL     1      -5.071   8.151  10.533  1.00  0.00     0.017 C 
HETATM   15  C16 UNL     1      -4.450   7.467  11.753  1.00  0.00     0.018 C 
HETATM   16  C17 UNL     1      -3.714   6.267  11.295  1.00  0.00    -0.015 C 
HETATM   17  C18 UNL     1      -2.363   6.159  11.991  1.00  0.00     0.009 C 
HETATM   18  C19 UNL     1      -1.918   4.724  11.647  1.00  0.00     0.084 C 
HETATM   19  C20 UNL     1      -3.167   4.003  11.520  1.00  0.00     0.134 C 
HETATM   20  O2  UNL     1      -3.312   2.813  11.258  1.00  0.00    -0.297 OA
HETATM   21  C21 UNL     1      -4.289   4.956  11.765  1.00  0.00     0.093 C 
HETATM   22  C22 UNL     1      -4.568   4.886  13.229  1.00  0.00     0.130 C 
HETATM   23  C23 UNL     1      -3.709   5.714  14.098  1.00  0.00     0.039 C 
HETATM   24  C24 UNL     1      -2.430   6.199  13.481  1.00  0.00     0.017 C 
ENDROOT
BRANCH  14  25
HETATM   25  C15 UNL     1      -6.421   8.600  10.924  1.00  0.00     0.234 C 
BRANCH  25  26
HETATM   26  N1  UNL     1      -7.209   7.618  11.645  1.00  0.00    -0.079 N 
ATOM     27  H13 UNL     1      -6.650   7.195  12.387  1.00  0.00     0.274 HD
ATOM     28  H12 UNL     1      -7.926   8.081  12.204  1.00  0.00     0.274 HD
ATOM     29  H11 UNL     1      -7.629   6.892  11.064  1.00  0.00     0.274 HD
ENDBRANCH  25  26
ENDBRANCH  14  25
BRANCH  24  30
HETATM   30  C25 UNL     1      -1.862   7.431  14.141  1.00  0.00     0.169 C 
BRANCH  30  31
HETATM   31  O4  UNL     1      -2.732   7.858  15.150  1.00  0.00    -0.400 OA
ATOM     32  H4  UNL     1      -2.942   8.775  15.015  1.00  0.00     0.209 HD
ENDBRANCH  30  31
ENDBRANCH  24  30
BRANCH  22  33
HETATM   33  O3  UNL     1      -5.921   5.124  13.458  1.00  0.00    -0.395 OA
ATOM     34  H3  UNL     1      -6.424   4.355  13.215  1.00  0.00     0.210 HD
ENDBRANCH  22  33
BRANCH   4  35
HETATM   35  O1  UNL     1      -5.925   7.768   4.809  1.00  0.00    -0.395 OA
ATOM     36  H1  UNL     1      -6.506   7.164   4.361  1.00  0.00     0.210 HD
ENDBRANCH   4  35
TORSDOF 6
ENDMDL
MODEL 5
REMARK VINA RESULT: -6.263940998      2.344      6.630
REMARK  6 active torsions:
REMARK  status: ('A' for Active; 'I' for Inactive)
REMARK    1  A    between atoms: C4_4  and  O1_5 
REMARK    2  A    between atoms: C14_16  and  C15_17 
REMARK    3  A    between atoms: C15_17  and  N1_18 
REMARK    4  A    between atoms: C22_29  and  O3_30 
REMARK    5  A    between atoms: C24_33  and  C25_34 
REMARK    6  A    between atoms: C25_34  and  O4_35 
ROOT
HETATM    1  C1  UNL     1      -1.073   6.358  13.627  1.00  0.00     0.018 C 
HETATM    2  C2  UNL     1      -0.812   5.736  12.253  1.00  0.00    -0.017 C 
HETATM    3  C3  UNL     1       0.706   5.732  12.107  1.00  0.00     0.018 C 
HETATM    4  C4  UNL     1      -1.390   4.360  12.271  1.00  0.00     0.127 C 
HETATM    5  C5  UNL     1      -2.449   4.272  11.205  1.00  0.00     0.042 C 
HETATM    6  C6  UNL     1      -2.312   5.533  10.355  1.00  0.00    -0.033 C 
HETATM    7  C7  UNL     1      -1.336   5.041   9.260  1.00  0.00     0.016 C 
HETATM    8  C8  UNL     1      -1.501   6.515  11.150  1.00  0.00     0.004 C 
HETATM    9  C9  UNL     1      -2.198   7.722  11.645  1.00  0.00     0.007 C 
HETATM   10  C10 UNL     1      -3.292   8.212  10.716  1.00  0.00     0.011 C 
HETATM   11  C11 UNL     1      -4.301   7.140  10.415  1.00  0.00    -0.030 C 
HETATM   12  C12 UNL     1      -4.795   6.630  11.737  1.00  0.00     0.016 C 
HETATM   13  C13 UNL     1      -3.556   6.000   9.729  1.00  0.00     0.009 C 
HETATM   14  C14 UNL     1      -3.507   6.460   8.327  1.00  0.00     0.017 C 
HETATM   15  C16 UNL     1      -4.730   7.362   8.148  1.00  0.00     0.018 C 
HETATM   16  C17 UNL     1      -5.323   7.619   9.480  1.00  0.00    -0.015 C 
HETATM   17  C18 UNL     1      -5.704   9.086   9.633  1.00  0.00     0.009 C 
HETATM   18  C19 UNL     1      -6.578   9.080  10.901  1.00  0.00     0.084 C 
HETATM   19  C20 UNL     1      -7.187   7.766  10.887  1.00  0.00     0.134 C 
HETATM   20  O2  UNL     1      -7.976   7.307  11.706  1.00  0.00    -0.297 OA
HETATM   21  C21 UNL     1      -6.695   7.032   9.684  1.00  0.00     0.093 C 
HETATM   22  C22 UNL     1      -7.671   7.334   8.597  1.00  0.00     0.130 C 
HETATM   23  C23 UNL     1      -7.469   8.603   7.872  1.00  0.00     0.039 C 
HETATM   24  C24 UNL     1      -6.589   9.611   8.551  1.00  0.00     0.017 C 
ENDROOT
BRANCH  14  25
HETATM   25  C15 UNL     1      -3.522   5.480   7.224  1.00  0.00     0.234 C 
BRANCH  25  26
HETATM   26  N1  UNL     1      -4.767   5.413   6.482  1.00  0.00    -0.079 N 
ATOM     27  H13 UNL     1      -5.341   6.231   6.684  1.00  0.00     0.274 HD
ATOM     28  H12 UNL     1      -4.592   5.558   5.487  1.00  0.00     0.274 HD
ATOM     29  H11 UNL     1      -5.307   4.559   6.623  1.00  0.00     0.274 HD
ENDBRANCH  25  26
ENDBRANCH  14  25
BRANCH  24  30
HETATM   30  C25 UNL     1      -5.969  10.614   7.611  1.00  0.00     0.169 C 
BRANCH  30  31
HETATM   31  O4  UNL     1      -4.698  10.964   8.081  1.00  0.00    -0.400 OA
ATOM     32  H4  UNL     1      -4.041  10.646   7.473  1.00  0.00     0.209 HD
ENDBRANCH  30  31
ENDBRANCH  24  30
BRANCH  22  33
HETATM   33  O3  UNL     1      -7.754   6.247   7.730  1.00  0.00    -0.395 OA
ATOM     34  H3  UNL     1      -6.924   6.137   7.279  1.00  0.00     0.210 HD
ENDBRANCH  22  33
BRANCH   4  35
HETATM   35  O1  UNL     1      -0.393   3.400  12.146  1.00  0.00    -0.395 OA
ATOM     36  H1  UNL     1      -0.766   2.529  12.079  1.00  0.00     0.210 HD
ENDBRANCH   4  35
TORSDOF 6
ENDMDL
