MODEL 1
REMARK VINA RESULT: -7.678863424      0.000      0.000
REMARK  6 active torsions:
REMARK  status: ('A' for Active; 'I' for Inactive)
REMARK       I    between atoms: N1_2  and  C2_4 
REMARK       I    between atoms: C2_4  and  N2_6 
REMARK       I    between atoms: N2_6  and  C3_8 
REMARK    1  A    between atoms: C3_8  and  C4_10 
REMARK    2  A    between atoms: C4_10  and  C5_12 
REMARK       I    between atoms: C5_12  and  N3_14 
REMARK    3  A    between atoms: N3_14  and  N4_16 
REMARK    4  A    between atoms: N4_16  and  C6_18 
REMARK    5  A    between atoms: C6_18  and  O5_19 
REMARK    6  A    between atoms: C6_18  and  C7_21 
ROOT
HETATM    1  C5  UNL     1       4.039 -30.694  -4.140  1.00  0.00     0.315 C 
HETATM    2  O4  UNL     1       2.788 -30.952  -4.244  1.00  0.00    -0.262 OA
HETATM    3  N3  UNL     1       4.585 -29.767  -5.065  1.00  0.00    -0.265 N 
ATOM      4  H3  UNL     1       5.578 -29.536  -5.007  1.00  0.00     0.190 HD
ENDROOT
BRANCH   3   5
HETATM    5  N4  UNL     1       3.812 -29.166  -6.045  1.00  0.00    -0.299 N 
ATOM      6  H4  UNL     1       3.006 -28.587  -5.813  1.00  0.00     0.183 HD
BRANCH   5   7
HETATM    7  C6  UNL     1       4.204 -29.401  -7.390  1.00  0.00     0.284 C 
BRANCH   7   8
HETATM    8  O5  UNL     1       5.075 -30.485  -7.439  1.00  0.00    -0.370 OA
ATOM      9  H5  UNL     1       5.912 -30.204  -7.788  1.00  0.00     0.212 HD
ENDBRANCH   7   8
BRANCH   7  10
HETATM   10  C7  UNL     1       3.160 -29.554  -8.397  1.00  0.00     0.068 A 
HETATM   11  C8  UNL     1       3.528 -30.268  -9.558  1.00  0.00     0.104 A 
HETATM   12  C9  UNL     1       2.661 -30.487 -10.593  1.00  0.00     0.251 A 
HETATM   13  O6  UNL     1       3.070 -31.143 -11.616  1.00  0.00    -0.268 OA
HETATM   14  N5  UNL     1       1.421 -30.008 -10.505  1.00  0.00    -0.275 N 
HETATM   15  C10 UNL     1       1.043 -29.320  -9.409  1.00  0.00     0.327 A 
ATOM     16  H5  UNL     1       0.760 -30.162 -11.266  1.00  0.00     0.173 HD
HETATM   17  O7  UNL     1      -0.128 -28.890  -9.371  1.00  0.00    -0.247 OA
HETATM   18  N6  UNL     1       1.909 -29.105  -8.379  1.00  0.00    -0.308 N 
ATOM     19  H6  UNL     1       1.587 -28.581  -7.565  1.00  0.00     0.170 HD
ENDBRANCH   7  10
ENDBRANCH   5   7
ENDBRANCH   3   5
BRANCH   1  20
HETATM   20  C4  UNL     1       4.822 -31.334  -3.112  1.00  0.00     0.308 C 
HETATM   21  O3  UNL     1       5.244 -30.678  -2.138  1.00  0.00    -0.276 OA
BRANCH  20  22
HETATM   22  C3  UNL     1       5.124 -32.782  -3.210  1.00  0.00     0.305 C 
HETATM   23  N2  UNL     1       4.232 -33.629  -3.858  1.00  0.00    -0.272 N 
HETATM   24  C2  UNL     1       4.324 -35.004  -4.077  1.00  0.00     0.322 C 
ATOM     25  H2  UNL     1       3.392 -33.183  -4.226  1.00  0.00     0.174 HD
HETATM   26  N1  UNL     1       5.406 -35.785  -3.624  1.00  0.00    -0.347 N 
HETATM   27  O1  UNL     1       3.390 -35.598  -4.719  1.00  0.00    -0.247 OA
HETATM   28  C1  UNL     1       5.383 -37.238  -3.925  1.00  0.00     0.151 C 
ATOM     29  H1  UNL     1       6.179 -35.366  -3.107  1.00  0.00     0.163 HD
HETATM   30  O2  UNL     1       6.194 -33.212  -2.701  1.00  0.00    -0.263 OA
ENDBRANCH  20  22
ENDBRANCH   1  20
TORSDOF 6
ENDMDL
MODEL 2
REMARK VINA RESULT: -7.508640414      5.212      9.988
REMARK  6 active torsions:
REMARK  status: ('A' for Active; 'I' for Inactive)
REMARK       I    between atoms: N1_2  and  C2_4 
REMARK       I    between atoms: C2_4  and  N2_6 
REMARK       I    between atoms: N2_6  and  C3_8 
REMARK    1  A    between atoms: C3_8  and  C4_10 
REMARK    2  A    between atoms: C4_10  and  C5_12 
REMARK       I    between atoms: C5_12  and  N3_14 
REMARK    3  A    between atoms: N3_14  and  N4_16 
REMARK    4  A    between atoms: N4_16  and  C6_18 
REMARK    5  A    between atoms: C6_18  and  O5_19 
REMARK    6  A    between atoms: C6_18  and  C7_21 
ROOT
HETATM    1  C5  UNL     1       4.819 -31.556 -14.475  1.00  0.00     0.315 C 
HETATM    2  O4  UNL     1       5.612 -32.441 -13.994  1.00  0.00    -0.262 OA
HETATM    3  N3  UNL     1       3.661 -31.246 -13.716  1.00  0.00    -0.265 N 
ATOM      4  H3  UNL     1       3.011 -30.543 -14.069  1.00  0.00     0.190 HD
ENDROOT
BRANCH   3   5
HETATM    5  N4  UNL     1       3.386 -31.870 -12.510  1.00  0.00    -0.299 N 
ATOM      6  H4  UNL     1       2.830 -32.723 -12.462  1.00  0.00     0.183 HD
BRANCH   5   7
HETATM    7  C6  UNL     1       3.921 -31.256 -11.345  1.00  0.00     0.284 C 
BRANCH   7   8
HETATM    8  O5  UNL     1       4.818 -30.259 -11.715  1.00  0.00    -0.370 OA
ATOM      9  H5  UNL     1       5.494 -30.179 -11.053  1.00  0.00     0.212 HD
ENDBRANCH   7   8
BRANCH   7  10
HETATM   10  C7  UNL     1       2.990 -30.744 -10.346  1.00  0.00     0.068 A 
HETATM   11  C8  UNL     1       3.304 -31.048  -9.003  1.00  0.00     0.104 A 
HETATM   12  C9  UNL     1       2.524 -30.646  -7.955  1.00  0.00     0.251 A 
HETATM   13  O6  UNL     1       2.874 -30.962  -6.763  1.00  0.00    -0.268 OA
HETATM   14  N5  UNL     1       1.423 -29.939  -8.208  1.00  0.00    -0.275 N 
HETATM   15  C10 UNL     1       1.097 -29.637  -9.481  1.00  0.00     0.327 A 
ATOM     16  H5  UNL     1       0.829 -29.628  -7.440  1.00  0.00     0.173 HD
HETATM   17  O7  UNL     1       0.056 -28.974  -9.669  1.00  0.00    -0.247 OA
HETATM   18  N6  UNL     1       1.878 -30.039 -10.523  1.00  0.00    -0.308 N 
ATOM     19  H6  UNL     1       1.599 -29.791 -11.472  1.00  0.00     0.170 HD
ENDBRANCH   7  10
ENDBRANCH   5   7
ENDBRANCH   3   5
BRANCH   1  20
HETATM   20  C4  UNL     1       5.128 -30.922 -15.734  1.00  0.00     0.308 C 
HETATM   21  O3  UNL     1       5.693 -29.811 -15.760  1.00  0.00    -0.276 OA
BRANCH  20  22
HETATM   22  C3  UNL     1       4.775 -31.599 -17.005  1.00  0.00     0.305 C 
HETATM   23  N2  UNL     1       4.580 -32.975 -17.022  1.00  0.00    -0.272 N 
HETATM   24  C2  UNL     1       4.232 -33.802 -18.090  1.00  0.00     0.322 C 
ATOM     25  H2  UNL     1       4.709 -33.447 -16.127  1.00  0.00     0.174 HD
HETATM   26  N1  UNL     1       4.030 -33.324 -19.400  1.00  0.00    -0.347 N 
HETATM   27  O1  UNL     1       4.083 -35.057 -17.886  1.00  0.00    -0.247 OA
HETATM   28  C1  UNL     1       3.659 -34.309 -20.446  1.00  0.00     0.151 C 
ATOM     29  H1  UNL     1       4.134 -32.335 -19.622  1.00  0.00     0.163 HD
HETATM   30  O2  UNL     1       4.656 -30.901 -18.048  1.00  0.00    -0.263 OA
ENDBRANCH  20  22
ENDBRANCH   1  20
TORSDOF 6
ENDMDL
MODEL 3
REMARK VINA RESULT: -7.399009345      1.225      1.925
REMARK  6 active torsions:
REMARK  status: ('A' for Active; 'I' for Inactive)
REMARK       I    between atoms: N1_2  and  C2_4 
REMARK       I    between atoms: C2_4  and  N2_6 
REMARK       I    between atoms: N2_6  and  C3_8 
REMARK    1  A    between atoms: C3_8  and  C4_10 
REMARK    2  A    between atoms: C4_10  and  C5_12 
REMARK       I    between atoms: C5_12  and  N3_14 
REMARK    3  A    between atoms: N3_14  and  N4_16 
REMARK    4  A    between atoms: N4_16  and  C6_18 
REMARK    5  A    between atoms: C6_18  and  O5_19 
REMARK    6  A    between atoms: C6_18  and  C7_21 
ROOT
HETATM    1  C5  UNL     1       3.948 -31.670  -5.033  1.00  0.00     0.315 C 
HETATM    2  O4  UNL     1       5.222 -31.568  -4.935  1.00  0.00    -0.262 OA
HETATM    3  N3  UNL     1       3.257 -30.582  -5.626  1.00  0.00    -0.265 N 
ATOM      4  H3  UNL     1       2.243 -30.633  -5.723  1.00  0.00     0.190 HD
ENDROOT
BRANCH   3   5
HETATM    5  N4  UNL     1       3.919 -29.452  -6.078  1.00  0.00    -0.299 N 
ATOM      6  H4  UNL     1       4.150 -28.679  -5.453  1.00  0.00     0.183 HD
BRANCH   5   7
HETATM    7  C6  UNL     1       4.258 -29.427  -7.458  1.00  0.00     0.284 C 
BRANCH   7   8
HETATM    8  O5  UNL     1       5.253 -30.366  -7.709  1.00  0.00    -0.370 OA
ATOM      9  H5  UNL     1       5.285 -30.554  -8.639  1.00  0.00     0.212 HD
ENDBRANCH   7   8
BRANCH   7  10
HETATM   10  C7  UNL     1       3.184 -29.566  -8.435  1.00  0.00     0.068 A 
HETATM   11  C8  UNL     1       3.506 -30.292  -9.601  1.00  0.00     0.104 A 
HETATM   12  C9  UNL     1       2.608 -30.499 -10.612  1.00  0.00     0.251 A 
HETATM   13  O6  UNL     1       2.976 -31.169 -11.641  1.00  0.00    -0.268 OA
HETATM   14  N5  UNL     1       1.381 -29.996 -10.493  1.00  0.00    -0.275 N 
HETATM   15  C10 UNL     1       1.046 -29.295  -9.391  1.00  0.00     0.327 A 
ATOM     16  H5  UNL     1       0.696 -30.141 -11.235  1.00  0.00     0.173 HD
HETATM   17  O7  UNL     1      -0.115 -28.842  -9.325  1.00  0.00    -0.247 OA
HETATM   18  N6  UNL     1       1.943 -29.092  -8.386  1.00  0.00    -0.308 N 
ATOM     19  H6  UNL     1       1.653 -28.557  -7.567  1.00  0.00     0.170 HD
ENDBRANCH   7  10
ENDBRANCH   5   7
ENDBRANCH   3   5
BRANCH   1  20
HETATM   20  C4  UNL     1       3.283 -32.857  -4.554  1.00  0.00     0.308 C 
HETATM   21  O3  UNL     1       2.055 -32.849  -4.338  1.00  0.00    -0.276 OA
BRANCH  20  22
HETATM   22  C3  UNL     1       4.063 -34.096  -4.321  1.00  0.00     0.305 C 
HETATM   23  N2  UNL     1       5.247 -34.038  -3.595  1.00  0.00    -0.272 N 
HETATM   24  C2  UNL     1       6.120 -35.070  -3.249  1.00  0.00     0.322 C 
ATOM     25  H2  UNL     1       5.517 -33.110  -3.269  1.00  0.00     0.174 HD
HETATM   26  N1  UNL     1       5.915 -36.412  -3.629  1.00  0.00    -0.347 N 
HETATM   27  O1  UNL     1       7.159 -34.803  -2.552  1.00  0.00    -0.247 OA
HETATM   28  C1  UNL     1       6.917 -37.414  -3.193  1.00  0.00     0.151 C 
ATOM     29  H1  UNL     1       5.104 -36.684  -4.184  1.00  0.00     0.163 HD
HETATM   30  O2  UNL     1       3.627 -35.182  -4.789  1.00  0.00    -0.263 OA
ENDBRANCH  20  22
ENDBRANCH   1  20
TORSDOF 6
ENDMDL
MODEL 4
REMARK VINA RESULT: -7.360441290      5.561     10.597
REMARK  6 active torsions:
REMARK  status: ('A' for Active; 'I' for Inactive)
REMARK       I    between atoms: N1_2  and  C2_4 
REMARK       I    between atoms: C2_4  and  N2_6 
REMARK       I    between atoms: N2_6  and  C3_8 
REMARK    1  A    between atoms: C3_8  and  C4_10 
REMARK    2  A    between atoms: C4_10  and  C5_12 
REMARK       I    between atoms: C5_12  and  N3_14 
REMARK    3  A    between atoms: N3_14  and  N4_16 
REMARK    4  A    between atoms: N4_16  and  C6_18 
REMARK    5  A    between atoms: C6_18  and  O5_19 
REMARK    6  A    between atoms: C6_18  and  C7_21 
ROOT
HETATM    1  C5  UNL     1       4.467 -31.269 -15.010  1.00  0.00     0.315 C 
HETATM    2  O4  UNL     1       3.894 -30.143 -15.229  1.00  0.00    -0.262 OA
HETATM    3  N3  UNL     1       4.190 -31.904 -13.771  1.00  0.00    -0.265 N 
ATOM      4  H3  UNL     1       4.627 -32.803 -13.567  1.00  0.00     0.190 HD
ENDROOT
BRANCH   3   5
HETATM    5  N4  UNL     1       3.344 -31.339 -12.831  1.00  0.00    -0.299 N 
ATOM      6  H4  UNL     1       2.388 -31.068 -13.062  1.00  0.00     0.183 HD
BRANCH   5   7
HETATM    7  C6  UNL     1       3.880 -31.159 -11.527  1.00  0.00     0.284 C 
BRANCH   7   8
HETATM    8  O5  UNL     1       5.128 -30.550 -11.618  1.00  0.00    -0.370 OA
ATOM      9  H5  UNL     1       5.051 -29.633 -11.382  1.00  0.00     0.212 HD
ENDBRANCH   7   8
BRANCH   7  10
HETATM   10  C7  UNL     1       3.062 -30.474 -10.533  1.00  0.00     0.068 A 
HETATM   11  C8  UNL     1       3.704 -30.174  -9.312  1.00  0.00     0.104 A 
HETATM   12  C9  UNL     1       3.066 -29.542  -8.280  1.00  0.00     0.251 A 
HETATM   13  O6  UNL     1       3.715 -29.305  -7.201  1.00  0.00    -0.268 OA
HETATM   14  N5  UNL     1       1.788 -29.195  -8.431  1.00  0.00    -0.275 N 
HETATM   15  C10 UNL     1       1.149 -29.472  -9.586  1.00  0.00     0.327 A 
ATOM     16  H5  UNL     1       1.295 -28.722  -7.674  1.00  0.00     0.173 HD
HETATM   17  O7  UNL     1      -0.047 -29.130  -9.681  1.00  0.00    -0.247 OA
HETATM   18  N6  UNL     1       1.789 -30.101 -10.612  1.00  0.00    -0.308 N 
ATOM     19  H6  UNL     1       1.273 -30.293 -11.470  1.00  0.00     0.170 HD
ENDBRANCH   7  10
ENDBRANCH   5   7
ENDBRANCH   3   5
BRANCH   1  20
HETATM   20  C4  UNL     1       5.345 -31.834 -16.005  1.00  0.00     0.308 C 
HETATM   21  O3  UNL     1       5.399 -33.069 -16.171  1.00  0.00    -0.276 OA
BRANCH  20  22
HETATM   22  C3  UNL     1       6.185 -30.942 -16.839  1.00  0.00     0.305 C 
HETATM   23  N2  UNL     1       5.678 -30.433 -18.029  1.00  0.00    -0.272 N 
HETATM   24  C2  UNL     1       6.282 -29.575 -18.948  1.00  0.00     0.322 C 
ATOM     25  H2  UNL     1       4.730 -30.729 -18.264  1.00  0.00     0.174 HD
HETATM   26  N1  UNL     1       7.592 -29.080 -18.794  1.00  0.00    -0.347 N 
HETATM   27  O1  UNL     1       5.628 -29.209 -19.985  1.00  0.00    -0.247 OA
HETATM   28  C1  UNL     1       8.116 -28.171 -19.843  1.00  0.00     0.151 C 
ATOM     29  H1  UNL     1       8.161 -29.337 -17.988  1.00  0.00     0.163 HD
HETATM   30  O2  UNL     1       7.348 -30.661 -16.442  1.00  0.00    -0.263 OA
ENDBRANCH  20  22
ENDBRANCH   1  20
TORSDOF 6
ENDMDL
MODEL 5
REMARK VINA RESULT: -7.327198432      5.353     10.184
REMARK  6 active torsions:
REMARK  status: ('A' for Active; 'I' for Inactive)
REMARK       I    between atoms: N1_2  and  C2_4 
REMARK       I    between atoms: C2_4  and  N2_6 
REMARK       I    between atoms: N2_6  and  C3_8 
REMARK    1  A    between atoms: C3_8  and  C4_10 
REMARK    2  A    between atoms: C4_10  and  C5_12 
REMARK       I    between atoms: C5_12  and  N3_14 
REMARK    3  A    between atoms: N3_14  and  N4_16 
REMARK    4  A    between atoms: N4_16  and  C6_18 
REMARK    5  A    between atoms: C6_18  and  O5_19 
REMARK    6  A    between atoms: C6_18  and  C7_21 
ROOT
HETATM    1  C5  UNL     1       4.464 -31.113 -14.869  1.00  0.00     0.315 C 
HETATM    2  O4  UNL     1       5.267 -32.111 -14.837  1.00  0.00    -0.262 OA
HETATM    3  N3  UNL     1       3.607 -30.938 -13.751  1.00  0.00    -0.265 N 
ATOM      4  H3  UNL     1       2.958 -30.150 -13.744  1.00  0.00     0.190 HD
ENDROOT
BRANCH   3   5
HETATM    5  N4  UNL     1       3.624 -31.804 -12.671  1.00  0.00    -0.299 N 
ATOM      6  H4  UNL     1       3.178 -32.720 -12.710  1.00  0.00     0.183 HD
BRANCH   5   7
HETATM    7  C6  UNL     1       4.297 -31.348 -11.506  1.00  0.00     0.284 C 
BRANCH   7   8
HETATM    8  O5  UNL     1       5.006 -30.188 -11.803  1.00  0.00    -0.370 OA
ATOM      9  H5  UNL     1       5.187 -29.712 -11.001  1.00  0.00     0.212 HD
ENDBRANCH   7   8
BRANCH   7  10
HETATM   10  C7  UNL     1       3.518 -31.158 -10.288  1.00  0.00     0.068 A 
HETATM   11  C8  UNL     1       2.546 -30.136 -10.335  1.00  0.00     0.104 A 
HETATM   12  C9  UNL     1       1.744 -29.833  -9.270  1.00  0.00     0.251 A 
HETATM   13  O6  UNL     1       0.884 -28.889  -9.389  1.00  0.00    -0.268 OA
HETATM   14  N5  UNL     1       1.884 -30.527  -8.142  1.00  0.00    -0.275 N 
HETATM   15  C10 UNL     1       2.807 -31.508  -8.067  1.00  0.00     0.327 A 
ATOM     16  H5  UNL     1       1.294 -30.318  -7.337  1.00  0.00     0.173 HD
HETATM   17  O7  UNL     1       2.903 -32.131  -6.990  1.00  0.00    -0.247 OA
HETATM   18  N6  UNL     1       3.604 -31.807  -9.131  1.00  0.00    -0.308 N 
ATOM     19  H6  UNL     1       4.290 -32.556  -9.038  1.00  0.00     0.170 HD
ENDBRANCH   7  10
ENDBRANCH   5   7
ENDBRANCH   3   5
BRANCH   1  20
HETATM   20  C4  UNL     1       4.465 -30.226 -16.007  1.00  0.00     0.308 C 
HETATM   21  O3  UNL     1       3.407 -29.686 -16.387  1.00  0.00    -0.276 OA
BRANCH  20  22
HETATM   22  C3  UNL     1       5.732 -29.950 -16.725  1.00  0.00     0.305 C 
HETATM   23  N2  UNL     1       6.944 -30.075 -16.056  1.00  0.00    -0.272 N 
HETATM   24  C2  UNL     1       8.239 -29.882 -16.538  1.00  0.00     0.322 C 
ATOM     25  H2  UNL     1       6.878 -30.347 -15.075  1.00  0.00     0.174 HD
HETATM   26  N1  UNL     1       8.519 -29.489 -17.862  1.00  0.00    -0.347 N 
HETATM   27  O1  UNL     1       9.232 -30.068 -15.752  1.00  0.00    -0.247 OA
HETATM   28  C1  UNL     1       9.941 -29.320 -18.247  1.00  0.00     0.151 C 
ATOM     29  H1  UNL     1       7.768 -29.326 -18.532  1.00  0.00     0.163 HD
HETATM   30  O2  UNL     1       5.677 -29.609 -17.937  1.00  0.00    -0.263 OA
ENDBRANCH  20  22
ENDBRANCH   1  20
TORSDOF 6
ENDMDL
