MODEL 1
REMARK VINA RESULT: -5.846626778      0.000      0.000
REMARK  4 active torsions:
REMARK  status: ('A' for Active; 'I' for Inactive)
REMARK    1  A    between atoms: C2_2  and  O2_4 
REMARK    2  A    between atoms: O2_4  and  C3_5 
REMARK    3  A    between atoms: C4_6  and  O3_7 
REMARK    4  A    between atoms: C20_24  and  C21_25 
ROOT
HETATM    1  C3  UNL     1      -2.223 -26.764 -27.899  1.00  0.00     0.169 C 
HETATM    2  C4  UNL     1      -3.145 -25.608 -28.040  1.00  0.00     0.148 C 
HETATM    3  C5  UNL     1      -4.475 -25.942 -27.472  1.00  0.00     0.040 C 
HETATM    4  C6  UNL     1      -4.468 -26.439 -26.066  1.00  0.00     0.009 C 
HETATM    5  C7  UNL     1      -4.780 -25.303 -25.155  1.00  0.00    -0.001 C 
HETATM    6  C8  UNL     1      -6.160 -24.729 -25.268  1.00  0.00     0.006 C 
HETATM    7  C9  UNL     1      -6.260 -23.896 -23.987  1.00  0.00     0.005 C 
HETATM    8  C10 UNL     1      -5.127 -24.342 -23.086  1.00  0.00    -0.010 C 
HETATM    9  C11 UNL     1      -4.016 -23.380 -22.974  1.00  0.00     0.011 C 
HETATM   10  C12 UNL     1      -4.756 -25.679 -23.680  1.00  0.00    -0.036 C 
HETATM   11  C13 UNL     1      -5.877 -26.629 -23.320  1.00  0.00     0.016 C 
HETATM   12  C14 UNL     1      -3.404 -26.176 -23.309  1.00  0.00     0.015 C 
HETATM   13  C15 UNL     1      -2.564 -26.313 -24.521  1.00  0.00     0.003 C 
HETATM   14  C16 UNL     1      -1.293 -27.080 -24.372  1.00  0.00     0.007 C 
HETATM   15  C17 UNL     1      -0.891 -27.198 -25.850  1.00  0.00     0.013 C 
HETATM   16  C18 UNL     1      -2.208 -27.461 -26.600  1.00  0.00    -0.000 C 
HETATM   17  C19 UNL     1      -2.158 -28.975 -26.893  1.00  0.00     0.019 C 
HETATM   18  C20 UNL     1      -3.251 -27.137 -25.619  1.00  0.00     0.030 C 
ENDROOT
BRANCH   1  19
HETATM   19  O2  UNL     1      -0.890 -26.317 -28.173  1.00  0.00    -0.313 OA
BRANCH  19  20
HETATM   20  C2  UNL     1      -0.125 -26.785 -29.207  1.00  0.00     0.255 C 
HETATM   21  C1  UNL     1       0.997 -27.750 -29.036  1.00  0.00     0.126 C 
HETATM   22  O1  UNL     1      -0.425 -26.341 -30.369  1.00  0.00    -0.266 OA
ENDBRANCH  19  20
ENDBRANCH   1  19
BRANCH   2  23
HETATM   23  O3  UNL     1      -2.618 -24.396 -27.597  1.00  0.00    -0.393 OA
ATOM     24  H3  UNL     1      -2.539 -23.733 -28.272  1.00  0.00     0.210 HD
ENDBRANCH   2  23
BRANCH  18  25
HETATM   25  C21 UNL     1      -3.621 -28.436 -24.934  1.00  0.00     0.242 C 
HETATM   26  O4  UNL     1      -4.709 -28.956 -25.192  1.00  0.00    -0.306 OA
ENDBRANCH  18  25
TORSDOF 4
ENDMDL
MODEL 2
REMARK VINA RESULT: -5.729048940      6.196      9.789
REMARK  4 active torsions:
REMARK  status: ('A' for Active; 'I' for Inactive)
REMARK    1  A    between atoms: C2_2  and  O2_4 
REMARK    2  A    between atoms: O2_4  and  C3_5 
REMARK    3  A    between atoms: C4_6  and  O3_7 
REMARK    4  A    between atoms: C20_24  and  C21_25 
ROOT
HETATM    1  C3  UNL     1       2.424 -27.430 -29.190  1.00  0.00     0.169 C 
HETATM    2  C4  UNL     1       3.493 -26.600 -29.799  1.00  0.00     0.148 C 
HETATM    3  C5  UNL     1       4.568 -26.340 -28.808  1.00  0.00     0.040 C 
HETATM    4  C6  UNL     1       5.150 -27.550 -28.158  1.00  0.00     0.009 C 
HETATM    5  C7  UNL     1       6.407 -27.916 -28.865  1.00  0.00    -0.001 C 
HETATM    6  C8  UNL     1       7.536 -26.937 -28.752  1.00  0.00     0.006 C 
HETATM    7  C9  UNL     1       8.725 -27.772 -29.235  1.00  0.00     0.005 C 
HETATM    8  C10 UNL     1       8.278 -29.219 -29.226  1.00  0.00    -0.010 C 
HETATM    9  C11 UNL     1       8.033 -29.796 -30.559  1.00  0.00     0.011 C 
HETATM   10  C12 UNL     1       7.072 -29.171 -28.318  1.00  0.00    -0.036 C 
HETATM   11  C13 UNL     1       7.603 -28.965 -26.917  1.00  0.00     0.016 C 
HETATM   12  C14 UNL     1       6.146 -30.329 -28.447  1.00  0.00     0.015 C 
HETATM   13  C15 UNL     1       4.815 -29.866 -28.901  1.00  0.00     0.003 C 
HETATM   14  C16 UNL     1       3.692 -30.842 -28.791  1.00  0.00     0.007 C 
HETATM   15  C17 UNL     1       2.512 -29.910 -29.102  1.00  0.00     0.013 C 
HETATM   16  C18 UNL     1       2.847 -28.591 -28.385  1.00  0.00    -0.000 C 
HETATM   17  C19 UNL     1       1.951 -28.629 -27.128  1.00  0.00     0.019 C 
HETATM   18  C20 UNL     1       4.267 -28.722 -28.036  1.00  0.00     0.030 C 
ENDROOT
BRANCH   1  19
HETATM   19  O2  UNL     1       1.570 -27.910 -30.235  1.00  0.00    -0.313 OA
BRANCH  19  20
HETATM   20  C2  UNL     1       0.458 -27.245 -30.676  1.00  0.00     0.255 C 
HETATM   21  C1  UNL     1      -0.047 -27.318 -32.076  1.00  0.00     0.126 C 
HETATM   22  O1  UNL     1      -0.150 -26.531 -29.806  1.00  0.00    -0.266 OA
ENDBRANCH  19  20
ENDBRANCH   1  19
BRANCH   2  23
HETATM   23  O3  UNL     1       3.949 -27.064 -31.032  1.00  0.00    -0.393 OA
ATOM     24  H3  UNL     1       3.383 -26.851 -31.764  1.00  0.00     0.210 HD
ENDBRANCH   2  23
BRANCH  18  25
HETATM   25  C21 UNL     1       4.319 -29.266 -26.623  1.00  0.00     0.242 C 
HETATM   26  O4  UNL     1       4.716 -28.529 -25.717  1.00  0.00    -0.306 OA
ENDBRANCH  18  25
TORSDOF 4
ENDMDL
MODEL 3
REMARK VINA RESULT: -5.654508717      1.373      1.730
REMARK  4 active torsions:
REMARK  status: ('A' for Active; 'I' for Inactive)
REMARK    1  A    between atoms: C2_2  and  O2_4 
REMARK    2  A    between atoms: O2_4  and  C3_5 
REMARK    3  A    between atoms: C4_6  and  O3_7 
REMARK    4  A    between atoms: C20_24  and  C21_25 
ROOT
HETATM    1  C3  UNL     1      -2.659 -26.897 -27.341  1.00  0.00     0.169 C 
HETATM    2  C4  UNL     1      -4.016 -26.503 -27.800  1.00  0.00     0.148 C 
HETATM    3  C5  UNL     1      -5.026 -26.848 -26.768  1.00  0.00     0.040 C 
HETATM    4  C6  UNL     1      -4.758 -26.312 -25.401  1.00  0.00     0.009 C 
HETATM    5  C7  UNL     1      -5.543 -25.062 -25.215  1.00  0.00    -0.001 C 
HETATM    6  C8  UNL     1      -7.034 -25.216 -25.195  1.00  0.00     0.006 C 
HETATM    7  C9  UNL     1      -7.482 -23.870 -24.620  1.00  0.00     0.005 C 
HETATM    8  C10 UNL     1      -6.253 -23.219 -24.020  1.00  0.00    -0.010 C 
HETATM    9  C11 UNL     1      -5.715 -22.088 -24.797  1.00  0.00     0.011 C 
HETATM   10  C12 UNL     1      -5.316 -24.393 -23.867  1.00  0.00    -0.036 C 
HETATM   11  C13 UNL     1      -5.858 -25.223 -22.725  1.00  0.00     0.016 C 
HETATM   12  C14 UNL     1      -3.880 -24.032 -23.720  1.00  0.00     0.015 C 
HETATM   13  C15 UNL     1      -3.099 -24.590 -24.847  1.00  0.00     0.003 C 
HETATM   14  C16 UNL     1      -1.614 -24.585 -24.701  1.00  0.00     0.007 C 
HETATM   15  C17 UNL     1      -1.235 -25.450 -25.912  1.00  0.00     0.013 C 
HETATM   16  C18 UNL     1      -2.294 -26.565 -25.952  1.00  0.00    -0.000 C 
HETATM   17  C19 UNL     1      -1.552 -27.786 -25.368  1.00  0.00     0.019 C 
HETATM   18  C20 UNL     1      -3.346 -26.092 -25.044  1.00  0.00     0.030 C 
ENDROOT
BRANCH   1  19
HETATM   19  O2  UNL     1      -1.693 -26.288 -28.206  1.00  0.00    -0.313 OA
BRANCH  19  20
HETATM   20  C2  UNL     1      -0.741 -26.987 -28.897  1.00  0.00     0.255 C 
HETATM   21  C1  UNL     1      -0.040 -26.459 -30.101  1.00  0.00     0.126 C 
HETATM   22  O1  UNL     1      -0.470 -28.155 -28.451  1.00  0.00    -0.266 OA
ENDBRANCH  19  20
ENDBRANCH   1  19
BRANCH   2  23
HETATM   23  O3  UNL     1      -4.104 -25.196 -28.276  1.00  0.00    -0.393 OA
ATOM     24  H3  UNL     1      -4.993 -24.884 -28.398  1.00  0.00     0.210 HD
ENDBRANCH   2  23
BRANCH  18  25
HETATM   25  C21 UNL     1      -3.055 -26.699 -23.687  1.00  0.00     0.242 C 
HETATM   26  O4  UNL     1      -3.782 -27.605 -23.273  1.00  0.00    -0.306 OA
ENDBRANCH  18  25
TORSDOF 4
ENDMDL
MODEL 4
REMARK VINA RESULT: -5.516112497      7.562     10.456
REMARK  4 active torsions:
REMARK  status: ('A' for Active; 'I' for Inactive)
REMARK    1  A    between atoms: C2_2  and  O2_4 
REMARK    2  A    between atoms: O2_4  and  C3_5 
REMARK    3  A    between atoms: C4_6  and  O3_7 
REMARK    4  A    between atoms: C20_24  and  C21_25 
ROOT
HETATM    1  C3  UNL     1       4.111 -26.233 -29.306  1.00  0.00     0.169 C 
HETATM    2  C4  UNL     1       5.011 -25.079 -29.057  1.00  0.00     0.148 C 
HETATM    3  C5  UNL     1       5.483 -25.093 -27.649  1.00  0.00     0.040 C 
HETATM    4  C6  UNL     1       6.120 -26.363 -27.196  1.00  0.00     0.009 C 
HETATM    5  C7  UNL     1       7.598 -26.219 -27.296  1.00  0.00    -0.001 C 
HETATM    6  C8  UNL     1       8.227 -25.218 -26.375  1.00  0.00     0.006 C 
HETATM    7  C9  UNL     1       9.707 -25.598 -26.460  1.00  0.00     0.005 C 
HETATM    8  C10 UNL     1       9.771 -26.971 -27.096  1.00  0.00    -0.010 C 
HETATM    9  C11 UNL     1      10.251 -26.982 -28.490  1.00  0.00     0.011 C 
HETATM   10  C12 UNL     1       8.361 -27.476 -26.901  1.00  0.00    -0.036 C 
HETATM   11  C13 UNL     1       8.221 -27.785 -25.428  1.00  0.00     0.016 C 
HETATM   12  C14 UNL     1       7.972 -28.602 -27.792  1.00  0.00     0.015 C 
HETATM   13  C15 UNL     1       6.844 -28.195 -28.661  1.00  0.00     0.003 C 
HETATM   14  C16 UNL     1       6.134 -29.284 -29.393  1.00  0.00     0.007 C 
HETATM   15  C17 UNL     1       4.935 -28.490 -29.932  1.00  0.00     0.013 C 
HETATM   16  C18 UNL     1       4.535 -27.546 -28.785  1.00  0.00    -0.000 C 
HETATM   17  C19 UNL     1       3.288 -28.224 -28.180  1.00  0.00     0.019 C 
HETATM   18  C20 UNL     1       5.676 -27.598 -27.863  1.00  0.00     0.030 C 
ENDROOT
BRANCH   1  19
HETATM   19  O2  UNL     1       3.920 -26.364 -30.720  1.00  0.00    -0.313 OA
BRANCH  19  20
HETATM   20  C2  UNL     1       2.793 -25.954 -31.379  1.00  0.00     0.255 C 
HETATM   21  C1  UNL     1       1.424 -26.446 -31.060  1.00  0.00     0.126 C 
HETATM   22  O1  UNL     1       2.972 -25.100 -32.316  1.00  0.00    -0.266 OA
ENDBRANCH  19  20
ENDBRANCH   1  19
BRANCH   2  23
HETATM   23  O3  UNL     1       6.026 -24.927 -30.001  1.00  0.00    -0.393 OA
ATOM     24  H3  UNL     1       6.129 -25.668 -30.586  1.00  0.00     0.210 HD
ENDBRANCH   2  23
BRANCH  18  25
HETATM   25  C21 UNL     1       5.352 -28.657 -26.830  1.00  0.00     0.242 C 
HETATM   26  O4  UNL     1       5.066 -28.302 -25.684  1.00  0.00    -0.306 OA
ENDBRANCH  18  25
TORSDOF 4
ENDMDL
MODEL 5
REMARK VINA RESULT: -5.510819621      2.026      5.569
REMARK  4 active torsions:
REMARK  status: ('A' for Active; 'I' for Inactive)
REMARK    1  A    between atoms: C2_2  and  O2_4 
REMARK    2  A    between atoms: O2_4  and  C3_5 
REMARK    3  A    between atoms: C4_6  and  O3_7 
REMARK    4  A    between atoms: C20_24  and  C21_25 
ROOT
HETATM    1  C3  UNL     1      -4.231 -26.105 -26.384  1.00  0.00     0.169 C 
HETATM    2  C4  UNL     1      -4.734 -27.492 -26.215  1.00  0.00     0.148 C 
HETATM    3  C5  UNL     1      -4.006 -28.415 -27.123  1.00  0.00     0.040 C 
HETATM    4  C6  UNL     1      -2.518 -28.379 -27.019  1.00  0.00     0.009 C 
HETATM    5  C7  UNL     1      -2.073 -29.495 -26.139  1.00  0.00    -0.001 C 
HETATM    6  C8  UNL     1      -2.309 -30.880 -26.662  1.00  0.00     0.006 C 
HETATM    7  C9  UNL     1      -1.421 -31.719 -25.739  1.00  0.00     0.005 C 
HETATM    8  C10 UNL     1      -0.487 -30.757 -25.035  1.00  0.00    -0.010 C 
HETATM    9  C11 UNL     1      -0.802 -30.522 -23.615  1.00  0.00     0.011 C 
HETATM   10  C12 UNL     1      -0.568 -29.535 -25.919  1.00  0.00    -0.036 C 
HETATM   11  C13 UNL     1       0.182 -29.877 -27.187  1.00  0.00     0.016 C 
HETATM   12  C14 UNL     1      -0.120 -28.269 -25.278  1.00  0.00     0.015 C 
HETATM   13  C15 UNL     1      -1.242 -27.306 -25.218  1.00  0.00     0.003 C 
HETATM   14  C16 UNL     1      -0.896 -25.892 -24.888  1.00  0.00     0.007 C 
HETATM   15  C17 UNL     1      -2.247 -25.223 -25.180  1.00  0.00     0.013 C 
HETATM   16  C18 UNL     1      -2.770 -25.920 -26.448  1.00  0.00    -0.000 C 
HETATM   17  C19 UNL     1      -2.486 -24.893 -27.564  1.00  0.00     0.019 C 
HETATM   18  C20 UNL     1      -1.918 -27.108 -26.582  1.00  0.00     0.030 C 
ENDROOT
BRANCH   1  19
HETATM   19  O2  UNL     1      -4.727 -25.308 -25.302  1.00  0.00    -0.313 OA
BRANCH  19  20
HETATM   20  C2  UNL     1      -5.744 -24.401 -25.426  1.00  0.00     0.255 C 
HETATM   21  C1  UNL     1      -5.536 -22.967 -25.770  1.00  0.00     0.126 C 
HETATM   22  O1  UNL     1      -6.924 -24.854 -25.225  1.00  0.00    -0.266 OA
ENDBRANCH  19  20
ENDBRANCH   1  19
BRANCH   2  23
HETATM   23  O3  UNL     1      -4.799 -27.923 -24.891  1.00  0.00    -0.393 OA
ATOM     24  H3  UNL     1      -4.885 -27.222 -24.255  1.00  0.00     0.210 HD
ENDBRANCH   2  23
BRANCH  18  25
HETATM   25  C21 UNL     1      -0.782 -26.726 -27.508  1.00  0.00     0.242 C 
HETATM   26  O4  UNL     1      -0.761 -27.196 -28.648  1.00  0.00    -0.306 OA
ENDBRANCH  18  25
TORSDOF 4
ENDMDL
