MODEL 1
REMARK VINA RESULT: -6.035559728      0.000      0.000
REMARK  2 active torsions:
REMARK  status: ('A' for Active; 'I' for Inactive)
REMARK    1  A    between atoms: C5_5  and  C6_6 
REMARK    2  A    between atoms: C6_6  and  O1_7 
ROOT
HETATM    1  C6  UNL     1     -37.773  14.534  51.940  1.00  0.00     0.064 C 
HETATM    2  C7  UNL     1     -38.215  13.151  52.322  1.00  0.00     0.066 C 
HETATM    3  C8  UNL     1     -39.366  13.128  53.277  1.00  0.00     0.235 C 
HETATM    4  N1  UNL     1     -40.376  14.114  52.994  1.00  0.00    -0.075 N 
ATOM      5  H11 UNL     1     -40.398  14.829  53.721  1.00  0.00     0.277 HD
ATOM      6  H12 UNL     1     -41.310  13.722  53.117  1.00  0.00     0.277 HD
HETATM    7  C9  UNL     1     -40.238  14.711  51.689  1.00  0.00     0.235 C 
HETATM    8  C10 UNL     1     -38.921  15.438  51.551  1.00  0.00     0.066 C 
ENDROOT
BRANCH   1   9
HETATM    9  C5  UNL     1     -36.821  14.481  50.776  1.00  0.00     0.020 C 
HETATM   10  C4  UNL     1     -37.170  13.395  49.789  1.00  0.00     0.008 C 
HETATM   11  C3  UNL     1     -35.876  12.637  49.527  1.00  0.00     0.005 C 
HETATM   12  C2  UNL     1     -35.190  12.784  50.885  1.00  0.00    -0.018 C 
HETATM   13  C1  UNL     1     -33.732  12.404  50.801  1.00  0.00     0.010 C 
HETATM   14  C11 UNL     1     -35.404  14.229  51.186  1.00  0.00     0.012 C 
ENDBRANCH   1   9
BRANCH   1  15
HETATM   15  O1  UNL     1     -37.174  15.100  53.074  1.00  0.00    -0.389 OA
ATOM     16  H1  UNL     1     -37.416  16.012  53.179  1.00  0.00     0.210 HD
ENDBRANCH   1  15
TORSDOF 2
ENDMDL
MODEL 2
REMARK VINA RESULT: -5.864917648      1.193      1.315
REMARK  2 active torsions:
REMARK  status: ('A' for Active; 'I' for Inactive)
REMARK    1  A    between atoms: C5_5  and  C6_6 
REMARK    2  A    between atoms: C6_6  and  O1_7 
ROOT
HETATM    1  C6  UNL     1     -37.833  14.532  52.445  1.00  0.00     0.064 C 
HETATM    2  C7  UNL     1     -38.630  13.270  52.606  1.00  0.00     0.066 C 
HETATM    3  C8  UNL     1     -39.288  13.139  53.942  1.00  0.00     0.235 C 
HETATM    4  N1  UNL     1     -39.850  14.368  54.437  1.00  0.00    -0.075 N 
ATOM      5  H11 UNL     1     -39.333  14.702  55.250  1.00  0.00     0.277 HD
ATOM      6  H12 UNL     1     -40.758  14.203  54.872  1.00  0.00     0.277 HD
HETATM    7  C9  UNL     1     -39.944  15.396  53.430  1.00  0.00     0.235 C 
HETATM    8  C10 UNL     1     -38.582  15.767  52.892  1.00  0.00     0.066 C 
ENDROOT
BRANCH   1   9
HETATM    9  C5  UNL     1     -37.446  14.732  51.004  1.00  0.00     0.020 C 
HETATM   10  C4  UNL     1     -38.377  14.027  50.049  1.00  0.00     0.008 C 
HETATM   11  C3  UNL     1     -37.483  13.256  49.088  1.00  0.00     0.005 C 
HETATM   12  C2  UNL     1     -36.308  12.924  50.008  1.00  0.00    -0.018 C 
HETATM   13  C1  UNL     1     -35.118  12.444  49.215  1.00  0.00     0.010 C 
HETATM   14  C11 UNL     1     -36.072  14.230  50.690  1.00  0.00     0.012 C 
ENDBRANCH   1   9
BRANCH   1  15
HETATM   15  O1  UNL     1     -36.708  14.415  53.272  1.00  0.00    -0.389 OA
ATOM     16  H1  UNL     1     -36.952  14.349  54.188  1.00  0.00     0.210 HD
ENDBRANCH   1  15
TORSDOF 2
ENDMDL
MODEL 3
REMARK VINA RESULT: -5.580167182      7.768      9.876
REMARK  2 active torsions:
REMARK  status: ('A' for Active; 'I' for Inactive)
REMARK    1  A    between atoms: C5_5  and  C6_6 
REMARK    2  A    between atoms: C6_6  and  O1_7 
ROOT
HETATM    1  C6  UNL     1     -34.680  10.687  43.061  1.00  0.00     0.064 C 
HETATM    2  C7  UNL     1     -34.447  10.058  41.718  1.00  0.00     0.066 C 
HETATM    3  C8  UNL     1     -33.131   9.360  41.600  1.00  0.00     0.235 C 
HETATM    4  N1  UNL     1     -32.758   8.615  42.775  1.00  0.00    -0.075 N 
ATOM      5  H11 UNL     1     -31.956   9.044  43.237  1.00  0.00     0.277 HD
ATOM      6  H12 UNL     1     -32.346   7.718  42.522  1.00  0.00     0.277 HD
HETATM    7  C9  UNL     1     -33.848   8.436  43.702  1.00  0.00     0.235 C 
HETATM    8  C10 UNL     1     -34.363   9.760  44.214  1.00  0.00     0.066 C 
ENDROOT
BRANCH   1   9
HETATM    9  C5  UNL     1     -36.116  11.114  43.203  1.00  0.00     0.020 C 
HETATM   10  C4  UNL     1     -36.322  12.574  42.886  1.00  0.00     0.008 C 
HETATM   11  C3  UNL     1     -37.137  13.142  44.040  1.00  0.00     0.005 C 
HETATM   12  C2  UNL     1     -36.630  12.272  45.190  1.00  0.00    -0.018 C 
HETATM   13  C1  UNL     1     -37.522  12.401  46.401  1.00  0.00     0.010 C 
HETATM   14  C11 UNL     1     -36.657  10.910  44.583  1.00  0.00     0.012 C 
ENDBRANCH   1   9
BRANCH   1  15
HETATM   15  O1  UNL     1     -33.803  11.776  43.161  1.00  0.00    -0.389 OA
ATOM     16  H1  UNL     1     -32.937  11.505  43.441  1.00  0.00     0.210 HD
ENDBRANCH   1  15
TORSDOF 2
ENDMDL
MODEL 4
REMARK VINA RESULT: -5.497340980      8.393     10.058
REMARK  2 active torsions:
REMARK  status: ('A' for Active; 'I' for Inactive)
REMARK    1  A    between atoms: C5_5  and  C6_6 
REMARK    2  A    between atoms: C6_6  and  O1_7 
ROOT
HETATM    1  C6  UNL     1     -34.266  10.596  43.154  1.00  0.00     0.064 C 
HETATM    2  C7  UNL     1     -34.555   9.748  44.358  1.00  0.00     0.066 C 
HETATM    3  C8  UNL     1     -35.034  10.527  45.542  1.00  0.00     0.235 C 
HETATM    4  N1  UNL     1     -35.958  11.580  45.212  1.00  0.00    -0.075 N 
ATOM      5  H11 UNL     1     -35.537  12.495  45.374  1.00  0.00     0.277 HD
ATOM      6  H12 UNL     1     -36.718  11.623  45.890  1.00  0.00     0.277 HD
HETATM    7  C9  UNL     1     -36.473  11.483  43.868  1.00  0.00     0.235 C 
HETATM    8  C10 UNL     1     -35.369  11.583  42.843  1.00  0.00     0.066 C 
ENDROOT
BRANCH   1   9
HETATM    9  C5  UNL     1     -34.071   9.734  41.936  1.00  0.00     0.020 C 
HETATM   10  C4  UNL     1     -34.773   8.404  42.047  1.00  0.00     0.008 C 
HETATM   11  C3  UNL     1     -33.741   7.353  41.662  1.00  0.00     0.005 C 
HETATM   12  C2  UNL     1     -32.462   8.026  42.158  1.00  0.00    -0.018 C 
HETATM   13  C1  UNL     1     -31.238   7.343  41.600  1.00  0.00     0.010 C 
HETATM   14  C11 UNL     1     -32.634   9.422  41.660  1.00  0.00     0.012 C 
ENDBRANCH   1   9
BRANCH   1  15
HETATM   15  O1  UNL     1     -33.118  11.346  43.447  1.00  0.00    -0.389 OA
ATOM     16  H1  UNL     1     -32.427  10.802  43.806  1.00  0.00     0.210 HD
ENDBRANCH   1  15
TORSDOF 2
ENDMDL
MODEL 5
REMARK VINA RESULT: -5.497003556      7.282      8.731
REMARK  2 active torsions:
REMARK  status: ('A' for Active; 'I' for Inactive)
REMARK    1  A    between atoms: C5_5  and  C6_6 
REMARK    2  A    between atoms: C6_6  and  O1_7 
ROOT
HETATM    1  C6  UNL     1     -36.290  10.820  45.121  1.00  0.00     0.064 C 
HETATM    2  C7  UNL     1     -37.513  11.690  45.082  1.00  0.00     0.066 C 
HETATM    3  C8  UNL     1     -37.252  13.075  44.586  1.00  0.00     0.235 C 
HETATM    4  N1  UNL     1     -36.339  13.134  43.475  1.00  0.00    -0.075 N 
ATOM      5  H11 UNL     1     -35.461  13.574  43.750  1.00  0.00     0.277 HD
ATOM      6  H12 UNL     1     -36.654  13.810  42.780  1.00  0.00     0.277 HD
HETATM    7  C9  UNL     1     -36.100  11.848  42.867  1.00  0.00     0.235 C 
HETATM    8  C10 UNL     1     -35.478  10.881  43.847  1.00  0.00     0.066 C 
ENDROOT
BRANCH   1   9
HETATM    9  C5  UNL     1     -36.671   9.383  45.350  1.00  0.00     0.020 C 
HETATM   10  C4  UNL     1     -35.944   8.436  44.427  1.00  0.00     0.008 C 
HETATM   11  C3  UNL     1     -37.013   7.528  43.834  1.00  0.00     0.005 C 
HETATM   12  C2  UNL     1     -38.202   8.488  43.797  1.00  0.00    -0.018 C 
HETATM   13  C1  UNL     1     -39.492   7.744  43.558  1.00  0.00     0.010 C 
HETATM   14  C11 UNL     1     -38.130   9.121  45.146  1.00  0.00     0.012 C 
ENDBRANCH   1   9
BRANCH   1  15
HETATM   15  O1  UNL     1     -35.472  11.309  46.149  1.00  0.00    -0.389 OA
ATOM     16  H1  UNL     1     -35.941  11.365  46.974  1.00  0.00     0.210 HD
ENDBRANCH   1  15
TORSDOF 2
ENDMDL
