MODEL 1
REMARK VINA RESULT: -5.692251650      0.000      0.000
REMARK  2 active torsions:
REMARK  status: ('A' for Active; 'I' for Inactive)
REMARK    1  A    between atoms: C2_2  and  C3_6 
REMARK    2  A    between atoms: C11_14  and  N2_15 
ROOT
HETATM    1  C3  UNL     1     -34.942  10.603  42.470  1.00  0.00     0.070 C 
HETATM    2  C4  UNL     1     -35.797   9.362  42.545  1.00  0.00    -0.002 C 
HETATM    3  C5  UNL     1     -35.006   8.265  41.809  1.00  0.00     0.010 C 
HETATM    4  C6  UNL     1     -33.667   8.081  42.454  1.00  0.00    -0.011 C 
HETATM    5  C7  UNL     1     -33.880   7.532  43.845  1.00  0.00     0.009 C 
HETATM    6  C8  UNL     1     -34.661   8.566  44.625  1.00  0.00    -0.011 C 
HETATM    7  C9  UNL     1     -35.981   8.823  43.937  1.00  0.00     0.010 C 
HETATM    8  C10 UNL     1     -33.927   9.889  44.677  1.00  0.00     0.044 C 
HETATM    9  C11 UNL     1     -33.717  10.421  43.302  1.00  0.00     0.133 C 
HETATM   10  C12 UNL     1     -32.869   9.353  42.580  1.00  0.00     0.044 C 
ENDROOT
BRANCH   1  11
HETATM   11  C2  UNL     1     -35.665  11.859  42.625  1.00  0.00    -0.017 C 
HETATM   12  C1  UNL     1     -36.547  12.248  43.754  1.00  0.00     0.063 C 
HETATM   13  N1  UNL     1     -35.593  12.807  41.725  1.00  0.00    -0.405 N 
ATOM     14  H12 UNL     1     -36.100  13.685  41.834  1.00  0.00     0.155 HD
ATOM     15  H11 UNL     1     -34.987  12.539  40.950  1.00  0.00     0.155 HD
ENDBRANCH   1  11
BRANCH   9  16
HETATM   16  N2  UNL     1     -32.928  11.634  43.373  1.00  0.00    -0.070 N 
ATOM     17  H23 UNL     1     -32.673  11.967  42.443  1.00  0.00     0.275 HD
ATOM     18  H22 UNL     1     -33.492  12.427  43.678  1.00  0.00     0.275 HD
ATOM     19  H21 UNL     1     -32.105  11.517  43.964  1.00  0.00     0.275 HD
ENDBRANCH   9  16
TORSDOF 2
ENDMDL
MODEL 2
REMARK VINA RESULT: -5.689107451      3.682      5.562
REMARK  2 active torsions:
REMARK  status: ('A' for Active; 'I' for Inactive)
REMARK    1  A    between atoms: C2_2  and  C3_6 
REMARK    2  A    between atoms: C11_14  and  N2_15 
ROOT
HETATM    1  C3  UNL     1     -37.586   8.012  46.054  1.00  0.00     0.070 C 
HETATM    2  C4  UNL     1     -38.230   6.658  45.880  1.00  0.00    -0.002 C 
HETATM    3  C5  UNL     1     -39.748   6.906  45.945  1.00  0.00     0.010 C 
HETATM    4  C6  UNL     1     -40.153   7.877  44.880  1.00  0.00    -0.011 C 
HETATM    5  C7  UNL     1     -39.928   7.229  43.534  1.00  0.00     0.009 C 
HETATM    6  C8  UNL     1     -38.446   6.952  43.407  1.00  0.00    -0.011 C 
HETATM    7  C9  UNL     1     -38.008   6.040  44.528  1.00  0.00     0.010 C 
HETATM    8  C10 UNL     1     -37.635   8.224  43.532  1.00  0.00     0.044 C 
HETATM    9  C11 UNL     1     -37.866   8.859  44.859  1.00  0.00     0.133 C 
HETATM   10  C12 UNL     1     -39.376   9.169  44.902  1.00  0.00     0.044 C 
ENDROOT
BRANCH   1  11
HETATM   11  C2  UNL     1     -36.212   7.982  46.536  1.00  0.00    -0.017 C 
HETATM   12  C1  UNL     1     -35.023   7.461  45.815  1.00  0.00     0.063 C 
HETATM   13  N1  UNL     1     -35.890   8.440  47.719  1.00  0.00    -0.405 N 
ATOM     14  H12 UNL     1     -34.927   8.419  48.057  1.00  0.00     0.155 HD
ATOM     15  H11 UNL     1     -36.706   8.798  48.215  1.00  0.00     0.155 HD
ENDBRANCH   1  11
BRANCH   9  16
HETATM   16  N2  UNL     1     -37.157  10.122  44.915  1.00  0.00    -0.070 N 
ATOM     17  H23 UNL     1     -36.389  10.147  44.244  1.00  0.00     0.275 HD
ATOM     18  H22 UNL     1     -37.722  10.883  44.538  1.00  0.00     0.275 HD
ATOM     19  H21 UNL     1     -36.832  10.334  45.858  1.00  0.00     0.275 HD
ENDBRANCH   9  16
TORSDOF 2
ENDMDL
MODEL 3
REMARK VINA RESULT: -5.643776319      1.504      2.133
REMARK  2 active torsions:
REMARK  status: ('A' for Active; 'I' for Inactive)
REMARK    1  A    between atoms: C2_2  and  C3_6 
REMARK    2  A    between atoms: C11_14  and  N2_15 
ROOT
HETATM    1  C3  UNL     1     -36.356  10.859  43.821  1.00  0.00     0.070 C 
HETATM    2  C4  UNL     1     -36.552   9.434  44.276  1.00  0.00    -0.002 C 
HETATM    3  C5  UNL     1     -36.787   8.615  42.994  1.00  0.00     0.010 C 
HETATM    4  C6  UNL     1     -35.620   8.767  42.069  1.00  0.00    -0.011 C 
HETATM    5  C7  UNL     1     -34.413   8.129  42.716  1.00  0.00     0.009 C 
HETATM    6  C8  UNL     1     -34.129   8.889  43.993  1.00  0.00    -0.011 C 
HETATM    7  C9  UNL     1     -35.334   8.813  44.901  1.00  0.00     0.010 C 
HETATM    8  C10 UNL     1     -33.877  10.355  43.718  1.00  0.00     0.044 C 
HETATM    9  C11 UNL     1     -35.069  10.976  43.076  1.00  0.00     0.133 C 
HETATM   10  C12 UNL     1     -35.269  10.200  41.758  1.00  0.00     0.044 C 
ENDROOT
BRANCH   1  11
HETATM   11  C2  UNL     1     -36.628  11.871  44.833  1.00  0.00    -0.017 C 
HETATM   12  C1  UNL     1     -37.431  13.109  44.665  1.00  0.00     0.063 C 
HETATM   13  N1  UNL     1     -36.158  11.768  46.050  1.00  0.00    -0.405 N 
ATOM     14  H12 UNL     1     -36.349  12.477  46.758  1.00  0.00     0.155 HD
ATOM     15  H11 UNL     1     -35.607  10.918  46.165  1.00  0.00     0.155 HD
ENDBRANCH   1  11
BRANCH   9  16
HETATM   16  N2  UNL     1     -34.766  12.352  42.734  1.00  0.00    -0.070 N 
ATOM     17  H23 UNL     1     -33.944  12.413  42.133  1.00  0.00     0.275 HD
ATOM     18  H22 UNL     1     -35.461  12.737  42.094  1.00  0.00     0.275 HD
ATOM     19  H21 UNL     1     -34.662  12.935  43.564  1.00  0.00     0.275 HD
ENDBRANCH   9  16
TORSDOF 2
ENDMDL
MODEL 4
REMARK VINA RESULT: -5.630402793      3.198      4.438
REMARK  2 active torsions:
REMARK  status: ('A' for Active; 'I' for Inactive)
REMARK    1  A    between atoms: C2_2  and  C3_6 
REMARK    2  A    between atoms: C11_14  and  N2_15 
ROOT
HETATM    1  C3  UNL     1     -37.762   9.274  45.123  1.00  0.00     0.070 C 
HETATM    2  C4  UNL     1     -37.187  10.257  44.132  1.00  0.00    -0.002 C 
HETATM    3  C5  UNL     1     -36.485  11.337  44.975  1.00  0.00     0.010 C 
HETATM    4  C6  UNL     1     -35.435  10.710  45.837  1.00  0.00    -0.011 C 
HETATM    5  C7  UNL     1     -34.351  10.157  44.942  1.00  0.00     0.009 C 
HETATM    6  C8  UNL     1     -34.979   9.087  44.077  1.00  0.00    -0.011 C 
HETATM    7  C9  UNL     1     -36.098   9.692  43.263  1.00  0.00     0.010 C 
HETATM    8  C10 UNL     1     -35.591   7.987  44.919  1.00  0.00     0.044 C 
HETATM    9  C11 UNL     1     -36.655   8.540  45.802  1.00  0.00     0.133 C 
HETATM   10  C12 UNL     1     -35.943   9.578  46.694  1.00  0.00     0.044 C 
ENDROOT
BRANCH   1  11
HETATM   11  C2  UNL     1     -38.875   8.477  44.623  1.00  0.00    -0.017 C 
HETATM   12  C1  UNL     1     -38.830   7.456  43.546  1.00  0.00     0.063 C 
HETATM   13  N1  UNL     1     -40.082   8.602  45.113  1.00  0.00    -0.405 N 
ATOM     14  H12 UNL     1     -40.861   8.044  44.763  1.00  0.00     0.155 HD
ATOM     15  H11 UNL     1     -40.112   9.303  45.854  1.00  0.00     0.155 HD
ENDBRANCH   1  11
BRANCH   9  16
HETATM   16  N2  UNL     1     -37.155   7.488  46.665  1.00  0.00    -0.070 N 
ATOM     17  H23 UNL     1     -36.934   7.674  47.643  1.00  0.00     0.275 HD
ATOM     18  H22 UNL     1     -38.173   7.508  46.724  1.00  0.00     0.275 HD
ATOM     19  H21 UNL     1     -36.818   6.569  46.377  1.00  0.00     0.275 HD
ENDBRANCH   9  16
TORSDOF 2
ENDMDL
MODEL 5
REMARK VINA RESULT: -5.584642612      1.998      2.731
REMARK  2 active torsions:
REMARK  status: ('A' for Active; 'I' for Inactive)
REMARK    1  A    between atoms: C2_2  and  C3_6 
REMARK    2  A    between atoms: C11_14  and  N2_15 
ROOT
HETATM    1  C3  UNL     1     -37.026  10.788  44.549  1.00  0.00     0.070 C 
HETATM    2  C4  UNL     1     -37.598   9.506  45.107  1.00  0.00    -0.002 C 
HETATM    3  C5  UNL     1     -37.941   8.636  43.884  1.00  0.00     0.010 C 
HETATM    4  C6  UNL     1     -36.712   8.407  43.060  1.00  0.00    -0.011 C 
HETATM    5  C7  UNL     1     -35.746   7.571  43.867  1.00  0.00     0.009 C 
HETATM    6  C8  UNL     1     -35.371   8.373  45.094  1.00  0.00    -0.011 C 
HETATM    7  C9  UNL     1     -36.615   8.683  45.891  1.00  0.00     0.010 C 
HETATM    8  C10 UNL     1     -34.747   9.699  44.717  1.00  0.00     0.044 C 
HETATM    9  C11 UNL     1     -35.703  10.514  43.918  1.00  0.00     0.133 C 
HETATM   10  C12 UNL     1     -35.999   9.673  42.659  1.00  0.00     0.044 C 
ENDROOT
BRANCH   1  11
HETATM   11  C2  UNL     1     -37.109  11.937  45.441  1.00  0.00    -0.017 C 
HETATM   12  C1  UNL     1     -36.594  12.028  46.831  1.00  0.00     0.063 C 
HETATM   13  N1  UNL     1     -37.679  13.055  45.068  1.00  0.00    -0.405 N 
ATOM     14  H12 UNL     1     -37.736  13.859  45.693  1.00  0.00     0.155 HD
ATOM     15  H11 UNL     1     -38.032  12.992  44.113  1.00  0.00     0.155 HD
ENDBRANCH   1  11
BRANCH   9  16
HETATM   16  N2  UNL     1     -35.049  11.734  43.487  1.00  0.00    -0.070 N 
ATOM     17  H23 UNL     1     -35.646  12.548  43.634  1.00  0.00     0.275 HD
ATOM     18  H22 UNL     1     -34.282  11.984  44.111  1.00  0.00     0.275 HD
ATOM     19  H21 UNL     1     -34.734  11.675  42.519  1.00  0.00     0.275 HD
ENDBRANCH   9  16
TORSDOF 2
ENDMDL
