MODEL 1
REMARK VINA RESULT: -7.391856146      0.000      0.000
REMARK  5 active torsions:
REMARK  status: ('A' for Active; 'I' for Inactive)
REMARK    1  A    between atoms: C1_2  and  C2_3 
REMARK       I    between atoms: C1_2  and  N1_18 
REMARK    2  A    between atoms: C2_3  and  O2_4 
REMARK    3  A    between atoms: O2_4  and  C3_5 
REMARK    4  A    between atoms: C3_5  and  C4_7 
REMARK    5  A    between atoms: N1_18  and  C14_20 
ROOT
HETATM    1  C3  UNL     1      -2.998   2.806  11.005  1.00  0.00     0.270 C 
HETATM    2  O3  UNL     1      -2.238   2.589  10.046  1.00  0.00    -0.264 OA
ENDROOT
BRANCH   1   3
HETATM    3  O2  UNL     1      -3.852   1.833  11.457  1.00  0.00    -0.311 OA
BRANCH   3   4
HETATM    4  C2  UNL     1      -3.470   0.808  12.305  1.00  0.00     0.281 C 
BRANCH   4   5
HETATM    5  C1  UNL     1      -4.301   0.733  13.505  1.00  0.00     0.242 C 
HETATM    6  O1  UNL     1      -4.662  -0.440  13.883  1.00  0.00    -0.271 OA
HETATM    7  N1  UNL     1      -4.728   1.820  14.263  1.00  0.00    -0.355 N 
ATOM      8  H1  UNL     1      -4.454   2.765  13.992  1.00  0.00     0.162 HD
BRANCH   7   9
HETATM    9  C14 UNL     1      -5.560   1.620  15.441  1.00  0.00     0.084 C 
HETATM   10  C15 UNL     1      -4.726   1.616  16.704  1.00  0.00     0.025 C 
HETATM   11  C16 UNL     1      -5.817   1.795  17.764  1.00  0.00     0.002 C 
HETATM   12  C17 UNL     1      -6.597   2.950  17.165  1.00  0.00     0.002 C 
HETATM   13  C18 UNL     1      -6.466   2.817  15.666  1.00  0.00     0.025 C 
ENDBRANCH   7   9
ENDBRANCH   4   5
ENDBRANCH   3   4
ENDBRANCH   1   3
BRANCH   1  14
HETATM   14  C4  UNL     1      -2.995   4.114  11.674  1.00  0.00     0.074 C 
HETATM   15  C5  UNL     1      -4.349   4.476  12.193  1.00  0.00     0.027 C 
HETATM   16  C6  UNL     1      -4.314   5.726  13.023  1.00  0.00    -0.011 C 
HETATM   17  C7  UNL     1      -4.113   5.464  14.478  1.00  0.00     0.031 C 
HETATM   18  C12 UNL     1      -3.416   6.794  12.466  1.00  0.00     0.009 C 
HETATM   19  C8  UNL     1      -2.945   4.647  14.853  1.00  0.00     0.168 C 
HETATM   20  O4  UNL     1      -2.475   3.760  13.962  1.00  0.00    -0.385 OA
HETATM   21  C9  UNL     1      -1.949   4.164  12.797  1.00  0.00     0.140 C 
HETATM   22  C10 UNL     1      -1.294   5.484  12.734  1.00  0.00     0.038 C 
HETATM   23  C11 UNL     1      -2.176   6.294  11.817  1.00  0.00    -0.010 C 
HETATM   24  C13 UNL     1      -2.536   5.238  10.762  1.00  0.00     0.027 C 
ENDBRANCH   1  14
TORSDOF 5
ENDMDL
MODEL 2
REMARK VINA RESULT: -7.380219545      0.945      1.070
REMARK  5 active torsions:
REMARK  status: ('A' for Active; 'I' for Inactive)
REMARK    1  A    between atoms: C1_2  and  C2_3 
REMARK       I    between atoms: C1_2  and  N1_18 
REMARK    2  A    between atoms: C2_3  and  O2_4 
REMARK    3  A    between atoms: O2_4  and  C3_5 
REMARK    4  A    between atoms: C3_5  and  C4_7 
REMARK    5  A    between atoms: N1_18  and  C14_20 
ROOT
HETATM    1  C3  UNL     1      -3.176   3.220  10.760  1.00  0.00     0.270 C 
HETATM    2  O3  UNL     1      -4.135   3.111   9.977  1.00  0.00    -0.264 OA
ENDROOT
BRANCH   1   3
HETATM    3  O2  UNL     1      -2.322   2.169  10.972  1.00  0.00    -0.311 OA
BRANCH   3   4
HETATM    4  C2  UNL     1      -2.741   0.889  11.292  1.00  0.00     0.281 C 
BRANCH   4   5
HETATM    5  C1  UNL     1      -3.688   0.870  12.405  1.00  0.00     0.242 C 
HETATM    6  O1  UNL     1      -4.758   0.180  12.239  1.00  0.00    -0.271 OA
HETATM    7  N1  UNL     1      -3.524   1.533  13.619  1.00  0.00    -0.355 N 
ATOM      8  H1  UNL     1      -2.682   2.086  13.784  1.00  0.00     0.162 HD
BRANCH   7   9
HETATM    9  C14 UNL     1      -4.543   1.443  14.654  1.00  0.00     0.084 C 
HETATM   10  C15 UNL     1      -3.932   1.581  16.033  1.00  0.00     0.025 C 
HETATM   11  C16 UNL     1      -5.185   1.853  16.871  1.00  0.00     0.002 C 
HETATM   12  C17 UNL     1      -5.850   2.929  16.034  1.00  0.00     0.002 C 
HETATM   13  C18 UNL     1      -5.469   2.645  14.599  1.00  0.00     0.025 C 
ENDBRANCH   7   9
ENDBRANCH   4   5
ENDBRANCH   3   4
ENDBRANCH   1   3
BRANCH   1  14
HETATM   14  C4  UNL     1      -2.941   4.482  11.475  1.00  0.00     0.074 C 
HETATM   15  C5  UNL     1      -4.153   4.930  12.224  1.00  0.00     0.027 C 
HETATM   16  C6  UNL     1      -3.865   6.122  13.091  1.00  0.00    -0.011 C 
HETATM   17  C7  UNL     1      -3.462   5.759  14.480  1.00  0.00     0.031 C 
HETATM   18  C12 UNL     1      -2.968   7.138  12.441  1.00  0.00     0.009 C 
HETATM   19  C8  UNL     1      -2.334   4.821  14.623  1.00  0.00     0.168 C 
HETATM   20  O4  UNL     1      -2.100   3.950  13.629  1.00  0.00    -0.385 OA
HETATM   21  C9  UNL     1      -1.729   4.372  12.413  1.00  0.00     0.140 C 
HETATM   22  C10 UNL     1      -0.967   5.630  12.300  1.00  0.00     0.038 C 
HETATM   23  C11 UNL     1      -1.902   6.568  11.576  1.00  0.00    -0.010 C 
HETATM   24  C13 UNL     1      -2.526   5.611  10.550  1.00  0.00     0.027 C 
ENDBRANCH   1  14
TORSDOF 5
ENDMDL
MODEL 3
REMARK VINA RESULT: -7.345416495      1.155      2.128
REMARK  5 active torsions:
REMARK  status: ('A' for Active; 'I' for Inactive)
REMARK    1  A    between atoms: C1_2  and  C2_3 
REMARK       I    between atoms: C1_2  and  N1_18 
REMARK    2  A    between atoms: C2_3  and  O2_4 
REMARK    3  A    between atoms: O2_4  and  C3_5 
REMARK    4  A    between atoms: C3_5  and  C4_7 
REMARK    5  A    between atoms: N1_18  and  C14_20 
ROOT
HETATM    1  C3  UNL     1      -2.846   3.102  11.732  1.00  0.00     0.270 C 
HETATM    2  O3  UNL     1      -2.824   2.988  10.495  1.00  0.00    -0.264 OA
ENDROOT
BRANCH   1   3
HETATM    3  O2  UNL     1      -2.689   2.006  12.541  1.00  0.00    -0.311 OA
BRANCH   3   4
HETATM    4  C2  UNL     1      -3.520   0.899  12.506  1.00  0.00     0.281 C 
BRANCH   4   5
HETATM    5  C1  UNL     1      -4.362   0.791  13.696  1.00  0.00     0.242 C 
HETATM    6  O1  UNL     1      -4.703  -0.394  14.054  1.00  0.00    -0.271 OA
HETATM    7  N1  UNL     1      -4.816   1.859  14.465  1.00  0.00    -0.355 N 
ATOM      8  H1  UNL     1      -4.558   2.813  14.210  1.00  0.00     0.162 HD
BRANCH   7   9
HETATM    9  C14 UNL     1      -5.656   1.626  15.631  1.00  0.00     0.084 C 
HETATM   10  C15 UNL     1      -4.831   1.600  16.900  1.00  0.00     0.025 C 
HETATM   11  C16 UNL     1      -5.932   1.747  17.956  1.00  0.00     0.002 C 
HETATM   12  C17 UNL     1      -6.715   2.909  17.378  1.00  0.00     0.002 C 
HETATM   13  C18 UNL     1      -6.572   2.812  15.877  1.00  0.00     0.025 C 
ENDBRANCH   7   9
ENDBRANCH   4   5
ENDBRANCH   3   4
ENDBRANCH   1   3
BRANCH   1  14
HETATM   14  C4  UNL     1      -3.042   4.419  12.353  1.00  0.00     0.074 C 
HETATM   15  C5  UNL     1      -2.341   5.500  11.597  1.00  0.00     0.027 C 
HETATM   16  C6  UNL     1      -2.680   6.864  12.128  1.00  0.00    -0.011 C 
HETATM   17  C7  UNL     1      -3.842   7.495  11.438  1.00  0.00     0.031 C 
HETATM   18  C12 UNL     1      -2.753   6.925  13.627  1.00  0.00     0.009 C 
HETATM   19  C8  UNL     1      -5.091   6.713  11.387  1.00  0.00     0.168 C 
HETATM   20  O4  UNL     1      -5.007   5.374  11.427  1.00  0.00    -0.385 OA
HETATM   21  C9  UNL     1      -4.536   4.743  12.511  1.00  0.00     0.140 C 
HETATM   22  C10 UNL     1      -4.714   5.374  13.832  1.00  0.00     0.038 C 
HETATM   23  C11 UNL     1      -3.313   5.711  14.277  1.00  0.00    -0.010 C 
HETATM   24  C13 UNL     1      -2.553   4.469  13.789  1.00  0.00     0.027 C 
ENDBRANCH   1  14
TORSDOF 5
ENDMDL
MODEL 4
REMARK VINA RESULT: -7.289303642      1.573      4.237
REMARK  5 active torsions:
REMARK  status: ('A' for Active; 'I' for Inactive)
REMARK    1  A    between atoms: C1_2  and  C2_3 
REMARK       I    between atoms: C1_2  and  N1_18 
REMARK    2  A    between atoms: C2_3  and  O2_4 
REMARK    3  A    between atoms: O2_4  and  C3_5 
REMARK    4  A    between atoms: C3_5  and  C4_7 
REMARK    5  A    between atoms: N1_18  and  C14_20 
ROOT
HETATM    1  C3  UNL     1      -4.525   3.782  15.318  1.00  0.00     0.270 C 
HETATM    2  O3  UNL     1      -5.743   3.980  15.465  1.00  0.00    -0.264 OA
ENDROOT
BRANCH   1   3
HETATM    3  O2  UNL     1      -3.901   2.740  15.957  1.00  0.00    -0.311 OA
BRANCH   3   4
HETATM    4  C2  UNL     1      -4.471   1.490  16.126  1.00  0.00     0.281 C 
BRANCH   4   5
HETATM    5  C1  UNL     1      -4.446   0.692  14.901  1.00  0.00     0.242 C 
HETATM    6  O1  UNL     1      -4.779  -0.543  15.012  1.00  0.00    -0.271 OA
HETATM    7  N1  UNL     1      -4.096   1.160  13.637  1.00  0.00    -0.355 N 
ATOM      8  H1  UNL     1      -3.831   2.138  13.515  1.00  0.00     0.162 HD
BRANCH   7   9
HETATM    9  C14 UNL     1      -4.104   0.266  12.489  1.00  0.00     0.084 C 
HETATM   10  C15 UNL     1      -5.019   0.787  11.400  1.00  0.00     0.025 C 
HETATM   11  C16 UNL     1      -4.557  -0.065  10.213  1.00  0.00     0.002 C 
HETATM   12  C17 UNL     1      -3.054   0.098  10.324  1.00  0.00     0.002 C 
HETATM   13  C18 UNL     1      -2.754   0.273  11.795  1.00  0.00     0.025 C 
ENDBRANCH   7   9
ENDBRANCH   4   5
ENDBRANCH   3   4
ENDBRANCH   1   3
BRANCH   1  14
HETATM   14  C4  UNL     1      -3.727   4.664  14.456  1.00  0.00     0.074 C 
HETATM   15  C5  UNL     1      -2.293   4.247  14.409  1.00  0.00     0.027 C 
HETATM   16  C6  UNL     1      -1.514   5.039  13.399  1.00  0.00    -0.011 C 
HETATM   17  C7  UNL     1      -1.472   4.398  12.051  1.00  0.00     0.031 C 
HETATM   18  C12 UNL     1      -1.871   6.498  13.370  1.00  0.00     0.009 C 
HETATM   19  C8  UNL     1      -2.767   4.046  11.441  1.00  0.00     0.168 C 
HETATM   20  O4  UNL     1      -3.805   3.789  12.251  1.00  0.00    -0.385 OA
HETATM   21  C9  UNL     1      -4.319   4.742  13.040  1.00  0.00     0.140 C 
HETATM   22  C10 UNL     1      -4.234   6.148  12.602  1.00  0.00     0.038 C 
HETATM   23  C11 UNL     1      -3.309   6.795  13.603  1.00  0.00    -0.010 C 
HETATM   24  C13 UNL     1      -3.772   6.115  14.899  1.00  0.00     0.027 C 
ENDBRANCH   1  14
TORSDOF 5
ENDMDL
MODEL 5
REMARK VINA RESULT: -7.278115141      1.851      4.966
REMARK  5 active torsions:
REMARK  status: ('A' for Active; 'I' for Inactive)
REMARK    1  A    between atoms: C1_2  and  C2_3 
REMARK       I    between atoms: C1_2  and  N1_18 
REMARK    2  A    between atoms: C2_3  and  O2_4 
REMARK    3  A    between atoms: O2_4  and  C3_5 
REMARK    4  A    between atoms: C3_5  and  C4_7 
REMARK    5  A    between atoms: N1_18  and  C14_20 
ROOT
HETATM    1  C3  UNL     1      -4.808   1.900  12.378  1.00  0.00     0.270 C 
HETATM    2  O3  UNL     1      -5.658   1.943  11.472  1.00  0.00    -0.264 OA
ENDROOT
BRANCH   1   3
HETATM    3  O2  UNL     1      -3.802   0.968  12.352  1.00  0.00    -0.311 OA
BRANCH   3   4
HETATM    4  C2  UNL     1      -2.864   0.876  11.338  1.00  0.00     0.281 C 
BRANCH   4   5
HETATM    5  C1  UNL     1      -2.247   2.163  11.025  1.00  0.00     0.242 C 
HETATM    6  O1  UNL     1      -2.617   2.728   9.933  1.00  0.00    -0.271 OA
HETATM    7  N1  UNL     1      -1.302   2.819  11.809  1.00  0.00    -0.355 N 
ATOM      8  H1  UNL     1      -0.990   2.398  12.685  1.00  0.00     0.162 HD
BRANCH   7   9
HETATM    9  C14 UNL     1      -0.754   4.101  11.389  1.00  0.00     0.084 C 
HETATM   10  C15 UNL     1      -0.780   5.103  12.523  1.00  0.00     0.025 C 
HETATM   11  C16 UNL     1       0.173   6.172  11.978  1.00  0.00     0.002 C 
HETATM   12  C17 UNL     1       1.332   5.304  11.528  1.00  0.00     0.002 C 
HETATM   13  C18 UNL     1       0.734   3.981  11.110  1.00  0.00     0.025 C 
ENDBRANCH   7   9
ENDBRANCH   4   5
ENDBRANCH   3   4
ENDBRANCH   1   3
BRANCH   1  14
HETATM   14  C4  UNL     1      -4.865   2.851  13.497  1.00  0.00     0.074 C 
HETATM   15  C5  UNL     1      -6.254   3.001  14.027  1.00  0.00     0.027 C 
HETATM   16  C6  UNL     1      -6.289   3.835  15.275  1.00  0.00    -0.011 C 
HETATM   17  C7  UNL     1      -6.177   3.031  16.527  1.00  0.00     0.031 C 
HETATM   18  C12 UNL     1      -5.372   5.025  15.230  1.00  0.00     0.009 C 
HETATM   19  C8  UNL     1      -5.024   2.119  16.632  1.00  0.00     0.168 C 
HETATM   20  O4  UNL     1      -4.487   1.638  15.501  1.00  0.00    -0.385 OA
HETATM   21  C9  UNL     1      -3.893   2.451  14.617  1.00  0.00     0.140 C 
HETATM   22  C10 UNL     1      -3.253   3.686  15.109  1.00  0.00     0.038 C 
HETATM   23  C11 UNL     1      -4.086   4.798  14.519  1.00  0.00    -0.010 C 
HETATM   24  C13 UNL     1      -4.364   4.233  13.119  1.00  0.00     0.027 C 
ENDBRANCH   1  14
TORSDOF 5
ENDMDL
