MODEL 1
REMARK VINA RESULT: -6.936992494      0.000      0.000
REMARK  5 active torsions:
REMARK  status: ('A' for Active; 'I' for Inactive)
REMARK    1  A    between atoms: C2_2  and  C3_3 
REMARK    2  A    between atoms: C3_3  and  O1_4 
REMARK    3  A    between atoms: N1_10  and  C7_11 
REMARK    4  A    between atoms: N2_14  and  C10_15 
REMARK    5  A    between atoms: C10_15  and  C11_16 
ROOT
HETATM    1  C7  UNL     1      -4.033   3.254  11.830  1.00  0.00     0.246 C 
HETATM    2  C8  UNL     1      -4.751   2.091  11.142  1.00  0.00     0.082 C 
HETATM    3  C9  UNL     1      -4.467   0.906  12.044  1.00  0.00     0.065 C 
HETATM    4  N2  UNL     1      -3.999   1.385  13.265  1.00  0.00    -0.371 N 
HETATM    5  C17 UNL     1      -3.460   2.710  13.087  1.00  0.00     0.163 C 
ENDROOT
BRANCH   1   6
HETATM    6  N1  UNL     1      -3.100   3.775  10.878  1.00  0.00     0.100 N 
HETATM    7  C6  UNL     1      -3.532   5.040  10.309  1.00  0.00     0.299 C 
HETATM    8  C5  UNL     1      -3.273   4.988   8.843  1.00  0.00     0.198 C 
HETATM    9  O2  UNL     1      -2.014   5.272   8.426  1.00  0.00    -0.386 OA
HETATM   10  C4  UNL     1      -0.999   5.177   9.331  1.00  0.00     0.207 C 
HETATM   11  C3  UNL     1      -0.905   3.834  10.008  1.00  0.00     0.105 C 
HETATM   12  C18 UNL     1      -1.727   3.828  11.307  1.00  0.00     0.312 C 
BRANCH  11  13
HETATM   13  C2  UNL     1       0.523   3.552  10.388  1.00  0.00     0.037 C 
HETATM   14  C1  UNL     1       1.503   3.954   9.319  1.00  0.00     0.008 C 
ENDBRANCH  11  13
BRANCH  11  15
HETATM   15  O1  UNL     1      -1.434   2.835   9.210  1.00  0.00    -0.386 OA
ATOM     16  H1  UNL     1      -2.286   2.550   9.518  1.00  0.00     0.210 HD
ENDBRANCH  11  15
ENDBRANCH   1   6
BRANCH   4  17
HETATM   17  C10 UNL     1      -4.438   0.991  14.501  1.00  0.00     0.067 C 
BRANCH  17  18
HETATM   18  C11 UNL     1      -4.877   1.987  15.534  1.00  0.00     0.024 C 
HETATM   19  C12 UNL     1      -5.290   1.139  16.739  1.00  0.00     0.010 C 
HETATM   20  C13 UNL     1      -5.974   1.866  17.824  1.00  0.00     0.001 C 
HETATM   21  C14 UNL     1      -7.042   2.823  17.327  1.00  0.00     0.000 C 
HETATM   22  C15 UNL     1      -6.511   3.711  16.248  1.00  0.00     0.001 C 
HETATM   23  C16 UNL     1      -6.035   2.805  15.111  1.00  0.00     0.010 C 
ENDBRANCH  17  18
ENDBRANCH   4  17
TORSDOF 5
ENDMDL
MODEL 2
REMARK VINA RESULT: -6.878337227      1.368      2.207
REMARK  5 active torsions:
REMARK  status: ('A' for Active; 'I' for Inactive)
REMARK    1  A    between atoms: C2_2  and  C3_3 
REMARK    2  A    between atoms: C3_3  and  O1_4 
REMARK    3  A    between atoms: N1_10  and  C7_11 
REMARK    4  A    between atoms: N2_14  and  C10_15 
REMARK    5  A    between atoms: C10_15  and  C11_16 
ROOT
HETATM    1  C7  UNL     1      -2.918   3.538  12.729  1.00  0.00     0.246 C 
HETATM    2  C8  UNL     1      -2.149   4.435  13.702  1.00  0.00     0.082 C 
HETATM    3  C9  UNL     1      -3.238   5.182  14.445  1.00  0.00     0.065 C 
HETATM    4  N2  UNL     1      -4.449   4.532  14.220  1.00  0.00    -0.371 N 
HETATM    5  C17 UNL     1      -4.360   3.755  13.010  1.00  0.00     0.163 C 
ENDROOT
BRANCH   1   6
HETATM    6  N1  UNL     1      -2.467   3.882  11.416  1.00  0.00     0.100 N 
HETATM    7  C6  UNL     1      -3.245   4.957  10.823  1.00  0.00     0.299 C 
HETATM    8  C5  UNL     1      -3.519   4.588   9.406  1.00  0.00     0.198 C 
HETATM    9  O2  UNL     1      -2.543   4.845   8.500  1.00  0.00    -0.386 OA
HETATM   10  C4  UNL     1      -1.270   5.019   8.956  1.00  0.00     0.207 C 
HETATM   11  C3  UNL     1      -0.755   3.873   9.788  1.00  0.00     0.105 C 
HETATM   12  C18 UNL     1      -1.053   4.113  11.277  1.00  0.00     0.312 C 
BRANCH  11  13
HETATM   13  C2  UNL     1       0.739   3.770   9.648  1.00  0.00     0.037 C 
HETATM   14  C1  UNL     1       1.472   4.142  10.908  1.00  0.00     0.008 C 
ENDBRANCH  11  13
BRANCH  11  15
HETATM   15  O1  UNL     1      -1.387   2.689   9.453  1.00  0.00    -0.386 OA
ATOM     16  H1  UNL     1      -2.271   2.649   9.799  1.00  0.00     0.210 HD
ENDBRANCH  11  15
ENDBRANCH   1   6
BRANCH   4  17
HETATM   17  C10 UNL     1      -5.365   4.192  15.179  1.00  0.00     0.067 C 
BRANCH  17  18
HETATM   18  C11 UNL     1      -5.712   2.759  15.464  1.00  0.00     0.024 C 
HETATM   19  C12 UNL     1      -6.826   2.831  16.510  1.00  0.00     0.010 C 
HETATM   20  C13 UNL     1      -7.201   1.546  17.129  1.00  0.00     0.001 C 
HETATM   21  C14 UNL     1      -6.005   0.703  17.535  1.00  0.00     0.000 C 
HETATM   22  C15 UNL     1      -5.033   0.567  16.406  1.00  0.00     0.001 C 
HETATM   23  C16 UNL     1      -4.586   1.980  16.025  1.00  0.00     0.010 C 
ENDBRANCH  17  18
ENDBRANCH   4  17
TORSDOF 5
ENDMDL
MODEL 3
REMARK VINA RESULT: -6.832261570      1.678      2.392
REMARK  5 active torsions:
REMARK  status: ('A' for Active; 'I' for Inactive)
REMARK    1  A    between atoms: C2_2  and  C3_3 
REMARK    2  A    between atoms: C3_3  and  O1_4 
REMARK    3  A    between atoms: N1_10  and  C7_11 
REMARK    4  A    between atoms: N2_14  and  C10_15 
REMARK    5  A    between atoms: C10_15  and  C11_16 
ROOT
HETATM    1  C7  UNL     1      -2.493   3.761  12.305  1.00  0.00     0.246 C 
HETATM    2  C8  UNL     1      -1.923   4.710  13.363  1.00  0.00     0.082 C 
HETATM    3  C9  UNL     1      -2.774   4.440  14.587  1.00  0.00     0.065 C 
HETATM    4  N2  UNL     1      -3.463   3.246  14.391  1.00  0.00    -0.371 N 
HETATM    5  C17 UNL     1      -3.555   2.971  12.978  1.00  0.00     0.163 C 
ENDROOT
BRANCH   1   6
HETATM    6  N1  UNL     1      -2.909   4.581  11.208  1.00  0.00     0.100 N 
HETATM    7  C6  UNL     1      -3.495   5.838  11.643  1.00  0.00     0.299 C 
HETATM    8  C5  UNL     1      -4.710   6.080  10.816  1.00  0.00     0.198 C 
HETATM    9  O2  UNL     1      -4.526   6.632   9.591  1.00  0.00    -0.386 OA
HETATM   10  C4  UNL     1      -3.288   6.549   9.027  1.00  0.00     0.207 C 
HETATM   11  C3  UNL     1      -2.755   5.144   8.919  1.00  0.00     0.105 C 
HETATM   12  C18 UNL     1      -1.935   4.782  10.168  1.00  0.00     0.312 C 
BRANCH  11  13
HETATM   13  C2  UNL     1      -1.831   5.036   7.737  1.00  0.00     0.037 C 
HETATM   14  C1  UNL     1      -0.718   4.048   7.953  1.00  0.00     0.008 C 
ENDBRANCH  11  13
BRANCH  11  15
HETATM   15  O1  UNL     1      -3.786   4.223   8.854  1.00  0.00    -0.386 OA
ATOM     16  H1  UNL     1      -4.527   4.481   9.390  1.00  0.00     0.210 HD
ENDBRANCH  11  15
ENDBRANCH   1   6
BRANCH   4  17
HETATM   17  C10 UNL     1      -3.555   2.217  15.289  1.00  0.00     0.067 C 
BRANCH  17  18
HETATM   18  C11 UNL     1      -4.635   2.176  16.331  1.00  0.00     0.024 C 
HETATM   19  C12 UNL     1      -4.992   0.693  16.460  1.00  0.00     0.010 C 
HETATM   20  C13 UNL     1      -6.190   0.396  17.267  1.00  0.00     0.001 C 
HETATM   21  C14 UNL     1      -7.365   1.306  16.956  1.00  0.00     0.000 C 
HETATM   22  C15 UNL     1      -6.957   2.744  16.991  1.00  0.00     0.001 C 
HETATM   23  C16 UNL     1      -5.853   2.924  15.949  1.00  0.00     0.010 C 
ENDBRANCH  17  18
ENDBRANCH   4  17
TORSDOF 5
ENDMDL
MODEL 4
REMARK VINA RESULT: -6.815608057      2.192      3.752
REMARK  5 active torsions:
REMARK  status: ('A' for Active; 'I' for Inactive)
REMARK    1  A    between atoms: C2_2  and  C3_3 
REMARK    2  A    between atoms: C3_3  and  O1_4 
REMARK    3  A    between atoms: N1_10  and  C7_11 
REMARK    4  A    between atoms: N2_14  and  C10_15 
REMARK    5  A    between atoms: C10_15  and  C11_16 
ROOT
HETATM    1  C7  UNL     1      -2.910   4.142  12.201  1.00  0.00     0.246 C 
HETATM    2  C8  UNL     1      -2.139   4.984  13.221  1.00  0.00     0.082 C 
HETATM    3  C9  UNL     1      -2.816   4.666  14.539  1.00  0.00     0.065 C 
HETATM    4  N2  UNL     1      -3.592   3.521  14.370  1.00  0.00    -0.371 N 
HETATM    5  C17 UNL     1      -3.904   3.354  12.973  1.00  0.00     0.163 C 
ENDROOT
BRANCH   1   6
HETATM    6  N1  UNL     1      -3.434   5.057  11.234  1.00  0.00     0.100 N 
HETATM    7  C6  UNL     1      -3.153   4.647   9.869  1.00  0.00     0.299 C 
HETATM    8  C5  UNL     1      -2.721   5.856   9.114  1.00  0.00     0.198 C 
HETATM    9  O2  UNL     1      -3.696   6.666   8.631  1.00  0.00    -0.386 OA
HETATM   10  C4  UNL     1      -4.938   6.580   9.186  1.00  0.00     0.207 C 
HETATM   11  C3  UNL     1      -4.956   6.777  10.680  1.00  0.00     0.105 C 
HETATM   12  C18 UNL     1      -4.815   5.427  11.402  1.00  0.00     0.312 C 
BRANCH  11  13
HETATM   13  C2  UNL     1      -6.273   7.368  11.103  1.00  0.00     0.037 C 
HETATM   14  C1  UNL     1      -7.201   7.617   9.945  1.00  0.00     0.008 C 
ENDBRANCH  11  13
BRANCH  11  15
HETATM   15  O1  UNL     1      -3.886   7.550  11.095  1.00  0.00    -0.386 OA
ATOM     16  H1  UNL     1      -3.179   7.020  11.444  1.00  0.00     0.210 HD
ENDBRANCH  11  15
ENDBRANCH   1   6
BRANCH   4  17
HETATM   17  C10 UNL     1      -3.610   2.435  15.204  1.00  0.00     0.067 C 
BRANCH  17  18
HETATM   18  C11 UNL     1      -4.641   2.290  16.285  1.00  0.00     0.024 C 
HETATM   19  C12 UNL     1      -4.929   0.788  16.346  1.00  0.00     0.010 C 
HETATM   20  C13 UNL     1      -6.076   0.394  17.184  1.00  0.00     0.001 C 
HETATM   21  C14 UNL     1      -7.301   1.266  16.974  1.00  0.00     0.000 C 
HETATM   22  C15 UNL     1      -6.954   2.717  17.072  1.00  0.00     0.001 C 
HETATM   23  C16 UNL     1      -5.905   3.002  15.996  1.00  0.00     0.010 C 
ENDBRANCH  17  18
ENDBRANCH   4  17
TORSDOF 5
ENDMDL
MODEL 5
REMARK VINA RESULT: -6.723759687      3.526      7.386
REMARK  5 active torsions:
REMARK  status: ('A' for Active; 'I' for Inactive)
REMARK    1  A    between atoms: C2_2  and  C3_3 
REMARK    2  A    between atoms: C3_3  and  O1_4 
REMARK    3  A    between atoms: N1_10  and  C7_11 
REMARK    4  A    between atoms: N2_14  and  C10_15 
REMARK    5  A    between atoms: C10_15  and  C11_16 
ROOT
HETATM    1  C7  UNL     1      -5.283   3.683  13.729  1.00  0.00     0.246 C 
HETATM    2  C8  UNL     1      -4.904   4.812  14.691  1.00  0.00     0.082 C 
HETATM    3  C9  UNL     1      -3.758   5.515  13.990  1.00  0.00     0.065 C 
HETATM    4  N2  UNL     1      -3.741   5.109  12.658  1.00  0.00    -0.371 N 
HETATM    5  C17 UNL     1      -4.415   3.841  12.534  1.00  0.00     0.163 C 
ENDROOT
BRANCH   1   6
HETATM    6  N1  UNL     1      -5.142   2.462  14.462  1.00  0.00     0.100 N 
HETATM    7  C6  UNL     1      -4.066   1.629  13.953  1.00  0.00     0.299 C 
HETATM    8  C5  UNL     1      -4.564   0.225  13.908  1.00  0.00     0.198 C 
HETATM    9  O2  UNL     1      -4.519  -0.485  15.063  1.00  0.00    -0.386 OA
HETATM   10  C4  UNL     1      -4.430   0.201  16.237  1.00  0.00     0.207 C 
HETATM   11  C3  UNL     1      -5.521   1.221  16.436  1.00  0.00     0.105 C 
HETATM   12  C18 UNL     1      -5.081   2.591  15.893  1.00  0.00     0.312 C 
BRANCH  11  13
HETATM   13  C2  UNL     1      -5.798   1.396  17.904  1.00  0.00     0.037 C 
HETATM   14  C1  UNL     1      -6.477   2.701  18.220  1.00  0.00     0.008 C 
ENDBRANCH  11  13
BRANCH  11  15
HETATM   15  O1  UNL     1      -6.662   0.876  15.733  1.00  0.00    -0.386 OA
ATOM     16  H1  UNL     1      -6.584   1.080  14.808  1.00  0.00     0.210 HD
ENDBRANCH  11  15
ENDBRANCH   1   6
BRANCH   4  17
HETATM   17  C10 UNL     1      -3.641   5.934  11.570  1.00  0.00     0.067 C 
BRANCH  17  18
HETATM   18  C11 UNL     1      -4.382   7.238  11.501  1.00  0.00     0.024 C 
HETATM   19  C12 UNL     1      -5.822   6.848  11.160  1.00  0.00     0.010 C 
HETATM   20  C13 UNL     1      -6.718   7.966  10.816  1.00  0.00     0.001 C 
HETATM   21  C14 UNL     1      -6.091   8.969   9.863  1.00  0.00     0.000 C 
HETATM   22  C15 UNL     1      -4.745   9.403  10.348  1.00  0.00     0.001 C 
HETATM   23  C16 UNL     1      -3.876   8.148  10.450  1.00  0.00     0.010 C 
ENDBRANCH  17  18
ENDBRANCH   4  17
TORSDOF 5
ENDMDL
