MODEL 1
REMARK VINA RESULT: -8.795475645      0.000      0.000
REMARK  4 active torsions:
REMARK  status: ('A' for Active; 'I' for Inactive)
REMARK    1  A    between atoms: O1_2  and  C2_3 
REMARK    2  A    between atoms: C6_7  and  O2_8 
REMARK    3  A    between atoms: C9_12  and  O3_13 
REMARK    4  A    between atoms: C11_16  and  O4_17 
ROOT
HETATM    1  C2  UNL     1       6.234  -8.668 -12.875  1.00  0.00     0.116 A 
HETATM    2  C3  UNL     1       5.968  -7.337 -13.040  1.00  0.00     0.054 A 
HETATM    3  C4  UNL     1       4.768  -6.783 -12.656  1.00  0.00    -0.022 A 
HETATM    4  C5  UNL     1       3.855  -7.662 -12.093  1.00  0.00     0.022 A 
HETATM    5  C6  UNL     1       2.636  -7.189 -11.664  1.00  0.00     0.095 A 
HETATM    6  C7  UNL     1       1.658  -7.970 -11.074  1.00  0.00     0.093 A 
HETATM    7  C8  UNL     1       1.932  -9.301 -10.912  1.00  0.00     0.093 A 
HETATM    8  C9  UNL     1       3.156  -9.829 -11.334  1.00  0.00     0.097 A 
HETATM    9  C10 UNL     1       4.113  -9.016 -11.919  1.00  0.00     0.048 A 
HETATM   10  C11 UNL     1       5.310  -9.571 -12.303  1.00  0.00     0.114 A 
HETATM   11  C12 UNL     1       0.736  -9.853 -10.280  1.00  0.00     0.305 A 
HETATM   12  O5  UNL     1       0.592 -11.054  -9.966  1.00  0.00    -0.259 OA
HETATM   13  O6  UNL     1      -0.218  -8.867 -10.075  1.00  0.00    -0.237 OA
HETATM   14  C13 UNL     1       0.326  -7.689 -10.558  1.00  0.00     0.305 A 
HETATM   15  O7  UNL     1      -0.217  -6.566 -10.560  1.00  0.00    -0.259 OA
HETATM   16  C14 UNL     1       4.753  -5.348 -12.959  1.00  0.00     0.040 C 
HETATM   17  C15 UNL     1       5.218  -4.515 -11.820  1.00  0.00     0.027 C 
HETATM   18  C16 UNL     1       5.148  -3.040 -12.169  1.00  0.00     0.016 C 
HETATM   19  C17 UNL     1       5.747  -2.301 -10.967  1.00  0.00     0.023 C 
HETATM   20  C18 UNL     1       3.725  -2.535 -12.282  1.00  0.00     0.023 C 
HETATM   21  C19 UNL     1       5.914  -2.828 -13.407  1.00  0.00     0.160 C 
HETATM   22  O8  UNL     1       6.222  -1.676 -13.683  1.00  0.00    -0.295 OA
HETATM   23  C20 UNL     1       6.327  -3.892 -14.315  1.00  0.00     0.172 A 
HETATM   24  C21 UNL     1       6.344  -3.453 -15.774  1.00  0.00     0.221 A 
HETATM   25  O9  UNL     1       5.599  -3.101 -16.716  1.00  0.00    -0.287 OA
HETATM   26  C22 UNL     1       7.567  -3.772 -15.081  1.00  0.00     0.221 A 
HETATM   27  O10 UNL     1       8.820  -3.875 -15.111  1.00  0.00    -0.287 OA
HETATM   28  C23 UNL     1       5.827  -5.252 -14.056  1.00  0.00     0.059 C 
HETATM   29  C24 UNL     1       5.209  -5.809 -15.342  1.00  0.00     0.027 C 
HETATM   30  C25 UNL     1       6.786  -6.241 -13.590  1.00  0.00     0.174 C 
HETATM   31  O11 UNL     1       8.029  -6.194 -13.636  1.00  0.00    -0.291 OA
ENDROOT
BRANCH   1  32
HETATM   32  O1  UNL     1       7.465  -9.217 -13.273  1.00  0.00    -0.352 OA
HETATM   33  C1  UNL     1       7.563  -9.548 -14.652  1.00  0.00     0.210 C 
ENDBRANCH   1  32
BRANCH   5  34
HETATM   34  O2  UNL     1       2.380  -5.857 -11.833  1.00  0.00    -0.359 OA
ATOM     35  H2  UNL     1       1.471  -5.589 -11.891  1.00  0.00     0.217 HD
ENDBRANCH   5  34
BRANCH  10  36
HETATM   36  O4  UNL     1       5.643 -10.864 -12.175  1.00  0.00    -0.357 OA
ATOM     37  H4  UNL     1       4.963 -11.526 -12.204  1.00  0.00     0.217 HD
ENDBRANCH  10  36
BRANCH   8  38
HETATM   38  O3  UNL     1       3.318 -11.168 -11.122  1.00  0.00    -0.359 OA
ATOM     39  H3  UNL     1       2.607 -11.717 -11.431  1.00  0.00     0.217 HD
ENDBRANCH   8  38
TORSDOF 4
ENDMDL
MODEL 2
REMARK VINA RESULT: -8.749511183      4.374      7.432
REMARK  4 active torsions:
REMARK  status: ('A' for Active; 'I' for Inactive)
REMARK    1  A    between atoms: O1_2  and  C2_3 
REMARK    2  A    between atoms: C6_7  and  O2_8 
REMARK    3  A    between atoms: C9_12  and  O3_13 
REMARK    4  A    between atoms: C11_16  and  O4_17 
ROOT
HETATM    1  C2  UNL     1       4.385  -3.112 -13.460  1.00  0.00     0.116 A 
HETATM    2  C3  UNL     1       5.403  -3.182 -14.370  1.00  0.00     0.054 A 
HETATM    3  C4  UNL     1       6.690  -2.813 -14.050  1.00  0.00    -0.022 A 
HETATM    4  C5  UNL     1       6.880  -2.369 -12.750  1.00  0.00     0.022 A 
HETATM    5  C6  UNL     1       8.140  -1.997 -12.339  1.00  0.00     0.095 A 
HETATM    6  C7  UNL     1       8.448  -1.555 -11.065  1.00  0.00     0.093 A 
HETATM    7  C8  UNL     1       7.423  -1.488 -10.161  1.00  0.00     0.093 A 
HETATM    8  C9  UNL     1       6.126  -1.854 -10.531  1.00  0.00     0.097 A 
HETATM    9  C10 UNL     1       5.855  -2.293 -11.816  1.00  0.00     0.048 A 
HETATM   10  C11 UNL     1       4.569  -2.660 -12.134  1.00  0.00     0.114 A 
HETATM   11  C12 UNL     1       8.043  -0.994  -8.932  1.00  0.00     0.305 A 
HETATM   12  O5  UNL     1       7.430  -0.794  -7.862  1.00  0.00    -0.259 OA
HETATM   13  O6  UNL     1       9.401  -0.779  -9.113  1.00  0.00    -0.237 OA
HETATM   14  C13 UNL     1       9.681  -1.118 -10.425  1.00  0.00     0.305 A 
HETATM   15  O7  UNL     1      10.794  -1.064 -10.986  1.00  0.00    -0.259 OA
HETATM   16  C14 UNL     1       7.569  -2.980 -15.213  1.00  0.00     0.040 C 
HETATM   17  C15 UNL     1       8.226  -4.313 -15.250  1.00  0.00     0.027 C 
HETATM   18  C16 UNL     1       9.151  -4.422 -16.447  1.00  0.00     0.016 C 
HETATM   19  C17 UNL     1       9.678  -5.861 -16.432  1.00  0.00     0.023 C 
HETATM   20  C18 UNL     1      10.377  -3.544 -16.318  1.00  0.00     0.023 C 
HETATM   21  C19 UNL     1       8.370  -4.114 -17.656  1.00  0.00     0.160 C 
HETATM   22  O8  UNL     1       8.857  -4.437 -18.732  1.00  0.00    -0.295 OA
HETATM   23  C20 UNL     1       7.067  -3.459 -17.652  1.00  0.00     0.172 A 
HETATM   24  C21 UNL     1       6.850  -2.565 -18.868  1.00  0.00     0.221 A 
HETATM   25  O9  UNL     1       7.247  -1.509 -19.409  1.00  0.00    -0.287 OA
HETATM   26  C22 UNL     1       6.080  -3.770 -18.686  1.00  0.00     0.221 A 
HETATM   27  O10 UNL     1       5.187  -4.545 -19.113  1.00  0.00    -0.287 OA
HETATM   28  C23 UNL     1       6.558  -2.943 -16.372  1.00  0.00     0.059 C 
HETATM   29  C24 UNL     1       6.138  -1.481 -16.556  1.00  0.00     0.027 C 
HETATM   30  C25 UNL     1       5.426  -3.632 -15.773  1.00  0.00     0.174 C 
HETATM   31  O11 UNL     1       4.636  -4.431 -16.310  1.00  0.00    -0.291 OA
ENDROOT
BRANCH   1  32
HETATM   32  O1  UNL     1       3.077  -3.493 -13.804  1.00  0.00    -0.352 OA
HETATM   33  C1  UNL     1       2.732  -4.834 -13.481  1.00  0.00     0.210 C 
ENDBRANCH   1  32
BRANCH   5  34
HETATM   34  O2  UNL     1       9.151  -2.072 -13.256  1.00  0.00    -0.359 OA
ATOM     35  H2  UNL     1       9.827  -1.405 -13.220  1.00  0.00     0.217 HD
ENDBRANCH   5  34
BRANCH  10  36
HETATM   36  O4  UNL     1       3.521  -2.618 -11.299  1.00  0.00    -0.357 OA
ATOM     37  H4  UNL     1       3.516  -1.991 -10.586  1.00  0.00     0.217 HD
ENDBRANCH  10  36
BRANCH   8  38
HETATM   38  O3  UNL     1       5.186  -1.745  -9.547  1.00  0.00    -0.359 OA
ATOM     39  H3  UNL     1       5.134  -0.895  -9.125  1.00  0.00     0.217 HD
ENDBRANCH   8  38
TORSDOF 4
ENDMDL
MODEL 3
REMARK VINA RESULT: -8.528412760      4.639      8.179
REMARK  4 active torsions:
REMARK  status: ('A' for Active; 'I' for Inactive)
REMARK    1  A    between atoms: O1_2  and  C2_3 
REMARK    2  A    between atoms: C6_7  and  O2_8 
REMARK    3  A    between atoms: C9_12  and  O3_13 
REMARK    4  A    between atoms: C11_16  and  O4_17 
ROOT
HETATM    1  C2  UNL     1       5.301  -2.413 -12.371  1.00  0.00     0.116 A 
HETATM    2  C3  UNL     1       5.956  -2.618 -13.553  1.00  0.00     0.054 A 
HETATM    3  C4  UNL     1       7.312  -2.416 -13.678  1.00  0.00    -0.022 A 
HETATM    4  C5  UNL     1       7.963  -1.993 -12.529  1.00  0.00     0.022 A 
HETATM    5  C6  UNL     1       9.323  -1.784 -12.559  1.00  0.00     0.095 A 
HETATM    6  C7  UNL     1      10.075  -1.380 -11.471  1.00  0.00     0.093 A 
HETATM    7  C8  UNL     1       9.413  -1.177 -10.291  1.00  0.00     0.093 A 
HETATM    8  C9  UNL     1       8.031  -1.375 -10.211  1.00  0.00     0.097 A 
HETATM    9  C10 UNL     1       7.309  -1.782 -11.321  1.00  0.00     0.048 A 
HETATM   10  C11 UNL     1       5.956  -1.982 -11.196  1.00  0.00     0.114 A 
HETATM   11  C12 UNL     1      10.449  -0.761  -9.348  1.00  0.00     0.305 A 
HETATM   12  O5  UNL     1      10.242  -0.478  -8.149  1.00  0.00    -0.259 OA
HETATM   13  O6  UNL     1      11.692  -0.722  -9.962  1.00  0.00    -0.237 OA
HETATM   14  C13 UNL     1      11.491  -1.101 -11.279  1.00  0.00     0.305 A 
HETATM   15  O7  UNL     1      12.363  -1.194 -12.167  1.00  0.00    -0.259 OA
HETATM   16  C14 UNL     1       7.742  -2.700 -15.051  1.00  0.00     0.040 C 
HETATM   17  C15 UNL     1       8.187  -4.107 -15.235  1.00  0.00     0.027 C 
HETATM   18  C16 UNL     1       8.657  -4.339 -16.658  1.00  0.00     0.016 C 
HETATM   19  C17 UNL     1       8.985  -5.834 -16.746  1.00  0.00     0.023 C 
HETATM   20  C18 UNL     1       9.956  -3.625 -16.968  1.00  0.00     0.023 C 
HETATM   21  C19 UNL     1       7.572  -3.940 -17.568  1.00  0.00     0.160 C 
HETATM   22  O8  UNL     1       7.644  -4.327 -18.727  1.00  0.00    -0.295 OA
HETATM   23  C20 UNL     1       6.428  -3.123 -17.179  1.00  0.00     0.172 A 
HETATM   24  C21 UNL     1       5.940  -2.214 -18.301  1.00  0.00     0.221 A 
HETATM   25  O9  UNL     1       6.265  -1.220 -18.989  1.00  0.00    -0.287 OA
HETATM   26  C22 UNL     1       5.131  -3.309 -17.829  1.00  0.00     0.221 A 
HETATM   27  O10 UNL     1       4.061  -3.965 -17.913  1.00  0.00    -0.287 OA
HETATM   28  C23 UNL     1       6.424  -2.539 -15.829  1.00  0.00     0.059 C 
HETATM   29  C24 UNL     1       6.146  -1.037 -15.935  1.00  0.00     0.027 C 
HETATM   30  C25 UNL     1       5.472  -3.074 -14.869  1.00  0.00     0.174 C 
HETATM   31  O11 UNL     1       4.461  -3.768 -15.088  1.00  0.00    -0.291 OA
ENDROOT
BRANCH   1  32
HETATM   32  O1  UNL     1       3.916  -2.625 -12.261  1.00  0.00    -0.352 OA
HETATM   33  C1  UNL     1       3.536  -3.915 -11.803  1.00  0.00     0.210 C 
ENDBRANCH   1  32
BRANCH   5  34
HETATM   34  O2  UNL     1       9.967  -1.993 -13.746  1.00  0.00    -0.359 OA
ATOM     35  H2  UNL     1       9.449  -1.946 -14.541  1.00  0.00     0.217 HD
ENDBRANCH   5  34
BRANCH  10  36
HETATM   36  O4  UNL     1       5.245  -1.802 -10.072  1.00  0.00    -0.357 OA
ATOM     37  H4  UNL     1       5.343  -2.415  -9.354  1.00  0.00     0.217 HD
ENDBRANCH  10  36
BRANCH   8  38
HETATM   38  O3  UNL     1       7.478  -1.141  -8.985  1.00  0.00    -0.359 OA
ATOM     39  H3  UNL     1       6.626  -0.721  -8.996  1.00  0.00     0.217 HD
ENDBRANCH   8  38
TORSDOF 4
ENDMDL
MODEL 4
REMARK VINA RESULT: -8.526890269      2.157      5.444
REMARK  4 active torsions:
REMARK  status: ('A' for Active; 'I' for Inactive)
REMARK    1  A    between atoms: O1_2  and  C2_3 
REMARK    2  A    between atoms: C6_7  and  O2_8 
REMARK    3  A    between atoms: C9_12  and  O3_13 
REMARK    4  A    between atoms: C11_16  and  O4_17 
ROOT
HETATM    1  C2  UNL     1       4.712  -5.908 -13.467  1.00  0.00     0.116 A 
HETATM    2  C3  UNL     1       5.372  -6.935 -12.849  1.00  0.00     0.054 A 
HETATM    3  C4  UNL     1       4.701  -7.927 -12.171  1.00  0.00    -0.022 A 
HETATM    4  C5  UNL     1       3.319  -7.814 -12.159  1.00  0.00     0.022 A 
HETATM    5  C6  UNL     1       2.567  -8.773 -11.519  1.00  0.00     0.095 A 
HETATM    6  C7  UNL     1       1.185  -8.769 -11.458  1.00  0.00     0.093 A 
HETATM    7  C8  UNL     1       0.532  -7.739 -12.078  1.00  0.00     0.093 A 
HETATM    8  C9  UNL     1       1.252  -6.741 -12.740  1.00  0.00     0.097 A 
HETATM    9  C10 UNL     1       2.636  -6.777 -12.782  1.00  0.00     0.048 A 
HETATM   10  C11 UNL     1       3.305  -5.785 -13.459  1.00  0.00     0.114 A 
HETATM   11  C12 UNL     1      -0.887  -8.002 -11.844  1.00  0.00     0.305 A 
HETATM   12  O5  UNL     1      -1.817  -7.278 -12.256  1.00  0.00    -0.259 OA
HETATM   13  O6  UNL     1      -1.061  -9.161 -11.103  1.00  0.00    -0.237 OA
HETATM   14  C13 UNL     1       0.206  -9.659 -10.849  1.00  0.00     0.305 A 
HETATM   15  O7  UNL     1       0.483 -10.693 -10.208  1.00  0.00    -0.259 OA
HETATM   16  C14 UNL     1       5.654  -8.886 -11.603  1.00  0.00     0.040 C 
HETATM   17  C15 UNL     1       5.925 -10.033 -12.508  1.00  0.00     0.027 C 
HETATM   18  C16 UNL     1       6.884 -11.013 -11.860  1.00  0.00     0.016 C 
HETATM   19  C17 UNL     1       7.163 -12.082 -12.923  1.00  0.00     0.023 C 
HETATM   20  C18 UNL     1       6.261 -11.756 -10.698  1.00  0.00     0.023 C 
HETATM   21  C19 UNL     1       8.094 -10.274 -11.465  1.00  0.00     0.160 C 
HETATM   22  O8  UNL     1       9.090 -10.934 -11.203  1.00  0.00    -0.295 OA
HETATM   23  C20 UNL     1       8.178  -8.821 -11.370  1.00  0.00     0.172 A 
HETATM   24  C21 UNL     1       9.112  -8.353 -10.260  1.00  0.00     0.221 A 
HETATM   25  O9  UNL     1       9.241  -8.323  -9.015  1.00  0.00    -0.287 OA
HETATM   26  C22 UNL     1       9.440  -8.134 -11.646  1.00  0.00     0.221 A 
HETATM   27  O10 UNL     1      10.244  -7.675 -12.497  1.00  0.00    -0.287 OA
HETATM   28  C23 UNL     1       6.941  -8.045 -11.542  1.00  0.00     0.059 C 
HETATM   29  C24 UNL     1       6.791  -7.078 -10.364  1.00  0.00     0.027 C 
HETATM   30  C25 UNL     1       6.809  -7.252 -12.754  1.00  0.00     0.174 C 
HETATM   31  O11 UNL     1       7.700  -6.905 -13.551  1.00  0.00    -0.291 OA
ENDROOT
BRANCH   1  32
HETATM   32  O1  UNL     1       5.414  -4.904 -14.155  1.00  0.00    -0.352 OA
HETATM   33  C1  UNL     1       5.890  -3.836 -13.347  1.00  0.00     0.210 C 
ENDBRANCH   1  32
BRANCH   5  34
HETATM   34  O2  UNL     1       3.236  -9.794 -10.906  1.00  0.00    -0.359 OA
ATOM     35  H2  UNL     1       2.734 -10.370 -10.340  1.00  0.00     0.217 HD
ENDBRANCH   5  34
BRANCH  10  36
HETATM   36  O4  UNL     1       2.730  -4.749 -14.086  1.00  0.00    -0.357 OA
ATOM     37  H4  UNL     1       3.007  -4.522 -14.966  1.00  0.00     0.217 HD
ENDBRANCH  10  36
BRANCH   8  38
HETATM   38  O3  UNL     1       0.496  -5.763 -13.321  1.00  0.00    -0.359 OA
ATOM     39  H3  UNL     1       0.476  -5.775 -14.271  1.00  0.00     0.217 HD
ENDBRANCH   8  38
TORSDOF 4
ENDMDL
MODEL 5
REMARK VINA RESULT: -8.437536061      4.589      7.675
REMARK  4 active torsions:
REMARK  status: ('A' for Active; 'I' for Inactive)
REMARK    1  A    between atoms: O1_2  and  C2_3 
REMARK    2  A    between atoms: C6_7  and  O2_8 
REMARK    3  A    between atoms: C9_12  and  O3_13 
REMARK    4  A    between atoms: C11_16  and  O4_17 
ROOT
HETATM    1  C2  UNL     1       5.141  -2.828 -13.369  1.00  0.00     0.116 A 
HETATM    2  C3  UNL     1       6.274  -2.868 -14.135  1.00  0.00     0.054 A 
HETATM    3  C4  UNL     1       7.500  -2.486 -13.640  1.00  0.00    -0.022 A 
HETATM    4  C5  UNL     1       7.507  -2.061 -12.320  1.00  0.00     0.022 A 
HETATM    5  C6  UNL     1       8.693  -1.678 -11.738  1.00  0.00     0.095 A 
HETATM    6  C7  UNL     1       8.820  -1.254 -10.427  1.00  0.00     0.093 A 
HETATM    7  C8  UNL     1       7.683  -1.217  -9.668  1.00  0.00     0.093 A 
HETATM    8  C9  UNL     1       6.453  -1.595 -10.214  1.00  0.00     0.097 A 
HETATM    9  C10 UNL     1       6.364  -2.016 -11.531  1.00  0.00     0.048 A 
HETATM   10  C11 UNL     1       5.139  -2.396 -12.025  1.00  0.00     0.114 A 
HETATM   11  C12 UNL     1       8.124  -0.736  -8.359  1.00  0.00     0.305 A 
HETATM   12  O5  UNL     1       7.370  -0.563  -7.379  1.00  0.00    -0.259 OA
HETATM   13  O6  UNL     1       9.490  -0.498  -8.353  1.00  0.00    -0.237 OA
HETATM   14  C13 UNL     1       9.949  -0.811  -9.621  1.00  0.00     0.305 A 
HETATM   15  O7  UNL     1      11.126  -0.732 -10.026  1.00  0.00    -0.259 OA
HETATM   16  C14 UNL     1       8.529  -2.621 -14.676  1.00  0.00     0.040 C 
HETATM   17  C15 UNL     1       9.207  -3.943 -14.645  1.00  0.00     0.027 C 
HETATM   18  C16 UNL     1      10.286  -4.018 -15.709  1.00  0.00     0.016 C 
HETATM   19  C17 UNL     1      10.830  -5.450 -15.645  1.00  0.00     0.023 C 
HETATM   20  C18 UNL     1      11.469  -3.125 -15.403  1.00  0.00     0.023 C 
HETATM   21  C19 UNL     1       9.669  -3.701 -17.007  1.00  0.00     0.160 C 
HETATM   22  O8  UNL     1      10.302  -3.998 -18.012  1.00  0.00    -0.295 OA
HETATM   23  C20 UNL     1       8.367  -3.065 -17.168  1.00  0.00     0.172 A 
HETATM   24  C21 UNL     1       8.300  -2.154 -18.388  1.00  0.00     0.221 A 
HETATM   25  O9  UNL     1       8.749  -1.082 -18.855  1.00  0.00    -0.287 OA
HETATM   26  C22 UNL     1       7.533  -3.372 -18.330  1.00  0.00     0.221 A 
HETATM   27  O10 UNL     1       6.718  -4.152 -18.885  1.00  0.00    -0.287 OA
HETATM   28  C23 UNL     1       7.683  -2.578 -15.961  1.00  0.00     0.059 C 
HETATM   29  C24 UNL     1       7.267  -1.120 -16.177  1.00  0.00     0.027 C 
HETATM   30  C25 UNL     1       6.492  -3.293 -15.530  1.00  0.00     0.174 C 
HETATM   31  O11 UNL     1       5.794  -4.094 -16.180  1.00  0.00    -0.291 OA
ENDROOT
BRANCH   1  32
HETATM   32  O1  UNL     1       3.897  -3.222 -13.892  1.00  0.00    -0.352 OA
HETATM   33  C1  UNL     1       3.560  -4.587 -13.687  1.00  0.00     0.210 C 
ENDBRANCH   1  32
BRANCH   5  34
HETATM   34  O2  UNL     1       9.819  -1.723 -12.512  1.00  0.00    -0.359 OA
ATOM     35  H2  UNL     1      10.295  -0.911 -12.641  1.00  0.00     0.217 HD
ENDBRANCH   5  34
BRANCH  10  36
HETATM   36  O4  UNL     1       3.987  -2.383 -11.337  1.00  0.00    -0.357 OA
ATOM     37  H4  UNL     1       3.968  -2.721 -10.450  1.00  0.00     0.217 HD
ENDBRANCH  10  36
BRANCH   8  38
HETATM   38  O3  UNL     1       5.388  -1.517  -9.364  1.00  0.00    -0.359 OA
ATOM     39  H3  UNL     1       4.879  -2.315  -9.274  1.00  0.00     0.217 HD
ENDBRANCH   8  38
TORSDOF 4
ENDMDL
