MODEL 1
REMARK VINA RESULT: -6.107503703      0.000      0.000
REMARK  2 active torsions:
REMARK  status: ('A' for Active; 'I' for Inactive)
REMARK    1  A    between atoms: C3_3  and  C4_4 
REMARK    2  A    between atoms: N2_11  and  C8_12 
ROOT
HETATM    1  C1  UNL     1      -4.969   1.884  16.337  1.00  0.00     0.032 C 
HETATM    2  C2  UNL     1      -5.578   3.043  15.557  1.00  0.00     0.038 C 
HETATM    3  C3  UNL     1      -4.649   3.086  14.349  1.00  0.00     0.229 C 
HETATM    4  N2  UNL     1      -4.103   1.784  14.213  1.00  0.00     0.099 N 
HETATM    5  C12 UNL     1      -4.645   0.926  15.229  1.00  0.00     0.273 C 
ENDROOT
BRANCH   3   6
HETATM    6  C4  UNL     1      -3.576   4.102  14.729  1.00  0.00     0.046 C 
HETATM    7  C5  UNL     1      -4.160   5.511  14.724  1.00  0.00     0.036 C 
HETATM    8  C6  UNL     1      -3.213   6.346  13.878  1.00  0.00     0.232 C 
HETATM    9  N1  UNL     1      -1.984   5.560  13.982  1.00  0.00    -0.075 N 
HETATM   10  C7  UNL     1      -2.507   4.228  13.684  1.00  0.00     0.239 C 
ATOM     11  H12 UNL     1      -1.206   5.872  13.400  1.00  0.00     0.277 HD
ATOM     12  H11 UNL     1      -1.471   5.650  14.859  1.00  0.00     0.277 HD
ENDBRANCH   3   6
BRANCH   4  13
HETATM   13  C8  UNL     1      -4.042   1.205  12.933  1.00  0.00     0.233 C 
HETATM   14  C9  UNL     1      -4.330  -0.287  13.038  1.00  0.00     0.047 C 
HETATM   15  C10 UNL     1      -3.928  -0.813  11.664  1.00  0.00     0.076 C 
HETATM   16  S1  UNL     1      -4.826   0.400  10.633  1.00  0.00    -0.167 SA
HETATM   17  C11 UNL     1      -4.946   1.741  11.877  1.00  0.00     0.109 C 
ENDBRANCH   4  13
TORSDOF 2
ENDMDL
MODEL 2
REMARK VINA RESULT: -6.029838537      2.276      4.793
REMARK  2 active torsions:
REMARK  status: ('A' for Active; 'I' for Inactive)
REMARK    1  A    between atoms: C3_3  and  C4_4 
REMARK    2  A    between atoms: N2_11  and  C8_12 
ROOT
HETATM    1  C1  UNL     1      -2.529   4.176  13.364  1.00  0.00     0.032 C 
HETATM    2  C2  UNL     1      -3.824   3.911  12.604  1.00  0.00     0.038 C 
HETATM    3  C3  UNL     1      -4.326   2.670  13.332  1.00  0.00     0.229 C 
HETATM    4  N2  UNL     1      -3.755   2.703  14.629  1.00  0.00     0.099 N 
HETATM    5  C12 UNL     1      -2.955   3.888  14.773  1.00  0.00     0.273 C 
ENDROOT
BRANCH   3   6
HETATM    6  C4  UNL     1      -3.784   1.502  12.514  1.00  0.00     0.046 C 
HETATM    7  C5  UNL     1      -4.210   1.637  11.055  1.00  0.00     0.036 C 
HETATM    8  C6  UNL     1      -4.819   0.296  10.680  1.00  0.00     0.232 C 
HETATM    9  N1  UNL     1      -4.188  -0.581  11.666  1.00  0.00    -0.075 N 
HETATM   10  C7  UNL     1      -4.422   0.196  12.883  1.00  0.00     0.239 C 
ATOM     11  H12 UNL     1      -4.522  -1.544  11.683  1.00  0.00     0.277 HD
ATOM     12  H11 UNL     1      -3.218  -0.833  11.480  1.00  0.00     0.277 HD
ENDBRANCH   3   6
BRANCH   4  13
HETATM   13  C8  UNL     1      -4.569   2.412  15.737  1.00  0.00     0.233 C 
HETATM   14  C9  UNL     1      -6.019   2.736  15.399  1.00  0.00     0.047 C 
HETATM   15  C10 UNL     1      -6.712   2.671  16.756  1.00  0.00     0.076 C 
HETATM   16  S1  UNL     1      -6.059   1.059  17.320  1.00  0.00    -0.167 SA
HETATM   17  C11 UNL     1      -4.557   1.021  16.269  1.00  0.00     0.109 C 
ENDBRANCH   4  13
TORSDOF 2
ENDMDL
MODEL 3
REMARK VINA RESULT: -5.981440958      1.563      3.658
REMARK  2 active torsions:
REMARK  status: ('A' for Active; 'I' for Inactive)
REMARK    1  A    between atoms: C3_3  and  C4_4 
REMARK    2  A    between atoms: N2_11  and  C8_12 
ROOT
HETATM    1  C1  UNL     1      -3.702   4.579  14.256  1.00  0.00     0.032 C 
HETATM    2  C2  UNL     1      -3.019   3.523  15.118  1.00  0.00     0.038 C 
HETATM    3  C3  UNL     1      -3.983   2.355  14.945  1.00  0.00     0.229 C 
HETATM    4  N2  UNL     1      -4.649   2.559  13.710  1.00  0.00     0.099 N 
HETATM    5  C12 UNL     1      -4.151   3.754  13.087  1.00  0.00     0.273 C 
ENDROOT
BRANCH   3   6
HETATM    6  C4  UNL     1      -4.945   2.477  16.123  1.00  0.00     0.046 C 
HETATM    7  C5  UNL     1      -5.205   1.105  16.736  1.00  0.00     0.036 C 
HETATM    8  C6  UNL     1      -6.717   0.974  16.825  1.00  0.00     0.232 C 
HETATM    9  N1  UNL     1      -7.117   2.381  16.827  1.00  0.00    -0.075 N 
HETATM   10  C7  UNL     1      -6.329   2.871  15.697  1.00  0.00     0.239 C 
ATOM     11  H12 UNL     1      -8.120   2.558  16.779  1.00  0.00     0.277 HD
ATOM     12  H11 UNL     1      -6.988   2.879  17.708  1.00  0.00     0.277 HD
ENDBRANCH   3   6
BRANCH   4  13
HETATM   13  C8  UNL     1      -4.808   1.469  12.837  1.00  0.00     0.233 C 
HETATM   14  C9  UNL     1      -4.338   1.864  11.443  1.00  0.00     0.047 C 
HETATM   15  C10 UNL     1      -4.851   0.723  10.570  1.00  0.00     0.076 C 
HETATM   16  S1  UNL     1      -4.241  -0.681  11.569  1.00  0.00    -0.167 SA
HETATM   17  C11 UNL     1      -4.116   0.194  13.175  1.00  0.00     0.109 C 
ENDBRANCH   4  13
TORSDOF 2
ENDMDL
MODEL 4
REMARK VINA RESULT: -5.742544641      2.307      4.464
REMARK  2 active torsions:
REMARK  status: ('A' for Active; 'I' for Inactive)
REMARK    1  A    between atoms: C3_3  and  C4_4 
REMARK    2  A    between atoms: N2_11  and  C8_12 
ROOT
HETATM    1  C1  UNL     1      -2.781   4.479  13.630  1.00  0.00     0.032 C 
HETATM    2  C2  UNL     1      -3.995   4.623  12.719  1.00  0.00     0.038 C 
HETATM    3  C3  UNL     1      -4.645   3.256  12.903  1.00  0.00     0.229 C 
HETATM    4  N2  UNL     1      -4.222   2.774  14.167  1.00  0.00     0.099 N 
HETATM    5  C12 UNL     1      -3.378   3.750  14.797  1.00  0.00     0.273 C 
ENDROOT
BRANCH   3   6
HETATM    6  C4  UNL     1      -4.080   2.409  11.766  1.00  0.00     0.046 C 
HETATM    7  C5  UNL     1      -5.213   1.739  10.995  1.00  0.00     0.036 C 
HETATM    8  C6  UNL     1      -4.842   0.267  10.918  1.00  0.00     0.232 C 
HETATM    9  N1  UNL     1      -3.393   0.337  11.095  1.00  0.00    -0.075 N 
HETATM   10  C7  UNL     1      -3.321   1.215  12.262  1.00  0.00     0.239 C 
ATOM     11  H12 UNL     1      -2.912  -0.559  11.182  1.00  0.00     0.277 HD
ATOM     12  H11 UNL     1      -2.859   0.637  10.279  1.00  0.00     0.277 HD
ENDBRANCH   3   6
BRANCH   4  13
HETATM   13  C8  UNL     1      -5.172   2.185  15.021  1.00  0.00     0.233 C 
HETATM   14  C9  UNL     1      -4.459   1.536  16.200  1.00  0.00     0.047 C 
HETATM   15  C10 UNL     1      -5.556   0.697  16.847  1.00  0.00     0.076 C 
HETATM   16  S1  UNL     1      -6.862   1.973  16.931  1.00  0.00    -0.167 SA
HETATM   17  C11 UNL     1      -6.235   3.058  15.593  1.00  0.00     0.109 C 
ENDBRANCH   4  13
TORSDOF 2
ENDMDL
MODEL 5
REMARK VINA RESULT: -5.726027238      1.874      3.654
REMARK  2 active torsions:
REMARK  status: ('A' for Active; 'I' for Inactive)
REMARK    1  A    between atoms: C3_3  and  C4_4 
REMARK    2  A    between atoms: N2_11  and  C8_12 
ROOT
HETATM    1  C1  UNL     1      -5.467   4.624  13.922  1.00  0.00     0.032 C 
HETATM    2  C2  UNL     1      -4.686   4.143  15.140  1.00  0.00     0.038 C 
HETATM    3  C3  UNL     1      -4.555   2.658  14.820  1.00  0.00     0.229 C 
HETATM    4  N2  UNL     1      -4.653   2.538  13.411  1.00  0.00     0.099 N 
HETATM    5  C12 UNL     1      -4.807   3.841  12.826  1.00  0.00     0.273 C 
ENDROOT
BRANCH   3   6
HETATM    6  C4  UNL     1      -5.748   2.012  15.518  1.00  0.00     0.046 C 
HETATM    7  C5  UNL     1      -6.173   2.851  16.720  1.00  0.00     0.036 C 
HETATM    8  C6  UNL     1      -6.258   1.881  17.888  1.00  0.00     0.232 C 
HETATM    9  N1  UNL     1      -6.453   0.615  17.183  1.00  0.00    -0.075 N 
HETATM   10  C7  UNL     1      -5.392   0.715  16.182  1.00  0.00     0.239 C 
ATOM     11  H12 UNL     1      -6.439  -0.224  17.763  1.00  0.00     0.277 HD
ATOM     12  H11 UNL     1      -7.392   0.448  16.820  1.00  0.00     0.277 HD
ENDBRANCH   3   6
BRANCH   4  13
HETATM   13  C8  UNL     1      -3.748   1.700  12.737  1.00  0.00     0.233 C 
HETATM   14  C9  UNL     1      -4.516   0.762  11.815  1.00  0.00     0.047 C 
HETATM   15  C10 UNL     1      -3.462  -0.262  11.408  1.00  0.00     0.076 C 
HETATM   16  S1  UNL     1      -2.131   0.894  10.924  1.00  0.00    -0.167 SA
HETATM   17  C11 UNL     1      -2.686   2.337  11.909  1.00  0.00     0.109 C 
ENDBRANCH   4  13
TORSDOF 2
ENDMDL
