MODEL 1
REMARK VINA RESULT: -6.839627528      0.000      0.000
REMARK  4 active torsions:
REMARK  status: ('A' for Active; 'I' for Inactive)
REMARK    1  A    between atoms: C2_2  and  C4_4 
REMARK    2  A    between atoms: C4_4  and  N1_5 
REMARK    3  A    between atoms: N2_9  and  C8_10 
REMARK    4  A    between atoms: C13_15  and  O1_16 
ROOT
HETATM    1  N1  UNL     1      -5.461   3.189  15.127  1.00  0.00    -0.374 N 
HETATM    2  C5  UNL     1      -4.378   4.108  15.302  1.00  0.00     0.125 C 
HETATM    3  C6  UNL     1      -4.149   4.701  13.904  1.00  0.00     0.039 C 
HETATM    4  C7  UNL     1      -4.572   3.676  12.845  1.00  0.00     0.120 C 
HETATM    5  N2  UNL     1      -4.428   2.349  13.258  1.00  0.00    -0.390 N 
HETATM    6  C14 UNL     1      -5.091   1.976  14.468  1.00  0.00     0.243 C 
ENDROOT
BRANCH   5   7
HETATM    7  C8  UNL     1      -3.808   1.374  12.497  1.00  0.00     0.109 C 
HETATM    8  C9  UNL     1      -4.218   0.005  12.961  1.00  0.00     0.032 C 
HETATM    9  C10 UNL     1      -4.395  -0.831  11.711  1.00  0.00    -0.014 C 
HETATM   10  C11 UNL     1      -3.160  -1.575  11.327  1.00  0.00     0.010 C 
HETATM   11  C12 UNL     1      -4.763   0.151  10.625  1.00  0.00     0.038 C 
HETATM   12  C13 UNL     1      -4.043   1.399  11.016  1.00  0.00     0.141 C 
BRANCH  12  13
HETATM   13  O1  UNL     1      -2.811   1.384  10.359  1.00  0.00    -0.394 OA
ATOM     14  H1  UNL     1      -2.370   0.563  10.545  1.00  0.00     0.210 HD
ENDBRANCH  12  13
ENDBRANCH   5   7
BRANCH   1  15
HETATM   15  C4  UNL     1      -6.524   3.203  16.015  1.00  0.00     0.093 C 
BRANCH  15  16
HETATM   16  C2  UNL     1      -6.641   2.117  16.997  1.00  0.00    -0.056 C 
HETATM   17  C1  UNL     1      -5.919   2.079  18.108  1.00  0.00     0.020 C 
HETATM   18  C3  UNL     1      -7.611   1.022  16.753  1.00  0.00     0.049 C 
ENDBRANCH  15  16
ENDBRANCH   1  15
TORSDOF 4
ENDMDL
MODEL 2
REMARK VINA RESULT: -6.761916419      2.136      5.543
REMARK  4 active torsions:
REMARK  status: ('A' for Active; 'I' for Inactive)
REMARK    1  A    between atoms: C2_2  and  C4_4 
REMARK    2  A    between atoms: C4_4  and  N1_5 
REMARK    3  A    between atoms: N2_9  and  C8_10 
REMARK    4  A    between atoms: C13_15  and  O1_16 
ROOT
HETATM    1  N1  UNL     1      -4.287   2.158  12.315  1.00  0.00    -0.374 N 
HETATM    2  C5  UNL     1      -4.581   3.551  12.171  1.00  0.00     0.125 C 
HETATM    3  C6  UNL     1      -3.613   4.250  13.136  1.00  0.00     0.039 C 
HETATM    4  C7  UNL     1      -3.285   3.303  14.296  1.00  0.00     0.120 C 
HETATM    5  N2  UNL     1      -4.313   2.405  14.597  1.00  0.00    -0.390 N 
HETATM    6  C14 UNL     1      -4.784   1.584  13.526  1.00  0.00     0.243 C 
ENDROOT
BRANCH   5   7
HETATM    7  C8  UNL     1      -4.783   2.183  15.879  1.00  0.00     0.109 C 
HETATM    8  C9  UNL     1      -5.730   3.274  16.288  1.00  0.00     0.032 C 
HETATM    9  C10 UNL     1      -6.850   2.601  17.052  1.00  0.00    -0.014 C 
HETATM   10  C11 UNL     1      -6.611   2.562  18.524  1.00  0.00     0.010 C 
HETATM   11  C12 UNL     1      -6.915   1.195  16.504  1.00  0.00     0.038 C 
HETATM   12  C13 UNL     1      -5.500   0.891  16.138  1.00  0.00     0.141 C 
BRANCH  12  13
HETATM   13  O1  UNL     1      -4.918   0.260  17.239  1.00  0.00    -0.394 OA
ATOM     14  H1  UNL     1      -5.463  -0.474  17.500  1.00  0.00     0.210 HD
ENDBRANCH  12  13
ENDBRANCH   5   7
BRANCH   1  15
HETATM   15  C4  UNL     1      -4.118   1.370  11.189  1.00  0.00     0.093 C 
BRANCH  15  16
HETATM   16  C2  UNL     1      -2.952   0.479  11.116  1.00  0.00    -0.056 C 
HETATM   17  C1  UNL     1      -1.712   0.934  11.007  1.00  0.00     0.020 C 
HETATM   18  C3  UNL     1      -3.158  -0.988  11.177  1.00  0.00     0.049 C 
ENDBRANCH  15  16
ENDBRANCH   1  15
TORSDOF 4
ENDMDL
MODEL 3
REMARK VINA RESULT: -6.688222318      1.852      2.552
REMARK  4 active torsions:
REMARK  status: ('A' for Active; 'I' for Inactive)
REMARK    1  A    between atoms: C2_2  and  C4_4 
REMARK    2  A    between atoms: C4_4  and  N1_5 
REMARK    3  A    between atoms: N2_9  and  C8_10 
REMARK    4  A    between atoms: C13_15  and  O1_16 
ROOT
HETATM    1  N1  UNL     1      -4.518   1.830  15.114  1.00  0.00    -0.374 N 
HETATM    2  C5  UNL     1      -3.312   2.228  15.773  1.00  0.00     0.125 C 
HETATM    3  C6  UNL     1      -3.043   3.649  15.256  1.00  0.00     0.039 C 
HETATM    4  C7  UNL     1      -3.636   3.795  13.850  1.00  0.00     0.120 C 
HETATM    5  N2  UNL     1      -3.668   2.600  13.126  1.00  0.00    -0.390 N 
HETATM    6  C14 UNL     1      -4.341   1.497  13.735  1.00  0.00     0.243 C 
ENDROOT
BRANCH   5   7
HETATM    7  C8  UNL     1      -3.214   2.481  11.825  1.00  0.00     0.109 C 
HETATM    8  C9  UNL     1      -1.967   3.295  11.626  1.00  0.00     0.032 C 
HETATM    9  C10 UNL     1      -1.054   2.467  10.748  1.00  0.00    -0.014 C 
HETATM   10  C11 UNL     1      -1.213   2.767   9.295  1.00  0.00     0.010 C 
HETATM   11  C12 UNL     1      -1.435   1.032  11.022  1.00  0.00     0.038 C 
HETATM   12  C13 UNL     1      -2.894   1.103  11.326  1.00  0.00     0.141 C 
BRANCH  12  13
HETATM   13  O1  UNL     1      -3.574   0.883  10.127  1.00  0.00    -0.394 OA
ATOM     14  H1  UNL     1      -3.900  -0.010  10.115  1.00  0.00     0.210 HD
ENDBRANCH  12  13
ENDBRANCH   5   7
BRANCH   1  15
HETATM   15  C4  UNL     1      -5.542   1.252  15.845  1.00  0.00     0.093 C 
BRANCH  15  16
HETATM   16  C2  UNL     1      -6.222   2.055  16.871  1.00  0.00    -0.056 C 
HETATM   17  C1  UNL     1      -6.266   1.692  18.145  1.00  0.00     0.020 C 
HETATM   18  C3  UNL     1      -6.875   3.326  16.480  1.00  0.00     0.049 C 
ENDBRANCH  15  16
ENDBRANCH   1  15
TORSDOF 4
ENDMDL
MODEL 4
REMARK VINA RESULT: -6.638933949      1.695      2.624
REMARK  4 active torsions:
REMARK  status: ('A' for Active; 'I' for Inactive)
REMARK    1  A    between atoms: C2_2  and  C4_4 
REMARK    2  A    between atoms: C4_4  and  N1_5 
REMARK    3  A    between atoms: N2_9  and  C8_10 
REMARK    4  A    between atoms: C13_15  and  O1_16 
ROOT
HETATM    1  N1  UNL     1      -5.238   2.762  15.269  1.00  0.00    -0.374 N 
HETATM    2  C5  UNL     1      -4.250   1.874  15.801  1.00  0.00     0.125 C 
HETATM    3  C6  UNL     1      -2.940   2.673  15.732  1.00  0.00     0.039 C 
HETATM    4  C7  UNL     1      -3.020   3.675  14.574  1.00  0.00     0.120 C 
HETATM    5  N2  UNL     1      -3.836   3.253  13.520  1.00  0.00    -0.390 N 
HETATM    6  C14 UNL     1      -5.182   2.906  13.848  1.00  0.00     0.243 C 
ENDROOT
BRANCH   5   7
HETATM    7  C8  UNL     1      -3.449   3.289  12.192  1.00  0.00     0.109 C 
HETATM    8  C9  UNL     1      -1.961   3.463  12.082  1.00  0.00     0.032 C 
HETATM    9  C10 UNL     1      -1.513   2.575  10.941  1.00  0.00    -0.014 C 
HETATM   10  C11 UNL     1      -1.469   3.286   9.631  1.00  0.00     0.010 C 
HETATM   11  C12 UNL     1      -2.528   1.458  10.886  1.00  0.00     0.038 C 
HETATM   12  C13 UNL     1      -3.794   2.105  11.339  1.00  0.00     0.141 C 
BRANCH  12  13
HETATM   13  O1  UNL     1      -4.461   2.547  10.194  1.00  0.00    -0.394 OA
ATOM     14  H1  UNL     1      -3.956   2.302   9.428  1.00  0.00     0.210 HD
ENDBRANCH  12  13
ENDBRANCH   5   7
BRANCH   1  15
HETATM   15  C4  UNL     1      -6.437   2.939  15.940  1.00  0.00     0.093 C 
BRANCH  15  16
HETATM   16  C2  UNL     1      -6.776   2.023  17.038  1.00  0.00    -0.056 C 
HETATM   17  C1  UNL     1      -7.462   0.905  16.849  1.00  0.00     0.020 C 
HETATM   18  C3  UNL     1      -6.328   2.347  18.414  1.00  0.00     0.049 C 
ENDBRANCH  15  16
ENDBRANCH   1  15
TORSDOF 4
ENDMDL
MODEL 5
REMARK VINA RESULT: -6.222040034      2.493      5.897
REMARK  4 active torsions:
REMARK  status: ('A' for Active; 'I' for Inactive)
REMARK    1  A    between atoms: C2_2  and  C4_4 
REMARK    2  A    between atoms: C4_4  and  N1_5 
REMARK    3  A    between atoms: N2_9  and  C8_10 
REMARK    4  A    between atoms: C13_15  and  O1_16 
ROOT
HETATM    1  N1  UNL     1      -2.714   1.139  11.177  1.00  0.00    -0.374 N 
HETATM    2  C5  UNL     1      -3.310  -0.128  10.882  1.00  0.00     0.125 C 
HETATM    3  C6  UNL     1      -4.759   0.210  10.499  1.00  0.00     0.039 C 
HETATM    4  C7  UNL     1      -5.186   1.493  11.221  1.00  0.00     0.120 C 
HETATM    5  N2  UNL     1      -4.545   1.688  12.448  1.00  0.00    -0.390 N 
HETATM    6  C14 UNL     1      -3.117   1.689  12.434  1.00  0.00     0.243 C 
ENDROOT
BRANCH   5   7
HETATM    7  C8  UNL     1      -5.212   2.010  13.616  1.00  0.00     0.109 C 
HETATM    8  C9  UNL     1      -4.651   1.234  14.773  1.00  0.00     0.032 C 
HETATM    9  C10 UNL     1      -4.615   2.189  15.947  1.00  0.00    -0.014 C 
HETATM   10  C11 UNL     1      -5.845   2.125  16.789  1.00  0.00     0.010 C 
HETATM   11  C12 UNL     1      -4.480   3.563  15.337  1.00  0.00     0.038 C 
HETATM   12  C13 UNL     1      -5.209   3.449  14.040  1.00  0.00     0.141 C 
BRANCH  12  13
HETATM   13  O1  UNL     1      -6.523   3.859  14.270  1.00  0.00    -0.394 OA
ATOM     14  H1  UNL     1      -6.727   4.586  13.693  1.00  0.00     0.210 HD
ENDBRANCH  12  13
ENDBRANCH   5   7
BRANCH   1  15
HETATM   15  C4  UNL     1      -1.479   1.460  10.640  1.00  0.00     0.093 C 
BRANCH  15  16
HETATM   16  C2  UNL     1      -1.113   2.876  10.501  1.00  0.00    -0.056 C 
HETATM   17  C1  UNL     1      -0.017   3.386  11.044  1.00  0.00     0.020 C 
HETATM   18  C3  UNL     1      -1.990   3.776   9.714  1.00  0.00     0.049 C 
ENDBRANCH  15  16
ENDBRANCH   1  15
TORSDOF 4
ENDMDL
