MODEL 1
REMARK VINA RESULT: -8.215997965      0.000      0.000
REMARK  12 active torsions:
REMARK  status: ('A' for Active; 'I' for Inactive)
REMARK    1  A    between atoms: C2_2  and  C3_3 
REMARK    2  A    between atoms: C3_3  and  C4_4 
REMARK    3  A    between atoms: C4_4  and  O1_5 
REMARK    4  A    between atoms: O1_5  and  C5_6 
REMARK    5  A    between atoms: C5_6  and  C6_8 
REMARK    6  A    between atoms: C6_8  and  C7_9 
REMARK    7  A    between atoms: C6_8  and  N3_21 
REMARK    8  A    between atoms: C7_9  and  C8_10 
REMARK    9  A    between atoms: C8_10  and  C9_11 
REMARK   10  A    between atoms: C9_11  and  C10_12 
REMARK   11  A    between atoms: N2_17  and  C13_18 
REMARK       I    between atoms: N3_21  and  C16_23 
REMARK       I    between atoms: C16_23  and  N4_25 
REMARK   12  A    between atoms: N4_25  and  C17_27 
ROOT
HETATM    1  C6  UNL     1      -3.279  11.425 -23.662  1.00  0.00     0.186 C 
ENDROOT
BRANCH   1   2
HETATM    2  C5  UNL     1      -2.240  12.400 -24.159  1.00  0.00     0.281 C 
HETATM    3  O2  UNL     1      -1.072  12.050 -24.335  1.00  0.00    -0.263 OA
BRANCH   2   4
HETATM    4  O1  UNL     1      -2.646  13.689 -24.405  1.00  0.00    -0.320 OA
BRANCH   4   5
HETATM    5  C4  UNL     1      -1.759  14.726 -24.758  1.00  0.00     0.178 C 
BRANCH   5   6
HETATM    6  C3  UNL     1      -2.265  15.442 -25.995  1.00  0.00     0.026 C 
BRANCH   6   7
HETATM    7  C2  UNL     1      -1.684  16.851 -26.014  1.00  0.00    -0.002 C 
HETATM    8  C1  UNL     1      -2.109  17.497 -27.307  1.00  0.00     0.005 C 
ENDBRANCH   6   7
ENDBRANCH   5   6
ENDBRANCH   4   5
ENDBRANCH   2   4
ENDBRANCH   1   2
BRANCH   1   9
HETATM    9  C7  UNL     1      -2.664  10.612 -22.572  1.00  0.00     0.036 C 
BRANCH   9  10
HETATM   10  C8  UNL     1      -2.414   9.200 -22.887  1.00  0.00     0.010 C 
BRANCH  10  11
HETATM   11  C9  UNL     1      -1.019   8.700 -23.032  1.00  0.00     0.076 C 
BRANCH  11  12
HETATM   12  C10 UNL     1      -0.749   8.516 -24.496  1.00  0.00     0.083 A 
HETATM   13  N1  UNL     1      -0.389   9.513 -25.315  1.00  0.00    -0.354 N 
HETATM   14  C11 UNL     1      -0.240   8.977 -26.555  1.00  0.00     0.106 A 
ATOM     15  H1  UNL     1      -0.253  10.491 -25.057  1.00  0.00     0.166 HD
HETATM   16  C12 UNL     1      -0.522   7.646 -26.430  1.00  0.00     0.110 A 
HETATM   17  N2  UNL     1      -0.840   7.350 -25.156  1.00  0.00    -0.341 N 
BRANCH  17  18
HETATM   18  C13 UNL     1      -1.193   6.048 -24.696  1.00  0.00     0.091 A 
HETATM   19  C14 UNL     1      -2.714   5.820 -24.506  1.00  0.00     0.028 A 
HETATM   20  C15 UNL     1      -1.908   5.028 -25.445  1.00  0.00     0.028 A 
ENDBRANCH  17  18
ENDBRANCH  11  12
ENDBRANCH  10  11
ENDBRANCH   9  10
ENDBRANCH   1   9
BRANCH   1  21
HETATM   21  N3  UNL     1      -4.481  12.124 -23.337  1.00  0.00    -0.329 N 
HETATM   22  C16 UNL     1      -5.667  11.470 -22.897  1.00  0.00     0.317 C 
HETATM   23  O3  UNL     1      -5.660  10.220 -22.808  1.00  0.00    -0.247 OA
HETATM   24  N4  UNL     1      -6.846  12.214 -22.563  1.00  0.00    -0.334 N 
ATOM     25  H4  UNL     1      -6.808  13.230 -22.653  1.00  0.00     0.165 HD
ATOM     26  H3  UNL     1      -4.491  13.141 -23.425  1.00  0.00     0.165 HD
BRANCH  24  27
HETATM   27  C17 UNL     1      -8.069  11.627 -22.112  1.00  0.00     0.035 C 
HETATM   28  C18 UNL     1      -7.881  10.649 -20.985  1.00  0.00     0.035 C 
HETATM   29  C19 UNL     1      -9.220  10.055 -20.605  1.00  0.00    -0.012 C 
HETATM   30  C20 UNL     1     -10.231  11.108 -20.212  1.00  0.00     0.009 C 
HETATM   31  C24 UNL     1      -9.816   9.276 -21.756  1.00  0.00     0.009 C 
HETATM   32  C21 UNL     1     -10.391  12.075 -21.360  1.00  0.00    -0.012 C 
HETATM   33  C22 UNL     1     -10.979  11.339 -22.521  1.00  0.00     0.009 C 
HETATM   34  C26 UNL     1      -9.044  12.689 -21.648  1.00  0.00     0.035 C 
HETATM   35  C23 UNL     1     -10.014  10.234 -22.901  1.00  0.00    -0.012 C 
HETATM   36  C25 UNL     1      -8.713  10.887 -23.270  1.00  0.00     0.035 C 
ENDBRANCH  24  27
ENDBRANCH   1  21
TORSDOF 12
ENDMDL
MODEL 2
REMARK VINA RESULT: -8.162515196      1.245      1.419
REMARK  12 active torsions:
REMARK  status: ('A' for Active; 'I' for Inactive)
REMARK    1  A    between atoms: C2_2  and  C3_3 
REMARK    2  A    between atoms: C3_3  and  C4_4 
REMARK    3  A    between atoms: C4_4  and  O1_5 
REMARK    4  A    between atoms: O1_5  and  C5_6 
REMARK    5  A    between atoms: C5_6  and  C6_8 
REMARK    6  A    between atoms: C6_8  and  C7_9 
REMARK    7  A    between atoms: C6_8  and  N3_21 
REMARK    8  A    between atoms: C7_9  and  C8_10 
REMARK    9  A    between atoms: C8_10  and  C9_11 
REMARK   10  A    between atoms: C9_11  and  C10_12 
REMARK   11  A    between atoms: N2_17  and  C13_18 
REMARK       I    between atoms: N3_21  and  C16_23 
REMARK       I    between atoms: C16_23  and  N4_25 
REMARK   12  A    between atoms: N4_25  and  C17_27 
ROOT
HETATM    1  C6  UNL     1      -3.452  11.651 -23.698  1.00  0.00     0.186 C 
ENDROOT
BRANCH   1   2
HETATM    2  C5  UNL     1      -2.450  12.672 -24.178  1.00  0.00     0.281 C 
HETATM    3  O2  UNL     1      -2.732  13.870 -24.219  1.00  0.00    -0.263 OA
BRANCH   2   4
HETATM    4  O1  UNL     1      -1.215  12.215 -24.568  1.00  0.00    -0.320 OA
BRANCH   4   5
HETATM    5  C4  UNL     1      -0.131  13.067 -24.865  1.00  0.00     0.178 C 
BRANCH   5   6
HETATM    6  C3  UNL     1       0.139  13.060 -26.356  1.00  0.00     0.026 C 
BRANCH   6   7
HETATM    7  C2  UNL     1       1.255  14.056 -26.652  1.00  0.00    -0.002 C 
HETATM    8  C1  UNL     1       1.327  15.012 -25.491  1.00  0.00     0.005 C 
ENDBRANCH   6   7
ENDBRANCH   5   6
ENDBRANCH   4   5
ENDBRANCH   2   4
ENDBRANCH   1   2
BRANCH   1   9
HETATM    9  C7  UNL     1      -2.795  10.819 -22.648  1.00  0.00     0.036 C 
BRANCH   9  10
HETATM   10  C8  UNL     1      -2.612   9.400 -22.974  1.00  0.00     0.010 C 
BRANCH  10  11
HETATM   11  C9  UNL     1      -1.243   8.817 -23.039  1.00  0.00     0.076 C 
BRANCH  11  12
HETATM   12  C10 UNL     1      -0.909   8.597 -24.485  1.00  0.00     0.083 A 
HETATM   13  N1  UNL     1      -0.556   9.581 -25.323  1.00  0.00    -0.354 N 
HETATM   14  C11 UNL     1      -0.337   9.011 -26.538  1.00  0.00     0.106 A 
ATOM     15  H1  UNL     1      -0.469  10.571 -25.093  1.00  0.00     0.166 HD
HETATM   16  C12 UNL     1      -0.573   7.675 -26.379  1.00  0.00     0.110 A 
HETATM   17  N2  UNL     1      -0.928   7.407 -25.108  1.00  0.00    -0.341 N 
BRANCH  17  18
HETATM   18  C13 UNL     1      -1.248   6.108 -24.619  1.00  0.00     0.091 A 
HETATM   19  C14 UNL     1      -2.757   5.867 -24.361  1.00  0.00     0.028 A 
HETATM   20  C15 UNL     1      -1.984   5.072 -25.324  1.00  0.00     0.028 A 
ENDBRANCH  17  18
ENDBRANCH  11  12
ENDBRANCH  10  11
ENDBRANCH   9  10
ENDBRANCH   1   9
BRANCH   1  21
HETATM   21  N3  UNL     1      -4.668  12.304 -23.331  1.00  0.00    -0.329 N 
HETATM   22  C16 UNL     1      -5.830  11.600 -22.902  1.00  0.00     0.317 C 
HETATM   23  O3  UNL     1      -5.787  10.347 -22.864  1.00  0.00    -0.247 OA
HETATM   24  N4  UNL     1      -7.023  12.298 -22.523  1.00  0.00    -0.334 N 
ATOM     25  H4  UNL     1      -7.014  13.316 -22.573  1.00  0.00     0.165 HD
ATOM     26  H3  UNL     1      -4.706  13.322 -23.377  1.00  0.00     0.165 HD
BRANCH  24  27
HETATM   27  C17 UNL     1      -8.224  11.660 -22.081  1.00  0.00     0.035 C 
HETATM   28  C18 UNL     1      -7.997  10.658 -20.982  1.00  0.00     0.035 C 
HETATM   29  C19 UNL     1      -9.313  10.011 -20.609  1.00  0.00    -0.012 C 
HETATM   30  C20 UNL     1     -10.355  11.020 -20.182  1.00  0.00     0.009 C 
HETATM   31  C24 UNL     1      -9.892   9.244 -21.777  1.00  0.00     0.009 C 
HETATM   32  C21 UNL     1     -10.554  12.012 -21.303  1.00  0.00    -0.012 C 
HETATM   33  C22 UNL     1     -11.125  11.289 -22.480  1.00  0.00     0.009 C 
HETATM   34  C26 UNL     1      -9.229  12.677 -21.583  1.00  0.00     0.035 C 
HETATM   35  C23 UNL     1     -10.128  10.225 -22.895  1.00  0.00    -0.012 C 
HETATM   36  C25 UNL     1      -8.851  10.930 -23.255  1.00  0.00     0.035 C 
ENDBRANCH  24  27
ENDBRANCH   1  21
TORSDOF 12
ENDMDL
MODEL 3
REMARK VINA RESULT: -8.080087598      1.960      9.206
REMARK  12 active torsions:
REMARK  status: ('A' for Active; 'I' for Inactive)
REMARK    1  A    between atoms: C2_2  and  C3_3 
REMARK    2  A    between atoms: C3_3  and  C4_4 
REMARK    3  A    between atoms: C4_4  and  O1_5 
REMARK    4  A    between atoms: O1_5  and  C5_6 
REMARK    5  A    between atoms: C5_6  and  C6_8 
REMARK    6  A    between atoms: C6_8  and  C7_9 
REMARK    7  A    between atoms: C6_8  and  N3_21 
REMARK    8  A    between atoms: C7_9  and  C8_10 
REMARK    9  A    between atoms: C8_10  and  C9_11 
REMARK   10  A    between atoms: C9_11  and  C10_12 
REMARK   11  A    between atoms: N2_17  and  C13_18 
REMARK       I    between atoms: N3_21  and  C16_23 
REMARK       I    between atoms: C16_23  and  N4_25 
REMARK   12  A    between atoms: N4_25  and  C17_27 
ROOT
HETATM    1  C6  UNL     1      -2.615  11.573 -24.077  1.00  0.00     0.186 C 
ENDROOT
BRANCH   1   2
HETATM    2  C5  UNL     1      -2.218  10.213 -23.559  1.00  0.00     0.281 C 
HETATM    3  O2  UNL     1      -2.519   9.853 -22.420  1.00  0.00    -0.263 OA
BRANCH   2   4
HETATM    4  O1  UNL     1      -1.509   9.394 -24.404  1.00  0.00    -0.320 OA
BRANCH   4   5
HETATM    5  C4  UNL     1      -0.848   8.225 -23.975  1.00  0.00     0.178 C 
BRANCH   5   6
HETATM    6  C3  UNL     1      -1.311   7.038 -24.796  1.00  0.00     0.026 C 
BRANCH   6   7
HETATM    7  C2  UNL     1      -2.413   6.316 -24.028  1.00  0.00    -0.002 C 
HETATM    8  C1  UNL     1      -2.767   5.076 -24.806  1.00  0.00     0.005 C 
ENDBRANCH   6   7
ENDBRANCH   5   6
ENDBRANCH   4   5
ENDBRANCH   2   4
ENDBRANCH   1   2
BRANCH   1   9
HETATM    9  C7  UNL     1      -3.617  12.151 -23.135  1.00  0.00     0.036 C 
BRANCH   9  10
HETATM   10  C8  UNL     1      -4.905  11.451 -23.059  1.00  0.00     0.010 C 
BRANCH  10  11
HETATM   11  C9  UNL     1      -6.104  12.146 -22.514  1.00  0.00     0.076 C 
BRANCH  11  12
HETATM   12  C10 UNL     1      -6.828  11.180 -21.623  1.00  0.00     0.083 A 
HETATM   13  N1  UNL     1      -6.208  10.306 -20.819  1.00  0.00    -0.354 N 
HETATM   14  C11 UNL     1      -7.175   9.600 -20.176  1.00  0.00     0.106 A 
ATOM     15  H1  UNL     1      -5.200  10.191 -20.710  1.00  0.00     0.166 HD
HETATM   16  C12 UNL     1      -8.367  10.089 -20.629  1.00  0.00     0.110 A 
HETATM   17  N2  UNL     1      -8.162  11.070 -21.528  1.00  0.00    -0.341 N 
BRANCH  17  18
HETATM   18  C13 UNL     1      -9.203  11.781 -22.193  1.00  0.00     0.091 A 
HETATM   19  C14 UNL     1      -9.808  11.046 -23.416  1.00  0.00     0.028 A 
HETATM   20  C15 UNL     1     -10.609  11.417 -22.242  1.00  0.00     0.028 A 
ENDBRANCH  17  18
ENDBRANCH  11  12
ENDBRANCH  10  11
ENDBRANCH   9  10
ENDBRANCH   1   9
BRANCH   1  21
HETATM   21  N3  UNL     1      -1.446  12.355 -24.327  1.00  0.00    -0.329 N 
HETATM   22  C16 UNL     1      -1.488  13.649 -24.920  1.00  0.00     0.317 C 
HETATM   23  O3  UNL     1      -2.602  14.115 -25.255  1.00  0.00    -0.247 OA
HETATM   24  N4  UNL     1      -0.290  14.406 -25.134  1.00  0.00    -0.334 N 
ATOM     25  H4  UNL     1       0.595  13.987 -24.849  1.00  0.00     0.165 HD
ATOM     26  H3  UNL     1      -0.539  11.968 -24.068  1.00  0.00     0.165 HD
BRANCH  24  27
HETATM   27  C17 UNL     1      -0.255  15.711 -25.719  1.00  0.00     0.035 C 
HETATM   28  C18 UNL     1      -1.369  16.606 -25.249  1.00  0.00     0.035 C 
HETATM   29  C19 UNL     1      -1.270  17.944 -25.949  1.00  0.00    -0.012 C 
HETATM   30  C20 UNL     1       0.064  18.618 -25.726  1.00  0.00     0.009 C 
HETATM   31  C24 UNL     1      -1.445  17.789 -27.444  1.00  0.00     0.009 C 
HETATM   32  C21 UNL     1       1.158  17.693 -26.202  1.00  0.00    -0.012 C 
HETATM   33  C22 UNL     1       1.018  17.514 -27.680  1.00  0.00     0.009 C 
HETATM   34  C26 UNL     1       1.057  16.406 -25.422  1.00  0.00     0.035 C 
HETATM   35  C23 UNL     1      -0.340  16.894 -27.942  1.00  0.00    -0.012 C 
HETATM   36  C25 UNL     1      -0.371  15.573 -27.226  1.00  0.00     0.035 C 
ENDBRANCH  24  27
ENDBRANCH   1  21
TORSDOF 12
ENDMDL
MODEL 4
REMARK VINA RESULT: -8.063318577      2.712      8.137
REMARK  12 active torsions:
REMARK  status: ('A' for Active; 'I' for Inactive)
REMARK    1  A    between atoms: C2_2  and  C3_3 
REMARK    2  A    between atoms: C3_3  and  C4_4 
REMARK    3  A    between atoms: C4_4  and  O1_5 
REMARK    4  A    between atoms: O1_5  and  C5_6 
REMARK    5  A    between atoms: C5_6  and  C6_8 
REMARK    6  A    between atoms: C6_8  and  C7_9 
REMARK    7  A    between atoms: C6_8  and  N3_21 
REMARK    8  A    between atoms: C7_9  and  C8_10 
REMARK    9  A    between atoms: C8_10  and  C9_11 
REMARK   10  A    between atoms: C9_11  and  C10_12 
REMARK   11  A    between atoms: N2_17  and  C13_18 
REMARK       I    between atoms: N3_21  and  C16_23 
REMARK       I    between atoms: C16_23  and  N4_25 
REMARK   12  A    between atoms: N4_25  and  C17_27 
ROOT
HETATM    1  C6  UNL     1      -1.009  10.539 -24.182  1.00  0.00     0.186 C 
ENDROOT
BRANCH   1   2
HETATM    2  C5  UNL     1      -2.217  10.377 -23.294  1.00  0.00     0.281 C 
HETATM    3  O2  UNL     1      -2.239   9.533 -22.396  1.00  0.00    -0.263 OA
BRANCH   2   4
HETATM    4  O1  UNL     1      -3.291  11.202 -23.526  1.00  0.00    -0.320 OA
BRANCH   4   5
HETATM    5  C4  UNL     1      -4.462  11.189 -22.741  1.00  0.00     0.178 C 
BRANCH   5   6
HETATM    6  C3  UNL     1      -5.219  12.490 -22.919  1.00  0.00     0.026 C 
BRANCH   6   7
HETATM    7  C2  UNL     1      -6.713  12.192 -22.890  1.00  0.00    -0.002 C 
HETATM    8  C1  UNL     1      -6.953  11.193 -21.788  1.00  0.00     0.005 C 
ENDBRANCH   6   7
ENDBRANCH   5   6
ENDBRANCH   4   5
ENDBRANCH   2   4
ENDBRANCH   1   2
BRANCH   1   9
HETATM    9  C7  UNL     1      -0.589   9.183 -24.642  1.00  0.00     0.036 C 
BRANCH   9  10
HETATM   10  C8  UNL     1      -1.015   8.804 -25.995  1.00  0.00     0.010 C 
BRANCH  10  11
HETATM   11  C9  UNL     1      -0.000   8.515 -27.046  1.00  0.00     0.076 C 
BRANCH  11  12
HETATM   12  C10 UNL     1       0.174   9.758 -27.868  1.00  0.00     0.083 A 
HETATM   13  N1  UNL     1      -0.596  10.064 -28.921  1.00  0.00    -0.354 N 
HETATM   14  C11 UNL     1      -0.144  11.248 -29.414  1.00  0.00     0.106 A 
ATOM     15  H1  UNL     1      -1.374   9.514 -29.284  1.00  0.00     0.166 HD
HETATM   16  C12 UNL     1       0.904  11.615 -28.619  1.00  0.00     0.110 A 
HETATM   17  N2  UNL     1       1.110  10.697 -27.656  1.00  0.00    -0.341 N 
BRANCH  17  18
HETATM   18  C13 UNL     1       2.134  10.782 -26.669  1.00  0.00     0.091 A 
HETATM   19  C14 UNL     1       3.480  10.132 -27.076  1.00  0.00     0.028 A 
HETATM   20  C15 UNL     1       3.358  11.560 -26.754  1.00  0.00     0.028 A 
ENDBRANCH  17  18
ENDBRANCH  11  12
ENDBRANCH  10  11
ENDBRANCH   9  10
ENDBRANCH   1   9
BRANCH   1  21
HETATM   21  N3  UNL     1      -1.283  11.504 -25.199  1.00  0.00    -0.329 N 
HETATM   22  C16 UNL     1      -0.661  12.784 -25.245  1.00  0.00     0.317 C 
HETATM   23  O3  UNL     1       0.151  13.085 -24.339  1.00  0.00    -0.247 OA
HETATM   24  N4  UNL     1      -0.953  13.714 -26.296  1.00  0.00    -0.334 N 
ATOM     25  H4  UNL     1      -1.622  13.429 -27.011  1.00  0.00     0.165 HD
ATOM     26  H3  UNL     1      -1.956  11.264 -25.927  1.00  0.00     0.165 HD
BRANCH  24  27
HETATM   27  C17 UNL     1      -0.366  15.013 -26.409  1.00  0.00     0.035 C 
HETATM   28  C18 UNL     1       1.082  15.051 -26.004  1.00  0.00     0.035 C 
HETATM   29  C19 UNL     1       1.601  16.467 -26.119  1.00  0.00    -0.012 C 
HETATM   30  C20 UNL     1       1.440  17.032 -27.512  1.00  0.00     0.009 C 
HETATM   31  C24 UNL     1       0.867  17.395 -25.177  1.00  0.00     0.009 C 
HETATM   32  C21 UNL     1      -0.021  16.975 -27.890  1.00  0.00    -0.012 C 
HETATM   33  C22 UNL     1      -0.783  17.880 -26.976  1.00  0.00     0.009 C 
HETATM   34  C26 UNL     1      -0.465  15.535 -27.827  1.00  0.00     0.035 C 
HETATM   35  C23 UNL     1      -0.590  17.375 -25.560  1.00  0.00    -0.012 C 
HETATM   36  C25 UNL     1      -1.127  15.973 -25.512  1.00  0.00     0.035 C 
ENDBRANCH  24  27
ENDBRANCH   1  21
TORSDOF 12
ENDMDL
MODEL 5
REMARK VINA RESULT: -8.034557978      2.749      8.275
REMARK  12 active torsions:
REMARK  status: ('A' for Active; 'I' for Inactive)
REMARK    1  A    between atoms: C2_2  and  C3_3 
REMARK    2  A    between atoms: C3_3  and  C4_4 
REMARK    3  A    between atoms: C4_4  and  O1_5 
REMARK    4  A    between atoms: O1_5  and  C5_6 
REMARK    5  A    between atoms: C5_6  and  C6_8 
REMARK    6  A    between atoms: C6_8  and  C7_9 
REMARK    7  A    between atoms: C6_8  and  N3_21 
REMARK    8  A    between atoms: C7_9  and  C8_10 
REMARK    9  A    between atoms: C8_10  and  C9_11 
REMARK   10  A    between atoms: C9_11  and  C10_12 
REMARK   11  A    between atoms: N2_17  and  C13_18 
REMARK       I    between atoms: N3_21  and  C16_23 
REMARK       I    between atoms: C16_23  and  N4_25 
REMARK   12  A    between atoms: N4_25  and  C17_27 
ROOT
HETATM    1  C6  UNL     1      -0.988  10.440 -24.216  1.00  0.00     0.186 C 
ENDROOT
BRANCH   1   2
HETATM    2  C5  UNL     1      -2.186  10.323 -23.307  1.00  0.00     0.281 C 
HETATM    3  O2  UNL     1      -2.226   9.479 -22.411  1.00  0.00    -0.263 OA
BRANCH   2   4
HETATM    4  O1  UNL     1      -3.230  11.191 -23.517  1.00  0.00    -0.320 OA
BRANCH   4   5
HETATM    5  C4  UNL     1      -4.407  11.192 -22.741  1.00  0.00     0.178 C 
BRANCH   5   6
HETATM    6  C3  UNL     1      -5.148  12.501 -22.925  1.00  0.00     0.026 C 
BRANCH   6   7
HETATM    7  C2  UNL     1      -6.646  12.220 -22.889  1.00  0.00    -0.002 C 
HETATM    8  C1  UNL     1      -6.892  11.225 -21.785  1.00  0.00     0.005 C 
ENDBRANCH   6   7
ENDBRANCH   5   6
ENDBRANCH   4   5
ENDBRANCH   2   4
ENDBRANCH   1   2
BRANCH   1   9
HETATM    9  C7  UNL     1      -0.609   9.066 -24.658  1.00  0.00     0.036 C 
BRANCH   9  10
HETATM   10  C8  UNL     1      -1.029   8.690 -26.013  1.00  0.00     0.010 C 
BRANCH  10  11
HETATM   11  C9  UNL     1      -0.010   8.359 -27.048  1.00  0.00     0.076 C 
BRANCH  11  12
HETATM   12  C10 UNL     1       0.219   9.590 -27.874  1.00  0.00     0.083 A 
HETATM   13  N1  UNL     1      -0.523   9.916 -28.941  1.00  0.00    -0.354 N 
HETATM   14  C11 UNL     1      -0.024  11.081 -29.434  1.00  0.00     0.106 A 
ATOM     15  H1  UNL     1      -1.314   9.390 -29.313  1.00  0.00     0.166 HD
HETATM   16  C12 UNL     1       1.024  11.417 -28.624  1.00  0.00     0.110 A 
HETATM   17  N2  UNL     1       1.183  10.498 -27.653  1.00  0.00    -0.341 N 
BRANCH  17  18
HETATM   18  C13 UNL     1       2.194  10.555 -26.650  1.00  0.00     0.091 A 
HETATM   19  C14 UNL     1       3.527   9.866 -27.037  1.00  0.00     0.028 A 
HETATM   20  C15 UNL     1       3.442  11.297 -26.717  1.00  0.00     0.028 A 
ENDBRANCH  17  18
ENDBRANCH  11  12
ENDBRANCH  10  11
ENDBRANCH   9  10
ENDBRANCH   1   9
BRANCH   1  21
HETATM   21  N3  UNL     1      -1.254  11.393 -25.245  1.00  0.00    -0.329 N 
HETATM   22  C16 UNL     1      -0.560  12.632 -25.357  1.00  0.00     0.317 C 
HETATM   23  O3  UNL     1       0.314  12.905 -24.500  1.00  0.00    -0.247 OA
HETATM   24  N4  UNL     1      -0.846  13.551 -26.419  1.00  0.00    -0.334 N 
ATOM     25  H4  UNL     1      -1.567  13.290 -27.093  1.00  0.00     0.165 HD
ATOM     26  H3  UNL     1      -1.976  11.177 -25.933  1.00  0.00     0.165 HD
BRANCH  24  27
HETATM   27  C17 UNL     1      -0.189  14.809 -26.597  1.00  0.00     0.035 C 
HETATM   28  C18 UNL     1      -0.439  15.426 -27.946  1.00  0.00     0.035 C 
HETATM   29  C19 UNL     1       0.325  16.728 -28.053  1.00  0.00    -0.012 C 
HETATM   30  C20 UNL     1      -0.041  17.707 -26.961  1.00  0.00     0.009 C 
HETATM   31  C24 UNL     1       1.816  16.494 -27.957  1.00  0.00     0.009 C 
HETATM   32  C21 UNL     1       0.215  17.055 -25.623  1.00  0.00    -0.012 C 
HETATM   33  C22 UNL     1       1.683  16.805 -25.491  1.00  0.00     0.009 C 
HETATM   34  C26 UNL     1      -0.624  15.804 -25.542  1.00  0.00     0.035 C 
HETATM   35  C23 UNL     1       2.094  15.873 -26.612  1.00  0.00    -0.012 C 
HETATM   36  C25 UNL     1       1.307  14.604 -26.447  1.00  0.00     0.035 C 
ENDBRANCH  24  27
ENDBRANCH   1  21
TORSDOF 12
ENDMDL
