MODEL 1
REMARK VINA RESULT: -7.882749555      0.000      0.000
REMARK  14 active torsions:
REMARK  status: ('A' for Active; 'I' for Inactive)
REMARK    1  A    between atoms: C2_2  and  N1_3 
REMARK    2  A    between atoms: N1_3  and  C3_4 
REMARK    3  A    between atoms: N1_3  and  C6_11 
REMARK    4  A    between atoms: C3_4  and  C4_5 
REMARK    5  A    between atoms: C4_5  and  C5_6 
REMARK    6  A    between atoms: C5_6  and  N2_7 
REMARK    7  A    between atoms: C6_11  and  C7_12 
REMARK    8  A    between atoms: C7_12  and  N3_13 
REMARK    9  A    between atoms: N3_13  and  C8_15 
REMARK   10  A    between atoms: C12_19  and  N4_20 
REMARK   11  A    between atoms: C14_25  and  N6_26 
REMARK   12  A    between atoms: N6_26  and  C15_28 
REMARK   13  A    between atoms: C15_28  and  C16_29 
REMARK   14  A    between atoms: C16_29  and  C17_30 
ROOT
HETATM    1  C8  UNL     1      14.021  37.888  -9.105  1.00  0.00     0.106 A 
HETATM    2  C9  UNL     1      13.831  39.205  -9.565  1.00  0.00     0.050 A 
HETATM    3  C10 UNL     1      13.104  40.132  -8.853  1.00  0.00     0.023 A 
HETATM    4  C11 UNL     1      12.549  39.771  -7.664  1.00  0.00     0.053 A 
HETATM    5  C12 UNL     1      11.805  40.667  -6.895  1.00  0.00     0.134 A 
HETATM    6  N5  UNL     1      11.323  40.127  -5.717  1.00  0.00    -0.176 N 
ATOM      7  H5  UNL     1      10.770  40.739  -5.115  1.00  0.00     0.186 HD
HETATM    8  C14 UNL     1      11.516  38.895  -5.306  1.00  0.00     0.681 A 
HETATM    9  N9  UNL     1      12.225  38.053  -6.048  1.00  0.00    -0.176 N 
ATOM     10  H9  UNL     1      12.379  37.094  -5.736  1.00  0.00     0.186 HD
HETATM   11  C18 UNL     1      12.741  38.483  -7.222  1.00  0.00     0.136 A 
HETATM   12  N10 UNL     1      13.456  37.591  -7.933  1.00  0.00    -0.327 N 
ATOM     13  H10 UNL     1      13.569  36.649  -7.561  1.00  0.00     0.169 HD
ENDROOT
BRANCH   1  14
HETATM   14  N3  UNL     1      14.672  37.130  -9.789  1.00  0.00    -0.354 N 
ATOM     15  H3  UNL     1      15.582  37.084  -9.331  1.00  0.00     0.166 HD
BRANCH  14  16
HETATM   16  C7  UNL     1      14.788  36.300 -10.880  1.00  0.00     0.082 C 
BRANCH  16  17
HETATM   17  C6  UNL     1      13.598  36.252 -11.766  1.00  0.00     0.171 C 
BRANCH  17  18
HETATM   18  N1  UNL     1      13.794  36.673 -13.130  1.00  0.00    -0.370 N 
BRANCH  18  19
HETATM   19  C2  UNL     1      14.760  37.684 -13.230  1.00  0.00     0.059 C 
HETATM   20  C1  UNL     1      14.171  39.087 -13.315  1.00  0.00     0.055 C 
ENDBRANCH  18  19
BRANCH  18  21
HETATM   21  C3  UNL     1      13.418  35.858 -14.169  1.00  0.00     0.065 C 
BRANCH  21  22
HETATM   22  C4  UNL     1      14.292  35.851 -15.367  1.00  0.00     0.072 C 
BRANCH  22  23
HETATM   23  C5  UNL     1      13.765  35.402 -16.667  1.00  0.00     0.234 C 
BRANCH  23  24
HETATM   24  N2  UNL     1      13.812  33.968 -16.887  1.00  0.00    -0.079 N 
ATOM     25  H23 UNL     1      13.102  33.502 -16.323  1.00  0.00     0.274 HD
ATOM     26  H22 UNL     1      13.473  33.744 -17.822  1.00  0.00     0.274 HD
ATOM     27  H21 UNL     1      14.723  33.536 -16.731  1.00  0.00     0.274 HD
ENDBRANCH  23  24
ENDBRANCH  22  23
ENDBRANCH  21  22
ENDBRANCH  18  21
ENDBRANCH  17  18
ENDBRANCH  16  17
ENDBRANCH  14  16
ENDBRANCH   1  14
BRANCH   5  28
HETATM   28  N4  UNL     1      11.557  41.826  -7.167  1.00  0.00    -0.361 N 
HETATM   29  C13 UNL     1      10.707  42.741  -7.662  1.00  0.00     0.120 C 
ATOM     30  H4  UNL     1      12.385  42.351  -6.887  1.00  0.00     0.165 HD
ENDBRANCH   5  28
BRANCH   8  31
HETATM   31  N6  UNL     1      11.040  38.457  -4.185  1.00  0.00    -0.226 N 
ATOM     32  H6  UNL     1      11.700  38.103  -3.493  1.00  0.00     0.177 HD
BRANCH  31  33
HETATM   33  C15 UNL     1       9.652  38.438  -3.855  1.00  0.00     0.145 C 
BRANCH  33  34
HETATM   34  C16 UNL     1       9.461  38.404  -2.353  1.00  0.00     0.092 C 
BRANCH  34  35
HETATM   35  C17 UNL     1       9.539  37.050  -1.806  1.00  0.00     0.088 C 
HETATM   36  N7  UNL     1      10.614  36.635  -1.251  1.00  0.00    -0.391 N 
ATOM     37  H72 UNL     1      11.425  37.251  -1.192  1.00  0.00     0.157 HD
ATOM     38  H71 UNL     1      10.668  35.690  -0.870  1.00  0.00     0.157 HD
HETATM   39  N8  UNL     1       8.414  36.196  -1.887  1.00  0.00    -0.088 NA
ENDBRANCH  34  35
ENDBRANCH  33  34
ENDBRANCH  31  33
ENDBRANCH   8  31
TORSDOF 14
ENDMDL
MODEL 2
REMARK VINA RESULT: -7.864968501      1.082      1.342
REMARK  14 active torsions:
REMARK  status: ('A' for Active; 'I' for Inactive)
REMARK    1  A    between atoms: C2_2  and  N1_3 
REMARK    2  A    between atoms: N1_3  and  C3_4 
REMARK    3  A    between atoms: N1_3  and  C6_11 
REMARK    4  A    between atoms: C3_4  and  C4_5 
REMARK    5  A    between atoms: C4_5  and  C5_6 
REMARK    6  A    between atoms: C5_6  and  N2_7 
REMARK    7  A    between atoms: C6_11  and  C7_12 
REMARK    8  A    between atoms: C7_12  and  N3_13 
REMARK    9  A    between atoms: N3_13  and  C8_15 
REMARK   10  A    between atoms: C12_19  and  N4_20 
REMARK   11  A    between atoms: C14_25  and  N6_26 
REMARK   12  A    between atoms: N6_26  and  C15_28 
REMARK   13  A    between atoms: C15_28  and  C16_29 
REMARK   14  A    between atoms: C16_29  and  C17_30 
ROOT
HETATM    1  C8  UNL     1      13.810  37.979  -8.741  1.00  0.00     0.106 A 
HETATM    2  C9  UNL     1      13.543  39.300  -9.151  1.00  0.00     0.050 A 
HETATM    3  C10 UNL     1      12.759  40.153  -8.408  1.00  0.00     0.023 A 
HETATM    4  C11 UNL     1      12.221  39.712  -7.237  1.00  0.00     0.053 A 
HETATM    5  C12 UNL     1      11.421  40.531  -6.439  1.00  0.00     0.134 A 
HETATM    6  N5  UNL     1      10.967  39.917  -5.286  1.00  0.00    -0.176 N 
ATOM      7  H5  UNL     1      10.376  40.470  -4.665  1.00  0.00     0.186 HD
HETATM    8  C14 UNL     1      11.231  38.683  -4.924  1.00  0.00     0.681 A 
HETATM    9  N9  UNL     1      11.993  37.914  -5.693  1.00  0.00    -0.176 N 
ATOM     10  H9  UNL     1      12.202  36.954  -5.418  1.00  0.00     0.186 HD
HETATM   11  C18 UNL     1      12.488  38.421  -6.845  1.00  0.00     0.136 A 
HETATM   12  N10 UNL     1      13.257  37.602  -7.586  1.00  0.00    -0.327 N 
ATOM     13  H10 UNL     1      13.425  36.654  -7.251  1.00  0.00     0.169 HD
ENDROOT
BRANCH   1  14
HETATM   14  N3  UNL     1      14.507  37.289  -9.451  1.00  0.00    -0.354 N 
ATOM     15  H3  UNL     1      15.428  37.316  -9.013  1.00  0.00     0.166 HD
BRANCH  14  16
HETATM   16  C7  UNL     1      14.669  36.485 -10.555  1.00  0.00     0.082 C 
BRANCH  16  17
HETATM   17  C6  UNL     1      13.573  36.556 -11.554  1.00  0.00     0.171 C 
BRANCH  17  18
HETATM   18  N1  UNL     1      13.904  37.131 -12.833  1.00  0.00    -0.370 N 
BRANCH  18  19
HETATM   19  C2  UNL     1      14.125  38.512 -12.742  1.00  0.00     0.059 C 
HETATM   20  C1  UNL     1      14.172  39.214 -14.094  1.00  0.00     0.055 C 
ENDBRANCH  18  19
BRANCH  18  21
HETATM   21  C3  UNL     1      14.377  36.338 -13.849  1.00  0.00     0.065 C 
BRANCH  21  22
HETATM   22  C4  UNL     1      13.369  35.734 -14.754  1.00  0.00     0.072 C 
BRANCH  22  23
HETATM   23  C5  UNL     1      13.666  35.563 -16.187  1.00  0.00     0.234 C 
BRANCH  23  24
HETATM   24  N2  UNL     1      13.733  34.186 -16.640  1.00  0.00    -0.079 N 
ATOM     25  H23 UNL     1      14.106  33.590 -15.902  1.00  0.00     0.274 HD
ATOM     26  H22 UNL     1      12.795  33.798 -16.726  1.00  0.00     0.274 HD
ATOM     27  H21 UNL     1      14.254  34.041 -17.505  1.00  0.00     0.274 HD
ENDBRANCH  23  24
ENDBRANCH  22  23
ENDBRANCH  21  22
ENDBRANCH  18  21
ENDBRANCH  17  18
ENDBRANCH  16  17
ENDBRANCH  14  16
ENDBRANCH   1  14
BRANCH   5  28
HETATM   28  N4  UNL     1      11.106  41.683  -6.666  1.00  0.00    -0.361 N 
HETATM   29  C13 UNL     1      10.618  42.601  -7.517  1.00  0.00     0.120 C 
ATOM     30  H4  UNL     1      11.308  42.193  -5.806  1.00  0.00     0.165 HD
ENDBRANCH   5  28
BRANCH   8  31
HETATM   31  N6  UNL     1      10.777  38.173  -3.824  1.00  0.00    -0.226 N 
ATOM     32  H6  UNL     1      11.440  37.708  -3.204  1.00  0.00     0.177 HD
BRANCH  31  33
HETATM   33  C15 UNL     1       9.408  38.219  -3.423  1.00  0.00     0.145 C 
BRANCH  33  34
HETATM   34  C16 UNL     1       9.297  38.362  -1.919  1.00  0.00     0.092 C 
BRANCH  34  35
HETATM   35  C17 UNL     1      10.195  39.385  -1.384  1.00  0.00     0.088 C 
HETATM   36  N7  UNL     1       9.756  40.554  -1.107  1.00  0.00    -0.391 N 
ATOM     37  H72 UNL     1       8.773  40.776  -1.264  1.00  0.00     0.157 HD
ATOM     38  H71 UNL     1      10.382  41.267  -0.734  1.00  0.00     0.157 HD
HETATM   39  N8  UNL     1      11.559  39.076  -1.167  1.00  0.00    -0.088 NA
ENDBRANCH  34  35
ENDBRANCH  33  34
ENDBRANCH  31  33
ENDBRANCH   8  31
TORSDOF 14
ENDMDL
MODEL 3
REMARK VINA RESULT: -7.789389958      1.063      2.214
REMARK  14 active torsions:
REMARK  status: ('A' for Active; 'I' for Inactive)
REMARK    1  A    between atoms: C2_2  and  N1_3 
REMARK    2  A    between atoms: N1_3  and  C3_4 
REMARK    3  A    between atoms: N1_3  and  C6_11 
REMARK    4  A    between atoms: C3_4  and  C4_5 
REMARK    5  A    between atoms: C4_5  and  C5_6 
REMARK    6  A    between atoms: C5_6  and  N2_7 
REMARK    7  A    between atoms: C6_11  and  C7_12 
REMARK    8  A    between atoms: C7_12  and  N3_13 
REMARK    9  A    between atoms: N3_13  and  C8_15 
REMARK   10  A    between atoms: C12_19  and  N4_20 
REMARK   11  A    between atoms: C14_25  and  N6_26 
REMARK   12  A    between atoms: N6_26  and  C15_28 
REMARK   13  A    between atoms: C15_28  and  C16_29 
REMARK   14  A    between atoms: C16_29  and  C17_30 
ROOT
HETATM    1  C8  UNL     1      14.063  37.958  -9.140  1.00  0.00     0.106 A 
HETATM    2  C9  UNL     1      13.836  39.279  -9.568  1.00  0.00     0.050 A 
HETATM    3  C10 UNL     1      13.092  40.171  -8.829  1.00  0.00     0.023 A 
HETATM    4  C11 UNL     1      12.558  39.769  -7.644  1.00  0.00     0.053 A 
HETATM    5  C12 UNL     1      11.798  40.628  -6.848  1.00  0.00     0.134 A 
HETATM    6  N5  UNL     1      11.340  40.050  -5.679  1.00  0.00    -0.176 N 
ATOM      7  H5  UNL     1      10.778  40.633  -5.059  1.00  0.00     0.186 HD
HETATM    8  C14 UNL     1      11.568  38.814  -5.298  1.00  0.00     0.681 A 
HETATM    9  N9  UNL     1      12.291  38.007  -6.065  1.00  0.00    -0.176 N 
ATOM     10  H9  UNL     1      12.472  37.045  -5.777  1.00  0.00     0.186 HD
HETATM   11  C18 UNL     1      12.785  38.477  -7.233  1.00  0.00     0.136 A 
HETATM   12  N10 UNL     1      13.516  37.620  -7.970  1.00  0.00    -0.327 N 
ATOM     13  H10 UNL     1      13.656  36.672  -7.621  1.00  0.00     0.169 HD
ENDROOT
BRANCH   1  14
HETATM   14  N3  UNL     1      14.726  37.232  -9.847  1.00  0.00    -0.354 N 
ATOM     15  H3  UNL     1      15.693  37.467  -9.624  1.00  0.00     0.166 HD
BRANCH  14  16
HETATM   16  C7  UNL     1      14.817  36.246 -10.802  1.00  0.00     0.082 C 
BRANCH  16  17
HETATM   17  C6  UNL     1      13.854  36.364 -11.925  1.00  0.00     0.171 C 
BRANCH  17  18
HETATM   18  N1  UNL     1      14.314  37.066 -13.096  1.00  0.00    -0.370 N 
BRANCH  18  19
HETATM   19  C2  UNL     1      14.590  36.190 -14.155  1.00  0.00     0.059 C 
HETATM   20  C1  UNL     1      13.351  35.754 -14.927  1.00  0.00     0.055 C 
ENDBRANCH  18  19
BRANCH  18  21
HETATM   21  C3  UNL     1      14.052  38.406 -13.250  1.00  0.00     0.065 C 
BRANCH  21  22
HETATM   22  C4  UNL     1      15.215  39.294 -13.488  1.00  0.00     0.072 C 
BRANCH  22  23
HETATM   23  C5  UNL     1      16.205  39.523 -12.421  1.00  0.00     0.234 C 
BRANCH  23  24
HETATM   24  N2  UNL     1      17.334  38.611 -12.424  1.00  0.00    -0.079 N 
ATOM     25  H23 UNL     1      18.034  38.915 -11.748  1.00  0.00     0.274 HD
ATOM     26  H22 UNL     1      17.065  37.717 -12.013  1.00  0.00     0.274 HD
ATOM     27  H21 UNL     1      17.766  38.462 -13.336  1.00  0.00     0.274 HD
ENDBRANCH  23  24
ENDBRANCH  22  23
ENDBRANCH  21  22
ENDBRANCH  18  21
ENDBRANCH  17  18
ENDBRANCH  16  17
ENDBRANCH  14  16
ENDBRANCH   1  14
BRANCH   5  28
HETATM   28  N4  UNL     1      11.519  41.787  -7.091  1.00  0.00    -0.361 N 
HETATM   29  C13 UNL     1      10.721  42.680  -7.699  1.00  0.00     0.120 C 
ATOM     30  H4  UNL     1      12.222  42.341  -6.604  1.00  0.00     0.165 HD
ENDBRANCH   5  28
BRANCH   8  31
HETATM   31  N6  UNL     1      11.113  38.339  -4.184  1.00  0.00    -0.226 N 
ATOM     32  H6  UNL     1      11.779  37.912  -3.540  1.00  0.00     0.177 HD
BRANCH  31  33
HETATM   33  C15 UNL     1       9.740  38.373  -3.797  1.00  0.00     0.145 C 
BRANCH  33  34
HETATM   34  C16 UNL     1       9.605  38.254  -2.293  1.00  0.00     0.092 C 
BRANCH  34  35
HETATM   35  C17 UNL     1       9.587  36.865  -1.838  1.00  0.00     0.088 C 
HETATM   36  N7  UNL     1      10.660  36.301  -1.429  1.00  0.00    -0.391 N 
ATOM     37  H72 UNL     1      11.536  36.823  -1.423  1.00  0.00     0.157 HD
ATOM     38  H71 UNL     1      10.647  35.332  -1.111  1.00  0.00     0.157 HD
HETATM   39  N8  UNL     1       8.371  36.141  -1.845  1.00  0.00    -0.088 NA
ENDBRANCH  34  35
ENDBRANCH  33  34
ENDBRANCH  31  33
ENDBRANCH   8  31
TORSDOF 14
ENDMDL
MODEL 4
REMARK VINA RESULT: -7.739144873      1.385      2.655
REMARK  14 active torsions:
REMARK  status: ('A' for Active; 'I' for Inactive)
REMARK    1  A    between atoms: C2_2  and  N1_3 
REMARK    2  A    between atoms: N1_3  and  C3_4 
REMARK    3  A    between atoms: N1_3  and  C6_11 
REMARK    4  A    between atoms: C3_4  and  C4_5 
REMARK    5  A    between atoms: C4_5  and  C5_6 
REMARK    6  A    between atoms: C5_6  and  N2_7 
REMARK    7  A    between atoms: C6_11  and  C7_12 
REMARK    8  A    between atoms: C7_12  and  N3_13 
REMARK    9  A    between atoms: N3_13  and  C8_15 
REMARK   10  A    between atoms: C12_19  and  N4_20 
REMARK   11  A    between atoms: C14_25  and  N6_26 
REMARK   12  A    between atoms: N6_26  and  C15_28 
REMARK   13  A    between atoms: C15_28  and  C16_29 
REMARK   14  A    between atoms: C16_29  and  C17_30 
ROOT
HETATM    1  C8  UNL     1      13.790  38.032  -8.711  1.00  0.00     0.106 A 
HETATM    2  C9  UNL     1      13.482  39.343  -9.123  1.00  0.00     0.050 A 
HETATM    3  C10 UNL     1      12.673  40.173  -8.380  1.00  0.00     0.023 A 
HETATM    4  C11 UNL     1      12.151  39.719  -7.208  1.00  0.00     0.053 A 
HETATM    5  C12 UNL     1      11.328  40.514  -6.410  1.00  0.00     0.134 A 
HETATM    6  N5  UNL     1      10.895  39.889  -5.256  1.00  0.00    -0.176 N 
ATOM      7  H5  UNL     1      10.288  40.425  -4.635  1.00  0.00     0.186 HD
HETATM    8  C14 UNL     1      11.198  38.665  -4.890  1.00  0.00     0.681 A 
HETATM    9  N9  UNL     1      11.981  37.919  -5.659  1.00  0.00    -0.176 N 
ATOM     10  H9  UNL     1      12.221  36.966  -5.382  1.00  0.00     0.186 HD
HETATM   11  C18 UNL     1      12.458  38.438  -6.813  1.00  0.00     0.136 A 
HETATM   12  N10 UNL     1      13.252  37.641  -7.554  1.00  0.00    -0.327 N 
ATOM     13  H10 UNL     1      13.449  36.699  -7.216  1.00  0.00     0.169 HD
ENDROOT
BRANCH   1  14
HETATM   14  N3  UNL     1      14.508  37.362  -9.420  1.00  0.00    -0.354 N 
ATOM     15  H3  UNL     1      15.448  37.520  -9.059  1.00  0.00     0.166 HD
BRANCH  14  16
HETATM   16  C7  UNL     1      14.679  36.492 -10.471  1.00  0.00     0.082 C 
BRANCH  16  17
HETATM   17  C6  UNL     1      13.619  36.540 -11.509  1.00  0.00     0.171 C 
BRANCH  17  18
HETATM   18  N1  UNL     1      14.060  36.660 -12.875  1.00  0.00    -0.370 N 
BRANCH  18  19
HETATM   19  C2  UNL     1      13.319  35.839 -13.737  1.00  0.00     0.059 C 
HETATM   20  C1  UNL     1      13.768  35.916 -15.191  1.00  0.00     0.055 C 
ENDBRANCH  18  19
BRANCH  18  21
HETATM   21  C3  UNL     1      14.772  37.762 -13.280  1.00  0.00     0.065 C 
BRANCH  21  22
HETATM   22  C4  UNL     1      14.216  39.090 -12.920  1.00  0.00     0.072 C 
BRANCH  22  23
HETATM   23  C5  UNL     1      15.079  40.114 -12.305  1.00  0.00     0.234 C 
BRANCH  23  24
HETATM   24  N2  UNL     1      16.227  39.597 -11.583  1.00  0.00    -0.079 N 
ATOM     25  H23 UNL     1      16.478  40.228 -10.823  1.00  0.00     0.274 HD
ATOM     26  H22 UNL     1      15.963  38.770 -11.049  1.00  0.00     0.274 HD
ATOM     27  H21 UNL     1      17.045  39.397 -12.159  1.00  0.00     0.274 HD
ENDBRANCH  23  24
ENDBRANCH  22  23
ENDBRANCH  21  22
ENDBRANCH  18  21
ENDBRANCH  17  18
ENDBRANCH  16  17
ENDBRANCH  14  16
ENDBRANCH   1  14
BRANCH   5  28
HETATM   28  N4  UNL     1      10.977  41.656  -6.640  1.00  0.00    -0.361 N 
HETATM   29  C13 UNL     1      10.726  42.630  -7.530  1.00  0.00     0.120 C 
ATOM     30  H4  UNL     1      10.781  42.066  -5.727  1.00  0.00     0.165 HD
ENDBRANCH   5  28
BRANCH   8  31
HETATM   31  N6  UNL     1      10.761  38.144  -3.789  1.00  0.00    -0.226 N 
ATOM     32  H6  UNL     1      11.434  37.672  -3.185  1.00  0.00     0.177 HD
BRANCH  31  33
HETATM   33  C15 UNL     1       9.400  38.187  -3.364  1.00  0.00     0.145 C 
BRANCH  33  34
HETATM   34  C16 UNL     1       9.314  38.341  -1.859  1.00  0.00     0.092 C 
BRANCH  34  35
HETATM   35  C17 UNL     1      10.212  39.376  -1.348  1.00  0.00     0.088 C 
HETATM   36  N7  UNL     1       9.770  40.546  -1.084  1.00  0.00    -0.391 N 
ATOM     37  H72 UNL     1       8.784  40.762  -1.234  1.00  0.00     0.157 HD
ATOM     38  H71 UNL     1      10.396  41.269  -0.727  1.00  0.00     0.157 HD
HETATM   39  N8  UNL     1      11.580  39.077  -1.140  1.00  0.00    -0.088 NA
ENDBRANCH  34  35
ENDBRANCH  33  34
ENDBRANCH  31  33
ENDBRANCH   8  31
TORSDOF 14
ENDMDL
MODEL 5
REMARK VINA RESULT: -7.533086842      1.814      9.765
REMARK  14 active torsions:
REMARK  status: ('A' for Active; 'I' for Inactive)
REMARK    1  A    between atoms: C2_2  and  N1_3 
REMARK    2  A    between atoms: N1_3  and  C3_4 
REMARK    3  A    between atoms: N1_3  and  C6_11 
REMARK    4  A    between atoms: C3_4  and  C4_5 
REMARK    5  A    between atoms: C4_5  and  C5_6 
REMARK    6  A    between atoms: C5_6  and  N2_7 
REMARK    7  A    between atoms: C6_11  and  C7_12 
REMARK    8  A    between atoms: C7_12  and  N3_13 
REMARK    9  A    between atoms: N3_13  and  C8_15 
REMARK   10  A    between atoms: C12_19  and  N4_20 
REMARK   11  A    between atoms: C14_25  and  N6_26 
REMARK   12  A    between atoms: N6_26  and  C15_28 
REMARK   13  A    between atoms: C15_28  and  C16_29 
REMARK   14  A    between atoms: C16_29  and  C17_30 
ROOT
HETATM    1  C8  UNL     1      11.194  38.863  -5.550  1.00  0.00     0.106 A 
HETATM    2  C9  UNL     1      10.924  40.197  -5.911  1.00  0.00     0.050 A 
HETATM    3  C10 UNL     1      11.503  40.790  -7.010  1.00  0.00     0.023 A 
HETATM    4  C11 UNL     1      12.366  40.070  -7.778  1.00  0.00     0.053 A 
HETATM    5  C12 UNL     1      12.982  40.615  -8.905  1.00  0.00     0.134 A 
HETATM    6  N5  UNL     1      13.822  39.736  -9.564  1.00  0.00    -0.176 N 
ATOM      7  H5  UNL     1      14.299  40.083 -10.396  1.00  0.00     0.186 HD
HETATM    8  C14 UNL     1      14.057  38.494  -9.210  1.00  0.00     0.681 A 
HETATM    9  N9  UNL     1      13.465  37.988  -8.134  1.00  0.00    -0.176 N 
ATOM     10  H9  UNL     1      13.643  37.024  -7.852  1.00  0.00     0.186 HD
HETATM   11  C18 UNL     1      12.623  38.768  -7.418  1.00  0.00     0.136 A 
HETATM   12  N10 UNL     1      12.047  38.205  -6.340  1.00  0.00    -0.327 N 
ATOM     13  H10 UNL     1      12.271  37.236  -6.116  1.00  0.00     0.169 HD
ENDROOT
BRANCH   1  14
HETATM   14  N3  UNL     1      10.647  38.413  -4.569  1.00  0.00    -0.354 N 
ATOM     15  H3  UNL     1      11.335  37.782  -4.156  1.00  0.00     0.166 HD
BRANCH  14  16
HETATM   16  C7  UNL     1       9.556  38.333  -3.735  1.00  0.00     0.082 C 
BRANCH  16  17
HETATM   17  C6  UNL     1       9.701  37.396  -2.593  1.00  0.00     0.171 C 
BRANCH  17  18
HETATM   18  N1  UNL     1       9.670  37.979  -1.275  1.00  0.00    -0.370 N 
BRANCH  18  19
HETATM   19  C2  UNL     1       9.036  37.139  -0.349  1.00  0.00     0.059 C 
HETATM   20  C1  UNL     1       9.026  35.672  -0.761  1.00  0.00     0.055 C 
ENDBRANCH  18  19
BRANCH  18  21
HETATM   21  C3  UNL     1      10.548  38.979  -0.938  1.00  0.00     0.065 C 
BRANCH  21  22
HETATM   22  C4  UNL     1       9.962  40.242  -0.425  1.00  0.00     0.072 C 
BRANCH  22  23
HETATM   23  C5  UNL     1       9.135  41.086  -1.303  1.00  0.00     0.234 C 
BRANCH  23  24
HETATM   24  N2  UNL     1       9.403  42.510  -1.217  1.00  0.00    -0.079 N 
ATOM     25  H23 UNL     1       9.466  42.798  -0.240  1.00  0.00     0.274 HD
ATOM     26  H22 UNL     1      10.355  42.708  -1.523  1.00  0.00     0.274 HD
ATOM     27  H21 UNL     1       8.742  43.105  -1.716  1.00  0.00     0.274 HD
ENDBRANCH  23  24
ENDBRANCH  22  23
ENDBRANCH  21  22
ENDBRANCH  18  21
ENDBRANCH  17  18
ENDBRANCH  16  17
ENDBRANCH  14  16
ENDBRANCH   1  14
BRANCH   5  28
HETATM   28  N4  UNL     1      12.846  41.746  -9.332  1.00  0.00    -0.361 N 
HETATM   29  C13 UNL     1      12.545  42.568 -10.351  1.00  0.00     0.120 C 
ATOM     30  H4  UNL     1      13.062  42.358  -8.546  1.00  0.00     0.165 HD
ENDBRANCH   5  28
BRANCH   8  31
HETATM   31  N6  UNL     1      14.852  37.723  -9.879  1.00  0.00    -0.226 N 
ATOM     32  H6  UNL     1      15.833  37.994  -9.948  1.00  0.00     0.177 HD
BRANCH  31  33
HETATM   33  C15 UNL     1      14.446  36.517 -10.525  1.00  0.00     0.145 C 
BRANCH  33  34
HETATM   34  C16 UNL     1      13.744  36.822 -11.832  1.00  0.00     0.092 C 
BRANCH  34  35
HETATM   35  C17 UNL     1      13.755  35.688 -12.755  1.00  0.00     0.088 C 
HETATM   36  N7  UNL     1      14.428  35.741 -13.841  1.00  0.00    -0.391 N 
ATOM     37  H72 UNL     1      14.958  36.583 -14.069  1.00  0.00     0.157 HD
ATOM     38  H71 UNL     1      14.436  34.950 -14.485  1.00  0.00     0.157 HD
HETATM   39  N8  UNL     1      13.020  34.520 -12.439  1.00  0.00    -0.088 NA
ENDBRANCH  34  35
ENDBRANCH  33  34
ENDBRANCH  31  33
ENDBRANCH   8  31
TORSDOF 14
ENDMDL
