MODEL 1
REMARK VINA RESULT: -7.487903583      0.000      0.000
REMARK  16 active torsions:
REMARK  status: ('A' for Active; 'I' for Inactive)
REMARK    1  A    between atoms: C3_3  and  C4_4 
REMARK    2  A    between atoms: C4_4  and  N1_5 
REMARK    3  A    between atoms: N1_5  and  C5_6 
REMARK    4  A    between atoms: N1_5  and  C8_13 
REMARK    5  A    between atoms: C5_6  and  C6_7 
REMARK    6  A    between atoms: C6_7  and  C7_8 
REMARK    7  A    between atoms: C7_8  and  N2_9 
REMARK    8  A    between atoms: C8_13  and  C9_14 
REMARK    9  A    between atoms: C9_14  and  C10_15 
REMARK   10  A    between atoms: C10_15  and  O1_16 
REMARK   11  A    between atoms: C12_23  and  N5_24 
REMARK       I    between atoms: N7_30  and  C14_32 
REMARK       I    between atoms: C14_32  and  N8_34 
REMARK   12  A    between atoms: N8_34  and  C15_36 
REMARK   13  A    between atoms: C15_36  and  C16_37 
REMARK   14  A    between atoms: C16_37  and  C17_38 
REMARK   15  A    between atoms: C17_38  and  C18_39 
REMARK   16  A    between atoms: C18_39  and  N9_40 
ROOT
HETATM    1  C1  UNL     1      12.677  41.629  -9.243  1.00  0.00     0.051 C 
HETATM    2  C2  UNL     1      12.338  40.724  -8.121  1.00  0.00    -0.027 A 
HETATM    3  C3  UNL     1      13.004  39.531  -8.023  1.00  0.00     0.056 A 
HETATM    4  N3  UNL     1      12.659  38.756  -6.982  1.00  0.00    -0.340 N 
ATOM      5  H3  UNL     1      13.141  37.863  -6.888  1.00  0.00     0.167 HD
HETATM    6  C11 UNL     1      11.742  39.049  -6.062  1.00  0.00     0.136 A 
HETATM    7  N4  UNL     1      11.456  38.215  -5.046  1.00  0.00    -0.176 N 
ATOM      8  H4  UNL     1      11.950  37.326  -4.970  1.00  0.00     0.186 HD
HETATM    9  C12 UNL     1      10.531  38.538  -4.132  1.00  0.00     0.679 A 
HETATM   10  N6  UNL     1       9.878  39.702  -4.226  1.00  0.00    -0.176 N 
ATOM     11  H6  UNL     1       9.174  39.945  -3.528  1.00  0.00     0.186 HD
HETATM   12  C13 UNL     1      10.145  40.559  -5.237  1.00  0.00     0.139 A 
HETATM   13  N7  UNL     1       9.527  41.661  -5.322  1.00  0.00    -0.293 N 
ATOM     14  H7  UNL     1       9.787  42.249  -6.113  1.00  0.00     0.172 HD
HETATM   15  C14 UNL     1       8.538  42.185  -4.482  1.00  0.00     0.321 C 
HETATM   16  O2  UNL     1       8.755  43.258  -3.895  1.00  0.00    -0.247 OA
HETATM   17  N8  UNL     1       7.318  41.504  -4.307  1.00  0.00    -0.343 N 
ATOM     18  H8  UNL     1       7.153  40.626  -4.800  1.00  0.00     0.164 HD
HETATM   19  C19 UNL     1      11.086  40.270  -6.196  1.00  0.00     0.060 A 
HETATM   20  C20 UNL     1      11.350  41.154  -7.219  1.00  0.00    -0.036 A 
HETATM   21  C21 UNL     1      10.675  42.447  -7.383  1.00  0.00     0.050 C 
ENDROOT
BRANCH   3  22
HETATM   22  C4  UNL     1      14.028  39.134  -9.019  1.00  0.00     0.120 C 
BRANCH  22  23
HETATM   23  N1  UNL     1      13.588  38.574 -10.212  1.00  0.00    -0.368 N 
BRANCH  23  24
HETATM   24  C5  UNL     1      13.276  37.225 -10.344  1.00  0.00     0.065 C 
BRANCH  24  25
HETATM   25  C6  UNL     1      13.134  36.691 -11.737  1.00  0.00     0.072 C 
BRANCH  25  26
HETATM   26  C7  UNL     1      14.059  35.555 -12.047  1.00  0.00     0.234 C 
BRANCH  26  27
HETATM   27  N2  UNL     1      14.515  35.742 -13.429  1.00  0.00    -0.079 N 
ATOM     28  H23 UNL     1      15.065  34.958 -13.780  1.00  0.00     0.274 HD
ATOM     29  H22 UNL     1      13.760  35.686 -14.113  1.00  0.00     0.274 HD
ATOM     30  H21 UNL     1      15.016  36.630 -13.457  1.00  0.00     0.274 HD
ENDBRANCH  26  27
ENDBRANCH  25  26
ENDBRANCH  24  25
ENDBRANCH  23  24
BRANCH  23  31
HETATM   31  C8  UNL     1      13.850  39.295 -11.421  1.00  0.00     0.129 C 
BRANCH  31  32
HETATM   32  C9  UNL     1      15.246  39.838 -11.520  1.00  0.00     0.046 C 
BRANCH  32  33
HETATM   33  C10 UNL     1      15.911  39.112 -12.696  1.00  0.00     0.165 C 
BRANCH  33  34
HETATM   34  O1  UNL     1      16.512  37.925 -12.262  1.00  0.00    -0.401 OA
ATOM     35  H1  UNL     1      16.877  37.449 -12.998  1.00  0.00     0.209 HD
ENDBRANCH  33  34
ENDBRANCH  32  33
ENDBRANCH  31  32
ENDBRANCH  23  31
ENDBRANCH  22  23
ENDBRANCH   3  22
BRANCH   9  36
HETATM   36  N5  UNL     1      10.276  37.698  -3.147  1.00  0.00    -0.234 N 
ATOM     37  H52 UNL     1      10.506  37.938  -2.183  1.00  0.00     0.174 HD
ATOM     38  H51 UNL     1       9.842  36.799  -3.358  1.00  0.00     0.174 HD
ENDBRANCH   9  36
BRANCH  17  39
HETATM   39  C15 UNL     1       6.300  42.039  -3.435  1.00  0.00     0.124 C 
BRANCH  39  40
HETATM   40  C16 UNL     1       5.090  42.492  -4.174  1.00  0.00     0.021 C 
BRANCH  40  41
HETATM   41  C17 UNL     1       3.858  42.050  -3.381  1.00  0.00     0.029 C 
BRANCH  41  42
HETATM   42  C18 UNL     1       2.652  42.143  -4.270  1.00  0.00     0.229 C 
BRANCH  42  43
HETATM   43  N9  UNL     1       1.756  41.038  -3.953  1.00  0.00    -0.079 N 
ATOM     44  H93 UNL     1       0.826  41.161  -4.355  1.00  0.00     0.274 HD
ATOM     45  H92 UNL     1       2.007  40.178  -4.441  1.00  0.00     0.274 HD
ATOM     46  H91 UNL     1       1.731  40.920  -2.939  1.00  0.00     0.274 HD
ENDBRANCH  42  43
ENDBRANCH  41  42
ENDBRANCH  40  41
ENDBRANCH  39  40
ENDBRANCH  17  39
TORSDOF 16
ENDMDL
MODEL 2
REMARK VINA RESULT: -7.177162742      4.594     10.819
REMARK  16 active torsions:
REMARK  status: ('A' for Active; 'I' for Inactive)
REMARK    1  A    between atoms: C3_3  and  C4_4 
REMARK    2  A    between atoms: C4_4  and  N1_5 
REMARK    3  A    between atoms: N1_5  and  C5_6 
REMARK    4  A    between atoms: N1_5  and  C8_13 
REMARK    5  A    between atoms: C5_6  and  C6_7 
REMARK    6  A    between atoms: C6_7  and  C7_8 
REMARK    7  A    between atoms: C7_8  and  N2_9 
REMARK    8  A    between atoms: C8_13  and  C9_14 
REMARK    9  A    between atoms: C9_14  and  C10_15 
REMARK   10  A    between atoms: C10_15  and  O1_16 
REMARK   11  A    between atoms: C12_23  and  N5_24 
REMARK       I    between atoms: N7_30  and  C14_32 
REMARK       I    between atoms: C14_32  and  N8_34 
REMARK   12  A    between atoms: N8_34  and  C15_36 
REMARK   13  A    between atoms: C15_36  and  C16_37 
REMARK   14  A    between atoms: C16_37  and  C17_38 
REMARK   15  A    between atoms: C17_38  and  C18_39 
REMARK   16  A    between atoms: C18_39  and  N9_40 
ROOT
HETATM    1  C1  UNL     1      13.977  42.279 -11.645  1.00  0.00     0.051 C 
HETATM    2  C2  UNL     1      13.861  40.805 -11.576  1.00  0.00    -0.027 A 
HETATM    3  C3  UNL     1      13.535  40.233 -10.374  1.00  0.00     0.056 A 
HETATM    4  N3  UNL     1      13.438  38.893 -10.374  1.00  0.00    -0.340 N 
ATOM      5  H3  UNL     1      13.196  38.445  -9.491  1.00  0.00     0.167 HD
HETATM    6  C11 UNL     1      13.631  38.098 -11.424  1.00  0.00     0.136 A 
HETATM    7  N4  UNL     1      13.512  36.761 -11.341  1.00  0.00    -0.176 N 
ATOM      8  H4  UNL     1      13.270  36.332 -10.448  1.00  0.00     0.186 HD
HETATM    9  C12 UNL     1      13.708  35.985 -12.416  1.00  0.00     0.679 A 
HETATM   10  N6  UNL     1      14.028  36.540 -13.590  1.00  0.00    -0.176 N 
ATOM     11  H6  UNL     1      14.177  35.947 -14.406  1.00  0.00     0.186 HD
HETATM   12  C13 UNL     1      14.155  37.881 -13.703  1.00  0.00     0.139 A 
HETATM   13  N7  UNL     1      14.455  38.405 -14.816  1.00  0.00    -0.293 N 
ATOM     14  H7  UNL     1      14.531  39.421 -14.816  1.00  0.00     0.172 HD
HETATM   15  C14 UNL     1      14.698  37.783 -16.046  1.00  0.00     0.321 C 
HETATM   16  O2  UNL     1      13.966  38.057 -17.013  1.00  0.00    -0.247 OA
HETATM   17  N8  UNL     1      15.754  36.862 -16.183  1.00  0.00    -0.343 N 
ATOM     18  H8  UNL     1      16.349  36.651 -15.382  1.00  0.00     0.164 HD
HETATM   19  C19 UNL     1      13.962  38.716 -12.628  1.00  0.00     0.060 A 
HETATM   20  C20 UNL     1      14.091  40.081 -12.758  1.00  0.00    -0.036 A 
HETATM   21  C21 UNL     1      14.437  40.758 -14.014  1.00  0.00     0.050 C 
ENDROOT
BRANCH   3  22
HETATM   22  C4  UNL     1      13.319  41.056  -9.160  1.00  0.00     0.120 C 
BRANCH  22  23
HETATM   23  N1  UNL     1      12.009  41.310  -8.775  1.00  0.00    -0.368 N 
BRANCH  23  24
HETATM   24  C5  UNL     1      11.399  42.550  -8.937  1.00  0.00     0.065 C 
BRANCH  24  25
HETATM   25  C6  UNL     1      10.605  42.761 -10.190  1.00  0.00     0.072 C 
BRANCH  25  26
HETATM   26  C7  UNL     1       9.380  43.601  -9.996  1.00  0.00     0.234 C 
BRANCH  26  27
HETATM   27  N2  UNL     1       8.384  43.130 -10.965  1.00  0.00    -0.079 N 
ATOM     28  H23 UNL     1       8.569  43.444 -11.917  1.00  0.00     0.274 HD
ATOM     29  H22 UNL     1       8.442  42.127 -11.146  1.00  0.00     0.274 HD
ATOM     30  H21 UNL     1       7.471  43.422 -10.615  1.00  0.00     0.274 HD
ENDBRANCH  26  27
ENDBRANCH  25  26
ENDBRANCH  24  25
ENDBRANCH  23  24
BRANCH  23  31
HETATM   31  C8  UNL     1      11.410  40.419  -7.828  1.00  0.00     0.129 C 
BRANCH  31  32
HETATM   32  C9  UNL     1      12.375  39.846  -6.831  1.00  0.00     0.046 C 
BRANCH  32  33
HETATM   33  C10 UNL     1      12.170  38.326  -6.853  1.00  0.00     0.165 C 
BRANCH  33  34
HETATM   34  O1  UNL     1      11.457  37.945  -7.995  1.00  0.00    -0.401 OA
ATOM     35  H1  UNL     1      12.037  37.889  -8.745  1.00  0.00     0.209 HD
ENDBRANCH  33  34
ENDBRANCH  32  33
ENDBRANCH  31  32
ENDBRANCH  23  31
ENDBRANCH  22  23
ENDBRANCH   3  22
BRANCH   9  36
HETATM   36  N5  UNL     1      13.583  34.677 -12.299  1.00  0.00    -0.234 N 
ATOM     37  H52 UNL     1      13.996  34.049 -12.988  1.00  0.00     0.174 HD
ATOM     38  H51 UNL     1      13.065  34.294 -11.508  1.00  0.00     0.174 HD
ENDBRANCH   9  36
BRANCH  17  39
HETATM   39  C15 UNL     1      16.000  36.214 -17.449  1.00  0.00     0.124 C 
BRANCH  39  40
HETATM   40  C16 UNL     1      16.500  34.821 -17.295  1.00  0.00     0.021 C 
BRANCH  40  41
HETATM   41  C17 UNL     1      15.701  33.924 -18.242  1.00  0.00     0.029 C 
BRANCH  41  42
HETATM   42  C18 UNL     1      14.246  34.274 -18.128  1.00  0.00     0.229 C 
BRANCH  42  43
HETATM   43  N9  UNL     1      13.667  33.505 -17.033  1.00  0.00    -0.079 N 
ATOM     44  H93 UNL     1      12.729  33.822 -16.785  1.00  0.00     0.274 HD
ATOM     45  H92 UNL     1      13.425  32.554 -17.309  1.00  0.00     0.274 HD
ATOM     46  H91 UNL     1      14.311  33.532 -16.242  1.00  0.00     0.274 HD
ENDBRANCH  42  43
ENDBRANCH  41  42
ENDBRANCH  40  41
ENDBRANCH  39  40
ENDBRANCH  17  39
TORSDOF 16
ENDMDL
MODEL 3
REMARK VINA RESULT: -7.100066349      1.154      1.477
REMARK  16 active torsions:
REMARK  status: ('A' for Active; 'I' for Inactive)
REMARK    1  A    between atoms: C3_3  and  C4_4 
REMARK    2  A    between atoms: C4_4  and  N1_5 
REMARK    3  A    between atoms: N1_5  and  C5_6 
REMARK    4  A    between atoms: N1_5  and  C8_13 
REMARK    5  A    between atoms: C5_6  and  C6_7 
REMARK    6  A    between atoms: C6_7  and  C7_8 
REMARK    7  A    between atoms: C7_8  and  N2_9 
REMARK    8  A    between atoms: C8_13  and  C9_14 
REMARK    9  A    between atoms: C9_14  and  C10_15 
REMARK   10  A    between atoms: C10_15  and  O1_16 
REMARK   11  A    between atoms: C12_23  and  N5_24 
REMARK       I    between atoms: N7_30  and  C14_32 
REMARK       I    between atoms: C14_32  and  N8_34 
REMARK   12  A    between atoms: N8_34  and  C15_36 
REMARK   13  A    between atoms: C15_36  and  C16_37 
REMARK   14  A    between atoms: C16_37  and  C17_38 
REMARK   15  A    between atoms: C17_38  and  C18_39 
REMARK   16  A    between atoms: C18_39  and  N9_40 
ROOT
HETATM    1  C1  UNL     1      12.606  41.639  -9.332  1.00  0.00     0.051 C 
HETATM    2  C2  UNL     1      12.301  40.733  -8.202  1.00  0.00    -0.027 A 
HETATM    3  C3  UNL     1      12.978  39.545  -8.119  1.00  0.00     0.056 A 
HETATM    4  N3  UNL     1      12.664  38.768  -7.069  1.00  0.00    -0.340 N 
ATOM      5  H3  UNL     1      13.156  37.879  -6.986  1.00  0.00     0.167 HD
HETATM    6  C11 UNL     1      11.768  39.055  -6.127  1.00  0.00     0.136 A 
HETATM    7  N4  UNL     1      11.513  38.221  -5.104  1.00  0.00    -0.176 N 
ATOM      8  H4  UNL     1      12.015  37.335  -5.040  1.00  0.00     0.186 HD
HETATM    9  C12 UNL     1      10.608  38.537  -4.168  1.00  0.00     0.679 A 
HETATM   10  N6  UNL     1       9.945  39.696  -4.247  1.00  0.00    -0.176 N 
ATOM     11  H6  UNL     1       9.256  39.934  -3.533  1.00  0.00     0.186 HD
HETATM   12  C13 UNL     1      10.180  40.554  -5.264  1.00  0.00     0.139 A 
HETATM   13  N7  UNL     1       9.553  41.652  -5.336  1.00  0.00    -0.293 N 
ATOM     14  H7  UNL     1       9.789  42.241  -6.133  1.00  0.00     0.172 HD
HETATM   15  C14 UNL     1       8.580  42.169  -4.472  1.00  0.00     0.321 C 
HETATM   16  O2  UNL     1       8.803  43.244  -3.891  1.00  0.00    -0.247 OA
HETATM   17  N8  UNL     1       7.370  41.479  -4.267  1.00  0.00    -0.343 N 
ATOM     18  H8  UNL     1       7.199  40.600  -4.755  1.00  0.00     0.164 HD
HETATM   19  C19 UNL     1      11.100  40.271  -6.246  1.00  0.00     0.060 A 
HETATM   20  C20 UNL     1      11.332  41.156  -7.276  1.00  0.00    -0.036 A 
HETATM   21  C21 UNL     1      10.644  42.444  -7.425  1.00  0.00     0.050 C 
ENDROOT
BRANCH   3  22
HETATM   22  C4  UNL     1      13.981  39.154  -9.139  1.00  0.00     0.120 C 
BRANCH  22  23
HETATM   23  N1  UNL     1      13.515  38.614 -10.331  1.00  0.00    -0.368 N 
BRANCH  23  24
HETATM   24  C5  UNL     1      13.086  37.295 -10.447  1.00  0.00     0.065 C 
BRANCH  24  25
HETATM   25  C6  UNL     1      14.014  36.333 -11.123  1.00  0.00     0.072 C 
BRANCH  25  26
HETATM   26  C7  UNL     1      13.474  35.766 -12.400  1.00  0.00     0.234 C 
BRANCH  26  27
HETATM   27  N2  UNL     1      14.587  35.733 -13.355  1.00  0.00    -0.079 N 
ATOM     28  H23 UNL     1      14.365  36.176 -14.247  1.00  0.00     0.274 HD
ATOM     29  H22 UNL     1      15.359  36.346 -13.095  1.00  0.00     0.274 HD
ATOM     30  H21 UNL     1      14.866  34.756 -13.451  1.00  0.00     0.274 HD
ENDBRANCH  26  27
ENDBRANCH  25  26
ENDBRANCH  24  25
ENDBRANCH  23  24
BRANCH  23  31
HETATM   31  C8  UNL     1      13.861  39.286 -11.546  1.00  0.00     0.129 C 
BRANCH  31  32
HETATM   32  C9  UNL     1      15.281  39.774 -11.593  1.00  0.00     0.046 C 
BRANCH  32  33
HETATM   33  C10 UNL     1      15.936  39.086 -12.797  1.00  0.00     0.165 C 
BRANCH  33  34
HETATM   34  O1  UNL     1      16.696  37.988 -12.380  1.00  0.00    -0.401 OA
ATOM     35  H1  UNL     1      16.499  37.226 -12.911  1.00  0.00     0.209 HD
ENDBRANCH  33  34
ENDBRANCH  32  33
ENDBRANCH  31  32
ENDBRANCH  23  31
ENDBRANCH  22  23
ENDBRANCH   3  22
BRANCH   9  36
HETATM   36  N5  UNL     1      10.383  37.697  -3.177  1.00  0.00    -0.234 N 
ATOM     37  H52 UNL     1      11.149  37.177  -2.749  1.00  0.00     0.174 HD
ATOM     38  H51 UNL     1       9.430  37.568  -2.838  1.00  0.00     0.174 HD
ENDBRANCH   9  36
BRANCH  17  39
HETATM   39  C15 UNL     1       6.370  42.007  -3.371  1.00  0.00     0.124 C 
BRANCH  39  40
HETATM   40  C16 UNL     1       5.151  42.479  -4.084  1.00  0.00     0.021 C 
BRANCH  40  41
HETATM   41  C17 UNL     1       5.024  43.987  -3.857  1.00  0.00     0.029 C 
BRANCH  41  42
HETATM   42  C18 UNL     1       5.783  44.356  -2.617  1.00  0.00     0.229 C 
BRANCH  42  43
HETATM   43  N9  UNL     1       6.761  45.381  -2.959  1.00  0.00    -0.079 N 
ATOM     44  H93 UNL     1       7.705  45.137  -2.656  1.00  0.00     0.274 HD
ATOM     45  H92 UNL     1       6.943  45.428  -3.961  1.00  0.00     0.274 HD
ATOM     46  H91 UNL     1       6.446  46.272  -2.576  1.00  0.00     0.274 HD
ENDBRANCH  42  43
ENDBRANCH  41  42
ENDBRANCH  40  41
ENDBRANCH  39  40
ENDBRANCH  17  39
TORSDOF 16
ENDMDL
MODEL 4
REMARK VINA RESULT: -7.016332987      3.677      5.492
REMARK  16 active torsions:
REMARK  status: ('A' for Active; 'I' for Inactive)
REMARK    1  A    between atoms: C3_3  and  C4_4 
REMARK    2  A    between atoms: C4_4  and  N1_5 
REMARK    3  A    between atoms: N1_5  and  C5_6 
REMARK    4  A    between atoms: N1_5  and  C8_13 
REMARK    5  A    between atoms: C5_6  and  C6_7 
REMARK    6  A    between atoms: C6_7  and  C7_8 
REMARK    7  A    between atoms: C7_8  and  N2_9 
REMARK    8  A    between atoms: C8_13  and  C9_14 
REMARK    9  A    between atoms: C9_14  and  C10_15 
REMARK   10  A    between atoms: C10_15  and  O1_16 
REMARK   11  A    between atoms: C12_23  and  N5_24 
REMARK       I    between atoms: N7_30  and  C14_32 
REMARK       I    between atoms: C14_32  and  N8_34 
REMARK   12  A    between atoms: N8_34  and  C15_36 
REMARK   13  A    between atoms: C15_36  and  C16_37 
REMARK   14  A    between atoms: C16_37  and  C17_38 
REMARK   15  A    between atoms: C17_38  and  C18_39 
REMARK   16  A    between atoms: C18_39  and  N9_40 
ROOT
HETATM    1  C1  UNL     1      13.842  38.227  -8.912  1.00  0.00     0.051 C 
HETATM    2  C2  UNL     1      12.976  39.351  -8.492  1.00  0.00    -0.027 A 
HETATM    3  C3  UNL     1      12.951  40.480  -9.268  1.00  0.00     0.056 A 
HETATM    4  N3  UNL     1      12.143  41.463  -8.839  1.00  0.00    -0.340 N 
ATOM      5  H3  UNL     1      12.108  42.313  -9.401  1.00  0.00     0.167 HD
HETATM    6  C11 UNL     1      11.383  41.427  -7.746  1.00  0.00     0.136 A 
HETATM    7  N4  UNL     1      10.597  42.457  -7.387  1.00  0.00    -0.176 N 
ATOM      8  H4  UNL     1      10.576  43.299  -7.962  1.00  0.00     0.186 HD
HETATM    9  C12 UNL     1       9.839  42.391  -6.283  1.00  0.00     0.679 A 
HETATM   10  N6  UNL     1       9.862  41.291  -5.524  1.00  0.00    -0.176 N 
ATOM     11  H6  UNL     1       9.285  41.244  -4.684  1.00  0.00     0.186 HD
HETATM   12  C13 UNL     1      10.643  40.240  -5.860  1.00  0.00     0.139 A 
HETATM   13  N7  UNL     1      10.662  39.199  -5.140  1.00  0.00    -0.293 N 
ATOM     14  H7  UNL     1      11.277  38.453  -5.463  1.00  0.00     0.172 HD
HETATM   15  C14 UNL     1       9.955  38.928  -3.963  1.00  0.00     0.321 C 
HETATM   16  O2  UNL     1       9.165  37.969  -3.943  1.00  0.00    -0.247 OA
HETATM   17  N8  UNL     1      10.137  39.732  -2.821  1.00  0.00    -0.343 N 
ATOM     18  H8  UNL     1      10.793  40.513  -2.851  1.00  0.00     0.164 HD
HETATM   19  C19 UNL     1      11.436  40.263  -6.983  1.00  0.00     0.060 A 
HETATM   20  C20 UNL     1      12.225  39.184  -7.316  1.00  0.00    -0.036 A 
HETATM   21  C21 UNL     1      12.298  37.946  -6.531  1.00  0.00     0.050 C 
ENDROOT
BRANCH   3  22
HETATM   22  C4  UNL     1      13.781  40.595 -10.491  1.00  0.00     0.120 C 
BRANCH  22  23
HETATM   23  N1  UNL     1      14.727  41.611 -10.539  1.00  0.00    -0.368 N 
BRANCH  23  24
HETATM   24  C5  UNL     1      15.676  41.809  -9.541  1.00  0.00     0.065 C 
BRANCH  24  25
HETATM   25  C6  UNL     1      15.498  43.005  -8.658  1.00  0.00     0.072 C 
BRANCH  25  26
HETATM   26  C7  UNL     1      16.709  43.881  -8.573  1.00  0.00     0.234 C 
BRANCH  26  27
HETATM   27  N2  UNL     1      16.540  44.729  -7.387  1.00  0.00    -0.079 N 
ATOM     28  H23 UNL     1      15.639  44.599  -6.926  1.00  0.00     0.274 HD
ATOM     29  H22 UNL     1      17.128  44.446  -6.604  1.00  0.00     0.274 HD
ATOM     30  H21 UNL     1      16.704  45.691  -7.686  1.00  0.00     0.274 HD
ENDBRANCH  26  27
ENDBRANCH  25  26
ENDBRANCH  24  25
ENDBRANCH  23  24
BRANCH  23  31
HETATM   31  C8  UNL     1      14.469  42.718 -11.409  1.00  0.00     0.129 C 
BRANCH  31  32
HETATM   32  C9  UNL     1      13.209  42.583 -12.216  1.00  0.00     0.046 C 
BRANCH  32  33
HETATM   33  C10 UNL     1      12.267  43.695 -11.739  1.00  0.00     0.165 C 
BRANCH  33  34
HETATM   34  O1  UNL     1      11.095  43.148 -11.205  1.00  0.00    -0.401 OA
ATOM     35  H1  UNL     1      10.436  43.822 -11.091  1.00  0.00     0.209 HD
ENDBRANCH  33  34
ENDBRANCH  32  33
ENDBRANCH  31  32
ENDBRANCH  23  31
ENDBRANCH  22  23
ENDBRANCH   3  22
BRANCH   9  36
HETATM   36  N5  UNL     1       9.078  43.419  -5.961  1.00  0.00    -0.234 N 
ATOM     37  H52 UNL     1       8.754  44.073  -6.673  1.00  0.00     0.174 HD
ATOM     38  H51 UNL     1       8.813  43.557  -4.986  1.00  0.00     0.174 HD
ENDBRANCH   9  36
BRANCH  17  39
HETATM   39  C15 UNL     1       9.404  39.459  -1.609  1.00  0.00     0.124 C 
BRANCH  39  40
HETATM   40  C16 UNL     1      10.109  38.502  -0.713  1.00  0.00     0.021 C 
BRANCH  40  41
HETATM   41  C17 UNL     1       9.064  37.567  -0.102  1.00  0.00     0.029 C 
BRANCH  41  42
HETATM   42  C18 UNL     1       9.058  36.279  -0.872  1.00  0.00     0.229 C 
BRANCH  42  43
HETATM   43  N9  UNL     1      10.350  36.125  -1.530  1.00  0.00    -0.079 N 
ATOM     44  H93 UNL     1      10.472  36.773  -2.309  1.00  0.00     0.274 HD
ATOM     45  H92 UNL     1      11.124  36.453  -0.952  1.00  0.00     0.274 HD
ATOM     46  H91 UNL     1      10.457  35.150  -1.812  1.00  0.00     0.274 HD
ENDBRANCH  42  43
ENDBRANCH  41  42
ENDBRANCH  40  41
ENDBRANCH  39  40
ENDBRANCH  17  39
TORSDOF 16
ENDMDL
MODEL 5
REMARK VINA RESULT: -6.868148628      3.677      5.437
REMARK  16 active torsions:
REMARK  status: ('A' for Active; 'I' for Inactive)
REMARK    1  A    between atoms: C3_3  and  C4_4 
REMARK    2  A    between atoms: C4_4  and  N1_5 
REMARK    3  A    between atoms: N1_5  and  C5_6 
REMARK    4  A    between atoms: N1_5  and  C8_13 
REMARK    5  A    between atoms: C5_6  and  C6_7 
REMARK    6  A    between atoms: C6_7  and  C7_8 
REMARK    7  A    between atoms: C7_8  and  N2_9 
REMARK    8  A    between atoms: C8_13  and  C9_14 
REMARK    9  A    between atoms: C9_14  and  C10_15 
REMARK   10  A    between atoms: C10_15  and  O1_16 
REMARK   11  A    between atoms: C12_23  and  N5_24 
REMARK       I    between atoms: N7_30  and  C14_32 
REMARK       I    between atoms: C14_32  and  N8_34 
REMARK   12  A    between atoms: N8_34  and  C15_36 
REMARK   13  A    between atoms: C15_36  and  C16_37 
REMARK   14  A    between atoms: C16_37  and  C17_38 
REMARK   15  A    between atoms: C17_38  and  C18_39 
REMARK   16  A    between atoms: C18_39  and  N9_40 
ROOT
HETATM    1  C1  UNL     1      14.476  38.741 -10.559  1.00  0.00     0.051 C 
HETATM    2  C2  UNL     1      13.650  39.821  -9.974  1.00  0.00    -0.027 A 
HETATM    3  C3  UNL     1      13.647  41.045 -10.591  1.00  0.00     0.056 A 
HETATM    4  N3  UNL     1      12.875  41.983 -10.018  1.00  0.00    -0.340 N 
ATOM      5  H3  UNL     1      12.857  42.902 -10.459  1.00  0.00     0.167 HD
HETATM    6  C11 UNL     1      12.132  41.820  -8.925  1.00  0.00     0.136 A 
HETATM    7  N4  UNL     1      11.383  42.814  -8.415  1.00  0.00    -0.176 N 
ATOM      8  H4  UNL     1      11.378  43.726  -8.871  1.00  0.00     0.186 HD
HETATM    9  C12 UNL     1      10.641  42.620  -7.315  1.00  0.00     0.679 A 
HETATM   10  N6  UNL     1      10.643  41.427  -6.712  1.00  0.00    -0.176 N 
ATOM     11  H6  UNL     1      10.078  41.283  -5.874  1.00  0.00     0.186 HD
HETATM   12  C13 UNL     1      11.387  40.411  -7.201  1.00  0.00     0.139 A 
HETATM   13  N7  UNL     1      11.386  39.281  -6.629  1.00  0.00    -0.293 N 
ATOM     14  H7  UNL     1      11.973  38.569  -7.062  1.00  0.00     0.172 HD
HETATM   15  C14 UNL     1      10.690  38.873  -5.485  1.00  0.00     0.321 C 
HETATM   16  O2  UNL     1       9.872  37.942  -5.579  1.00  0.00    -0.247 OA
HETATM   17  N8  UNL     1      10.914  39.510  -4.249  1.00  0.00    -0.343 N 
ATOM     18  H8  UNL     1      11.592  40.270  -4.187  1.00  0.00     0.164 HD
HETATM   19  C19 UNL     1      12.162  40.563  -8.326  1.00  0.00     0.060 A 
HETATM   20  C20 UNL     1      12.913  39.518  -8.817  1.00  0.00    -0.036 A 
HETATM   21  C21 UNL     1      12.962  38.183  -8.208  1.00  0.00     0.050 C 
ENDROOT
BRANCH   3  22
HETATM   22  C4  UNL     1      14.461  41.301 -11.803  1.00  0.00     0.120 C 
BRANCH  22  23
HETATM   23  N1  UNL     1      15.728  41.842 -11.631  1.00  0.00    -0.368 N 
BRANCH  23  24
HETATM   24  C5  UNL     1      15.960  43.014 -10.916  1.00  0.00     0.065 C 
BRANCH  24  25
HETATM   25  C6  UNL     1      16.546  42.872  -9.545  1.00  0.00     0.072 C 
BRANCH  25  26
HETATM   26  C7  UNL     1      15.689  43.443  -8.458  1.00  0.00     0.234 C 
BRANCH  26  27
HETATM   27  N2  UNL     1      16.550  44.314  -7.650  1.00  0.00    -0.079 N 
ATOM     28  H23 UNL     1      17.397  43.849  -7.322  1.00  0.00     0.274 HD
ATOM     29  H22 UNL     1      17.007  45.045  -8.194  1.00  0.00     0.274 HD
ATOM     30  H21 UNL     1      15.972  44.679  -6.892  1.00  0.00     0.274 HD
ENDBRANCH  26  27
ENDBRANCH  25  26
ENDBRANCH  24  25
ENDBRANCH  23  24
BRANCH  23  31
HETATM   31  C8  UNL     1      16.757  41.427 -12.535  1.00  0.00     0.129 C 
BRANCH  31  32
HETATM   32  C9  UNL     1      17.587  40.281 -12.035  1.00  0.00     0.046 C 
BRANCH  32  33
HETATM   33  C10 UNL     1      17.409  39.142 -13.047  1.00  0.00     0.165 C 
BRANCH  33  34
HETATM   34  O1  UNL     1      17.578  37.901 -12.423  1.00  0.00    -0.401 OA
ATOM     35  H1  UNL     1      16.865  37.316 -12.649  1.00  0.00     0.209 HD
ENDBRANCH  33  34
ENDBRANCH  32  33
ENDBRANCH  31  32
ENDBRANCH  23  31
ENDBRANCH  22  23
ENDBRANCH   3  22
BRANCH   9  36
HETATM   36  N5  UNL     1       9.917  43.616  -6.843  1.00  0.00    -0.234 N 
ATOM     37  H52 UNL     1       8.898  43.565  -6.839  1.00  0.00     0.174 HD
ATOM     38  H51 UNL     1      10.385  44.444  -6.476  1.00  0.00     0.174 HD
ENDBRANCH   9  36
BRANCH  17  39
HETATM   39  C15 UNL     1      10.192  39.096  -3.071  1.00  0.00     0.124 C 
BRANCH  39  40
HETATM   40  C16 UNL     1      11.037  39.105  -1.846  1.00  0.00     0.021 C 
BRANCH  40  41
HETATM   41  C17 UNL     1      10.284  38.353  -0.746  1.00  0.00     0.029 C 
BRANCH  41  42
HETATM   42  C18 UNL     1       9.253  37.468  -1.384  1.00  0.00     0.229 C 
BRANCH  42  43
HETATM   43  N9  UNL     1       9.620  36.079  -1.142  1.00  0.00    -0.079 N 
ATOM     44  H93 UNL     1      10.609  35.898  -1.320  1.00  0.00     0.274 HD
ATOM     45  H92 UNL     1       9.611  35.838  -0.151  1.00  0.00     0.274 HD
ATOM     46  H91 UNL     1       9.007  35.479  -1.696  1.00  0.00     0.274 HD
ENDBRANCH  42  43
ENDBRANCH  41  42
ENDBRANCH  40  41
ENDBRANCH  39  40
ENDBRANCH  17  39
TORSDOF 16
ENDMDL
