MODEL 1
REMARK VINA RESULT: -7.274993176      0.000      0.000
REMARK  4 active torsions:
REMARK  status: ('A' for Active; 'I' for Inactive)
REMARK    1  A    between atoms: C14_15  and  O2_16 
REMARK    2  A    between atoms: O2_16  and  C15_17 
REMARK    3  A    between atoms: C20_23  and  O4_24 
REMARK    4  A    between atoms: O4_24  and  C21_25 
ROOT
HETATM    1  C1  UNL     1     -29.238 -11.430  30.038  1.00  0.00     0.049 C 
HETATM    2  C2  UNL     1     -28.428 -10.569  29.491  1.00  0.00     0.068 C 
HETATM    3  O1  UNL     1     -27.059 -10.599  29.242  1.00  0.00    -0.347 OA
HETATM    4  C3  UNL     1     -26.780  -9.895  28.018  1.00  0.00     0.140 C 
HETATM    5  C4  UNL     1     -25.690  -8.907  28.124  1.00  0.00     0.034 C 
HETATM    6  C5  UNL     1     -24.961  -8.885  26.803  1.00  0.00     0.008 C 
HETATM    7  C6  UNL     1     -25.367  -7.815  25.873  1.00  0.00     0.002 A 
HETATM    8  C7  UNL     1     -26.437  -8.070  24.924  1.00  0.00     0.003 A 
HETATM    9  C8  UNL     1     -27.489  -9.067  25.325  1.00  0.00     0.012 C 
HETATM   10  C9  UNL     1     -28.261  -8.471  26.527  1.00  0.00     0.005 C 
HETATM   11  C10 UNL     1     -27.836  -7.128  26.369  1.00  0.00     0.006 C 
HETATM   12  C11 UNL     1     -28.135  -5.987  27.235  1.00  0.00    -0.011 C 
HETATM   13  C12 UNL     1     -29.602  -5.658  27.353  1.00  0.00     0.010 C 
HETATM   14  C13 UNL     1     -27.480  -4.863  26.436  1.00  0.00     0.038 C 
HETATM   15  C14 UNL     1     -26.421  -5.526  25.566  1.00  0.00     0.142 C 
HETATM   16  C17 UNL     1     -26.424  -6.969  26.045  1.00  0.00    -0.001 A 
HETATM   17  C18 UNL     1     -28.121  -9.401  27.611  1.00  0.00     0.019 C 
HETATM   18  C19 UNL     1     -28.836 -10.698  27.114  1.00  0.00     0.021 C 
HETATM   19  C20 UNL     1     -28.777  -9.181  28.930  1.00  0.00     0.198 C 
ENDROOT
BRANCH  15  20
HETATM   20  O2  UNL     1     -25.178  -4.922  25.662  1.00  0.00    -0.315 OA
BRANCH  20  21
HETATM   21  C15 UNL     1     -24.624  -4.324  24.537  1.00  0.00     0.255 C 
HETATM   22  C16 UNL     1     -25.436  -3.869  23.379  1.00  0.00     0.126 C 
HETATM   23  O3  UNL     1     -23.378  -4.146  24.467  1.00  0.00    -0.266 OA
ENDBRANCH  20  21
ENDBRANCH  15  20
BRANCH  19  24
HETATM   24  O4  UNL     1     -28.118  -8.369  29.845  1.00  0.00    -0.309 OA
BRANCH  24  25
HETATM   25  C21 UNL     1     -28.823  -7.418  30.562  1.00  0.00     0.255 C 
HETATM   26  C22 UNL     1     -30.311  -7.416  30.608  1.00  0.00     0.126 C 
HETATM   27  O5  UNL     1     -28.239  -6.497  31.215  1.00  0.00    -0.266 OA
ENDBRANCH  24  25
ENDBRANCH  19  24
TORSDOF 4
ENDMDL
MODEL 2
REMARK VINA RESULT: -7.257625781      1.818      2.453
REMARK  4 active torsions:
REMARK  status: ('A' for Active; 'I' for Inactive)
REMARK    1  A    between atoms: C14_15  and  O2_16 
REMARK    2  A    between atoms: O2_16  and  C15_17 
REMARK    3  A    between atoms: C20_23  and  O4_24 
REMARK    4  A    between atoms: O4_24  and  C21_25 
ROOT
HETATM    1  C1  UNL     1     -25.825 -13.220  28.608  1.00  0.00     0.049 C 
HETATM    2  C2  UNL     1     -25.711 -11.962  28.292  1.00  0.00     0.068 C 
HETATM    3  O1  UNL     1     -24.671 -11.230  27.728  1.00  0.00    -0.347 OA
HETATM    4  C3  UNL     1     -25.214 -10.200  26.882  1.00  0.00     0.140 C 
HETATM    5  C4  UNL     1     -24.648  -8.859  27.122  1.00  0.00     0.034 C 
HETATM    6  C5  UNL     1     -24.598  -8.139  25.797  1.00  0.00     0.008 C 
HETATM    7  C6  UNL     1     -25.727  -7.229  25.527  1.00  0.00     0.002 A 
HETATM    8  C7  UNL     1     -26.905  -7.744  24.850  1.00  0.00     0.003 A 
HETATM    9  C8  UNL     1     -27.228  -9.199  25.042  1.00  0.00     0.012 C 
HETATM   10  C9  UNL     1     -27.598  -9.403  26.530  1.00  0.00     0.005 C 
HETATM   11  C10 UNL     1     -27.827  -8.041  26.849  1.00  0.00     0.006 C 
HETATM   12  C11 UNL     1     -28.154  -7.470  28.156  1.00  0.00    -0.011 C 
HETATM   13  C12 UNL     1     -29.445  -7.973  28.753  1.00  0.00     0.010 C 
HETATM   14  C13 UNL     1     -28.373  -6.010  27.766  1.00  0.00     0.038 C 
HETATM   15  C14 UNL     1     -27.602  -5.800  26.470  1.00  0.00     0.142 C 
HETATM   16  C17 UNL     1     -26.854  -7.112  26.288  1.00  0.00    -0.001 A 
HETATM   17  C18 UNL     1     -26.680 -10.371  27.058  1.00  0.00     0.019 C 
HETATM   18  C19 UNL     1     -26.979 -11.678  26.255  1.00  0.00     0.021 C 
HETATM   19  C20 UNL     1     -26.763 -10.855  28.464  1.00  0.00     0.198 C 
ENDROOT
BRANCH  15  20
HETATM   20  O2  UNL     1     -26.766  -4.696  26.503  1.00  0.00    -0.315 OA
BRANCH  20  21
HETATM   21  C15 UNL     1     -26.862  -3.740  25.500  1.00  0.00     0.255 C 
HETATM   22  C16 UNL     1     -26.104  -3.825  24.225  1.00  0.00     0.126 C 
HETATM   23  O3  UNL     1     -27.619  -2.743  25.649  1.00  0.00    -0.266 OA
ENDBRANCH  20  21
ENDBRANCH  15  20
BRANCH  19  24
HETATM   24  O4  UNL     1     -26.151 -10.081  29.444  1.00  0.00    -0.309 OA
BRANCH  24  25
HETATM   25  C21 UNL     1     -26.791  -9.860  30.652  1.00  0.00     0.255 C 
HETATM   26  C22 UNL     1     -26.669  -8.566  31.377  1.00  0.00     0.126 C 
HETATM   27  O5  UNL     1     -27.514 -10.748  31.202  1.00  0.00    -0.266 OA
ENDBRANCH  24  25
ENDBRANCH  19  24
TORSDOF 4
ENDMDL
MODEL 3
REMARK VINA RESULT: -7.092118571      1.099      1.274
REMARK  4 active torsions:
REMARK  status: ('A' for Active; 'I' for Inactive)
REMARK    1  A    between atoms: C14_15  and  O2_16 
REMARK    2  A    between atoms: O2_16  and  C15_17 
REMARK    3  A    between atoms: C20_23  and  O4_24 
REMARK    4  A    between atoms: O4_24  and  C21_25 
ROOT
HETATM    1  C1  UNL     1     -29.700 -10.526  29.569  1.00  0.00     0.049 C 
HETATM    2  C2  UNL     1     -28.680  -9.864  29.104  1.00  0.00     0.068 C 
HETATM    3  O1  UNL     1     -27.311 -10.112  29.133  1.00  0.00    -0.347 OA
HETATM    4  C3  UNL     1     -26.710  -9.624  27.920  1.00  0.00     0.140 C 
HETATM    5  C4  UNL     1     -25.513  -8.788  28.132  1.00  0.00     0.034 C 
HETATM    6  C5  UNL     1     -24.566  -9.044  26.986  1.00  0.00     0.008 C 
HETATM    7  C6  UNL     1     -24.625  -8.064  25.884  1.00  0.00     0.002 A 
HETATM    8  C7  UNL     1     -25.535  -8.298  24.777  1.00  0.00     0.003 A 
HETATM    9  C8  UNL     1     -26.786  -9.079  25.067  1.00  0.00     0.012 C 
HETATM   10  C9  UNL     1     -27.656  -8.228  26.023  1.00  0.00     0.005 C 
HETATM   11  C10 UNL     1     -27.003  -6.988  25.809  1.00  0.00     0.006 C 
HETATM   12  C11 UNL     1     -27.267  -5.711  26.472  1.00  0.00    -0.011 C 
HETATM   13  C12 UNL     1     -28.660  -5.174  26.263  1.00  0.00     0.010 C 
HETATM   14  C13 UNL     1     -26.310  -4.804  25.702  1.00  0.00     0.038 C 
HETATM   15  C14 UNL     1     -25.231  -5.716  25.133  1.00  0.00     0.142 C 
HETATM   16  C17 UNL     1     -25.548  -7.067  25.754  1.00  0.00    -0.001 A 
HETATM   17  C18 UNL     1     -27.861  -9.013  27.206  1.00  0.00     0.019 C 
HETATM   18  C19 UNL     1     -28.672 -10.257  26.720  1.00  0.00     0.021 C 
HETATM   19  C20 UNL     1     -28.699  -8.531  28.340  1.00  0.00     0.198 C 
ENDROOT
BRANCH  15  20
HETATM   20  O2  UNL     1     -23.945  -5.278  25.407  1.00  0.00    -0.315 OA
BRANCH  20  21
HETATM   21  C15 UNL     1     -23.038  -5.141  24.364  1.00  0.00     0.255 C 
HETATM   22  C16 UNL     1     -21.920  -6.091  24.131  1.00  0.00     0.126 C 
HETATM   23  O3  UNL     1     -23.142  -4.173  23.562  1.00  0.00    -0.266 OA
ENDBRANCH  20  21
ENDBRANCH  15  20
BRANCH  19  24
HETATM   24  O4  UNL     1     -28.093  -7.699  29.275  1.00  0.00    -0.309 OA
BRANCH  24  25
HETATM   25  C21 UNL     1     -28.859  -6.812  30.012  1.00  0.00     0.255 C 
HETATM   26  C22 UNL     1     -30.151  -6.279  29.499  1.00  0.00     0.126 C 
HETATM   27  O5  UNL     1     -28.499  -6.407  31.161  1.00  0.00    -0.266 OA
ENDBRANCH  24  25
ENDBRANCH  19  24
TORSDOF 4
ENDMDL
MODEL 4
REMARK VINA RESULT: -6.868046532      2.175      3.071
REMARK  4 active torsions:
REMARK  status: ('A' for Active; 'I' for Inactive)
REMARK    1  A    between atoms: C14_15  and  O2_16 
REMARK    2  A    between atoms: O2_16  and  C15_17 
REMARK    3  A    between atoms: C20_23  and  O4_24 
REMARK    4  A    between atoms: O4_24  and  C21_25 
ROOT
HETATM    1  C1  UNL     1     -25.258 -13.046  28.779  1.00  0.00     0.049 C 
HETATM    2  C2  UNL     1     -25.358 -11.810  28.380  1.00  0.00     0.068 C 
HETATM    3  O1  UNL     1     -24.604 -11.050  27.491  1.00  0.00    -0.347 OA
HETATM    4  C3  UNL     1     -25.467 -10.127  26.801  1.00  0.00     0.140 C 
HETATM    5  C4  UNL     1     -24.978  -8.735  26.789  1.00  0.00     0.034 C 
HETATM    6  C5  UNL     1     -25.393  -8.115  25.478  1.00  0.00     0.008 C 
HETATM    7  C6  UNL     1     -26.628  -7.310  25.520  1.00  0.00     0.002 A 
HETATM    8  C7  UNL     1     -27.903  -7.956  25.261  1.00  0.00     0.003 A 
HETATM    9  C8  UNL     1     -28.021  -9.413  25.613  1.00  0.00     0.012 C 
HETATM   10  C9  UNL     1     -27.909  -9.530  27.152  1.00  0.00     0.005 C 
HETATM   11  C10 UNL     1     -28.153  -8.168  27.457  1.00  0.00     0.006 C 
HETATM   12  C11 UNL     1     -28.124  -7.526  28.772  1.00  0.00    -0.011 C 
HETATM   13  C12 UNL     1     -29.126  -8.072  29.758  1.00  0.00     0.010 C 
HETATM   14  C13 UNL     1     -28.581  -6.118  28.394  1.00  0.00     0.038 C 
HETATM   15  C14 UNL     1     -28.256  -5.951  26.917  1.00  0.00     0.142 C 
HETATM   16  C17 UNL     1     -27.481  -7.216  26.581  1.00  0.00    -0.001 A 
HETATM   17  C18 UNL     1     -26.791 -10.388  27.423  1.00  0.00     0.019 C 
HETATM   18  C19 UNL     1     -27.197 -11.769  26.815  1.00  0.00     0.021 C 
HETATM   19  C20 UNL     1     -26.405 -10.770  28.809  1.00  0.00     0.198 C 
ENDROOT
BRANCH  15  20
HETATM   20  O2  UNL     1     -27.551  -4.791  26.639  1.00  0.00    -0.315 OA
BRANCH  20  21
HETATM   21  C15 UNL     1     -28.192  -3.564  26.751  1.00  0.00     0.255 C 
HETATM   22  C16 UNL     1     -27.462  -2.270  26.804  1.00  0.00     0.126 C 
HETATM   23  O3  UNL     1     -29.450  -3.513  26.814  1.00  0.00    -0.266 OA
ENDBRANCH  20  21
ENDBRANCH  15  20
BRANCH  19  24
HETATM   24  O4  UNL     1     -25.601  -9.884  29.517  1.00  0.00    -0.309 OA
BRANCH  24  25
HETATM   25  C21 UNL     1     -25.883  -9.598  30.841  1.00  0.00     0.255 C 
HETATM   26  C22 UNL     1     -25.531  -8.287  31.452  1.00  0.00     0.126 C 
HETATM   27  O5  UNL     1     -26.456 -10.438  31.604  1.00  0.00    -0.266 OA
ENDBRANCH  24  25
ENDBRANCH  19  24
TORSDOF 4
ENDMDL
MODEL 5
REMARK VINA RESULT: -6.658567686      1.448      1.750
REMARK  4 active torsions:
REMARK  status: ('A' for Active; 'I' for Inactive)
REMARK    1  A    between atoms: C14_15  and  O2_16 
REMARK    2  A    between atoms: O2_16  and  C15_17 
REMARK    3  A    between atoms: C20_23  and  O4_24 
REMARK    4  A    between atoms: O4_24  and  C21_25 
ROOT
HETATM    1  C1  UNL     1     -30.429 -11.072  29.649  1.00  0.00     0.049 C 
HETATM    2  C2  UNL     1     -29.290 -10.595  29.234  1.00  0.00     0.068 C 
HETATM    3  O1  UNL     1     -27.976 -11.017  29.416  1.00  0.00    -0.347 OA
HETATM    4  C3  UNL     1     -27.212 -10.727  28.232  1.00  0.00     0.140 C 
HETATM    5  C4  UNL     1     -25.933 -10.039  28.490  1.00  0.00     0.034 C 
HETATM    6  C5  UNL     1     -24.937 -10.522  27.466  1.00  0.00     0.008 C 
HETATM    7  C6  UNL     1     -24.764  -9.650  26.289  1.00  0.00     0.002 A 
HETATM    8  C7  UNL     1     -25.600  -9.865  25.121  1.00  0.00     0.003 A 
HETATM    9  C8  UNL     1     -26.967 -10.445  25.350  1.00  0.00     0.012 C 
HETATM   10  C9  UNL     1     -27.789  -9.402  26.145  1.00  0.00     0.005 C 
HETATM   11  C10 UNL     1     -26.954  -8.284  25.896  1.00  0.00     0.006 C 
HETATM   12  C11 UNL     1     -27.094  -6.927  26.426  1.00  0.00    -0.011 C 
HETATM   13  C12 UNL     1     -28.376  -6.234  26.039  1.00  0.00     0.010 C 
HETATM   14  C13 UNL     1     -25.958  -6.229  25.681  1.00  0.00     0.038 C 
HETATM   15  C14 UNL     1     -24.972  -7.323  25.296  1.00  0.00     0.142 C 
HETATM   16  C17 UNL     1     -25.525  -8.557  25.990  1.00  0.00    -0.001 A 
HETATM   17  C18 UNL     1     -28.202 -10.039  27.362  1.00  0.00     0.019 C 
HETATM   18  C19 UNL     1     -29.133 -11.206  26.901  1.00  0.00     0.021 C 
HETATM   19  C20 UNL     1     -29.058  -9.348  28.366  1.00  0.00     0.198 C 
ENDROOT
BRANCH  15  20
HETATM   20  O2  UNL     1     -23.665  -7.034  25.657  1.00  0.00    -0.315 OA
BRANCH  20  21
HETATM   21  C15 UNL     1     -22.810  -6.471  24.719  1.00  0.00     0.255 C 
HETATM   22  C16 UNL     1     -22.852  -5.035  24.342  1.00  0.00     0.126 C 
HETATM   23  O3  UNL     1     -21.947  -7.188  24.142  1.00  0.00    -0.266 OA
ENDBRANCH  20  21
ENDBRANCH  15  20
BRANCH  19  24
HETATM   24  O4  UNL     1     -28.425  -8.520  29.285  1.00  0.00    -0.309 OA
BRANCH  24  25
HETATM   25  C21 UNL     1     -29.043  -7.356  29.710  1.00  0.00     0.255 C 
HETATM   26  C22 UNL     1     -30.362  -6.928  29.169  1.00  0.00     0.126 C 
HETATM   27  O5  UNL     1     -28.517  -6.594  30.580  1.00  0.00    -0.266 OA
ENDBRANCH  24  25
ENDBRANCH  19  24
TORSDOF 4
ENDMDL
