MODEL 1
REMARK VINA RESULT: -9.516527966      0.000      0.000
REMARK  7 active torsions:
REMARK  status: ('A' for Active; 'I' for Inactive)
REMARK    1  A    between atoms: C5_13  and  C6_14 
REMARK       I    between atoms: C6_14  and  N4_16 
REMARK    2  A    between atoms: N4_16  and  N5_18 
REMARK    3  A    between atoms: C7_20  and  C8_21 
REMARK    4  A    between atoms: C8_21  and  C9_23 
REMARK    5  A    between atoms: C9_23  and  C10_28 
REMARK    6  A    between atoms: N6_24  and  O4_26 
REMARK    7  A    between atoms: C14_32  and  N7_33 
ROOT
HETATM    1  C6  UNL     1      -2.950   1.493  55.154  1.00  0.00     0.289 C 
HETATM    2  O2  UNL     1      -2.394   1.964  54.125  1.00  0.00    -0.264 OA
HETATM    3  N4  UNL     1      -2.362   0.470  55.934  1.00  0.00    -0.265 N 
ATOM      4  H4  UNL     1      -2.822   0.099  56.765  1.00  0.00     0.190 HD
ENDROOT
BRANCH   3   5
HETATM    5  N5  UNL     1      -1.100  -0.013  55.502  1.00  0.00    -0.305 N 
HETATM    6  C7  UNL     1      -0.962  -1.263  55.332  1.00  0.00     0.164 C 
ATOM      7  H5  UNL     1      -0.324   0.627  55.332  1.00  0.00     0.186 HD
BRANCH   6   8
HETATM    8  C8  UNL     1       0.351  -1.774  54.882  1.00  0.00     0.217 C 
HETATM    9  O3  UNL     1       1.363  -1.189  55.251  1.00  0.00    -0.284 OA
BRANCH   8  10
HETATM   10  C9  UNL     1       0.367  -2.969  54.010  1.00  0.00     0.116 C 
HETATM   11  N6  UNL     1       0.365  -4.077  54.601  1.00  0.00    -0.265 N 
ATOM     12  H6  UNL     1       0.352  -3.975  55.616  1.00  0.00     0.194 HD
BRANCH  11  13
HETATM   13  O4  UNL     1       0.374  -5.323  54.230  1.00  0.00    -0.289 OA
ATOM     14  H4  UNL     1       1.041  -5.990  54.117  1.00  0.00     0.244 HD
ENDBRANCH  11  13
BRANCH  10  15
HETATM   15  C10 UNL     1       0.436  -2.827  52.564  1.00  0.00    -0.001 A 
HETATM   16  C11 UNL     1       1.598  -2.316  51.977  1.00  0.00     0.014 A 
HETATM   17  C12 UNL     1       1.731  -2.203  50.599  1.00  0.00     0.003 A 
HETATM   18  C13 UNL     1       0.723  -2.590  49.757  1.00  0.00     0.036 A 
HETATM   19  C14 UNL     1      -0.443  -3.101  50.287  1.00  0.00     0.103 A 
HETATM   20  C15 UNL     1      -0.546  -3.202  51.679  1.00  0.00     0.050 A 
BRANCH  19  21
HETATM   21  N7  UNL     1      -1.518  -3.516  49.463  1.00  0.00    -0.116 N 
HETATM   22  O5  UNL     1      -1.874  -4.700  49.498  1.00  0.00    -0.532 OA
HETATM   23  O6  UNL     1      -2.181  -2.661  48.630  1.00  0.00    -0.532 OA
ENDBRANCH  19  21
ENDBRANCH  10  15
ENDBRANCH   8  10
ENDBRANCH   6   8
ENDBRANCH   3   5
BRANCH   1  24
HETATM   24  C5  UNL     1      -4.233   2.035  55.532  1.00  0.00     0.134 A 
HETATM   25  C4  UNL     1      -4.742   1.828  56.753  1.00  0.00     0.126 A 
HETATM   26  N3  UNL     1      -6.001   2.349  57.153  1.00  0.00    -0.343 N 
HETATM   27  C3  UNL     1      -6.705   3.046  56.346  1.00  0.00     0.215 A 
ATOM     28  H3  UNL     1      -6.348   2.165  58.094  1.00  0.00     0.167 HD
HETATM   29  C2  UNL     1      -7.994   3.572  56.776  1.00  0.00     0.307 A 
HETATM   30  N9  UNL     1      -6.230   3.316  55.013  1.00  0.00    -0.159 N 
HETATM   31  N2  UNL     1      -8.731   4.334  55.849  1.00  0.00    -0.152 N 
HETATM   32  O1  UNL     1      -8.445   3.366  57.916  1.00  0.00    -0.263 OA
HETATM   33  C1  UNL     1      -8.245   4.596  54.520  1.00  0.00     0.695 A 
ATOM     34  H2  UNL     1      -9.636   4.713  56.128  1.00  0.00     0.188 HD
HETATM   35  N1  UNL     1      -8.916   5.293  53.670  1.00  0.00    -0.233 N 
HETATM   36  N10 UNL     1      -6.984   4.069  54.135  1.00  0.00    -0.109 N 
ATOM     37  H12 UNL     1      -9.822   5.672  53.947  1.00  0.00     0.174 HD
ATOM     38  H11 UNL     1      -8.572   5.478  52.728  1.00  0.00     0.174 HD
ATOM     39  H10 UNL     1      -6.630   4.249  53.195  1.00  0.00     0.208 HD
HETATM   40  N8  UNL     1      -4.974   2.800  54.605  1.00  0.00    -0.271 N 
ATOM     41  H8  UNL     1      -4.616   2.978  53.666  1.00  0.00     0.189 HD
ENDBRANCH   1  24
TORSDOF 7
ENDMDL
MODEL 2
REMARK VINA RESULT: -9.462970970      3.575      4.270
REMARK  7 active torsions:
REMARK  status: ('A' for Active; 'I' for Inactive)
REMARK    1  A    between atoms: C5_13  and  C6_14 
REMARK       I    between atoms: C6_14  and  N4_16 
REMARK    2  A    between atoms: N4_16  and  N5_18 
REMARK    3  A    between atoms: C7_20  and  C8_21 
REMARK    4  A    between atoms: C8_21  and  C9_23 
REMARK    5  A    between atoms: C9_23  and  C10_28 
REMARK    6  A    between atoms: N6_24  and  O4_26 
REMARK    7  A    between atoms: C14_32  and  N7_33 
ROOT
HETATM    1  C6  UNL     1      -1.058   1.533  54.503  1.00  0.00     0.289 C 
HETATM    2  O2  UNL     1      -0.152   1.342  55.359  1.00  0.00    -0.264 OA
HETATM    3  N4  UNL     1      -0.803   1.515  53.112  1.00  0.00    -0.265 N 
ATOM      4  H4  UNL     1      -1.545   1.671  52.429  1.00  0.00     0.190 HD
ENDROOT
BRANCH   3   5
HETATM    5  N5  UNL     1       0.536   1.271  52.714  1.00  0.00    -0.305 N 
HETATM    6  C7  UNL     1       0.741   0.436  51.779  1.00  0.00     0.164 C 
ATOM      7  H5  UNL     1       1.313   1.751  53.166  1.00  0.00     0.186 HD
BRANCH   6   8
HETATM    8  C8  UNL     1       2.135   0.176  51.359  1.00  0.00     0.217 C 
HETATM    9  O3  UNL     1       3.045   0.678  52.009  1.00  0.00    -0.284 OA
BRANCH   8  10
HETATM   10  C9  UNL     1       2.352  -0.681  50.172  1.00  0.00     0.116 C 
HETATM   11  N6  UNL     1       1.929  -1.861  50.265  1.00  0.00    -0.265 N 
ATOM     12  H6  UNL     1       1.492  -2.045  51.169  1.00  0.00     0.194 HD
BRANCH  11  13
HETATM   13  O4  UNL     1       1.914  -2.902  49.487  1.00  0.00    -0.289 OA
ATOM     14  H4  UNL     1       2.511  -3.278  48.851  1.00  0.00     0.244 HD
ENDBRANCH  11  13
BRANCH  10  15
HETATM   15  C10 UNL     1       3.062  -0.170  49.011  1.00  0.00    -0.001 A 
HETATM   16  C11 UNL     1       3.857   0.975  49.139  1.00  0.00     0.014 A 
HETATM   17  C12 UNL     1       4.591   1.477  48.072  1.00  0.00     0.003 A 
HETATM   18  C13 UNL     1       4.565   0.868  46.846  1.00  0.00     0.036 A 
HETATM   19  C14 UNL     1       3.796  -0.263  46.669  1.00  0.00     0.103 A 
HETATM   20  C15 UNL     1       3.069  -0.744  47.764  1.00  0.00     0.050 A 
BRANCH  19  21
HETATM   21  N7  UNL     1       3.731  -0.933  45.422  1.00  0.00    -0.116 N 
HETATM   22  O5  UNL     1       3.642  -2.166  45.412  1.00  0.00    -0.532 OA
HETATM   23  O6  UNL     1       3.762  -0.272  44.228  1.00  0.00    -0.532 OA
ENDBRANCH  19  21
ENDBRANCH  10  15
ENDBRANCH   8  10
ENDBRANCH   6   8
ENDBRANCH   3   5
BRANCH   1  24
HETATM   24  C5  UNL     1      -2.397   1.776  54.984  1.00  0.00     0.134 A 
HETATM   25  C4  UNL     1      -2.803   1.307  56.171  1.00  0.00     0.126 A 
HETATM   26  N3  UNL     1      -4.115   1.531  56.669  1.00  0.00    -0.343 N 
HETATM   27  C3  UNL     1      -4.966   2.199  55.991  1.00  0.00     0.215 A 
ATOM     28  H3  UNL     1      -4.379   1.154  57.579  1.00  0.00     0.167 HD
HETATM   29  C2  UNL     1      -6.306   2.417  56.521  1.00  0.00     0.307 A 
HETATM   30  N9  UNL     1      -4.608   2.738  54.704  1.00  0.00    -0.159 N 
HETATM   31  N2  UNL     1      -7.207   3.160  55.734  1.00  0.00    -0.152 N 
HETATM   32  O1  UNL     1      -6.659   1.971  57.626  1.00  0.00    -0.263 OA
HETATM   33  C1  UNL     1      -6.837   3.693  54.450  1.00  0.00     0.695 A 
ATOM     34  H2  UNL     1      -8.150   3.325  56.085  1.00  0.00     0.188 HD
HETATM   35  N1  UNL     1      -7.659   4.373  53.728  1.00  0.00    -0.233 N 
HETATM   36  N10 UNL     1      -5.523   3.462  53.964  1.00  0.00    -0.109 N 
ATOM     37  H12 UNL     1      -8.603   4.539  54.077  1.00  0.00     0.174 HD
ATOM     38  H11 UNL     1      -7.396   4.751  52.818  1.00  0.00     0.174 HD
ATOM     39  H10 UNL     1      -5.250   3.836  53.055  1.00  0.00     0.208 HD
HETATM   40  N8  UNL     1      -3.303   2.521  54.198  1.00  0.00    -0.271 N 
ATOM     41  H8  UNL     1      -3.025   2.893  53.289  1.00  0.00     0.189 HD
ENDBRANCH   1  24
TORSDOF 7
ENDMDL
MODEL 3
REMARK VINA RESULT: -9.441096279      3.507      4.387
REMARK  7 active torsions:
REMARK  status: ('A' for Active; 'I' for Inactive)
REMARK    1  A    between atoms: C5_13  and  C6_14 
REMARK       I    between atoms: C6_14  and  N4_16 
REMARK    2  A    between atoms: N4_16  and  N5_18 
REMARK    3  A    between atoms: C7_20  and  C8_21 
REMARK    4  A    between atoms: C8_21  and  C9_23 
REMARK    5  A    between atoms: C9_23  and  C10_28 
REMARK    6  A    between atoms: N6_24  and  O4_26 
REMARK    7  A    between atoms: C14_32  and  N7_33 
ROOT
HETATM    1  C6  UNL     1      -1.440   1.204  52.312  1.00  0.00     0.289 C 
HETATM    2  O2  UNL     1      -1.154   1.903  51.302  1.00  0.00    -0.264 OA
HETATM    3  N4  UNL     1      -0.812  -0.035  52.579  1.00  0.00    -0.265 N 
ATOM      4  H4  UNL     1      -1.051  -0.591  53.399  1.00  0.00     0.190 HD
ENDROOT
BRANCH   3   5
HETATM    5  N5  UNL     1       0.167  -0.465  51.647  1.00  0.00    -0.305 N 
HETATM    6  C7  UNL     1       0.262  -1.709  51.407  1.00  0.00     0.164 C 
ATOM      7  H5  UNL     1       0.779   0.205  51.182  1.00  0.00     0.186 HD
BRANCH   6   8
HETATM    8  C8  UNL     1       1.281  -2.164  50.436  1.00  0.00     0.217 C 
HETATM    9  O3  UNL     1       0.988  -3.067  49.661  1.00  0.00    -0.284 OA
BRANCH   8  10
HETATM   10  C9  UNL     1       2.602  -1.498  50.457  1.00  0.00     0.116 C 
HETATM   11  N6  UNL     1       3.244  -1.590  51.534  1.00  0.00    -0.265 N 
ATOM     12  H6  UNL     1       2.739  -2.123  52.242  1.00  0.00     0.194 HD
BRANCH  11  13
HETATM   13  O4  UNL     1       4.397  -1.170  51.961  1.00  0.00    -0.289 OA
ATOM     14  H4  UNL     1       5.095  -1.535  52.493  1.00  0.00     0.244 HD
ENDBRANCH  11  13
BRANCH  10  15
HETATM   15  C10 UNL     1       3.070  -0.749  49.302  1.00  0.00    -0.001 A 
HETATM   16  C11 UNL     1       3.623   0.523  49.484  1.00  0.00     0.014 A 
HETATM   17  C12 UNL     1       4.126   1.260  48.420  1.00  0.00     0.003 A 
HETATM   18  C13 UNL     1       4.099   0.768  47.143  1.00  0.00     0.036 A 
HETATM   19  C14 UNL     1       3.564  -0.482  46.910  1.00  0.00     0.103 A 
HETATM   20  C15 UNL     1       3.066  -1.200  48.005  1.00  0.00     0.050 A 
BRANCH  19  21
HETATM   21  N7  UNL     1       3.510  -1.041  45.610  1.00  0.00    -0.116 N 
HETATM   22  O5  UNL     1       3.286  -2.251  45.489  1.00  0.00    -0.532 OA
HETATM   23  O6  UNL     1       3.695  -0.297  44.481  1.00  0.00    -0.532 OA
ENDBRANCH  19  21
ENDBRANCH  10  15
ENDBRANCH   8  10
ENDBRANCH   6   8
ENDBRANCH   3   5
BRANCH   1  24
HETATM   24  C5  UNL     1      -2.446   1.707  53.216  1.00  0.00     0.134 A 
HETATM   25  C4  UNL     1      -2.454   1.358  54.509  1.00  0.00     0.126 A 
HETATM   26  N3  UNL     1      -3.432   1.839  55.421  1.00  0.00    -0.343 N 
HETATM   27  C3  UNL     1      -4.352   2.634  55.033  1.00  0.00     0.215 A 
ATOM     28  H3  UNL     1      -3.398   1.545  56.397  1.00  0.00     0.167 HD
HETATM   29  C2  UNL     1      -5.345   3.115  55.985  1.00  0.00     0.307 A 
HETATM   30  N9  UNL     1      -4.414   3.059  53.657  1.00  0.00    -0.159 N 
HETATM   31  N2  UNL     1      -6.339   3.991  55.506  1.00  0.00    -0.152 N 
HETATM   32  O1  UNL     1      -5.331   2.777  57.181  1.00  0.00    -0.263 OA
HETATM   33  C1  UNL     1      -6.390   4.406  54.130  1.00  0.00     0.695 A 
ATOM     34  H2  UNL     1      -7.045   4.340  56.154  1.00  0.00     0.188 HD
HETATM   35  N1  UNL     1      -7.297   5.207  53.689  1.00  0.00    -0.233 N 
HETATM   36  N10 UNL     1      -5.406   3.918  53.229  1.00  0.00    -0.109 N 
ATOM     37  H12 UNL     1      -8.004   5.558  54.336  1.00  0.00     0.174 HD
ATOM     38  H11 UNL     1      -7.333   5.502  52.713  1.00  0.00     0.174 HD
ATOM     39  H10 UNL     1      -5.433   4.208  52.251  1.00  0.00     0.208 HD
HETATM   40  N8  UNL     1      -3.444   2.585  52.739  1.00  0.00    -0.271 N 
ATOM     41  H8  UNL     1      -3.465   2.871  51.760  1.00  0.00     0.189 HD
ENDBRANCH   1  24
TORSDOF 7
ENDMDL
MODEL 4
REMARK VINA RESULT: -9.412594557      2.623      3.125
REMARK  7 active torsions:
REMARK  status: ('A' for Active; 'I' for Inactive)
REMARK    1  A    between atoms: C5_13  and  C6_14 
REMARK       I    between atoms: C6_14  and  N4_16 
REMARK    2  A    between atoms: N4_16  and  N5_18 
REMARK    3  A    between atoms: C7_20  and  C8_21 
REMARK    4  A    between atoms: C8_21  and  C9_23 
REMARK    5  A    between atoms: C9_23  and  C10_28 
REMARK    6  A    between atoms: N6_24  and  O4_26 
REMARK    7  A    between atoms: C14_32  and  N7_33 
ROOT
HETATM    1  C6  UNL     1      -1.942   1.435  54.878  1.00  0.00     0.289 C 
HETATM    2  O2  UNL     1      -0.961   1.835  55.561  1.00  0.00    -0.264 OA
HETATM    3  N4  UNL     1      -1.795   0.547  53.787  1.00  0.00    -0.265 N 
ATOM      4  H4  UNL     1      -2.596   0.230  53.242  1.00  0.00     0.190 HD
ENDROOT
BRANCH   3   5
HETATM    5  N5  UNL     1      -0.475   0.120  53.488  1.00  0.00    -0.305 N 
HETATM    6  C7  UNL     1      -0.325  -0.831  52.661  1.00  0.00     0.164 C 
ATOM      7  H5  UNL     1       0.331   0.565  53.926  1.00  0.00     0.186 HD
BRANCH   6   8
HETATM    8  C8  UNL     1       1.048  -1.282  52.346  1.00  0.00     0.217 C 
HETATM    9  O3  UNL     1       1.932  -1.088  53.173  1.00  0.00    -0.284 OA
BRANCH   8  10
HETATM   10  C9  UNL     1       1.277  -1.945  51.043  1.00  0.00     0.116 C 
HETATM   11  N6  UNL     1       0.792  -3.098  50.924  1.00  0.00    -0.265 N 
ATOM     12  H6  UNL     1       0.305  -3.402  51.767  1.00  0.00     0.194 HD
BRANCH  11  13
HETATM   13  O4  UNL     1       0.761  -3.996  49.984  1.00  0.00    -0.289 OA
ATOM     14  H4  UNL     1       0.092  -4.352  49.411  1.00  0.00     0.244 HD
ENDBRANCH  11  13
BRANCH  10  15
HETATM   15  C10 UNL     1       2.064  -1.292  50.009  1.00  0.00    -0.001 A 
HETATM   16  C11 UNL     1       2.683  -0.068  50.285  1.00  0.00     0.014 A 
HETATM   17  C12 UNL     1       3.482   0.574  49.349  1.00  0.00     0.003 A 
HETATM   18  C13 UNL     1       3.696   0.031  48.110  1.00  0.00     0.036 A 
HETATM   19  C14 UNL     1       3.108  -1.174  47.789  1.00  0.00     0.103 A 
HETATM   20  C15 UNL     1       2.309  -1.796  48.755  1.00  0.00     0.050 A 
BRANCH  19  21
HETATM   21  N7  UNL     1       3.295  -1.782  46.523  1.00  0.00    -0.116 N 
HETATM   22  O5  UNL     1       3.522  -2.997  46.472  1.00  0.00    -0.532 OA
HETATM   23  O6  UNL     1       3.234  -1.081  45.353  1.00  0.00    -0.532 OA
ENDBRANCH  19  21
ENDBRANCH  10  15
ENDBRANCH   8  10
ENDBRANCH   6   8
ENDBRANCH   3   5
BRANCH   1  24
HETATM   24  C5  UNL     1      -3.254   1.912  55.242  1.00  0.00     0.134 A 
HETATM   25  C4  UNL     1      -3.765   1.679  56.458  1.00  0.00     0.126 A 
HETATM   26  N3  UNL     1      -5.054   2.137  56.844  1.00  0.00    -0.343 N 
HETATM   27  C3  UNL     1      -5.782   2.799  56.030  1.00  0.00     0.215 A 
ATOM     28  H3  UNL     1      -5.401   1.935  57.781  1.00  0.00     0.167 HD
HETATM   29  C2  UNL     1      -7.101   3.260  56.446  1.00  0.00     0.307 A 
HETATM   30  N9  UNL     1      -5.307   3.092  54.702  1.00  0.00    -0.159 N 
HETATM   31  N2  UNL     1      -7.864   3.985  55.510  1.00  0.00    -0.152 N 
HETATM   32  O1  UNL     1      -7.552   3.030  57.581  1.00  0.00    -0.263 OA
HETATM   33  C1  UNL     1      -7.377   4.271  54.187  1.00  0.00     0.695 A 
ATOM     34  H2  UNL     1      -8.790   4.318  55.780  1.00  0.00     0.188 HD
HETATM   35  N1  UNL     1      -8.073   4.935  53.330  1.00  0.00    -0.233 N 
HETATM   36  N10 UNL     1      -6.088   3.807  53.815  1.00  0.00    -0.109 N 
ATOM     37  H12 UNL     1      -9.000   5.268  53.597  1.00  0.00     0.174 HD
ATOM     38  H11 UNL     1      -7.728   5.137  52.392  1.00  0.00     0.174 HD
ATOM     39  H10 UNL     1      -5.733   4.006  52.880  1.00  0.00     0.208 HD
HETATM   40  N8  UNL     1      -4.023   2.640  54.307  1.00  0.00    -0.271 N 
ATOM     41  H8  UNL     1      -3.663   2.836  53.372  1.00  0.00     0.189 HD
ENDBRANCH   1  24
TORSDOF 7
ENDMDL
MODEL 5
REMARK VINA RESULT: -9.407981537      3.880      5.248
REMARK  7 active torsions:
REMARK  status: ('A' for Active; 'I' for Inactive)
REMARK    1  A    between atoms: C5_13  and  C6_14 
REMARK       I    between atoms: C6_14  and  N4_16 
REMARK    2  A    between atoms: N4_16  and  N5_18 
REMARK    3  A    between atoms: C7_20  and  C8_21 
REMARK    4  A    between atoms: C8_21  and  C9_23 
REMARK    5  A    between atoms: C9_23  and  C10_28 
REMARK    6  A    between atoms: N6_24  and  O4_26 
REMARK    7  A    between atoms: C14_32  and  N7_33 
ROOT
HETATM    1  C6  UNL     1      -0.148   1.120  53.507  1.00  0.00     0.289 C 
HETATM    2  O2  UNL     1       1.018   1.600  53.504  1.00  0.00    -0.264 OA
HETATM    3  N4  UNL     1      -0.541   0.075  52.638  1.00  0.00    -0.265 N 
ATOM      4  H4  UNL     1      -1.487  -0.306  52.651  1.00  0.00     0.190 HD
ENDROOT
BRANCH   3   5
HETATM    5  N5  UNL     1       0.448  -0.416  51.747  1.00  0.00    -0.305 N 
HETATM    6  C7  UNL     1       0.329  -1.603  51.314  1.00  0.00     0.164 C 
ATOM      7  H5  UNL     1       1.233   0.169  51.462  1.00  0.00     0.186 HD
BRANCH   6   8
HETATM    8  C8  UNL     1       1.357  -2.121  50.385  1.00  0.00     0.217 C 
HETATM    9  O3  UNL     1       1.068  -3.069  49.663  1.00  0.00    -0.284 OA
BRANCH   8  10
HETATM   10  C9  UNL     1       2.681  -1.461  50.380  1.00  0.00     0.116 C 
HETATM   11  N6  UNL     1       3.340  -1.549  51.446  1.00  0.00    -0.265 N 
ATOM     12  H6  UNL     1       2.845  -2.075  52.165  1.00  0.00     0.194 HD
BRANCH  11  13
HETATM   13  O4  UNL     1       4.502  -1.130  51.851  1.00  0.00    -0.289 OA
ATOM     14  H4  UNL     1       4.882  -0.283  52.053  1.00  0.00     0.244 HD
ENDBRANCH  11  13
BRANCH  10  15
HETATM   15  C10 UNL     1       3.132  -0.720  49.212  1.00  0.00    -0.001 A 
HETATM   16  C11 UNL     1       3.675   0.559  49.376  1.00  0.00     0.014 A 
HETATM   17  C12 UNL     1       4.161   1.289  48.299  1.00  0.00     0.003 A 
HETATM   18  C13 UNL     1       4.128   0.782  47.028  1.00  0.00     0.036 A 
HETATM   19  C14 UNL     1       3.603  -0.475  46.814  1.00  0.00     0.103 A 
HETATM   20  C15 UNL     1       3.121  -1.185  47.920  1.00  0.00     0.050 A 
BRANCH  19  21
HETATM   21  N7  UNL     1       3.543  -1.049  45.520  1.00  0.00    -0.116 N 
HETATM   22  O5  UNL     1       3.356  -2.266  45.415  1.00  0.00    -0.532 OA
HETATM   23  O6  UNL     1       3.682  -0.311  44.380  1.00  0.00    -0.532 OA
ENDBRANCH  19  21
ENDBRANCH  10  15
ENDBRANCH   8  10
ENDBRANCH   6   8
ENDBRANCH   3   5
BRANCH   1  24
HETATM   24  C5  UNL     1      -1.100   1.670  54.442  1.00  0.00     0.134 A 
HETATM   25  C4  UNL     1      -2.392   1.320  54.404  1.00  0.00     0.126 A 
HETATM   26  N3  UNL     1      -3.350   1.845  55.312  1.00  0.00    -0.343 N 
HETATM   27  C3  UNL     1      -3.006   2.684  56.213  1.00  0.00     0.215 A 
ATOM     28  H3  UNL     1      -4.324   1.549  55.245  1.00  0.00     0.167 HD
HETATM   29  C2  UNL     1      -4.005   3.210  57.134  1.00  0.00     0.307 A 
HETATM   30  N9  UNL     1      -1.635   3.112  56.322  1.00  0.00    -0.159 N 
HETATM   31  N2  UNL     1      -3.574   4.131  58.108  1.00  0.00    -0.152 N 
HETATM   32  O1  UNL     1      -5.199   2.869  57.078  1.00  0.00    -0.263 OA
HETATM   33  C1  UNL     1      -2.202   4.550  58.206  1.00  0.00     0.695 A 
ATOM     34  H2  UNL     1      -4.256   4.512  58.764  1.00  0.00     0.188 HD
HETATM   35  N1  UNL     1      -1.804   5.393  59.096  1.00  0.00    -0.233 N 
HETATM   36  N10 UNL     1      -1.254   4.017  57.292  1.00  0.00    -0.109 N 
ATOM     37  H12 UNL     1      -2.485   5.775  59.753  1.00  0.00     0.174 HD
ATOM     38  H11 UNL     1      -0.831   5.690  59.165  1.00  0.00     0.174 HD
ATOM     39  H10 UNL     1      -0.279   4.308  57.354  1.00  0.00     0.208 HD
HETATM   40  N8  UNL     1      -0.671   2.593  55.421  1.00  0.00    -0.271 N 
ATOM     41  H8  UNL     1       0.306   2.880  55.478  1.00  0.00     0.189 HD
ENDBRANCH   1  24
TORSDOF 7
ENDMDL
