MODEL 1
REMARK VINA RESULT: -9.178582998      0.000      0.000
REMARK  6 active torsions:
REMARK  status: ('A' for Active; 'I' for Inactive)
REMARK    1  A    between atoms: O1_2  and  C2_3 
REMARK    2  A    between atoms: C5_6  and  N1_7 
REMARK    3  A    between atoms: N1_7  and  S1_8 
REMARK    4  A    between atoms: S1_8  and  C6_11 
REMARK    5  A    between atoms: C12_19  and  C13_20 
REMARK    6  A    between atoms: C18_28  and  O5_29 
ROOT
HETATM    1  C2  UNL     1      28.677  10.866 -12.556  1.00  0.00     0.103 A 
HETATM    2  C3  UNL     1      29.198  11.585 -11.499  1.00  0.00     0.057 A 
HETATM    3  C4  UNL     1      29.448  12.952 -11.551  1.00  0.00     0.036 A 
HETATM    4  C5  UNL     1      29.980  13.645 -10.451  1.00  0.00     0.136 A 
HETATM    5  C11 UNL     1      30.168  15.038 -10.690  1.00  0.00     0.080 A 
HETATM    6  C12 UNL     1      29.864  15.641 -11.867  1.00  0.00     0.081 A 
HETATM    7  N2  UNL     1      29.358  14.909 -12.873  1.00  0.00    -0.352 N 
ATOM      8  H2  UNL     1      29.130  15.363 -13.757  1.00  0.00     0.166 HD
HETATM    9  C15 UNL     1      29.146  13.577 -12.736  1.00  0.00     0.055 A 
HETATM   10  C16 UNL     1      28.616  12.871 -13.824  1.00  0.00     0.002 A 
HETATM   11  C17 UNL     1      28.308  13.603 -15.084  1.00  0.00     0.054 C 
HETATM   12  C18 UNL     1      28.384  11.516 -13.729  1.00  0.00     0.109 A 
ENDROOT
BRANCH   4  13
HETATM   13  N1  UNL     1      30.251  13.141  -9.417  1.00  0.00    -0.318 NA
BRANCH  13  14
HETATM   14  S1  UNL     1      31.006  12.275  -8.318  1.00  0.00     0.331 S 
HETATM   15  O2  UNL     1      30.504  12.482  -6.875  1.00  0.00    -0.186 OA
HETATM   16  O3  UNL     1      31.046  10.768  -8.513  1.00  0.00    -0.186 OA
BRANCH  14  17
HETATM   17  C6  UNL     1      32.718  12.825  -8.187  1.00  0.00     0.135 A 
HETATM   18  C7  UNL     1      33.704  12.644  -9.115  1.00  0.00     0.042 A 
HETATM   19  C8  UNL     1      34.928  13.142  -8.809  1.00  0.00    -0.036 A 
HETATM   20  C9  UNL     1      36.133  13.022  -9.742  1.00  0.00     0.050 C 
HETATM   21  C10 UNL     1      35.050  13.776  -7.603  1.00  0.00     0.059 A 
HETATM   22 BR1  UNL     1      36.639  14.590  -6.869  1.00  0.00    -0.042 Br
HETATM   23  S2  UNL     1      33.491  13.665  -6.935  1.00  0.00    -0.068 SA
ENDBRANCH  14  17
ENDBRANCH  13  14
ENDBRANCH   4  13
BRANCH   6  24
HETATM   24  C13 UNL     1      30.090  17.071 -12.022  1.00  0.00     0.172 C 
HETATM   25  C14 UNL     1      31.471  17.621 -11.998  1.00  0.00     0.098 C 
HETATM   26  O4  UNL     1      29.107  17.824 -12.172  1.00  0.00    -0.291 OA
ENDBRANCH   6  24
BRANCH   1  27
HETATM   27  O1  UNL     1      28.435   9.504 -12.481  1.00  0.00    -0.353 OA
HETATM   28  C1  UNL     1      29.145   8.653 -11.619  1.00  0.00     0.210 C 
ENDBRANCH   1  27
BRANCH  12  29
HETATM   29  O5  UNL     1      27.861  10.867 -14.830  1.00  0.00    -0.352 OA
HETATM   30  C19 UNL     1      28.586  10.702 -16.051  1.00  0.00     0.210 C 
ENDBRANCH  12  29
TORSDOF 6
ENDMDL
MODEL 2
REMARK VINA RESULT: -7.371185600      4.182      7.622
REMARK  6 active torsions:
REMARK  status: ('A' for Active; 'I' for Inactive)
REMARK    1  A    between atoms: O1_2  and  C2_3 
REMARK    2  A    between atoms: C5_6  and  N1_7 
REMARK    3  A    between atoms: N1_7  and  S1_8 
REMARK    4  A    between atoms: S1_8  and  C6_11 
REMARK    5  A    between atoms: C12_19  and  C13_20 
REMARK    6  A    between atoms: C18_28  and  O5_29 
ROOT
HETATM    1  C2  UNL     1      33.355  17.498 -12.560  1.00  0.00     0.103 A 
HETATM    2  C3  UNL     1      33.587  16.389 -11.771  1.00  0.00     0.057 A 
HETATM    3  C4  UNL     1      34.838  16.061 -11.258  1.00  0.00     0.036 A 
HETATM    4  C5  UNL     1      35.029  14.923 -10.458  1.00  0.00     0.136 A 
HETATM    5  C11 UNL     1      36.377  14.749 -10.025  1.00  0.00     0.080 A 
HETATM    6  C12 UNL     1      37.382  15.601 -10.352  1.00  0.00     0.081 A 
HETATM    7  N2  UNL     1      37.118  16.669 -11.122  1.00  0.00    -0.352 N 
ATOM      8  H2  UNL     1      37.873  17.309 -11.367  1.00  0.00     0.166 HD
HETATM    9  C15 UNL     1      35.866  16.913 -11.580  1.00  0.00     0.055 A 
HETATM   10  C16 UNL     1      35.658  18.046 -12.379  1.00  0.00     0.002 A 
HETATM   11  C17 UNL     1      36.811  18.933 -12.695  1.00  0.00     0.054 C 
HETATM   12  C18 UNL     1      34.401  18.333 -12.867  1.00  0.00     0.109 A 
ENDROOT
BRANCH   4  13
HETATM   13  N1  UNL     1      34.170  14.169 -10.161  1.00  0.00    -0.318 NA
BRANCH  13  14
HETATM   14  S1  UNL     1      33.358  13.043  -9.385  1.00  0.00     0.331 S 
HETATM   15  O2  UNL     1      33.734  11.597  -9.764  1.00  0.00    -0.186 OA
HETATM   16  O3  UNL     1      33.386  13.076  -7.865  1.00  0.00    -0.186 OA
BRANCH  14  17
HETATM   17  C6  UNL     1      31.623  13.105  -9.872  1.00  0.00     0.135 A 
HETATM   18  C7  UNL     1      31.096  13.811 -10.915  1.00  0.00     0.042 A 
HETATM   19  C8  UNL     1      29.756  13.714 -11.101  1.00  0.00    -0.036 A 
HETATM   20  C9  UNL     1      29.017  14.443 -12.224  1.00  0.00     0.050 C 
HETATM   21  C10 UNL     1      29.070  12.917 -10.226  1.00  0.00     0.059 A 
HETATM   22 BR1  UNL     1      27.172  12.566 -10.212  1.00  0.00    -0.042 Br
HETATM   23  S2  UNL     1      30.280  12.335  -9.185  1.00  0.00    -0.068 SA
ENDBRANCH  14  17
ENDBRANCH  13  14
ENDBRANCH   4  13
BRANCH   6  24
HETATM   24  C13 UNL     1      38.730  15.344  -9.863  1.00  0.00     0.172 C 
HETATM   25  C14 UNL     1      39.816  14.980 -10.810  1.00  0.00     0.098 C 
HETATM   26  O4  UNL     1      38.954  15.433  -8.640  1.00  0.00    -0.291 OA
ENDBRANCH   6  24
BRANCH   1  27
HETATM   27  O1  UNL     1      32.101  17.805 -13.060  1.00  0.00    -0.353 OA
HETATM   28  C1  UNL     1      30.925  17.643 -12.311  1.00  0.00     0.210 C 
ENDBRANCH   1  27
BRANCH  12  29
HETATM   29  O5  UNL     1      34.249  19.461 -13.649  1.00  0.00    -0.352 OA
HETATM   30  C19 UNL     1      33.714  20.687 -13.148  1.00  0.00     0.210 C 
ENDBRANCH  12  29
TORSDOF 6
ENDMDL
MODEL 3
REMARK VINA RESULT: -7.123094423      4.573      8.043
REMARK  6 active torsions:
REMARK  status: ('A' for Active; 'I' for Inactive)
REMARK    1  A    between atoms: O1_2  and  C2_3 
REMARK    2  A    between atoms: C5_6  and  N1_7 
REMARK    3  A    between atoms: N1_7  and  S1_8 
REMARK    4  A    between atoms: S1_8  and  C6_11 
REMARK    5  A    between atoms: C12_19  and  C13_20 
REMARK    6  A    between atoms: C18_28  and  O5_29 
ROOT
HETATM    1  C2  UNL     1      34.670  17.140 -12.383  1.00  0.00     0.103 A 
HETATM    2  C3  UNL     1      34.653  16.168 -11.403  1.00  0.00     0.057 A 
HETATM    3  C4  UNL     1      35.651  16.029 -10.444  1.00  0.00     0.036 A 
HETATM    4  C5  UNL     1      35.594  15.024  -9.464  1.00  0.00     0.136 A 
HETATM    5  C11 UNL     1      36.704  15.037  -8.569  1.00  0.00     0.080 A 
HETATM    6  C12 UNL     1      37.720  15.934  -8.650  1.00  0.00     0.081 A 
HETATM    7  N2  UNL     1      37.701  16.866  -9.618  1.00  0.00    -0.352 N 
ATOM      8  H2  UNL     1      38.464  17.539  -9.678  1.00  0.00     0.166 HD
HETATM    9  C15 UNL     1      36.687  16.928 -10.514  1.00  0.00     0.055 A 
HETATM   10  C16 UNL     1      36.728  17.925 -11.498  1.00  0.00     0.002 A 
HETATM   11  C17 UNL     1      37.876  18.872 -11.525  1.00  0.00     0.054 C 
HETATM   12  C18 UNL     1      35.717  18.027 -12.430  1.00  0.00     0.109 A 
ENDROOT
BRANCH   4  13
HETATM   13  N1  UNL     1      34.720  14.235  -9.373  1.00  0.00    -0.318 NA
BRANCH  13  14
HETATM   14  S1  UNL     1      33.898  12.944  -8.943  1.00  0.00     0.331 S 
HETATM   15  O2  UNL     1      34.204  11.677  -9.766  1.00  0.00    -0.186 OA
HETATM   16  O3  UNL     1      33.986  12.504  -7.490  1.00  0.00    -0.186 OA
BRANCH  14  17
HETATM   17  C6  UNL     1      32.149  13.194  -9.302  1.00  0.00     0.135 A 
HETATM   18  C7  UNL     1      31.606  13.530 -10.510  1.00  0.00     0.042 A 
HETATM   19  C8  UNL     1      30.258  13.669 -10.555  1.00  0.00    -0.036 A 
HETATM   20  C9  UNL     1      29.501  14.041 -11.830  1.00  0.00     0.050 C 
HETATM   21  C10 UNL     1      29.579  13.456  -9.387  1.00  0.00     0.059 A 
HETATM   22 BR1  UNL     1      27.672  13.571  -9.110  1.00  0.00    -0.042 Br
HETATM   23  S2  UNL     1      30.807  13.077  -8.275  1.00  0.00    -0.068 SA
ENDBRANCH  14  17
ENDBRANCH  13  14
ENDBRANCH   4  13
BRANCH   6  24
HETATM   24  C13 UNL     1      38.813  15.871  -7.691  1.00  0.00     0.172 C 
HETATM   25  C14 UNL     1      38.533  15.830  -6.232  1.00  0.00     0.098 C 
HETATM   26  O4  UNL     1      39.986  15.854  -8.115  1.00  0.00    -0.291 OA
ENDBRANCH   6  24
BRANCH   1  27
HETATM   27  O1  UNL     1      33.665  17.260 -13.329  1.00  0.00    -0.353 OA
HETATM   28  C1  UNL     1      32.469  17.952 -13.081  1.00  0.00     0.210 C 
ENDBRANCH   1  27
BRANCH  12  29
HETATM   29  O5  UNL     1      35.806  19.026 -13.379  1.00  0.00    -0.352 OA
HETATM   30  C19 UNL     1      35.213  20.316 -13.205  1.00  0.00     0.210 C 
ENDBRANCH  12  29
TORSDOF 6
ENDMDL
MODEL 4
REMARK VINA RESULT: -6.998917034      4.213      7.451
REMARK  6 active torsions:
REMARK  status: ('A' for Active; 'I' for Inactive)
REMARK    1  A    between atoms: O1_2  and  C2_3 
REMARK    2  A    between atoms: C5_6  and  N1_7 
REMARK    3  A    between atoms: N1_7  and  S1_8 
REMARK    4  A    between atoms: S1_8  and  C6_11 
REMARK    5  A    between atoms: C12_19  and  C13_20 
REMARK    6  A    between atoms: C18_28  and  O5_29 
ROOT
HETATM    1  C2  UNL     1      35.239  15.657 -10.995  1.00  0.00     0.103 A 
HETATM    2  C3  UNL     1      33.927  15.939 -11.316  1.00  0.00     0.057 A 
HETATM    3  C4  UNL     1      33.537  17.063 -12.036  1.00  0.00     0.036 A 
HETATM    4  C5  UNL     1      32.189  17.311 -12.340  1.00  0.00     0.136 A 
HETATM    5  C11 UNL     1      31.983  18.509 -13.084  1.00  0.00     0.080 A 
HETATM    6  C12 UNL     1      32.990  19.335 -13.465  1.00  0.00     0.081 A 
HETATM    7  N2  UNL     1      34.255  19.028 -13.134  1.00  0.00    -0.352 N 
ATOM      8  H2  UNL     1      35.012  19.649 -13.421  1.00  0.00     0.166 HD
HETATM    9  C15 UNL     1      34.545  17.909 -12.428  1.00  0.00     0.055 A 
HETATM   10  C16 UNL     1      35.886  17.647 -12.116  1.00  0.00     0.002 A 
HETATM   11  C17 UNL     1      36.937  18.601 -12.568  1.00  0.00     0.054 C 
HETATM   12  C18 UNL     1      36.228  16.520 -11.400  1.00  0.00     0.109 A 
ENDROOT
BRANCH   4  13
HETATM   13  N1  UNL     1      31.296  16.606 -12.021  1.00  0.00    -0.318 NA
BRANCH  13  14
HETATM   14  S1  UNL     1      29.864  16.121 -11.527  1.00  0.00     0.331 S 
HETATM   15  O2  UNL     1      29.731  15.946 -10.002  1.00  0.00    -0.186 OA
HETATM   16  O3  UNL     1      28.659  16.953 -11.939  1.00  0.00    -0.186 OA
BRANCH  14  17
HETATM   17  C6  UNL     1      29.559  14.444 -12.113  1.00  0.00     0.135 A 
HETATM   18  C7  UNL     1      29.061  14.086 -13.333  1.00  0.00     0.042 A 
HETATM   19  C8  UNL     1      28.911  12.758 -13.565  1.00  0.00    -0.036 A 
HETATM   20  C9  UNL     1      28.368  12.198 -14.880  1.00  0.00     0.050 C 
HETATM   21  C10 UNL     1      29.275  11.912 -12.553  1.00  0.00     0.059 A 
HETATM   22 BR1  UNL     1      29.188   9.984 -12.557  1.00  0.00    -0.042 Br
HETATM   23  S2  UNL     1      29.805  12.964 -11.327  1.00  0.00    -0.068 SA
ENDBRANCH  14  17
ENDBRANCH  13  14
ENDBRANCH   4  13
BRANCH   6  24
HETATM   24  C13 UNL     1      32.685  20.540 -14.223  1.00  0.00     0.172 C 
HETATM   25  C14 UNL     1      32.541  20.483 -15.701  1.00  0.00     0.098 C 
HETATM   26  O4  UNL     1      32.548  21.618 -13.611  1.00  0.00    -0.291 OA
ENDBRANCH   6  24
BRANCH   1  27
HETATM   27  O1  UNL     1      35.605  14.531 -10.277  1.00  0.00    -0.353 OA
HETATM   28  C1  UNL     1      34.675  13.571  -9.846  1.00  0.00     0.210 C 
ENDBRANCH   1  27
BRANCH  12  29
HETATM   29  O5  UNL     1      37.563  16.308 -11.118  1.00  0.00    -0.352 OA
HETATM   30  C19 UNL     1      38.396  15.455 -11.907  1.00  0.00     0.210 C 
ENDBRANCH  12  29
TORSDOF 6
ENDMDL
MODEL 5
REMARK VINA RESULT: -6.970627643      2.928      5.163
REMARK  6 active torsions:
REMARK  status: ('A' for Active; 'I' for Inactive)
REMARK    1  A    between atoms: O1_2  and  C2_3 
REMARK    2  A    between atoms: C5_6  and  N1_7 
REMARK    3  A    between atoms: N1_7  and  S1_8 
REMARK    4  A    between atoms: S1_8  and  C6_11 
REMARK    5  A    between atoms: C12_19  and  C13_20 
REMARK    6  A    between atoms: C18_28  and  O5_29 
ROOT
HETATM    1  C2  UNL     1      28.370  13.212 -14.259  1.00  0.00     0.103 A 
HETATM    2  C3  UNL     1      28.927  14.158 -13.422  1.00  0.00     0.057 A 
HETATM    3  C4  UNL     1      29.560  13.845 -12.224  1.00  0.00     0.036 A 
HETATM    4  C5  UNL     1      30.113  14.841 -11.402  1.00  0.00     0.136 A 
HETATM    5  C11 UNL     1      30.720  14.330 -10.217  1.00  0.00     0.080 A 
HETATM    6  C12 UNL     1      30.763  13.009  -9.909  1.00  0.00     0.081 A 
HETATM    7  N2  UNL     1      30.211  12.117 -10.748  1.00  0.00    -0.352 N 
ATOM      8  H2  UNL     1      30.244  11.125 -10.516  1.00  0.00     0.166 HD
HETATM    9  C15 UNL     1      29.611  12.512 -11.898  1.00  0.00     0.055 A 
HETATM   10  C16 UNL     1      29.055  11.531 -12.730  1.00  0.00     0.002 A 
HETATM   11  C17 UNL     1      29.141  10.101 -12.324  1.00  0.00     0.054 C 
HETATM   12  C18 UNL     1      28.436  11.886 -13.909  1.00  0.00     0.109 A 
ENDROOT
BRANCH   4  13
HETATM   13  N1  UNL     1      30.088  15.995 -11.650  1.00  0.00    -0.318 NA
BRANCH  13  14
HETATM   14  S1  UNL     1      30.328  17.379 -12.395  1.00  0.00     0.331 S 
HETATM   15  O2  UNL     1      30.343  17.292 -13.934  1.00  0.00    -0.186 OA
HETATM   16  O3  UNL     1      29.384  18.527 -12.071  1.00  0.00    -0.186 OA
BRANCH  14  17
HETATM   17  C6  UNL     1      31.997  17.970 -12.051  1.00  0.00     0.135 A 
HETATM   18  C7  UNL     1      33.158  17.269 -12.213  1.00  0.00     0.042 A 
HETATM   19  C8  UNL     1      34.308  17.910 -11.890  1.00  0.00    -0.036 A 
HETATM   20  C9  UNL     1      35.687  17.262 -12.017  1.00  0.00     0.050 C 
HETATM   21  C10 UNL     1      34.188  19.195 -11.436  1.00  0.00     0.059 A 
HETATM   22 BR1  UNL     1      35.614  20.378 -10.896  1.00  0.00    -0.042 Br
HETATM   23  S2  UNL     1      32.512  19.473 -11.466  1.00  0.00    -0.068 SA
ENDBRANCH  14  17
ENDBRANCH  13  14
ENDBRANCH   4  13
BRANCH   6  24
HETATM   24  C13 UNL     1      31.405  12.579  -8.675  1.00  0.00     0.172 C 
HETATM   25  C14 UNL     1      30.610  11.932  -7.599  1.00  0.00     0.098 C 
HETATM   26  O4  UNL     1      32.631  12.765  -8.537  1.00  0.00    -0.291 OA
ENDBRANCH   6  24
BRANCH   1  27
HETATM   27  O1  UNL     1      27.744  13.547 -15.448  1.00  0.00    -0.353 OA
HETATM   28  C1  UNL     1      28.447  13.736 -16.649  1.00  0.00     0.210 C 
ENDBRANCH   1  27
BRANCH  12  29
HETATM   29  O5  UNL     1      27.904  10.881 -14.692  1.00  0.00    -0.352 OA
HETATM   30  C19 UNL     1      28.476  10.486 -15.942  1.00  0.00     0.210 C 
ENDBRANCH  12  29
TORSDOF 6
ENDMDL
