MODEL 1
REMARK VINA RESULT: -8.445132973      0.000      0.000
REMARK  7 active torsions:
REMARK  status: ('A' for Active; 'I' for Inactive)
REMARK    1  A    between atoms: C3_3  and  C4_4 
REMARK    2  A    between atoms: C5_5  and  C6_6 
REMARK    3  A    between atoms: C13_15  and  O3_16 
REMARK    4  A    between atoms: C16_21  and  C18_23 
REMARK    5  A    between atoms: C18_23  and  O4_24 
REMARK    6  A    between atoms: O4_24  and  C19_25 
REMARK    7  A    between atoms: N1_31  and  C24_32 
ROOT
HETATM    1  C6  UNL     1      33.040  13.355  -8.037  1.00  0.00    -0.015 C 
HETATM    2  C7  UNL     1      31.924  12.944  -7.395  1.00  0.00     0.033 C 
HETATM    3  C8  UNL     1      30.657  12.266  -7.766  1.00  0.00     0.171 A 
HETATM    4  O1  UNL     1      30.464  11.302  -6.803  1.00  0.00    -0.334 OA
HETATM    5  C9  UNL     1      30.761  10.731  -7.980  1.00  0.00     0.305 A 
HETATM    6  O2  UNL     1      31.546  11.164  -9.024  1.00  0.00    -0.335 OA
HETATM    7  C10 UNL     1      30.519  12.128  -9.172  1.00  0.00     0.167 A 
HETATM    8  C11 UNL     1      29.439  11.797 -10.031  1.00  0.00    -0.014 A 
HETATM    9  C12 UNL     1      29.713  12.838 -10.789  1.00  0.00    -0.019 A 
HETATM   10  C13 UNL     1      30.834  13.308 -10.019  1.00  0.00     0.141 A 
HETATM   11  C14 UNL     1      32.236  13.083 -10.430  1.00  0.00     0.043 C 
HETATM   12  C15 UNL     1      33.198  13.116  -9.467  1.00  0.00     0.043 C 
HETATM   13 CL1  UNL     1      34.792  12.770 -10.020  1.00  0.00    -0.084 Cl
HETATM   14  C16 UNL     1      28.881  13.112 -11.981  1.00  0.00     0.030 C 
HETATM   15  C17 UNL     1      29.632  14.033 -12.965  1.00  0.00     0.025 C 
HETATM   16  C21 UNL     1      28.505  11.866 -12.684  1.00  0.00     0.034 C 
HETATM   17  C22 UNL     1      27.319  12.090 -13.645  1.00  0.00     0.039 C 
HETATM   18  C23 UNL     1      29.651  11.473 -13.630  1.00  0.00     0.039 C 
HETATM   19  N1  UNL     1      28.154  10.789 -11.857  1.00  0.00    -0.395 N 
HETATM   20  C27 UNL     1      28.290  10.963 -10.453  1.00  0.00     0.156 C 
ENDROOT
BRANCH  14  21
HETATM   21  C18 UNL     1      27.676  13.967 -11.567  1.00  0.00     0.195 C 
BRANCH  21  22
HETATM   22  O4  UNL     1      27.935  15.338 -11.917  1.00  0.00    -0.321 OA
BRANCH  22  23
HETATM   23  C19 UNL     1      28.711  16.115 -11.083  1.00  0.00     0.254 C 
HETATM   24  C20 UNL     1      29.774  17.020 -11.545  1.00  0.00     0.126 C 
HETATM   25  O5  UNL     1      28.476  16.030  -9.831  1.00  0.00    -0.266 OA
ENDBRANCH  22  23
ENDBRANCH  21  22
ENDBRANCH  14  21
BRANCH  10  26
HETATM   26  O3  UNL     1      30.715  14.554  -9.402  1.00  0.00    -0.377 OA
ATOM     27  H3  UNL     1      30.884  15.309  -9.952  1.00  0.00     0.211 HD
ENDBRANCH  10  26
BRANCH  19  28
HETATM   28  C24 UNL     1      28.569   9.489 -12.328  1.00  0.00     0.080 A 
HETATM   29  C25 UNL     1      29.739   8.845 -11.660  1.00  0.00     0.027 A 
HETATM   30  C26 UNL     1      28.359   8.335 -11.331  1.00  0.00     0.027 A 
ENDBRANCH  19  28
BRANCH   1  31
HETATM   31  C5  UNL     1      34.056  13.994  -7.250  1.00  0.00     0.013 C 
HETATM   32  C4  UNL     1      35.105  14.639  -7.670  1.00  0.00     0.001 C 
BRANCH  32  33
HETATM   33  C3  UNL     1      36.025  15.215  -6.628  1.00  0.00    -0.004 C 
HETATM   34  C2  UNL     1      37.316  15.027  -6.757  1.00  0.00    -0.031 C 
HETATM   35  C1  UNL     1      38.318  15.545  -5.797  1.00  0.00     0.036 C 
ENDBRANCH  32  33
ENDBRANCH   1  31
TORSDOF 7
ENDMDL
MODEL 2
REMARK VINA RESULT: -7.568981242      4.450      9.999
REMARK  7 active torsions:
REMARK  status: ('A' for Active; 'I' for Inactive)
REMARK    1  A    between atoms: C3_3  and  C4_4 
REMARK    2  A    between atoms: C5_5  and  C6_6 
REMARK    3  A    between atoms: C13_15  and  O3_16 
REMARK    4  A    between atoms: C16_21  and  C18_23 
REMARK    5  A    between atoms: C18_23  and  O4_24 
REMARK    6  A    between atoms: O4_24  and  C19_25 
REMARK    7  A    between atoms: N1_31  and  C24_32 
ROOT
HETATM    1  C6  UNL     1      34.366  13.688  -7.982  1.00  0.00    -0.015 C 
HETATM    2  C7  UNL     1      34.918  14.366  -9.013  1.00  0.00     0.033 C 
HETATM    3  C8  UNL     1      36.182  15.101  -9.264  1.00  0.00     0.171 A 
HETATM    4  O1  UNL     1      36.606  14.683 -10.504  1.00  0.00    -0.334 OA
HETATM    5  C9  UNL     1      37.423  14.211  -9.551  1.00  0.00     0.305 A 
HETATM    6  O2  UNL     1      37.178  13.853  -8.245  1.00  0.00    -0.335 OA
HETATM    7  C10 UNL     1      36.958  15.242  -8.083  1.00  0.00     0.167 A 
HETATM    8  C11 UNL     1      38.078  16.038  -7.727  1.00  0.00    -0.014 A 
HETATM    9  C12 UNL     1      37.469  16.414  -6.622  1.00  0.00    -0.019 A 
HETATM   10  C13 UNL     1      36.261  15.664  -6.840  1.00  0.00     0.141 A 
HETATM   11  C14 UNL     1      35.975  14.389  -6.148  1.00  0.00     0.043 C 
HETATM   12  C15 UNL     1      35.096  13.528  -6.730  1.00  0.00     0.043 C 
HETATM   13 CL1  UNL     1      34.878  12.037  -5.895  1.00  0.00    -0.084 Cl
HETATM   14  C16 UNL     1      38.148  17.344  -5.695  1.00  0.00     0.030 C 
HETATM   15  C17 UNL     1      37.512  17.270  -4.291  1.00  0.00     0.025 C 
HETATM   16  C21 UNL     1      39.593  17.048  -5.582  1.00  0.00     0.034 C 
HETATM   17  C22 UNL     1      40.372  18.236  -4.980  1.00  0.00     0.039 C 
HETATM   18  C23 UNL     1      39.784  15.939  -4.537  1.00  0.00     0.039 C 
HETATM   19  N1  UNL     1      40.235  16.714  -6.783  1.00  0.00    -0.395 N 
HETATM   20  C27 UNL     1      39.433  16.593  -7.950  1.00  0.00     0.156 C 
ENDROOT
BRANCH  14  21
HETATM   21  C18 UNL     1      37.852  18.788  -6.126  1.00  0.00     0.195 C 
BRANCH  21  22
HETATM   22  O4  UNL     1      36.497  18.862  -6.604  1.00  0.00    -0.321 OA
BRANCH  22  23
HETATM   23  C19 UNL     1      35.572  19.608  -5.903  1.00  0.00     0.254 C 
HETATM   24  C20 UNL     1      35.689  21.053  -5.656  1.00  0.00     0.126 C 
HETATM   25  O5  UNL     1      34.555  18.987  -5.447  1.00  0.00    -0.266 OA
ENDBRANCH  22  23
ENDBRANCH  21  22
ENDBRANCH  14  21
BRANCH  10  26
HETATM   26  O3  UNL     1      35.078  16.383  -7.016  1.00  0.00    -0.377 OA
ATOM     27  H3  UNL     1      34.276  15.928  -6.785  1.00  0.00     0.211 HD
ENDBRANCH  10  26
BRANCH  19  28
HETATM   28  C24 UNL     1      41.262  15.705  -6.673  1.00  0.00     0.080 A 
HETATM   29  C25 UNL     1      41.998  15.319  -7.914  1.00  0.00     0.027 A 
HETATM   30  C26 UNL     1      42.698  16.205  -6.914  1.00  0.00     0.027 A 
ENDBRANCH  19  28
BRANCH   1  31
HETATM   31  C5  UNL     1      33.066  13.115  -8.190  1.00  0.00     0.013 C 
HETATM   32  C4  UNL     1      32.029  13.180  -7.407  1.00  0.00     0.001 C 
BRANCH  32  33
HETATM   33  C3  UNL     1      30.775  12.483  -7.860  1.00  0.00    -0.004 C 
HETATM   34  C2  UNL     1      30.100  12.992  -8.862  1.00  0.00    -0.031 C 
HETATM   35  C1  UNL     1      28.855  12.395  -9.396  1.00  0.00     0.036 C 
ENDBRANCH  32  33
ENDBRANCH   1  31
TORSDOF 7
ENDMDL
MODEL 3
REMARK VINA RESULT: -7.154643312      6.883     10.835
REMARK  7 active torsions:
REMARK  status: ('A' for Active; 'I' for Inactive)
REMARK    1  A    between atoms: C3_3  and  C4_4 
REMARK    2  A    between atoms: C5_5  and  C6_6 
REMARK    3  A    between atoms: C13_15  and  O3_16 
REMARK    4  A    between atoms: C16_21  and  C18_23 
REMARK    5  A    between atoms: C18_23  and  O4_24 
REMARK    6  A    between atoms: O4_24  and  C19_25 
REMARK    7  A    between atoms: N1_31  and  C24_32 
ROOT
HETATM    1  C6  UNL     1      38.199  19.019 -14.256  1.00  0.00    -0.015 C 
HETATM    2  C7  UNL     1      37.158  19.578 -13.600  1.00  0.00     0.033 C 
HETATM    3  C8  UNL     1      36.668  19.622 -12.200  1.00  0.00     0.171 A 
HETATM    4  O1  UNL     1      36.338  20.938 -11.971  1.00  0.00    -0.334 OA
HETATM    5  C9  UNL     1      37.425  20.601 -11.260  1.00  0.00     0.305 A 
HETATM    6  O2  UNL     1      38.435  19.704 -11.522  1.00  0.00    -0.335 OA
HETATM    7  C10 UNL     1      37.401  18.751 -11.352  1.00  0.00     0.167 A 
HETATM    8  C11 UNL     1      37.197  18.244 -10.042  1.00  0.00    -0.014 A 
HETATM    9  C12 UNL     1      37.444  17.022 -10.468  1.00  0.00    -0.019 A 
HETATM   10  C13 UNL     1      37.678  17.375 -11.843  1.00  0.00     0.141 A 
HETATM   11  C14 UNL     1      39.035  17.476 -12.422  1.00  0.00     0.043 C 
HETATM   12  C15 UNL     1      39.202  18.249 -13.530  1.00  0.00     0.043 C 
HETATM   13 CL1  UNL     1      40.825  18.370 -14.095  1.00  0.00    -0.084 Cl
HETATM   14  C16 UNL     1      37.391  15.893  -9.515  1.00  0.00     0.030 C 
HETATM   15  C17 UNL     1      38.163  14.679 -10.071  1.00  0.00     0.025 C 
HETATM   16  C21 UNL     1      37.957  16.259  -8.198  1.00  0.00     0.034 C 
HETATM   17  C22 UNL     1      37.528  15.267  -7.098  1.00  0.00     0.039 C 
HETATM   18  C23 UNL     1      39.482  16.079  -8.256  1.00  0.00     0.039 C 
HETATM   19  N1  UNL     1      37.626  17.541  -7.735  1.00  0.00    -0.395 N 
HETATM   20  C27 UNL     1      36.881  18.385  -8.602  1.00  0.00     0.156 C 
ENDROOT
BRANCH  14  21
HETATM   21  C18 UNL     1      35.949  15.371  -9.436  1.00  0.00     0.195 C 
BRANCH  21  22
HETATM   22  O4  UNL     1      35.933  13.986  -9.823  1.00  0.00    -0.321 OA
BRANCH  22  23
HETATM   23  C19 UNL     1      34.998  13.138  -9.267  1.00  0.00     0.254 C 
HETATM   24  C20 UNL     1      34.457  13.279  -7.907  1.00  0.00     0.126 C 
HETATM   25  O5  UNL     1      34.586  12.175  -9.996  1.00  0.00    -0.266 OA
ENDBRANCH  22  23
ENDBRANCH  21  22
ENDBRANCH  14  21
BRANCH  10  26
HETATM   26  O3  UNL     1      36.791  16.876 -12.797  1.00  0.00    -0.377 OA
ATOM     27  H3  UNL     1      36.729  15.929 -12.852  1.00  0.00     0.211 HD
ENDBRANCH  10  26
BRANCH  19  28
HETATM   28  C24 UNL     1      38.672  18.224  -7.012  1.00  0.00     0.080 A 
HETATM   29  C25 UNL     1      38.431  19.641  -6.607  1.00  0.00     0.027 A 
HETATM   30  C26 UNL     1      38.338  18.570  -5.550  1.00  0.00     0.027 A 
ENDBRANCH  19  28
BRANCH   1  31
HETATM   31  C5  UNL     1      38.283  19.245 -15.672  1.00  0.00     0.013 C 
HETATM   32  C4  UNL     1      38.400  20.383 -16.294  1.00  0.00     0.001 C 
BRANCH  32  33
HETATM   33  C3  UNL     1      38.463  20.345 -17.796  1.00  0.00    -0.004 C 
HETATM   34  C2  UNL     1      37.512  19.723 -18.450  1.00  0.00    -0.031 C 
HETATM   35  C1  UNL     1      37.467  19.620 -19.926  1.00  0.00     0.036 C 
ENDBRANCH  32  33
ENDBRANCH   1  31
TORSDOF 7
ENDMDL
MODEL 4
REMARK VINA RESULT: -7.100860998      4.227      8.967
REMARK  7 active torsions:
REMARK  status: ('A' for Active; 'I' for Inactive)
REMARK    1  A    between atoms: C3_3  and  C4_4 
REMARK    2  A    between atoms: C5_5  and  C6_6 
REMARK    3  A    between atoms: C13_15  and  O3_16 
REMARK    4  A    between atoms: C16_21  and  C18_23 
REMARK    5  A    between atoms: C18_23  and  O4_24 
REMARK    6  A    between atoms: O4_24  and  C19_25 
REMARK    7  A    between atoms: N1_31  and  C24_32 
ROOT
HETATM    1  C6  UNL     1      32.769  12.273  -9.273  1.00  0.00    -0.015 C 
HETATM    2  C7  UNL     1      33.602  12.021  -8.239  1.00  0.00     0.033 C 
HETATM    3  C8  UNL     1      34.689  12.743  -7.533  1.00  0.00     0.171 A 
HETATM    4  O1  UNL     1      34.444  12.550  -6.193  1.00  0.00    -0.334 OA
HETATM    5  C9  UNL     1      34.223  13.831  -6.527  1.00  0.00     0.305 A 
HETATM    6  O2  UNL     1      33.781  14.396  -7.701  1.00  0.00    -0.335 OA
HETATM    7  C10 UNL     1      35.036  13.954  -8.187  1.00  0.00     0.167 A 
HETATM    8  C11 UNL     1      36.125  14.858  -8.082  1.00  0.00    -0.014 A 
HETATM    9  C12 UNL     1      36.278  14.838  -9.390  1.00  0.00    -0.019 A 
HETATM   10  C13 UNL     1      35.202  13.923  -9.664  1.00  0.00     0.141 A 
HETATM   11  C14 UNL     1      33.887  14.365 -10.175  1.00  0.00     0.043 C 
HETATM   12  C15 UNL     1      32.812  13.559  -9.959  1.00  0.00     0.043 C 
HETATM   13 CL1  UNL     1      31.309  14.184 -10.522  1.00  0.00    -0.084 Cl
HETATM   14  C16 UNL     1      37.352  15.643 -10.011  1.00  0.00     0.030 C 
HETATM   15  C17 UNL     1      37.061  15.869 -11.509  1.00  0.00     0.025 C 
HETATM   16  C21 UNL     1      37.504  16.957  -9.349  1.00  0.00     0.034 C 
HETATM   17  C22 UNL     1      38.860  17.611  -9.689  1.00  0.00     0.039 C 
HETATM   18  C23 UNL     1      36.484  17.932  -9.958  1.00  0.00     0.039 C 
HETATM   19  N1  UNL     1      37.403  16.943  -7.951  1.00  0.00    -0.395 N 
HETATM   20  C27 UNL     1      37.068  15.712  -7.325  1.00  0.00     0.156 C 
ENDROOT
BRANCH  14  21
HETATM   21  C18 UNL     1      38.646  14.818 -10.037  1.00  0.00     0.195 C 
BRANCH  21  22
HETATM   22  O4  UNL     1      39.062  14.647 -11.403  1.00  0.00    -0.321 OA
BRANCH  22  23
HETATM   23  C19 UNL     1      40.394  14.800 -11.729  1.00  0.00     0.254 C 
HETATM   24  C20 UNL     1      41.452  15.120 -10.760  1.00  0.00     0.126 C 
HETATM   25  O5  UNL     1      40.710  14.647 -12.956  1.00  0.00    -0.266 OA
ENDBRANCH  22  23
ENDBRANCH  21  22
ENDBRANCH  14  21
BRANCH  10  26
HETATM   26  O3  UNL     1      35.533  12.685 -10.216  1.00  0.00    -0.377 OA
ATOM     27  H3  UNL     1      35.144  11.926  -9.798  1.00  0.00     0.211 HD
ENDBRANCH  10  26
BRANCH  19  28
HETATM   28  C24 UNL     1      36.750  18.092  -7.369  1.00  0.00     0.080 A 
HETATM   29  C25 UNL     1      36.421  18.044  -5.913  1.00  0.00     0.027 A 
HETATM   30  C26 UNL     1      37.597  18.879  -6.353  1.00  0.00     0.027 A 
ENDBRANCH  19  28
BRANCH   1  31
HETATM   31  C5  UNL     1      31.834  11.244  -9.631  1.00  0.00     0.013 C 
HETATM   32  C4  UNL     1      31.440  10.901 -10.824  1.00  0.00     0.001 C 
BRANCH  32  33
HETATM   33  C3  UNL     1      30.439   9.783 -10.927  1.00  0.00    -0.004 C 
HETATM   34  C2  UNL     1      29.295  10.017 -11.523  1.00  0.00    -0.031 C 
HETATM   35  C1  UNL     1      28.234   8.997 -11.685  1.00  0.00     0.036 C 
ENDBRANCH  32  33
ENDBRANCH   1  31
TORSDOF 7
ENDMDL
MODEL 5
REMARK VINA RESULT: -7.066249105      4.605     10.103
REMARK  7 active torsions:
REMARK  status: ('A' for Active; 'I' for Inactive)
REMARK    1  A    between atoms: C3_3  and  C4_4 
REMARK    2  A    between atoms: C5_5  and  C6_6 
REMARK    3  A    between atoms: C13_15  and  O3_16 
REMARK    4  A    between atoms: C16_21  and  C18_23 
REMARK    5  A    between atoms: C18_23  and  O4_24 
REMARK    6  A    between atoms: O4_24  and  C19_25 
REMARK    7  A    between atoms: N1_31  and  C24_32 
ROOT
HETATM    1  C6  UNL     1      34.472  13.855  -7.887  1.00  0.00    -0.015 C 
HETATM    2  C7  UNL     1      34.987  14.533  -8.937  1.00  0.00     0.033 C 
HETATM    3  C8  UNL     1      36.274  15.195  -9.263  1.00  0.00     0.171 A 
HETATM    4  O1  UNL     1      36.576  14.795 -10.543  1.00  0.00    -0.334 OA
HETATM    5  C9  UNL     1      37.430  14.241  -9.670  1.00  0.00     0.305 A 
HETATM    6  O2  UNL     1      37.261  13.854  -8.361  1.00  0.00    -0.335 OA
HETATM    7  C10 UNL     1      37.144  15.248  -8.142  1.00  0.00     0.167 A 
HETATM    8  C11 UNL     1      38.337  15.959  -7.849  1.00  0.00    -0.014 A 
HETATM    9  C12 UNL     1      37.838  16.335  -6.690  1.00  0.00    -0.019 A 
HETATM   10  C13 UNL     1      36.571  15.669  -6.837  1.00  0.00     0.141 A 
HETATM   11  C14 UNL     1      36.256  14.392  -6.162  1.00  0.00     0.043 C 
HETATM   12  C15 UNL     1      35.282  13.607  -6.700  1.00  0.00     0.043 C 
HETATM   13 CL1  UNL     1      35.031  12.105  -5.894  1.00  0.00    -0.084 Cl
HETATM   14  C16 UNL     1      38.643  17.189  -5.791  1.00  0.00     0.030 C 
HETATM   15  C17 UNL     1      38.111  17.106  -4.345  1.00  0.00     0.025 C 
HETATM   16  C21 UNL     1      40.071  16.799  -5.799  1.00  0.00     0.034 C 
HETATM   17  C22 UNL     1      40.968  17.915  -5.224  1.00  0.00     0.039 C 
HETATM   18  C23 UNL     1      40.268  15.645  -4.804  1.00  0.00     0.039 C 
HETATM   19  N1  UNL     1      40.598  16.467  -7.055  1.00  0.00    -0.395 N 
HETATM   20  C27 UNL     1      39.704  16.436  -8.160  1.00  0.00     0.156 C 
ENDROOT
BRANCH  14  21
HETATM   21  C18 UNL     1      38.410  18.662  -6.155  1.00  0.00     0.195 C 
BRANCH  21  22
HETATM   22  O4  UNL     1      37.091  18.800  -6.713  1.00  0.00    -0.321 OA
BRANCH  22  23
HETATM   23  C19 UNL     1      36.909  19.578  -7.838  1.00  0.00     0.254 C 
HETATM   24  C20 UNL     1      36.789  19.045  -9.203  1.00  0.00     0.126 C 
HETATM   25  O5  UNL     1      36.843  20.840  -7.662  1.00  0.00    -0.266 OA
ENDBRANCH  22  23
ENDBRANCH  21  22
ENDBRANCH  14  21
BRANCH  10  26
HETATM   26  O3  UNL     1      35.427  16.466  -6.900  1.00  0.00    -0.377 OA
ATOM     27  H3  UNL     1      34.926  16.539  -6.096  1.00  0.00     0.211 HD
ENDBRANCH  10  26
BRANCH  19  28
HETATM   28  C24 UNL     1      41.563  15.393  -7.054  1.00  0.00     0.080 A 
HETATM   29  C25 UNL     1      42.163  14.993  -8.361  1.00  0.00     0.027 A 
HETATM   30  C26 UNL     1      43.002  15.808  -7.409  1.00  0.00     0.027 A 
ENDBRANCH  19  28
BRANCH   1  31
HETATM   31  C5  UNL     1      33.126  13.372  -8.011  1.00  0.00     0.013 C 
HETATM   32  C4  UNL     1      32.172  13.426  -7.126  1.00  0.00     0.001 C 
BRANCH  32  33
HETATM   33  C3  UNL     1      30.841  12.837  -7.508  1.00  0.00    -0.004 C 
HETATM   34  C2  UNL     1      30.272  13.238  -8.619  1.00  0.00    -0.031 C 
HETATM   35  C1  UNL     1      28.966  12.730  -9.098  1.00  0.00     0.036 C 
ENDBRANCH  32  33
ENDBRANCH   1  31
TORSDOF 7
ENDMDL
