MODEL 1
REMARK VINA RESULT: -8.898232920      0.000      0.000
REMARK  7 active torsions:
REMARK  status: ('A' for Active; 'I' for Inactive)
REMARK    1  A    between atoms: C2_2  and  N1_3 
REMARK    2  A    between atoms: N1_3  and  C3_4 
REMARK    3  A    between atoms: N1_3  and  C8_11 
REMARK    4  A    between atoms: C3_4  and  C4_5 
REMARK       I    between atoms: C4_5  and  N2_7 
REMARK    5  A    between atoms: C8_11  and  N3_13 
REMARK    6  A    between atoms: N3_13  and  C9_15 
REMARK    7  A    between atoms: C9_15  and  C10_16 
ROOT
HETATM    1  N3  UNL     1     114.416 127.695 182.169  1.00  0.00    -0.366 N 
ATOM      2  H3  UNL     1     113.755 128.425 182.435  1.00  0.00     0.161 HD
ENDROOT
BRANCH   1   3
HETATM    3  C8  UNL     1     115.398 127.946 181.182  1.00  0.00     0.170 C 
HETATM    4  S1  UNL     1     116.542 129.131 181.454  1.00  0.00    -0.041 SA
BRANCH   3   5
HETATM    5  N1  UNL     1     115.518 127.276 179.944  1.00  0.00    -0.350 N 
BRANCH   5   6
HETATM    6  C2  UNL     1     116.640 126.412 179.692  1.00  0.00     0.121 C 
HETATM    7  C1  UNL     1     116.095 124.975 179.748  1.00  0.00     0.026 C 
ENDBRANCH   5   6
BRANCH   5   8
HETATM    8  C3  UNL     1     114.544 127.431 178.891  1.00  0.00     0.228 C 
BRANCH   8   9
HETATM    9  C4  UNL     1     114.503 128.767 178.288  1.00  0.00     0.237 C 
HETATM   10  O1  UNL     1     113.649 129.598 178.653  1.00  0.00    -0.272 OA
HETATM   11  N2  UNL     1     115.428 129.119 177.287  1.00  0.00    -0.351 N 
HETATM   12  C5  UNL     1     115.729 130.288 176.444  1.00  0.00     0.127 C 
HETATM   13  C7  UNL     1     116.550 128.473 176.612  1.00  0.00     0.127 C 
HETATM   14  C6  UNL     1     116.145 129.271 175.377  1.00  0.00     0.040 C 
ENDBRANCH   8   9
ENDBRANCH   5   8
ENDBRANCH   3   5
ENDBRANCH   1   3
BRANCH   1  15
HETATM   15  C9  UNL     1     114.362 126.411 182.785  1.00  0.00     0.131 C 
BRANCH  15  16
HETATM   16  C10 UNL     1     112.998 125.824 182.898  1.00  0.00    -0.023 C 
HETATM   17  C11 UNL     1     113.086 124.490 183.651  1.00  0.00     0.015 C 
HETATM   18  C12 UNL     1     111.704 123.979 183.975  1.00  0.00    -0.013 C 
HETATM   19  C13 UNL     1     110.895 123.800 182.701  1.00  0.00     0.009 C 
HETATM   20  C17 UNL     1     110.943 124.975 184.838  1.00  0.00     0.009 C 
HETATM   21  C14 UNL     1     110.888 125.083 181.910  1.00  0.00    -0.013 C 
HETATM   22  C15 UNL     1     110.115 126.101 182.755  1.00  0.00     0.009 C 
HETATM   23  C19 UNL     1     112.295 125.559 181.612  1.00  0.00     0.015 C 
HETATM   24  C16 UNL     1     110.819 126.270 184.079  1.00  0.00    -0.013 C 
HETATM   25  C18 UNL     1     112.201 126.783 183.795  1.00  0.00     0.015 C 
ENDBRANCH  15  16
ENDBRANCH   1  15
TORSDOF 7
ENDMDL
MODEL 2
REMARK VINA RESULT: -8.855319371      2.209      6.783
REMARK  7 active torsions:
REMARK  status: ('A' for Active; 'I' for Inactive)
REMARK    1  A    between atoms: C2_2  and  N1_3 
REMARK    2  A    between atoms: N1_3  and  C3_4 
REMARK    3  A    between atoms: N1_3  and  C8_11 
REMARK    4  A    between atoms: C3_4  and  C4_5 
REMARK       I    between atoms: C4_5  and  N2_7 
REMARK    5  A    between atoms: C8_11  and  N3_13 
REMARK    6  A    between atoms: N3_13  and  C9_15 
REMARK    7  A    between atoms: C9_15  and  C10_16 
ROOT
HETATM    1  N3  UNL     1     114.155 129.673 178.827  1.00  0.00    -0.366 N 
ATOM      2  H3  UNL     1     113.292 129.154 178.662  1.00  0.00     0.161 HD
ENDROOT
BRANCH   1   3
HETATM    3  C8  UNL     1     114.419 130.237 180.098  1.00  0.00     0.170 C 
HETATM    4  S1  UNL     1     113.530 131.556 180.604  1.00  0.00    -0.041 SA
BRANCH   3   5
HETATM    5  N1  UNL     1     115.392 129.786 181.017  1.00  0.00    -0.350 N 
BRANCH   5   6
HETATM    6  C2  UNL     1     116.355 130.705 181.563  1.00  0.00     0.121 C 
HETATM    7  C1  UNL     1     117.543 129.850 182.037  1.00  0.00     0.026 C 
ENDBRANCH   5   6
BRANCH   5   8
HETATM    8  C3  UNL     1     115.471 128.408 181.436  1.00  0.00     0.228 C 
BRANCH   8   9
HETATM    9  C4  UNL     1     114.462 128.009 182.422  1.00  0.00     0.237 C 
HETATM   10  O1  UNL     1     113.993 128.847 183.218  1.00  0.00    -0.272 OA
HETATM   11  N2  UNL     1     114.016 126.675 182.479  1.00  0.00    -0.351 N 
HETATM   12  C5  UNL     1     113.071 125.875 183.275  1.00  0.00     0.127 C 
HETATM   13  C7  UNL     1     114.288 125.441 181.749  1.00  0.00     0.127 C 
HETATM   14  C6  UNL     1     114.054 124.718 183.072  1.00  0.00     0.040 C 
ENDBRANCH   8   9
ENDBRANCH   5   8
ENDBRANCH   3   5
ENDBRANCH   1   3
BRANCH   1  15
HETATM   15  C9  UNL     1     115.108 129.840 177.781  1.00  0.00     0.131 C 
BRANCH  15  16
HETATM   16  C10 UNL     1     115.820 128.598 177.373  1.00  0.00    -0.023 C 
HETATM   17  C11 UNL     1     117.041 128.396 178.278  1.00  0.00     0.015 C 
HETATM   18  C12 UNL     1     117.655 127.040 178.037  1.00  0.00    -0.013 C 
HETATM   19  C13 UNL     1     118.064 126.897 176.580  1.00  0.00     0.009 C 
HETATM   20  C17 UNL     1     116.652 125.929 178.319  1.00  0.00     0.009 C 
HETATM   21  C14 UNL     1     116.888 127.189 175.684  1.00  0.00    -0.013 C 
HETATM   22  C15 UNL     1     115.866 126.075 175.942  1.00  0.00     0.009 C 
HETATM   23  C19 UNL     1     116.303 128.558 175.965  1.00  0.00     0.015 C 
HETATM   24  C16 UNL     1     115.473 126.103 177.398  1.00  0.00    -0.013 C 
HETATM   25  C18 UNL     1     114.853 127.442 177.675  1.00  0.00     0.015 C 
ENDBRANCH  15  16
ENDBRANCH   1  15
TORSDOF 7
ENDMDL
MODEL 3
REMARK VINA RESULT: -8.847689528      1.723      2.651
REMARK  7 active torsions:
REMARK  status: ('A' for Active; 'I' for Inactive)
REMARK    1  A    between atoms: C2_2  and  N1_3 
REMARK    2  A    between atoms: N1_3  and  C3_4 
REMARK    3  A    between atoms: N1_3  and  C8_11 
REMARK    4  A    between atoms: C3_4  and  C4_5 
REMARK       I    between atoms: C4_5  and  N2_7 
REMARK    5  A    between atoms: C8_11  and  N3_13 
REMARK    6  A    between atoms: N3_13  and  C9_15 
REMARK    7  A    between atoms: C9_15  and  C10_16 
ROOT
HETATM    1  N3  UNL     1     114.084 126.546 181.035  1.00  0.00    -0.366 N 
ATOM      2  H3  UNL     1     113.282 126.789 180.453  1.00  0.00     0.161 HD
ENDROOT
BRANCH   1   3
HETATM    3  C8  UNL     1     115.285 127.288 180.944  1.00  0.00     0.170 C 
HETATM    4  S1  UNL     1     115.904 128.007 182.319  1.00  0.00    -0.041 SA
BRANCH   3   5
HETATM    5  N1  UNL     1     116.044 127.496 179.771  1.00  0.00    -0.350 N 
BRANCH   5   6
HETATM    6  C2  UNL     1     116.903 126.456 179.270  1.00  0.00     0.121 C 
HETATM    7  C1  UNL     1     118.007 127.164 178.465  1.00  0.00     0.026 C 
ENDBRANCH   5   6
BRANCH   5   8
HETATM    8  C3  UNL     1     116.002 128.739 179.040  1.00  0.00     0.228 C 
BRANCH   8   9
HETATM    9  C4  UNL     1     114.682 129.375 178.992  1.00  0.00     0.237 C 
HETATM   10  O1  UNL     1     113.767 128.878 178.305  1.00  0.00    -0.272 OA
HETATM   11  N2  UNL     1     114.439 130.556 179.718  1.00  0.00    -0.351 N 
HETATM   12  C5  UNL     1     113.321 131.489 179.940  1.00  0.00     0.127 C 
HETATM   13  C7  UNL     1     115.200 131.416 180.618  1.00  0.00     0.127 C 
HETATM   14  C6  UNL     1     114.395 132.576 180.039  1.00  0.00     0.040 C 
ENDBRANCH   8   9
ENDBRANCH   5   8
ENDBRANCH   3   5
ENDBRANCH   1   3
BRANCH   1  15
HETATM   15  C9  UNL     1     114.010 125.454 181.948  1.00  0.00     0.131 C 
BRANCH  15  16
HETATM   16  C10 UNL     1     112.746 125.373 182.731  1.00  0.00    -0.023 C 
HETATM   17  C11 UNL     1     112.604 126.636 183.590  1.00  0.00     0.015 C 
HETATM   18  C12 UNL     1     111.237 126.688 184.224  1.00  0.00    -0.013 C 
HETATM   19  C13 UNL     1     111.004 125.454 185.080  1.00  0.00     0.009 C 
HETATM   20  C17 UNL     1     110.144 126.695 183.165  1.00  0.00     0.009 C 
HETATM   21  C14 UNL     1     111.238 124.209 184.263  1.00  0.00    -0.013 C 
HETATM   22  C15 UNL     1     110.140 124.187 183.194  1.00  0.00     0.009 C 
HETATM   23  C19 UNL     1     112.620 124.203 183.644  1.00  0.00     0.015 C 
HETATM   24  C16 UNL     1     110.257 125.433 182.350  1.00  0.00    -0.013 C 
HETATM   25  C18 UNL     1     111.609 125.414 181.698  1.00  0.00     0.015 C 
ENDBRANCH  15  16
ENDBRANCH   1  15
TORSDOF 7
ENDMDL
MODEL 4
REMARK VINA RESULT: -8.784459377      2.231      3.659
REMARK  7 active torsions:
REMARK  status: ('A' for Active; 'I' for Inactive)
REMARK    1  A    between atoms: C2_2  and  N1_3 
REMARK    2  A    between atoms: N1_3  and  C3_4 
REMARK    3  A    between atoms: N1_3  and  C8_11 
REMARK    4  A    between atoms: C3_4  and  C4_5 
REMARK       I    between atoms: C4_5  and  N2_7 
REMARK    5  A    between atoms: C8_11  and  N3_13 
REMARK    6  A    between atoms: N3_13  and  C9_15 
REMARK    7  A    between atoms: C9_15  and  C10_16 
ROOT
HETATM    1  N3  UNL     1     113.673 126.975 178.444  1.00  0.00    -0.366 N 
ATOM      2  H3  UNL     1     113.048 127.782 178.451  1.00  0.00     0.161 HD
ENDROOT
BRANCH   1   3
HETATM    3  C8  UNL     1     114.879 127.010 177.706  1.00  0.00     0.170 C 
HETATM    4  S1  UNL     1     115.034 126.044 176.353  1.00  0.00    -0.041 SA
BRANCH   3   5
HETATM    5  N1  UNL     1     116.009 127.803 178.004  1.00  0.00    -0.350 N 
BRANCH   5   6
HETATM    6  C2  UNL     1     117.023 127.314 178.901  1.00  0.00     0.121 C 
HETATM    7  C1  UNL     1     118.247 126.989 178.027  1.00  0.00     0.026 C 
ENDBRANCH   5   6
BRANCH   5   8
HETATM    8  C3  UNL     1     116.192 129.120 177.443  1.00  0.00     0.228 C 
BRANCH   8   9
HETATM    9  C4  UNL     1     115.088 130.051 177.696  1.00  0.00     0.237 C 
HETATM   10  O1  UNL     1     114.351 130.424 176.762  1.00  0.00    -0.272 OA
HETATM   11  N2  UNL     1     114.855 130.534 178.998  1.00  0.00    -0.351 N 
HETATM   12  C5  UNL     1     113.913 131.444 179.670  1.00  0.00     0.127 C 
HETATM   13  C7  UNL     1     115.451 130.342 180.316  1.00  0.00     0.127 C 
HETATM   14  C6  UNL     1     115.085 131.798 180.590  1.00  0.00     0.040 C 
ENDBRANCH   8   9
ENDBRANCH   5   8
ENDBRANCH   3   5
ENDBRANCH   1   3
BRANCH   1  15
HETATM   15  C9  UNL     1     113.341 125.799 179.178  1.00  0.00     0.131 C 
BRANCH  15  16
HETATM   16  C10 UNL     1     113.747 125.814 180.611  1.00  0.00    -0.023 C 
HETATM   17  C11 UNL     1     114.023 127.261 181.040  1.00  0.00     0.015 C 
HETATM   18  C12 UNL     1     114.221 127.337 182.533  1.00  0.00    -0.013 C 
HETATM   19  C13 UNL     1     115.374 126.443 182.959  1.00  0.00     0.009 C 
HETATM   20  C17 UNL     1     112.987 126.838 183.272  1.00  0.00     0.009 C 
HETATM   21  C14 UNL     1     115.152 125.040 182.455  1.00  0.00    -0.013 C 
HETATM   22  C15 UNL     1     113.918 124.510 183.196  1.00  0.00     0.009 C 
HETATM   23  C19 UNL     1     114.955 125.014 180.954  1.00  0.00     0.015 C 
HETATM   24  C16 UNL     1     112.743 125.403 182.884  1.00  0.00    -0.013 C 
HETATM   25  C18 UNL     1     112.513 125.350 181.401  1.00  0.00     0.015 C 
ENDBRANCH  15  16
ENDBRANCH   1  15
TORSDOF 7
ENDMDL
MODEL 5
REMARK VINA RESULT: -8.776615556      1.083      1.839
REMARK  7 active torsions:
REMARK  status: ('A' for Active; 'I' for Inactive)
REMARK    1  A    between atoms: C2_2  and  N1_3 
REMARK    2  A    between atoms: N1_3  and  C3_4 
REMARK    3  A    between atoms: N1_3  and  C8_11 
REMARK    4  A    between atoms: C3_4  and  C4_5 
REMARK       I    between atoms: C4_5  and  N2_7 
REMARK    5  A    between atoms: C8_11  and  N3_13 
REMARK    6  A    between atoms: N3_13  and  C9_15 
REMARK    7  A    between atoms: C9_15  and  C10_16 
ROOT
HETATM    1  N3  UNL     1     114.032 126.466 180.960  1.00  0.00    -0.366 N 
ATOM      2  H3  UNL     1     113.233 126.618 180.343  1.00  0.00     0.161 HD
ENDROOT
BRANCH   1   3
HETATM    3  C8  UNL     1     115.185 127.278 180.851  1.00  0.00     0.170 C 
HETATM    4  S1  UNL     1     115.855 127.931 182.234  1.00  0.00    -0.041 SA
BRANCH   3   5
HETATM    5  N1  UNL     1     115.855 127.608 179.652  1.00  0.00    -0.350 N 
BRANCH   5   6
HETATM    6  C2  UNL     1     117.245 127.978 179.676  1.00  0.00     0.121 C 
HETATM    7  C1  UNL     1     117.923 127.167 178.558  1.00  0.00     0.026 C 
ENDBRANCH   5   6
BRANCH   5   8
HETATM    8  C3  UNL     1     115.186 127.600 178.374  1.00  0.00     0.228 C 
BRANCH   8   9
HETATM    9  C4  UNL     1     114.566 128.876 178.000  1.00  0.00     0.237 C 
HETATM   10  O1  UNL     1     113.474 129.216 178.498  1.00  0.00    -0.272 OA
HETATM   11  N2  UNL     1     115.198 129.725 177.073  1.00  0.00    -0.351 N 
HETATM   12  C5  UNL     1     114.941 131.027 176.436  1.00  0.00     0.127 C 
HETATM   13  C7  UNL     1     116.438 129.708 176.302  1.00  0.00     0.127 C 
HETATM   14  C6  UNL     1     115.662 130.447 175.215  1.00  0.00     0.040 C 
ENDBRANCH   8   9
ENDBRANCH   5   8
ENDBRANCH   3   5
ENDBRANCH   1   3
BRANCH   1  15
HETATM   15  C9  UNL     1     113.999 125.433 181.942  1.00  0.00     0.131 C 
BRANCH  15  16
HETATM   16  C10 UNL     1     112.739 125.353 182.731  1.00  0.00    -0.023 C 
HETATM   17  C11 UNL     1     112.603 126.616 183.591  1.00  0.00     0.015 C 
HETATM   18  C12 UNL     1     111.239 126.670 184.233  1.00  0.00    -0.013 C 
HETATM   19  C13 UNL     1     111.010 125.435 185.089  1.00  0.00     0.009 C 
HETATM   20  C17 UNL     1     110.141 126.679 183.179  1.00  0.00     0.009 C 
HETATM   21  C14 UNL     1     111.237 124.190 184.271  1.00  0.00    -0.013 C 
HETATM   22  C15 UNL     1     110.134 124.171 183.207  1.00  0.00     0.009 C 
HETATM   23  C19 UNL     1     112.616 124.183 183.644  1.00  0.00     0.015 C 
HETATM   24  C16 UNL     1     110.248 125.417 182.364  1.00  0.00    -0.013 C 
HETATM   25  C18 UNL     1     111.597 125.396 181.704  1.00  0.00     0.015 C 
ENDBRANCH  15  16
ENDBRANCH   1  15
TORSDOF 7
ENDMDL
