MODEL 1
REMARK VINA RESULT: -5.983582267      0.000      0.000
REMARK  3 active torsions:
REMARK  status: ('A' for Active; 'I' for Inactive)
REMARK    1  A    between atoms: C2_2  and  O1_5 
REMARK    2  A    between atoms: O1_5  and  C5_6 
REMARK    3  A    between atoms: C5_6  and  C6_8 
ROOT
HETATM    1  C6  UNL     1      14.232 -42.124 -43.843  1.00  0.00     0.215 C 
HETATM    2  S1  UNL     1      14.902 -40.762 -42.836  1.00  0.00    -0.070 SA
HETATM    3  S2  UNL     1      14.226 -41.162 -40.828  1.00  0.00    -0.021 SA
HETATM    4  C7  UNL     1      12.584 -41.798 -41.093  1.00  0.00     0.146 C 
HETATM    5  N1  UNL     1      11.690 -41.569 -40.216  1.00  0.00    -0.379 N 
ATOM      6  H11 UNL     1      10.749 -41.934 -40.368  1.00  0.00     0.158 HD
ATOM      7  H12 UNL     1      11.843 -41.038 -39.359  1.00  0.00     0.158 HD
HETATM    8  N2  UNL     1      12.372 -42.530 -42.278  1.00  0.00    -0.336 N 
ATOM      9  H2  UNL     1      11.421 -42.646 -42.628  1.00  0.00     0.164 HD
HETATM   10  C8  UNL     1      13.469 -43.122 -43.009  1.00  0.00     0.221 C 
HETATM   11  C9  UNL     1      12.931 -44.198 -43.881  1.00  0.00     0.065 C 
HETATM   12  C10 UNL     1      12.915 -45.401 -42.953  1.00  0.00     0.032 C 
HETATM   13  C11 UNL     1      14.148 -45.164 -42.123  1.00  0.00     0.235 C 
HETATM   14  N3  UNL     1      14.354 -43.745 -42.043  1.00  0.00    -0.047 N 
ATOM     15  H31 UNL     1      14.234 -43.378 -41.099  1.00  0.00     0.280 HD
ATOM     16  H32 UNL     1      15.330 -43.477 -42.166  1.00  0.00     0.280 HD
ENDROOT
BRANCH   1  17
HETATM   17  C5  UNL     1      13.491 -41.648 -45.012  1.00  0.00     0.278 C 
HETATM   18  O2  UNL     1      12.386 -41.011 -44.910  1.00  0.00    -0.264 OA
BRANCH  17  19
HETATM   19  O1  UNL     1      13.901 -41.831 -46.332  1.00  0.00    -0.310 OA
BRANCH  19  20
HETATM   20  C2  UNL     1      14.804 -40.967 -46.985  1.00  0.00     0.060 C 
HETATM   21  C1  UNL     1      16.175 -41.609 -46.935  1.00  0.00     0.045 C 
HETATM   22  C3  UNL     1      14.898 -39.611 -46.339  1.00  0.00     0.045 C 
HETATM   23  C4  UNL     1      14.402 -40.770 -48.438  1.00  0.00     0.045 C 
ENDBRANCH  19  20
ENDBRANCH  17  19
ENDBRANCH   1  17
TORSDOF 3
ENDMDL
MODEL 2
REMARK VINA RESULT: -5.434111747      2.300      4.683
REMARK  3 active torsions:
REMARK  status: ('A' for Active; 'I' for Inactive)
REMARK    1  A    between atoms: C2_2  and  O1_5 
REMARK    2  A    between atoms: O1_5  and  C5_6 
REMARK    3  A    between atoms: C5_6  and  C6_8 
ROOT
HETATM    1  C6  UNL     1      12.904 -41.268 -44.905  1.00  0.00     0.215 C 
HETATM    2  S1  UNL     1      11.840 -40.591 -43.590  1.00  0.00    -0.070 SA
HETATM    3  S2  UNL     1      13.127 -39.305 -42.433  1.00  0.00    -0.021 SA
HETATM    4  C7  UNL     1      14.664 -40.202 -42.426  1.00  0.00     0.146 C 
HETATM    5  N1  UNL     1      15.423 -40.109 -41.407  1.00  0.00    -0.379 N 
ATOM      6  H11 UNL     1      16.305 -40.623 -41.403  1.00  0.00     0.158 HD
ATOM      7  H12 UNL     1      15.213 -39.551 -40.579  1.00  0.00     0.158 HD
HETATM    8  N2  UNL     1      14.953 -40.973 -43.569  1.00  0.00    -0.336 N 
ATOM      9  H2  UNL     1      15.636 -41.728 -43.501  1.00  0.00     0.164 HD
HETATM   10  C8  UNL     1      14.306 -40.720 -44.837  1.00  0.00     0.221 C 
HETATM   11  C9  UNL     1      15.132 -41.318 -45.917  1.00  0.00     0.065 C 
HETATM   12  C10 UNL     1      16.132 -40.214 -46.221  1.00  0.00     0.032 C 
HETATM   13  C11 UNL     1      15.294 -38.980 -46.024  1.00  0.00     0.235 C 
HETATM   14  N3  UNL     1      14.292 -39.284 -45.042  1.00  0.00    -0.047 N 
ATOM     15  H31 UNL     1      14.409 -38.757 -44.177  1.00  0.00     0.280 HD
ATOM     16  H32 UNL     1      13.369 -38.926 -45.291  1.00  0.00     0.280 HD
ENDROOT
BRANCH   1  17
HETATM   17  C5  UNL     1      12.847 -42.729 -44.978  1.00  0.00     0.278 C 
HETATM   18  O2  UNL     1      12.053 -43.346 -45.769  1.00  0.00    -0.264 OA
BRANCH  17  19
HETATM   19  O1  UNL     1      13.637 -43.586 -44.211  1.00  0.00    -0.310 OA
BRANCH  19  20
HETATM   20  C2  UNL     1      13.155 -44.268 -43.076  1.00  0.00     0.060 C 
HETATM   21  C1  UNL     1      13.360 -45.752 -43.307  1.00  0.00     0.045 C 
HETATM   22  C3  UNL     1      11.690 -44.033 -42.821  1.00  0.00     0.045 C 
HETATM   23  C4  UNL     1      13.923 -43.851 -41.832  1.00  0.00     0.045 C 
ENDBRANCH  19  20
ENDBRANCH  17  19
ENDBRANCH   1  17
TORSDOF 3
ENDMDL
MODEL 3
REMARK VINA RESULT: -5.312354364      3.850      6.037
REMARK  3 active torsions:
REMARK  status: ('A' for Active; 'I' for Inactive)
REMARK    1  A    between atoms: C2_2  and  O1_5 
REMARK    2  A    between atoms: O1_5  and  C5_6 
REMARK    3  A    between atoms: C5_6  and  C6_8 
ROOT
HETATM    1  C6  UNL     1      14.176 -39.252 -42.946  1.00  0.00     0.215 C 
HETATM    2  S1  UNL     1      13.340 -37.701 -42.482  1.00  0.00    -0.070 SA
HETATM    3  S2  UNL     1      14.236 -36.186 -43.728  1.00  0.00    -0.021 SA
HETATM    4  C7  UNL     1      15.942 -36.691 -43.784  1.00  0.00     0.146 C 
HETATM    5  N1  UNL     1      16.843 -35.795 -43.873  1.00  0.00    -0.379 N 
ATOM      6  H11 UNL     1      17.821 -36.085 -43.905  1.00  0.00     0.158 HD
ATOM      7  H12 UNL     1      16.659 -34.793 -43.914  1.00  0.00     0.158 HD
HETATM    8  N2  UNL     1      16.195 -38.076 -43.726  1.00  0.00    -0.336 N 
ATOM      9  H2  UNL     1      17.121 -38.401 -43.446  1.00  0.00     0.164 HD
HETATM   10  C8  UNL     1      15.176 -39.047 -44.054  1.00  0.00     0.221 C 
HETATM   11  C9  UNL     1      15.838 -40.336 -44.379  1.00  0.00     0.065 C 
HETATM   12  C10 UNL     1      16.154 -40.185 -45.858  1.00  0.00     0.032 C 
HETATM   13  C11 UNL     1      14.968 -39.397 -46.345  1.00  0.00     0.235 C 
HETATM   14  N3  UNL     1      14.504 -38.586 -45.255  1.00  0.00    -0.047 N 
ATOM     15  H31 UNL     1      14.626 -37.587 -45.421  1.00  0.00     0.280 HD
ATOM     16  H32 UNL     1      13.488 -38.582 -45.166  1.00  0.00     0.280 HD
ENDROOT
BRANCH   1  17
HETATM   17  C5  UNL     1      14.719 -39.966 -41.790  1.00  0.00     0.278 C 
HETATM   18  O2  UNL     1      15.362 -39.372 -40.857  1.00  0.00    -0.264 OA
BRANCH  17  19
HETATM   19  O1  UNL     1      14.595 -41.340 -41.584  1.00  0.00    -0.310 OA
BRANCH  19  20
HETATM   20  C2  UNL     1      13.521 -41.920 -40.881  1.00  0.00     0.060 C 
HETATM   21  C1  UNL     1      13.076 -43.149 -41.648  1.00  0.00     0.045 C 
HETATM   22  C3  UNL     1      12.337 -41.001 -40.745  1.00  0.00     0.045 C 
HETATM   23  C4  UNL     1      13.956 -42.338 -39.485  1.00  0.00     0.045 C 
ENDBRANCH  19  20
ENDBRANCH  17  19
ENDBRANCH   1  17
TORSDOF 3
ENDMDL
MODEL 4
REMARK VINA RESULT: -5.306646220      2.392      3.462
REMARK  3 active torsions:
REMARK  status: ('A' for Active; 'I' for Inactive)
REMARK    1  A    between atoms: C2_2  and  O1_5 
REMARK    2  A    between atoms: O1_5  and  C5_6 
REMARK    3  A    between atoms: C5_6  and  C6_8 
ROOT
HETATM    1  C6  UNL     1      13.470 -40.086 -43.799  1.00  0.00     0.215 C 
HETATM    2  S1  UNL     1      11.793 -40.224 -43.103  1.00  0.00    -0.070 SA
HETATM    3  S2  UNL     1      12.083 -40.439 -40.978  1.00  0.00    -0.021 SA
HETATM    4  C7  UNL     1      13.536 -41.465 -40.888  1.00  0.00     0.146 C 
HETATM    5  N1  UNL     1      13.651 -42.280 -39.916  1.00  0.00    -0.379 N 
ATOM      6  H11 UNL     1      14.484 -42.867 -39.865  1.00  0.00     0.158 HD
ATOM      7  H12 UNL     1      12.962 -42.394 -39.173  1.00  0.00     0.158 HD
HETATM    8  N2  UNL     1      14.486 -41.307 -41.916  1.00  0.00    -0.336 N 
ATOM      9  H2  UNL     1      15.159 -42.054 -42.090  1.00  0.00     0.164 HD
HETATM   10  C8  UNL     1      14.532 -40.114 -42.730  1.00  0.00     0.221 C 
HETATM   11  C9  UNL     1      15.876 -40.017 -43.354  1.00  0.00     0.065 C 
HETATM   12  C10 UNL     1      16.688 -39.305 -42.284  1.00  0.00     0.032 C 
HETATM   13  C11 UNL     1      15.669 -38.363 -41.702  1.00  0.00     0.235 C 
HETATM   14  N3  UNL     1      14.377 -38.975 -41.844  1.00  0.00    -0.047 N 
ATOM     15  H31 UNL     1      13.952 -39.219 -40.950  1.00  0.00     0.280 HD
ATOM     16  H32 UNL     1      13.660 -38.321 -42.158  1.00  0.00     0.280 HD
ENDROOT
BRANCH   1  17
HETATM   17  C5  UNL     1      13.708 -41.038 -44.886  1.00  0.00     0.278 C 
HETATM   18  O2  UNL     1      13.925 -42.281 -44.674  1.00  0.00    -0.264 OA
BRANCH  17  19
HETATM   19  O1  UNL     1      13.720 -40.699 -46.239  1.00  0.00    -0.310 OA
BRANCH  19  20
HETATM   20  C2  UNL     1      14.906 -40.482 -46.968  1.00  0.00     0.060 C 
HETATM   21  C1  UNL     1      14.559 -40.533 -48.442  1.00  0.00     0.045 C 
HETATM   22  C3  UNL     1      15.964 -41.519 -46.701  1.00  0.00     0.045 C 
HETATM   23  C4  UNL     1      15.493 -39.117 -46.645  1.00  0.00     0.045 C 
ENDBRANCH  19  20
ENDBRANCH  17  19
ENDBRANCH   1  17
TORSDOF 3
ENDMDL
MODEL 5
REMARK VINA RESULT: -5.297484282      1.906      3.207
REMARK  3 active torsions:
REMARK  status: ('A' for Active; 'I' for Inactive)
REMARK    1  A    between atoms: C2_2  and  O1_5 
REMARK    2  A    between atoms: O1_5  and  C5_6 
REMARK    3  A    between atoms: C5_6  and  C6_8 
ROOT
HETATM    1  C6  UNL     1      12.843 -41.826 -44.182  1.00  0.00     0.215 C 
HETATM    2  S1  UNL     1      11.691 -43.226 -44.360  1.00  0.00    -0.070 SA
HETATM    3  S2  UNL     1      12.012 -44.443 -42.609  1.00  0.00    -0.021 SA
HETATM    4  C7  UNL     1      13.773 -44.326 -42.375  1.00  0.00     0.146 C 
HETATM    5  N1  UNL     1      14.393 -45.325 -41.883  1.00  0.00    -0.379 N 
ATOM      6  H11 UNL     1      15.403 -45.257 -41.749  1.00  0.00     0.158 HD
ATOM      7  H12 UNL     1      13.951 -46.202 -41.610  1.00  0.00     0.158 HD
HETATM    8  N2  UNL     1      14.383 -43.115 -42.754  1.00  0.00    -0.336 N 
ATOM      9  H2  UNL     1      15.388 -43.098 -42.935  1.00  0.00     0.164 HD
HETATM   10  C8  UNL     1      13.622 -41.894 -42.894  1.00  0.00     0.221 C 
HETATM   11  C9  UNL     1      14.557 -40.742 -42.810  1.00  0.00     0.065 C 
HETATM   12  C10 UNL     1      14.651 -40.499 -41.313  1.00  0.00     0.032 C 
HETATM   13  C11 UNL     1      13.253 -40.824 -40.861  1.00  0.00     0.235 C 
HETATM   14  N3  UNL     1      12.721 -41.809 -41.760  1.00  0.00    -0.047 N 
ATOM     15  H31 UNL     1      12.558 -42.711 -41.312  1.00  0.00     0.280 HD
ATOM     16  H32 UNL     1      11.756 -41.620 -42.032  1.00  0.00     0.280 HD
ENDROOT
BRANCH   1  17
HETATM   17  C5  UNL     1      13.682 -41.635 -45.366  1.00  0.00     0.278 C 
HETATM   18  O2  UNL     1      14.329 -42.595 -45.911  1.00  0.00    -0.264 OA
BRANCH  17  19
HETATM   19  O1  UNL     1      13.861 -40.413 -46.014  1.00  0.00    -0.310 OA
BRANCH  19  20
HETATM   20  C2  UNL     1      15.130 -39.869 -46.297  1.00  0.00     0.060 C 
HETATM   21  C1  UNL     1      15.303 -39.857 -47.802  1.00  0.00     0.045 C 
HETATM   22  C3  UNL     1      16.261 -40.664 -45.702  1.00  0.00     0.045 C 
HETATM   23  C4  UNL     1      15.231 -38.444 -45.776  1.00  0.00     0.045 C 
ENDBRANCH  19  20
ENDBRANCH  17  19
ENDBRANCH   1  17
TORSDOF 3
ENDMDL
