MODEL 1
REMARK VINA RESULT: -6.297292576      0.000      0.000
REMARK  2 active torsions:
REMARK  status: ('A' for Active; 'I' for Inactive)
REMARK    1  A    between atoms: N2_5  and  C3_6 
REMARK    2  A    between atoms: C6_16  and  C7_17 
ROOT
HETATM    1  C7  UNL     1      13.046 -39.721 -40.680  1.00  0.00     0.074 C 
HETATM    2  C8  UNL     1      11.746 -40.482 -40.623  1.00  0.00     0.036 C 
HETATM    3  C9  UNL     1      12.811 -38.417 -39.947  1.00  0.00     0.036 C 
HETATM    4  C10 UNL     1      13.969 -40.486 -39.794  1.00  0.00     0.073 C 
HETATM    5  N5  UNL     1      14.689 -41.071 -39.086  1.00  0.00    -0.196 NA
ENDROOT
BRANCH   1   6
HETATM    6  C6  UNL     1      13.585 -39.546 -42.008  1.00  0.00     0.027 A 
HETATM    7  C2  UNL     1      13.709 -38.360 -42.699  1.00  0.00     0.034 A 
HETATM    8  C1  UNL     1      13.306 -37.042 -42.184  1.00  0.00     0.070 C 
HETATM    9  N1  UNL     1      14.258 -38.605 -43.910  1.00  0.00    -0.295 N 
HETATM   10  N2  UNL     1      14.480 -39.890 -44.004  1.00  0.00    -0.221 N 
ATOM     11  H1  UNL     1      14.462 -37.908 -44.626  1.00  0.00     0.187 HD
HETATM   12  C5  UNL     1      14.079 -40.506 -42.852  1.00  0.00     0.135 A 
HETATM   13  S2  UNL     1      14.232 -42.117 -42.670  1.00  0.00    -0.058 SA
BRANCH  10  14
HETATM   14  C3  UNL     1      15.057 -40.561 -45.143  1.00  0.00     0.191 A 
HETATM   15  N3  UNL     1      16.316 -40.823 -45.422  1.00  0.00    -0.275 N 
HETATM   16  N4  UNL     1      16.636 -41.432 -46.487  1.00  0.00    -0.258 N 
ATOM     17  H3  UNL     1      17.046 -40.530 -44.772  1.00  0.00     0.189 HD
HETATM   18  C4  UNL     1      15.669 -41.806 -47.330  1.00  0.00     0.305 A 
ATOM     19  H4  UNL     1      17.614 -41.633 -46.696  1.00  0.00     0.191 HD
HETATM   20  O1  UNL     1      15.790 -42.426 -48.445  1.00  0.00    -0.258 OA
HETATM   21  S1  UNL     1      14.269 -41.241 -46.515  1.00  0.00     0.012 SA
ENDBRANCH  10  14
ENDBRANCH   1   6
TORSDOF 2
ENDMDL
MODEL 2
REMARK VINA RESULT: -5.985633326      1.606      1.712
REMARK  2 active torsions:
REMARK  status: ('A' for Active; 'I' for Inactive)
REMARK    1  A    between atoms: N2_5  and  C3_6 
REMARK    2  A    between atoms: C6_16  and  C7_17 
ROOT
HETATM    1  C7  UNL     1      12.599 -38.403 -41.540  1.00  0.00     0.074 C 
HETATM    2  C8  UNL     1      11.700 -39.590 -41.302  1.00  0.00     0.036 C 
HETATM    3  C9  UNL     1      11.716 -37.176 -41.465  1.00  0.00     0.036 C 
HETATM    4  C10 UNL     1      13.452 -38.327 -40.320  1.00  0.00     0.073 C 
HETATM    5  N5  UNL     1      14.107 -38.250 -39.358  1.00  0.00    -0.196 NA
ENDROOT
BRANCH   1   6
HETATM    6  C6  UNL     1      13.384 -38.475 -42.750  1.00  0.00     0.027 A 
HETATM    7  C2  UNL     1      14.151 -37.470 -43.297  1.00  0.00     0.034 A 
HETATM    8  C1  UNL     1      14.305 -36.123 -42.723  1.00  0.00     0.070 C 
HETATM    9  N1  UNL     1      14.734 -37.920 -44.431  1.00  0.00    -0.295 N 
HETATM   10  N2  UNL     1      14.363 -39.160 -44.614  1.00  0.00    -0.221 N 
ATOM     11  H1  UNL     1      15.355 -37.384 -45.038  1.00  0.00     0.187 HD
HETATM   12  C5  UNL     1      13.530 -39.540 -43.600  1.00  0.00     0.135 A 
HETATM   13  S2  UNL     1      12.902 -41.042 -43.554  1.00  0.00    -0.058 SA
BRANCH  10  14
HETATM   14  C3  UNL     1      14.765 -40.002 -45.714  1.00  0.00     0.191 A 
HETATM   15  N3  UNL     1      14.239 -40.138 -46.913  1.00  0.00    -0.275 N 
HETATM   16  N4  UNL     1      14.739 -40.939 -47.759  1.00  0.00    -0.258 N 
ATOM     17  H3  UNL     1      13.417 -39.589 -47.165  1.00  0.00     0.189 HD
HETATM   18  C4  UNL     1      15.814 -41.652 -47.412  1.00  0.00     0.305 A 
ATOM     19  H4  UNL     1      14.327 -41.037 -48.687  1.00  0.00     0.191 HD
HETATM   20  O1  UNL     1      16.457 -42.506 -48.120  1.00  0.00    -0.258 OA
HETATM   21  S1  UNL     1      16.078 -41.112 -45.805  1.00  0.00     0.012 SA
ENDBRANCH  10  14
ENDBRANCH   1   6
TORSDOF 2
ENDMDL
MODEL 3
REMARK VINA RESULT: -5.979180436      1.777      1.882
REMARK  2 active torsions:
REMARK  status: ('A' for Active; 'I' for Inactive)
REMARK    1  A    between atoms: N2_5  and  C3_6 
REMARK    2  A    between atoms: C6_16  and  C7_17 
ROOT
HETATM    1  C7  UNL     1      14.760 -40.112 -40.026  1.00  0.00     0.074 C 
HETATM    2  C8  UNL     1      13.964 -41.376 -39.817  1.00  0.00     0.036 C 
HETATM    3  C9  UNL     1      13.963 -38.994 -39.388  1.00  0.00     0.036 C 
HETATM    4  C10 UNL     1      15.954 -40.270 -39.147  1.00  0.00     0.073 C 
HETATM    5  N5  UNL     1      16.879 -40.380 -38.445  1.00  0.00    -0.196 NA
ENDROOT
BRANCH   1   6
HETATM    6  C6  UNL     1      15.124 -39.849 -41.398  1.00  0.00     0.027 A 
HETATM    7  C2  UNL     1      15.898 -38.807 -41.862  1.00  0.00     0.034 A 
HETATM    8  C1  UNL     1      16.498 -37.765 -41.014  1.00  0.00     0.070 C 
HETATM    9  N1  UNL     1      16.014 -38.901 -43.205  1.00  0.00    -0.295 N 
HETATM   10  N2  UNL     1      15.347 -39.954 -43.599  1.00  0.00    -0.221 N 
ATOM     11  H1  UNL     1      16.532 -38.261 -43.807  1.00  0.00     0.187 HD
HETATM   12  C5  UNL     1      14.783 -40.567 -42.515  1.00  0.00     0.135 A 
HETATM   13  S2  UNL     1      13.887 -41.916 -42.690  1.00  0.00    -0.058 SA
BRANCH  10  14
HETATM   14  C3  UNL     1      15.220 -40.406 -44.963  1.00  0.00     0.191 A 
HETATM   15  N3  UNL     1      14.292 -40.146 -45.858  1.00  0.00    -0.275 N 
HETATM   16  N4  UNL     1      14.350 -40.641 -47.023  1.00  0.00    -0.258 N 
ATOM     17  H3  UNL     1      13.513 -39.536 -45.610  1.00  0.00     0.189 HD
HETATM   18  C4  UNL     1      15.376 -41.441 -47.332  1.00  0.00     0.305 A 
ATOM     19  H4  UNL     1      13.628 -40.433 -47.713  1.00  0.00     0.191 HD
HETATM   20  O1  UNL     1      15.608 -42.031 -48.445  1.00  0.00    -0.258 OA
HETATM   21  S1  UNL     1      16.259 -41.445 -45.861  1.00  0.00     0.012 SA
ENDBRANCH  10  14
ENDBRANCH   1   6
TORSDOF 2
ENDMDL
MODEL 4
REMARK VINA RESULT: -5.971487086      3.224      3.974
REMARK  2 active torsions:
REMARK  status: ('A' for Active; 'I' for Inactive)
REMARK    1  A    between atoms: N2_5  and  C3_6 
REMARK    2  A    between atoms: C6_16  and  C7_17 
ROOT
HETATM    1  C7  UNL     1      13.534 -41.756 -40.789  1.00  0.00     0.074 C 
HETATM    2  C8  UNL     1      12.050 -41.555 -40.611  1.00  0.00     0.036 C 
HETATM    3  C9  UNL     1      14.052 -42.310 -39.479  1.00  0.00     0.036 C 
HETATM    4  C10 UNL     1      13.647 -42.893 -41.746  1.00  0.00     0.073 C 
HETATM    5  N5  UNL     1      13.741 -43.796 -42.480  1.00  0.00    -0.196 NA
ENDROOT
BRANCH   1   6
HETATM    6  C6  UNL     1      14.250 -40.588 -41.243  1.00  0.00     0.027 A 
HETATM    7  C2  UNL     1      15.256 -39.924 -40.575  1.00  0.00     0.034 A 
HETATM    8  C1  UNL     1      15.783 -40.307 -39.255  1.00  0.00     0.070 C 
HETATM    9  N1  UNL     1      15.675 -38.879 -41.323  1.00  0.00    -0.295 N 
HETATM   10  N2  UNL     1      14.975 -38.862 -42.427  1.00  0.00    -0.221 N 
ATOM     11  H1  UNL     1      16.410 -38.218 -41.070  1.00  0.00     0.187 HD
HETATM   12  C5  UNL     1      14.085 -39.899 -42.417  1.00  0.00     0.135 A 
HETATM   13  S2  UNL     1      13.070 -40.140 -43.667  1.00  0.00    -0.058 SA
BRANCH  10  14
HETATM   14  C3  UNL     1      15.113 -37.901 -43.494  1.00  0.00     0.191 A 
HETATM   15  N3  UNL     1      15.854 -37.944 -44.580  1.00  0.00    -0.275 N 
HETATM   16  N4  UNL     1      15.843 -36.991 -45.417  1.00  0.00    -0.258 N 
ATOM     17  H3  UNL     1      16.446 -38.756 -44.752  1.00  0.00     0.189 HD
HETATM   18  C4  UNL     1      15.064 -35.932 -45.176  1.00  0.00     0.305 A 
ATOM     19  H4  UNL     1      16.419 -37.032 -46.258  1.00  0.00     0.191 HD
HETATM   20  O1  UNL     1      14.918 -34.880 -45.893  1.00  0.00    -0.258 OA
HETATM   21  S1  UNL     1      14.340 -36.374 -43.684  1.00  0.00     0.012 SA
ENDBRANCH  10  14
ENDBRANCH   1   6
TORSDOF 2
ENDMDL
MODEL 5
REMARK VINA RESULT: -5.926778371      3.427      6.369
REMARK  2 active torsions:
REMARK  status: ('A' for Active; 'I' for Inactive)
REMARK    1  A    between atoms: N2_5  and  C3_6 
REMARK    2  A    between atoms: C6_16  and  C7_17 
ROOT
HETATM    1  C7  UNL     1      14.461 -41.307 -47.103  1.00  0.00     0.074 C 
HETATM    2  C8  UNL     1      14.793 -39.852 -47.314  1.00  0.00     0.036 C 
HETATM    3  C9  UNL     1      13.540 -41.705 -48.236  1.00  0.00     0.036 C 
HETATM    4  C10 UNL     1      15.734 -42.029 -47.385  1.00  0.00     0.073 C 
HETATM    5  N5  UNL     1      16.723 -42.600 -47.626  1.00  0.00    -0.196 NA
ENDROOT
BRANCH   1   6
HETATM    6  C6  UNL     1      13.935 -41.622 -45.796  1.00  0.00     0.027 A 
HETATM    7  C2  UNL     1      12.744 -42.258 -45.516  1.00  0.00     0.034 A 
HETATM    8  C1  UNL     1      11.790 -42.737 -46.529  1.00  0.00     0.070 C 
HETATM    9  N1  UNL     1      12.602 -42.370 -44.176  1.00  0.00    -0.295 N 
HETATM   10  N2  UNL     1      13.650 -41.832 -43.610  1.00  0.00    -0.221 N 
ATOM     11  H1  UNL     1      11.814 -42.800 -43.692  1.00  0.00     0.187 HD
HETATM   12  C5  UNL     1      14.496 -41.359 -44.573  1.00  0.00     0.135 A 
HETATM   13  S2  UNL     1      15.897 -40.631 -44.171  1.00  0.00    -0.058 SA
BRANCH  10  14
HETATM   14  C3  UNL     1      13.885 -41.746 -42.189  1.00  0.00     0.191 A 
HETATM   15  N3  UNL     1      13.704 -42.645 -41.245  1.00  0.00    -0.275 N 
HETATM   16  N4  UNL     1      13.972 -42.384 -40.034  1.00  0.00    -0.258 N 
ATOM     17  H3  UNL     1      13.343 -43.566 -41.493  1.00  0.00     0.189 HD
HETATM   18  C4  UNL     1      14.442 -41.171 -39.726  1.00  0.00     0.305 A 
ATOM     19  H4  UNL     1      13.831 -43.086 -39.308  1.00  0.00     0.191 HD
HETATM   20  O1  UNL     1      14.768 -40.721 -38.570  1.00  0.00    -0.258 OA
HETATM   21  S1  UNL     1      14.485 -40.420 -41.268  1.00  0.00     0.012 SA
ENDBRANCH  10  14
ENDBRANCH   1   6
TORSDOF 2
ENDMDL
