MODEL 1
REMARK VINA RESULT: -6.598459644      0.000      0.000
REMARK  2 active torsions:
REMARK  status: ('A' for Active; 'I' for Inactive)
REMARK    1  A    between atoms: C4_6  and  C5_7 
REMARK    2  A    between atoms: C11_18  and  N5_19 
ROOT
HETATM    1  C5  UNL     1      13.291 -40.822 -42.594  1.00  0.00     0.087 C 
HETATM    2  C6  UNL     1      14.544 -40.190 -43.003  1.00  0.00     0.022 A 
HETATM    3  C7  UNL     1      15.019 -39.748 -44.215  1.00  0.00     0.033 A 
HETATM    4  C8  UNL     1      14.322 -39.813 -45.495  1.00  0.00     0.070 C 
HETATM    5  N2  UNL     1      16.235 -39.251 -43.995  1.00  0.00    -0.301 N 
ATOM      6  H2  UNL     1      16.833 -38.849 -44.717  1.00  0.00     0.187 HD
HETATM    7  N3  UNL     1      16.565 -39.348 -42.723  1.00  0.00    -0.281 N 
HETATM    8  C9  UNL     1      17.786 -38.931 -42.078  1.00  0.00     0.179 C 
HETATM    9  C10 UNL     1      15.525 -39.933 -42.070  1.00  0.00     0.128 A 
HETATM   10  N4  UNL     1      15.287 -40.294 -40.727  1.00  0.00    -0.347 N 
ATOM     11  H4  UNL     1      16.076 -40.523 -40.122  1.00  0.00     0.163 HD
HETATM   12  C11 UNL     1      13.943 -40.343 -40.197  1.00  0.00     0.291 C 
HETATM   13  C12 UNL     1      12.879 -40.379 -41.233  1.00  0.00     0.011 C 
HETATM   14  C13 UNL     1      12.338 -38.947 -41.404  1.00  0.00     0.020 C 
HETATM   15  C14 UNL     1      11.690 -41.186 -40.716  1.00  0.00     0.020 C 
ENDROOT
BRANCH   1  16
HETATM   16  C4  UNL     1      13.285 -42.302 -42.788  1.00  0.00     0.035 A 
HETATM   17  C3  UNL     1      12.597 -42.968 -43.777  1.00  0.00     0.115 A 
HETATM   18  N1  UNL     1      12.839 -44.274 -43.626  1.00  0.00    -0.354 N 
HETATM   19  C2  UNL     1      13.654 -44.422 -42.574  1.00  0.00     0.077 A 
ATOM     20  H1  UNL     1      12.468 -45.025 -44.208  1.00  0.00     0.166 HD
HETATM   21  C1  UNL     1      14.177 -45.721 -42.050  1.00  0.00     0.089 C 
HETATM   22  N6  UNL     1      13.929 -43.217 -42.058  1.00  0.00    -0.348 N 
ATOM     23  H6  UNL     1      14.525 -43.031 -41.252  1.00  0.00     0.167 HD
ENDBRANCH   1  16
BRANCH  12  24
HETATM   24  N5  UNL     1      13.814 -39.123 -39.378  1.00  0.00    -0.058 N 
ATOM     25  H53 UNL     1      14.703 -38.669 -39.168  1.00  0.00     0.276 HD
ATOM     26  H52 UNL     1      13.395 -38.334 -39.873  1.00  0.00     0.276 HD
ATOM     27  H51 UNL     1      13.293 -39.416 -38.552  1.00  0.00     0.276 HD
ENDBRANCH  12  24
TORSDOF 2
ENDMDL
MODEL 2
REMARK VINA RESULT: -6.453193889      2.127      4.880
REMARK  2 active torsions:
REMARK  status: ('A' for Active; 'I' for Inactive)
REMARK    1  A    between atoms: C4_6  and  C5_7 
REMARK    2  A    between atoms: C11_18  and  N5_19 
ROOT
HETATM    1  C5  UNL     1      14.180 -41.334 -42.726  1.00  0.00     0.087 C 
HETATM    2  C6  UNL     1      14.192 -41.535 -44.174  1.00  0.00     0.022 A 
HETATM    3  C7  UNL     1      15.166 -41.382 -45.133  1.00  0.00     0.033 A 
HETATM    4  C8  UNL     1      16.540 -40.944 -44.911  1.00  0.00     0.070 C 
HETATM    5  N2  UNL     1      14.613 -41.711 -46.299  1.00  0.00    -0.301 N 
ATOM      6  H2  UNL     1      15.102 -41.692 -47.195  1.00  0.00     0.187 HD
HETATM    7  N3  UNL     1      13.353 -42.063 -46.146  1.00  0.00    -0.281 N 
HETATM    8  C9  UNL     1      12.409 -42.483 -47.153  1.00  0.00     0.179 C 
HETATM    9  C10 UNL     1      13.055 -41.964 -44.822  1.00  0.00     0.128 A 
HETATM   10  N4  UNL     1      11.893 -42.200 -44.057  1.00  0.00    -0.347 N 
ATOM     11  H4  UNL     1      10.976 -42.094 -44.491  1.00  0.00     0.163 HD
HETATM   12  C11 UNL     1      11.984 -42.591 -42.668  1.00  0.00     0.291 C 
HETATM   13  C12 UNL     1      13.310 -42.336 -42.048  1.00  0.00     0.011 C 
HETATM   14  C13 UNL     1      14.101 -43.658 -42.063  1.00  0.00     0.020 C 
HETATM   15  C14 UNL     1      13.127 -42.008 -40.567  1.00  0.00     0.020 C 
ENDROOT
BRANCH   1  16
HETATM   16  C4  UNL     1      13.918 -39.921 -42.327  1.00  0.00     0.035 A 
HETATM   17  C3  UNL     1      14.825 -39.093 -41.705  1.00  0.00     0.115 A 
HETATM   18  N1  UNL     1      14.227 -37.912 -41.513  1.00  0.00    -0.354 N 
HETATM   19  C2  UNL     1      12.982 -37.998 -42.001  1.00  0.00     0.077 A 
ATOM     20  H1  UNL     1      14.644 -37.092 -41.073  1.00  0.00     0.166 HD
HETATM   21  C1  UNL     1      11.963 -36.904 -41.993  1.00  0.00     0.089 C 
HETATM   22  N6  UNL     1      12.790 -39.226 -42.500  1.00  0.00    -0.348 N 
ATOM     23  H6  UNL     1      11.934 -39.570 -42.935  1.00  0.00     0.167 HD
ENDBRANCH   1  16
BRANCH  12  24
HETATM   24  N5  UNL     1      11.690 -44.036 -42.660  1.00  0.00    -0.058 N 
ATOM     25  H53 UNL     1      10.775 -44.270 -42.274  1.00  0.00     0.276 HD
ATOM     26  H52 UNL     1      11.528 -44.431 -43.588  1.00  0.00     0.276 HD
ATOM     27  H51 UNL     1      12.471 -44.459 -42.160  1.00  0.00     0.276 HD
ENDBRANCH  12  24
TORSDOF 2
ENDMDL
MODEL 3
REMARK VINA RESULT: -6.291646635      1.831      4.167
REMARK  2 active torsions:
REMARK  status: ('A' for Active; 'I' for Inactive)
REMARK    1  A    between atoms: C4_6  and  C5_7 
REMARK    2  A    between atoms: C11_18  and  N5_19 
ROOT
HETATM    1  C5  UNL     1      14.571 -40.983 -43.109  1.00  0.00     0.087 C 
HETATM    2  C6  UNL     1      13.672 -40.230 -42.236  1.00  0.00     0.022 A 
HETATM    3  C7  UNL     1      13.057 -40.528 -41.042  1.00  0.00     0.033 A 
HETATM    4  C8  UNL     1      13.167 -41.780 -40.300  1.00  0.00     0.070 C 
HETATM    5  N2  UNL     1      12.345 -39.458 -40.696  1.00  0.00    -0.301 N 
ATOM      6  H2  UNL     1      11.780 -39.389 -39.850  1.00  0.00     0.187 HD
HETATM    7  N3  UNL     1      12.466 -38.497 -41.591  1.00  0.00    -0.281 N 
HETATM    8  C9  UNL     1      11.860 -37.188 -41.590  1.00  0.00     0.179 C 
HETATM    9  C10 UNL     1      13.293 -38.949 -42.572  1.00  0.00     0.128 A 
HETATM   10  N4  UNL     1      13.791 -38.393 -43.769  1.00  0.00    -0.347 N 
ATOM     11  H4  UNL     1      13.244 -37.685 -44.260  1.00  0.00     0.163 HD
HETATM   12  C11 UNL     1      15.065 -38.811 -44.310  1.00  0.00     0.291 C 
HETATM   13  C12 UNL     1      15.575 -40.090 -43.751  1.00  0.00     0.011 C 
HETATM   14  C13 UNL     1      16.599 -39.750 -42.652  1.00  0.00     0.020 C 
HETATM   15  C14 UNL     1      16.381 -40.828 -44.819  1.00  0.00     0.020 C 
ENDROOT
BRANCH   1  16
HETATM   16  C4  UNL     1      13.854 -41.886 -44.057  1.00  0.00     0.035 A 
HETATM   17  C3  UNL     1      13.645 -43.233 -43.861  1.00  0.00     0.115 A 
HETATM   18  N1  UNL     1      12.970 -43.692 -44.921  1.00  0.00    -0.354 N 
HETATM   19  C2  UNL     1      12.763 -42.665 -45.754  1.00  0.00     0.077 A 
ATOM     20  H1  UNL     1      12.667 -44.655 -45.068  1.00  0.00     0.166 HD
HETATM   21  C1  UNL     1      12.047 -42.733 -47.064  1.00  0.00     0.089 C 
HETATM   22  N6  UNL     1      13.303 -41.557 -45.229  1.00  0.00    -0.348 N 
ATOM     23  H6  UNL     1      13.295 -40.628 -45.649  1.00  0.00     0.167 HD
ENDBRANCH   1  16
BRANCH  12  24
HETATM   24  N5  UNL     1      15.993 -37.711 -43.989  1.00  0.00    -0.058 N 
ATOM     25  H53 UNL     1      15.573 -36.783 -44.050  1.00  0.00     0.276 HD
ATOM     26  H52 UNL     1      16.247 -37.658 -43.001  1.00  0.00     0.276 HD
ATOM     27  H51 UNL     1      16.787 -37.847 -44.614  1.00  0.00     0.276 HD
ENDBRANCH  12  24
TORSDOF 2
ENDMDL
MODEL 4
REMARK VINA RESULT: -6.176787794      1.651      4.691
REMARK  2 active torsions:
REMARK  status: ('A' for Active; 'I' for Inactive)
REMARK    1  A    between atoms: C4_6  and  C5_7 
REMARK    2  A    between atoms: C11_18  and  N5_19 
ROOT
HETATM    1  C5  UNL     1      14.101 -40.480 -41.728  1.00  0.00     0.087 C 
HETATM    2  C6  UNL     1      14.751 -40.140 -42.994  1.00  0.00     0.022 A 
HETATM    3  C7  UNL     1      16.025 -39.733 -43.313  1.00  0.00     0.033 A 
HETATM    4  C8  UNL     1      17.128 -39.526 -42.380  1.00  0.00     0.070 C 
HETATM    5  N2  UNL     1      16.057 -39.566 -44.633  1.00  0.00    -0.301 N 
ATOM      6  H2  UNL     1      16.879 -39.265 -45.157  1.00  0.00     0.187 HD
HETATM    7  N3  UNL     1      14.888 -39.839 -45.175  1.00  0.00    -0.281 N 
HETATM    8  C9  UNL     1      14.508 -39.782 -46.566  1.00  0.00     0.179 C 
HETATM    9  C10 UNL     1      14.043 -40.204 -44.173  1.00  0.00     0.128 A 
HETATM   10  N4  UNL     1      12.690 -40.601 -44.126  1.00  0.00    -0.347 N 
ATOM     11  H4  UNL     1      12.043 -40.266 -44.839  1.00  0.00     0.163 HD
HETATM   12  C11 UNL     1      12.208 -41.476 -43.081  1.00  0.00     0.291 C 
HETATM   13  C12 UNL     1      13.112 -41.580 -41.906  1.00  0.00     0.011 C 
HETATM   14  C13 UNL     1      13.942 -42.869 -42.061  1.00  0.00     0.020 C 
HETATM   15  C14 UNL     1      12.283 -41.799 -40.642  1.00  0.00     0.020 C 
ENDROOT
BRANCH   1  16
HETATM   16  C4  UNL     1      13.574 -39.291 -40.997  1.00  0.00     0.035 A 
HETATM   17  C3  UNL     1      13.845 -38.987 -39.681  1.00  0.00     0.115 A 
HETATM   18  N1  UNL     1      13.199 -37.853 -39.389  1.00  0.00    -0.354 N 
HETATM   19  C2  UNL     1      12.543 -37.459 -40.488  1.00  0.00     0.077 A 
ATOM     20  H1  UNL     1      13.204 -37.374 -38.489  1.00  0.00     0.166 HD
HETATM   21  C1  UNL     1      11.690 -36.237 -40.605  1.00  0.00     0.089 C 
HETATM   22  N6  UNL     1      12.770 -38.336 -41.474  1.00  0.00    -0.348 N 
ATOM     23  H6  UNL     1      12.396 -38.285 -42.422  1.00  0.00     0.167 HD
ENDBRANCH   1  16
BRANCH  12  24
HETATM   24  N5  UNL     1      12.063 -42.794 -43.727  1.00  0.00    -0.058 N 
ATOM     25  H53 UNL     1      12.400 -42.823 -44.690  1.00  0.00     0.276 HD
ATOM     26  H52 UNL     1      12.696 -43.507 -43.362  1.00  0.00     0.276 HD
ATOM     27  H51 UNL     1      11.075 -43.027 -43.628  1.00  0.00     0.276 HD
ENDBRANCH  12  24
TORSDOF 2
ENDMDL
MODEL 5
REMARK VINA RESULT: -6.013117284      1.945      2.790
REMARK  2 active torsions:
REMARK  status: ('A' for Active; 'I' for Inactive)
REMARK    1  A    between atoms: C4_6  and  C5_7 
REMARK    2  A    between atoms: C11_18  and  N5_19 
ROOT
HETATM    1  C5  UNL     1      12.801 -42.028 -43.442  1.00  0.00     0.087 C 
HETATM    2  C6  UNL     1      13.425 -41.858 -44.753  1.00  0.00     0.022 A 
HETATM    3  C7  UNL     1      12.994 -42.103 -46.035  1.00  0.00     0.033 A 
HETATM    4  C8  UNL     1      11.694 -42.639 -46.425  1.00  0.00     0.070 C 
HETATM    5  N2  UNL     1      13.988 -41.757 -46.850  1.00  0.00    -0.301 N 
ATOM      6  H2  UNL     1      13.954 -41.830 -47.866  1.00  0.00     0.187 HD
HETATM    7  N3  UNL     1      15.024 -41.308 -46.171  1.00  0.00    -0.281 N 
HETATM    8  C9  UNL     1      16.292 -40.837 -46.674  1.00  0.00     0.179 C 
HETATM    9  C10 UNL     1      14.705 -41.358 -44.849  1.00  0.00     0.128 A 
HETATM   10  N4  UNL     1      15.386 -41.019 -43.661  1.00  0.00    -0.347 N 
ATOM     11  H4  UNL     1      16.405 -41.065 -43.636  1.00  0.00     0.163 HD
HETATM   12  C11 UNL     1      14.662 -40.609 -42.479  1.00  0.00     0.291 C 
HETATM   13  C12 UNL     1      13.216 -40.951 -42.500  1.00  0.00     0.011 C 
HETATM   14  C13 UNL     1      12.440 -39.693 -42.933  1.00  0.00     0.020 C 
HETATM   15  C14 UNL     1      12.737 -41.234 -41.077  1.00  0.00     0.020 C 
ENDROOT
BRANCH   1  16
HETATM   16  C4  UNL     1      12.940 -43.410 -42.896  1.00  0.00     0.035 A 
HETATM   17  C3  UNL     1      11.895 -44.275 -42.655  1.00  0.00     0.115 A 
HETATM   18  N1  UNL     1      12.415 -45.409 -42.173  1.00  0.00    -0.354 N 
HETATM   19  C2  UNL     1      13.744 -45.259 -42.114  1.00  0.00     0.077 A 
ATOM     20  H1  UNL     1      11.892 -46.241 -41.899  1.00  0.00     0.166 HD
HETATM   21  C1  UNL     1      14.719 -46.286 -41.632  1.00  0.00     0.089 C 
HETATM   22  N6  UNL     1      14.069 -44.037 -42.555  1.00  0.00    -0.348 N 
ATOM     23  H6  UNL     1      15.012 -43.653 -42.620  1.00  0.00     0.167 HD
ENDBRANCH   1  16
BRANCH  12  24
HETATM   24  N5  UNL     1      14.836 -39.146 -42.416  1.00  0.00    -0.058 N 
ATOM     25  H53 UNL     1      15.756 -38.825 -42.719  1.00  0.00     0.276 HD
ATOM     26  H52 UNL     1      14.298 -38.634 -43.116  1.00  0.00     0.276 HD
ATOM     27  H51 UNL     1      14.608 -38.897 -41.454  1.00  0.00     0.276 HD
ENDBRANCH  12  24
TORSDOF 2
ENDMDL
