MODEL 1
REMARK VINA RESULT: -6.791081295      0.000      0.000
REMARK  4 active torsions:
REMARK  status: ('A' for Active; 'I' for Inactive)
REMARK    1  A    between atoms: O1_2  and  C2_3 
REMARK    2  A    between atoms: C2_3  and  C3_5 
REMARK    3  A    between atoms: C7_9  and  N1_10 
REMARK    4  A    between atoms: C13_16  and  O3_17 
ROOT
HETATM    1  C3  UNL     1      -3.052   1.608  12.137  1.00  0.00     0.120 C 
HETATM    2  C4  UNL     1      -3.344   3.049  12.057  1.00  0.00    -0.000 C 
HETATM    3  C5  UNL     1      -3.919   3.551  10.759  1.00  0.00     0.011 C 
HETATM    4  C6  UNL     1      -4.331   3.352  13.215  1.00  0.00     0.033 C 
HETATM    5  C7  UNL     1      -4.233   2.117  14.046  1.00  0.00     0.113 C 
HETATM    6  C13 UNL     1      -4.195   1.026  12.987  1.00  0.00     0.154 C 
ENDROOT
BRANCH   5   7
HETATM    7  N1  UNL     1      -5.240   1.904  15.021  1.00  0.00    -0.386 N 
HETATM    8  C8  UNL     1      -4.792   1.277  16.226  1.00  0.00     0.122 C 
HETATM    9  C9  UNL     1      -5.987   0.770  17.010  1.00  0.00     0.020 C 
HETATM   10  C10 UNL     1      -6.827   1.939  17.442  1.00  0.00     0.007 C 
HETATM   11  C11 UNL     1      -6.655   3.156  16.599  1.00  0.00     0.044 C 
HETATM   12  C12 UNL     1      -6.231   2.889  15.178  1.00  0.00     0.058 C 
ENDBRANCH   5   7
BRANCH   6  13
HETATM   13  O3  UNL     1      -5.303   1.048  12.196  1.00  0.00    -0.393 OA
ATOM     14  H3  UNL     1      -5.814   0.284  12.436  1.00  0.00     0.210 HD
ENDBRANCH   6  13
BRANCH   1  15
HETATM   15  C2  UNL     1      -2.872   0.841  10.917  1.00  0.00     0.265 C 
HETATM   16  O2  UNL     1      -2.098   1.189  10.003  1.00  0.00    -0.265 OA
BRANCH  15  17
HETATM   17  O1  UNL     1      -3.563  -0.353  10.677  1.00  0.00    -0.326 OA
HETATM   18  C1  UNL     1      -3.066  -1.590  11.212  1.00  0.00     0.213 C 
ENDBRANCH  15  17
ENDBRANCH   1  15
TORSDOF 4
ENDMDL
MODEL 2
REMARK VINA RESULT: -6.665696151      1.577      1.833
REMARK  4 active torsions:
REMARK  status: ('A' for Active; 'I' for Inactive)
REMARK    1  A    between atoms: O1_2  and  C2_3 
REMARK    2  A    between atoms: C2_3  and  C3_5 
REMARK    3  A    between atoms: C7_9  and  N1_10 
REMARK    4  A    between atoms: C13_16  and  O3_17 
ROOT
HETATM    1  C3  UNL     1      -3.332   2.723  12.322  1.00  0.00     0.120 C 
HETATM    2  C4  UNL     1      -3.246   4.046  12.963  1.00  0.00    -0.000 C 
HETATM    3  C5  UNL     1      -3.712   5.224  12.148  1.00  0.00     0.011 C 
HETATM    4  C6  UNL     1      -4.086   3.949  14.263  1.00  0.00     0.033 C 
HETATM    5  C7  UNL     1      -4.284   2.476  14.403  1.00  0.00     0.113 C 
HETATM    6  C13 UNL     1      -4.560   2.058  12.968  1.00  0.00     0.154 C 
ENDROOT
BRANCH   5   7
HETATM    7  N1  UNL     1      -5.281   2.034  15.308  1.00  0.00    -0.386 N 
HETATM    8  C8  UNL     1      -4.806   1.208  16.375  1.00  0.00     0.122 C 
HETATM    9  C9  UNL     1      -5.978   0.506  17.034  1.00  0.00     0.020 C 
HETATM   10  C10 UNL     1      -6.872   1.530  17.674  1.00  0.00     0.007 C 
HETATM   11  C11 UNL     1      -6.755   2.894  17.083  1.00  0.00     0.044 C 
HETATM   12  C12 UNL     1      -6.317   2.924  15.641  1.00  0.00     0.058 C 
ENDBRANCH   5   7
BRANCH   6  13
HETATM   13  O3  UNL     1      -5.649   2.695  12.454  1.00  0.00    -0.393 OA
ATOM     14  H3  UNL     1      -6.398   2.150  12.668  1.00  0.00     0.210 HD
ENDBRANCH   6  13
BRANCH   1  15
HETATM   15  C2  UNL     1      -3.394   2.627  10.874  1.00  0.00     0.265 C 
HETATM   16  O2  UNL     1      -4.463   2.468  10.248  1.00  0.00    -0.265 OA
BRANCH  15  17
HETATM   17  O1  UNL     1      -2.251   2.705  10.070  1.00  0.00    -0.326 OA
HETATM   18  C1  UNL     1      -0.970   2.335  10.606  1.00  0.00     0.213 C 
ENDBRANCH  15  17
ENDBRANCH   1  15
TORSDOF 4
ENDMDL
MODEL 3
REMARK VINA RESULT: -6.397617990      1.375      2.086
REMARK  4 active torsions:
REMARK  status: ('A' for Active; 'I' for Inactive)
REMARK    1  A    between atoms: O1_2  and  C2_3 
REMARK    2  A    between atoms: C2_3  and  C3_5 
REMARK    3  A    between atoms: C7_9  and  N1_10 
REMARK    4  A    between atoms: C13_16  and  O3_17 
ROOT
HETATM    1  C3  UNL     1      -3.355   3.186  12.336  1.00  0.00     0.120 C 
HETATM    2  C4  UNL     1      -3.568   4.610  12.646  1.00  0.00    -0.000 C 
HETATM    3  C5  UNL     1      -4.369   5.405  11.650  1.00  0.00     0.011 C 
HETATM    4  C6  UNL     1      -4.269   4.648  14.029  1.00  0.00     0.033 C 
HETATM    5  C7  UNL     1      -4.076   3.253  14.521  1.00  0.00     0.113 C 
HETATM    6  C13 UNL     1      -4.329   2.437  13.263  1.00  0.00     0.154 C 
ENDROOT
BRANCH   5   7
HETATM    7  N1  UNL     1      -4.868   2.833  15.620  1.00  0.00    -0.386 N 
HETATM    8  C8  UNL     1      -6.253   3.177  15.534  1.00  0.00     0.122 C 
HETATM    9  C9  UNL     1      -6.901   3.017  16.895  1.00  0.00     0.020 C 
HETATM   10  C10 UNL     1      -6.861   1.570  17.296  1.00  0.00     0.007 C 
HETATM   11  C11 UNL     1      -5.788   0.783  16.626  1.00  0.00     0.044 C 
HETATM   12  C12 UNL     1      -4.584   1.585  16.202  1.00  0.00     0.058 C 
ENDBRANCH   5   7
BRANCH   6  13
HETATM   13  O3  UNL     1      -5.574   2.655  12.758  1.00  0.00    -0.393 OA
ATOM     14  H3  UNL     1      -5.761   3.575  12.906  1.00  0.00     0.210 HD
ENDBRANCH   6  13
BRANCH   1  15
HETATM   15  C2  UNL     1      -3.483   2.719  10.967  1.00  0.00     0.265 C 
HETATM   16  O2  UNL     1      -4.520   2.877  10.289  1.00  0.00    -0.265 OA
BRANCH  15  17
HETATM   17  O1  UNL     1      -2.447   2.052  10.304  1.00  0.00    -0.326 OA
HETATM   18  C1  UNL     1      -1.587   1.159  11.032  1.00  0.00     0.213 C 
ENDBRANCH  15  17
ENDBRANCH   1  15
TORSDOF 4
ENDMDL
MODEL 4
REMARK VINA RESULT: -6.282001272      1.768      2.937
REMARK  4 active torsions:
REMARK  status: ('A' for Active; 'I' for Inactive)
REMARK    1  A    between atoms: O1_2  and  C2_3 
REMARK    2  A    between atoms: C2_3  and  C3_5 
REMARK    3  A    between atoms: C7_9  and  N1_10 
REMARK    4  A    between atoms: C13_16  and  O3_17 
ROOT
HETATM    1  C3  UNL     1      -3.643   2.986  11.410  1.00  0.00     0.120 C 
HETATM    2  C4  UNL     1      -3.515   1.520  11.480  1.00  0.00    -0.000 C 
HETATM    3  C5  UNL     1      -2.127   0.956  11.328  1.00  0.00     0.011 C 
HETATM    4  C6  UNL     1      -4.099   1.104  12.855  1.00  0.00     0.033 C 
HETATM    5  C7  UNL     1      -4.813   2.341  13.285  1.00  0.00     0.113 C 
HETATM    6  C13 UNL     1      -3.834   3.429  12.871  1.00  0.00     0.154 C 
ENDROOT
BRANCH   5   7
HETATM    7  N1  UNL     1      -5.198   2.434  14.646  1.00  0.00    -0.386 N 
HETATM    8  C8  UNL     1      -6.411   3.154  14.883  1.00  0.00     0.122 C 
HETATM    9  C9  UNL     1      -6.514   3.504  16.355  1.00  0.00     0.020 C 
HETATM   10  C10 UNL     1      -6.621   2.240  17.159  1.00  0.00     0.007 C 
HETATM   11  C11 UNL     1      -6.067   1.036  16.476  1.00  0.00     0.044 C 
HETATM   12  C12 UNL     1      -4.977   1.321  15.475  1.00  0.00     0.058 C 
ENDBRANCH   5   7
BRANCH   6  13
HETATM   13  O3  UNL     1      -2.623   3.278  13.473  1.00  0.00    -0.393 OA
ATOM     14  H3  UNL     1      -2.733   3.582  14.367  1.00  0.00     0.210 HD
ENDBRANCH   6  13
BRANCH   1  15
HETATM   15  C2  UNL     1      -2.605   3.770  10.763  1.00  0.00     0.265 C 
HETATM   16  O2  UNL     1      -1.969   4.670  11.349  1.00  0.00    -0.265 OA
BRANCH  15  17
HETATM   17  O1  UNL     1      -2.243   3.572   9.426  1.00  0.00    -0.326 OA
HETATM   18  C1  UNL     1      -0.872   3.730   9.023  1.00  0.00     0.213 C 
ENDBRANCH  15  17
ENDBRANCH   1  15
TORSDOF 4
ENDMDL
MODEL 5
REMARK VINA RESULT: -6.281752570      1.717      2.933
REMARK  4 active torsions:
REMARK  status: ('A' for Active; 'I' for Inactive)
REMARK    1  A    between atoms: O1_2  and  C2_3 
REMARK    2  A    between atoms: C2_3  and  C3_5 
REMARK    3  A    between atoms: C7_9  and  N1_10 
REMARK    4  A    between atoms: C13_16  and  O3_17 
ROOT
HETATM    1  C3  UNL     1      -4.044   2.826  11.682  1.00  0.00     0.120 C 
HETATM    2  C4  UNL     1      -3.832   1.368  11.712  1.00  0.00    -0.000 C 
HETATM    3  C5  UNL     1      -2.439   0.882  11.407  1.00  0.00     0.011 C 
HETATM    4  C6  UNL     1      -4.246   0.903  13.132  1.00  0.00     0.033 C 
HETATM    5  C7  UNL     1      -4.977   2.094  13.656  1.00  0.00     0.113 C 
HETATM    6  C13 UNL     1      -4.105   3.239  13.163  1.00  0.00     0.154 C 
ENDROOT
BRANCH   5   7
HETATM    7  N1  UNL     1      -5.223   2.148  15.050  1.00  0.00    -0.386 N 
HETATM    8  C8  UNL     1      -6.463   2.755  15.422  1.00  0.00     0.122 C 
HETATM    9  C9  UNL     1      -6.441   3.091  16.901  1.00  0.00     0.020 C 
HETATM   10  C10 UNL     1      -6.350   1.819  17.696  1.00  0.00     0.007 C 
HETATM   11  C11 UNL     1      -5.765   0.672  16.945  1.00  0.00     0.044 C 
HETATM   12  C12 UNL     1      -4.817   1.057  15.839  1.00  0.00     0.058 C 
ENDBRANCH   5   7
BRANCH   6  13
HETATM   13  O3  UNL     1      -2.832   3.146  13.635  1.00  0.00    -0.393 OA
ATOM     14  H3  UNL     1      -2.898   3.171  14.582  1.00  0.00     0.210 HD
ENDBRANCH   6  13
BRANCH   1  15
HETATM   15  C2  UNL     1      -3.121   3.673  10.947  1.00  0.00     0.265 C 
HETATM   16  O2  UNL     1      -3.170   3.817   9.708  1.00  0.00    -0.265 OA
BRANCH  15  17
HETATM   17  O1  UNL     1      -2.102   4.393  11.580  1.00  0.00    -0.326 OA
HETATM   18  C1  UNL     1      -0.755   4.318  11.084  1.00  0.00     0.213 C 
ENDBRANCH  15  17
ENDBRANCH   1  15
TORSDOF 4
ENDMDL
