MODEL 1
REMARK VINA RESULT: -7.831666109      0.000      0.000
REMARK  2 active torsions:
REMARK  status: ('A' for Active; 'I' for Inactive)
REMARK    1  A    between atoms: C7_16  and  O2_17 
REMARK    2  A    between atoms: O2_17  and  C8_18 
ROOT
HETATM    1  C1  UNL     1      -5.867 -27.322 -28.725  1.00  0.00     0.046 C 
HETATM    2  C2  UNL     1      -5.710 -26.385 -29.648  1.00  0.00     0.060 A 
HETATM    3  N1  UNL     1      -4.519 -25.919 -30.132  1.00  0.00    -0.278 N 
ATOM      4  H1  UNL     1      -3.595 -26.238 -29.839  1.00  0.00     0.189 HD
HETATM    5  N2  UNL     1      -4.756 -24.993 -31.036  1.00  0.00    -0.185 N 
HETATM    6  N3  UNL     1      -3.904 -24.339 -31.697  1.00  0.00    -0.322 N 
ATOM      7  H31 UNL     1      -4.088 -23.621 -32.398  1.00  0.00     0.179 HD
ATOM      8  H32 UNL     1      -2.899 -24.473 -31.587  1.00  0.00     0.179 HD
HETATM    9  C3  UNL     1      -6.096 -24.814 -31.182  1.00  0.00     0.164 A 
HETATM   10  C4  UNL     1      -6.705 -25.689 -30.309  1.00  0.00     0.107 A 
HETATM   11  C5  UNL     1      -8.158 -25.753 -30.216  1.00  0.00     0.263 A 
HETATM   12  O1  UNL     1      -8.683 -26.557 -29.414  1.00  0.00    -0.267 OA
HETATM   13  N4  UNL     1      -8.922 -24.891 -31.045  1.00  0.00    -0.307 N 
ATOM     14  H4  UNL     1      -9.941 -24.915 -30.999  1.00  0.00     0.170 HD
HETATM   15  C6  UNL     1      -8.270 -23.989 -31.945  1.00  0.00     0.132 A 
HETATM   16  C7  UNL     1      -8.981 -23.186 -32.719  1.00  0.00     0.193 C 
HETATM   17  N5  UNL     1      -6.862 -23.954 -32.010  1.00  0.00    -0.323 N 
ATOM     18  H5  UNL     1      -6.395 -23.313 -32.651  1.00  0.00     0.169 HD
ENDROOT
BRANCH  16  19
HETATM   19  O2  UNL     1     -10.364 -23.236 -32.639  1.00  0.00    -0.294 OA
BRANCH  19  20
HETATM   20  C8  UNL     1     -11.093 -24.224 -33.285  1.00  0.00     0.403 C 
HETATM   21  O3  UNL     1     -11.477 -25.201 -32.590  1.00  0.00    -0.276 OA
ENDBRANCH  19  20
ENDBRANCH  16  19
TORSDOF 2
ENDMDL
MODEL 2
REMARK VINA RESULT: -7.792569334      1.784      4.805
REMARK  2 active torsions:
REMARK  status: ('A' for Active; 'I' for Inactive)
REMARK    1  A    between atoms: C7_16  and  O2_17 
REMARK    2  A    between atoms: O2_17  and  C8_18 
ROOT
HETATM    1  C1  UNL     1     -10.410 -24.064 -32.872  1.00  0.00     0.046 C 
HETATM    2  C2  UNL     1      -9.097 -23.893 -32.827  1.00  0.00     0.060 A 
HETATM    3  N1  UNL     1      -8.344 -23.178 -33.716  1.00  0.00    -0.278 N 
ATOM      4  H1  UNL     1      -8.704 -22.681 -34.532  1.00  0.00     0.189 HD
HETATM    5  N2  UNL     1      -7.081 -23.232 -33.351  1.00  0.00    -0.185 N 
HETATM    6  N3  UNL     1      -6.098 -22.693 -33.927  1.00  0.00    -0.322 N 
ATOM      7  H31 UNL     1      -5.119 -22.735 -33.644  1.00  0.00     0.179 HD
ATOM      8  H32 UNL     1      -6.194 -22.134 -34.776  1.00  0.00     0.179 HD
HETATM    9  C3  UNL     1      -6.953 -23.977 -32.220  1.00  0.00     0.164 A 
HETATM   10  C4  UNL     1      -8.221 -24.398 -31.884  1.00  0.00     0.107 A 
HETATM   11  C5  UNL     1      -8.439 -25.227 -30.705  1.00  0.00     0.263 A 
HETATM   12  O1  UNL     1      -9.601 -25.595 -30.424  1.00  0.00    -0.267 OA
HETATM   13  N4  UNL     1      -7.313 -25.587 -29.920  1.00  0.00    -0.307 N 
ATOM     14  H4  UNL     1      -7.437 -26.167 -29.090  1.00  0.00     0.170 HD
HETATM   15  C6  UNL     1      -6.003 -25.139 -30.287  1.00  0.00     0.132 A 
HETATM   16  C7  UNL     1      -4.953 -25.472 -29.556  1.00  0.00     0.193 C 
HETATM   17  N5  UNL     1      -5.829 -24.337 -31.434  1.00  0.00    -0.323 N 
ATOM     18  H5  UNL     1      -4.897 -24.017 -31.696  1.00  0.00     0.169 HD
ENDROOT
BRANCH  16  19
HETATM   19  O2  UNL     1      -5.147 -26.261 -28.432  1.00  0.00    -0.294 OA
BRANCH  19  20
HETATM   20  C8  UNL     1      -5.300 -27.636 -28.528  1.00  0.00     0.403 C 
HETATM   21  O3  UNL     1      -6.465 -28.094 -28.396  1.00  0.00    -0.276 OA
ENDBRANCH  19  20
ENDBRANCH  16  19
TORSDOF 2
ENDMDL
MODEL 3
REMARK VINA RESULT: -7.147273792      1.790      2.914
REMARK  2 active torsions:
REMARK  status: ('A' for Active; 'I' for Inactive)
REMARK    1  A    between atoms: C7_16  and  O2_17 
REMARK    2  A    between atoms: O2_17  and  C8_18 
ROOT
HETATM    1  C1  UNL     1      -4.107 -24.430 -31.869  1.00  0.00     0.046 C 
HETATM    2  C2  UNL     1      -4.932 -25.136 -31.110  1.00  0.00     0.060 A 
HETATM    3  N1  UNL     1      -4.615 -25.761 -29.935  1.00  0.00    -0.278 N 
ATOM      4  H1  UNL     1      -3.695 -25.760 -29.494  1.00  0.00     0.189 HD
HETATM    5  N2  UNL     1      -5.688 -26.362 -29.466  1.00  0.00    -0.185 N 
HETATM    6  N3  UNL     1      -5.779 -27.037 -28.405  1.00  0.00    -0.322 N 
ATOM      7  H31 UNL     1      -6.610 -27.502 -28.042  1.00  0.00     0.179 HD
ATOM      8  H32 UNL     1      -4.988 -27.188 -27.778  1.00  0.00     0.179 HD
HETATM    9  C3  UNL     1      -6.740 -26.160 -30.302  1.00  0.00     0.164 A 
HETATM   10  C4  UNL     1      -6.272 -25.388 -31.342  1.00  0.00     0.107 A 
HETATM   11  C5  UNL     1      -7.159 -24.985 -32.426  1.00  0.00     0.263 A 
HETATM   12  O1  UNL     1      -6.706 -24.283 -33.358  1.00  0.00    -0.267 OA
HETATM   13  N4  UNL     1      -8.512 -25.410 -32.380  1.00  0.00    -0.307 N 
ATOM     14  H4  UNL     1      -9.154 -25.143 -33.125  1.00  0.00     0.170 HD
HETATM   15  C6  UNL     1      -8.979 -26.213 -31.290  1.00  0.00     0.132 A 
HETATM   16  C7  UNL     1     -10.240 -26.610 -31.244  1.00  0.00     0.193 C 
HETATM   17  N5  UNL     1      -8.093 -26.584 -30.257  1.00  0.00    -0.323 N 
ATOM     18  H5  UNL     1      -8.425 -27.155 -29.480  1.00  0.00     0.169 HD
ENDROOT
BRANCH  16  19
HETATM   19  O2  UNL     1     -11.094 -26.235 -32.270  1.00  0.00    -0.294 OA
BRANCH  19  20
HETATM   20  C8  UNL     1     -11.495 -24.917 -32.434  1.00  0.00     0.403 C 
HETATM   21  O3  UNL     1     -10.948 -24.262 -33.359  1.00  0.00    -0.276 OA
ENDBRANCH  19  20
ENDBRANCH  16  19
TORSDOF 2
ENDMDL
MODEL 4
REMARK VINA RESULT: -7.040186590      0.971      1.095
REMARK  2 active torsions:
REMARK  status: ('A' for Active; 'I' for Inactive)
REMARK    1  A    between atoms: C7_16  and  O2_17 
REMARK    2  A    between atoms: O2_17  and  C8_18 
ROOT
HETATM    1  C1  UNL     1      -5.548 -27.035 -29.091  1.00  0.00     0.046 C 
HETATM    2  C2  UNL     1      -5.450 -26.139 -30.061  1.00  0.00     0.060 A 
HETATM    3  N1  UNL     1      -4.292 -25.599 -30.548  1.00  0.00    -0.278 N 
ATOM      4  H1  UNL     1      -3.351 -25.822 -30.221  1.00  0.00     0.189 HD
HETATM    5  N2  UNL     1      -4.586 -24.745 -31.506  1.00  0.00    -0.185 N 
HETATM    6  N3  UNL     1      -3.777 -24.057 -32.186  1.00  0.00    -0.322 N 
ATOM      7  H31 UNL     1      -4.005 -23.396 -32.928  1.00  0.00     0.179 HD
ATOM      8  H32 UNL     1      -2.767 -24.099 -32.051  1.00  0.00     0.179 HD
HETATM    9  C3  UNL     1      -5.932 -24.690 -31.686  1.00  0.00     0.164 A 
HETATM   10  C4  UNL     1      -6.485 -25.566 -30.777  1.00  0.00     0.107 A 
HETATM   11  C5  UNL     1      -7.929 -25.749 -30.707  1.00  0.00     0.263 A 
HETATM   12  O1  UNL     1      -8.403 -26.551 -29.872  1.00  0.00    -0.267 OA
HETATM   13  N4  UNL     1      -8.745 -25.001 -31.595  1.00  0.00    -0.307 N 
ATOM     14  H4  UNL     1      -9.758 -25.109 -31.566  1.00  0.00     0.170 HD
HETATM   15  C6  UNL     1      -8.150 -24.094 -32.531  1.00  0.00     0.132 A 
HETATM   16  C7  UNL     1      -8.909 -23.397 -33.360  1.00  0.00     0.193 C 
HETATM   17  N5  UNL     1      -6.749 -23.943 -32.573  1.00  0.00    -0.323 N 
ATOM     18  H5  UNL     1      -6.324 -23.299 -33.239  1.00  0.00     0.169 HD
ENDROOT
BRANCH  16  19
HETATM   19  O2  UNL     1     -10.285 -23.561 -33.303  1.00  0.00    -0.294 OA
BRANCH  19  20
HETATM   20  C8  UNL     1     -11.056 -23.633 -34.453  1.00  0.00     0.403 C 
HETATM   21  O3  UNL     1     -10.457 -23.511 -35.553  1.00  0.00    -0.276 OA
ENDBRANCH  19  20
ENDBRANCH  16  19
TORSDOF 2
ENDMDL
MODEL 5
REMARK VINA RESULT: -6.739552892      2.082      5.066
REMARK  2 active torsions:
REMARK  status: ('A' for Active; 'I' for Inactive)
REMARK    1  A    between atoms: C7_16  and  O2_17 
REMARK    2  A    between atoms: O2_17  and  C8_18 
ROOT
HETATM    1  C1  UNL     1     -11.376 -25.002 -32.423  1.00  0.00     0.046 C 
HETATM    2  C2  UNL     1     -10.161 -24.511 -32.614  1.00  0.00     0.060 A 
HETATM    3  N1  UNL     1      -9.832 -23.462 -33.427  1.00  0.00    -0.278 N 
ATOM      4  H1  UNL     1     -10.488 -22.922 -33.992  1.00  0.00     0.189 HD
HETATM    5  N2  UNL     1      -8.533 -23.260 -33.363  1.00  0.00    -0.185 N 
HETATM    6  N3  UNL     1      -7.868 -22.381 -33.975  1.00  0.00    -0.322 N 
ATOM      7  H31 UNL     1      -6.862 -22.224 -33.925  1.00  0.00     0.179 HD
ATOM      8  H32 UNL     1      -8.297 -21.708 -34.611  1.00  0.00     0.179 HD
HETATM    9  C3  UNL     1      -7.962 -24.157 -32.516  1.00  0.00     0.164 A 
HETATM   10  C4  UNL     1      -8.982 -24.951 -32.040  1.00  0.00     0.107 A 
HETATM   11  C5  UNL     1      -8.707 -26.026 -31.096  1.00  0.00     0.263 A 
HETATM   12  O1  UNL     1      -9.654 -26.731 -30.680  1.00  0.00    -0.267 OA
HETATM   13  N4  UNL     1      -7.365 -26.233 -30.685  1.00  0.00    -0.307 N 
ATOM     14  H4  UNL     1      -7.144 -26.979 -30.026  1.00  0.00     0.170 HD
HETATM   15  C6  UNL     1      -6.318 -25.397 -31.193  1.00  0.00     0.132 A 
HETATM   16  C7  UNL     1      -5.066 -25.587 -30.811  1.00  0.00     0.193 C 
HETATM   17  N5  UNL     1      -6.620 -24.365 -32.104  1.00  0.00    -0.323 N 
ATOM     18  H5  UNL     1      -5.876 -23.768 -32.466  1.00  0.00     0.169 HD
ENDROOT
BRANCH  16  19
HETATM   19  O2  UNL     1      -4.791 -26.608 -29.914  1.00  0.00    -0.294 OA
BRANCH  19  20
HETATM   20  C8  UNL     1      -5.017 -26.460 -28.554  1.00  0.00     0.403 C 
HETATM   21  O3  UNL     1      -5.086 -27.511 -27.866  1.00  0.00    -0.276 OA
ENDBRANCH  19  20
ENDBRANCH  16  19
TORSDOF 2
ENDMDL
