MODEL 1
REMARK VINA RESULT: -7.039913862      0.000      0.000
REMARK  6 active torsions:
REMARK  status: ('A' for Active; 'I' for Inactive)
REMARK    1  A    between atoms: C2_2  and  O2_4 
REMARK    2  A    between atoms: O2_4  and  C3_5 
REMARK    3  A    between atoms: C11_14  and  C12_15 
REMARK    4  A    between atoms: C12_15  and  O4_16 
REMARK    5  A    between atoms: C15_21  and  O6_22 
REMARK    6  A    between atoms: O6_22  and  C16_23 
ROOT
HETATM    1  C3  UNL     1      -4.544   1.943  14.602  1.00  0.00     0.190 C 
HETATM    2  C4  UNL     1      -5.718   2.736  14.065  1.00  0.00     0.150 C 
HETATM    3  C5  UNL     1      -5.926   4.035  14.821  1.00  0.00     0.042 C 
HETATM    4  O3  UNL     1      -5.710   2.880  12.719  1.00  0.00    -0.372 OA
HETATM    5  C6  UNL     1      -4.591   3.346  12.125  1.00  0.00     0.075 C 
HETATM    6  C7  UNL     1      -4.633   4.856  11.973  1.00  0.00     0.047 C 
HETATM    7  C8  UNL     1      -4.610   2.795  10.685  1.00  0.00     0.091 C 
HETATM    8  C9  UNL     1      -4.995   1.340  10.858  1.00  0.00     0.016 C 
HETATM    9  C10 UNL     1      -3.703   0.706  11.376  1.00  0.00     0.021 C 
HETATM   10  C11 UNL     1      -2.772   1.865  11.592  1.00  0.00     0.051 C 
HETATM   11  C13 UNL     1      -3.170   2.654  10.382  1.00  0.00     0.145 C 
HETATM   12  O5  UNL     1      -2.462   3.008   9.506  1.00  0.00    -0.296 OA
HETATM   13  C14 UNL     1      -3.271   2.846  12.621  1.00  0.00     0.071 C 
HETATM   14  C15 UNL     1      -3.221   2.400  14.030  1.00  0.00     0.172 C 
ENDROOT
BRANCH   1  15
HETATM   15  O2  UNL     1      -4.577   2.067  16.011  1.00  0.00    -0.311 OA
BRANCH  15  16
HETATM   16  C2  UNL     1      -5.340   1.275  16.838  1.00  0.00     0.255 C 
HETATM   17  C1  UNL     1      -6.163   1.789  17.954  1.00  0.00     0.126 C 
HETATM   18  O1  UNL     1      -5.312   0.022  16.600  1.00  0.00    -0.266 OA
ENDBRANCH  15  16
ENDBRANCH   1  15
BRANCH  14  19
HETATM   19  O6  UNL     1      -2.781   3.447  14.869  1.00  0.00    -0.313 OA
BRANCH  19  20
HETATM   20  C16 UNL     1      -2.118   4.525  14.327  1.00  0.00     0.255 C 
HETATM   21  C17 UNL     1      -2.623   5.912  14.363  1.00  0.00     0.126 C 
HETATM   22  O7  UNL     1      -1.015   4.318  13.764  1.00  0.00    -0.266 OA
ENDBRANCH  19  20
ENDBRANCH  14  19
BRANCH  10  23
HETATM   23  C12 UNL     1      -1.339   1.564  11.592  1.00  0.00     0.182 C 
BRANCH  23  24
HETATM   24  O4  UNL     1      -0.499   2.641  11.628  1.00  0.00    -0.400 OA
ATOM     25  H4  UNL     1      -0.218   2.978  10.786  1.00  0.00     0.209 HD
ENDBRANCH  23  24
ENDBRANCH  10  23
TORSDOF 6
ENDMDL
MODEL 2
REMARK VINA RESULT: -7.016654992      1.954      3.805
REMARK  6 active torsions:
REMARK  status: ('A' for Active; 'I' for Inactive)
REMARK    1  A    between atoms: C2_2  and  O2_4 
REMARK    2  A    between atoms: O2_4  and  C3_5 
REMARK    3  A    between atoms: C11_14  and  C12_15 
REMARK    4  A    between atoms: C12_15  and  O4_16 
REMARK    5  A    between atoms: C15_21  and  O6_22 
REMARK    6  A    between atoms: O6_22  and  C16_23 
ROOT
HETATM    1  C3  UNL     1      -3.663   2.250  13.179  1.00  0.00     0.190 C 
HETATM    2  C4  UNL     1      -3.517   1.946  11.703  1.00  0.00     0.150 C 
HETATM    3  C5  UNL     1      -4.834   1.544  11.067  1.00  0.00     0.042 C 
HETATM    4  O3  UNL     1      -2.843   2.897  11.012  1.00  0.00    -0.372 OA
HETATM    5  C6  UNL     1      -3.236   4.182  11.132  1.00  0.00     0.075 C 
HETATM    6  C7  UNL     1      -4.240   4.557  10.057  1.00  0.00     0.047 C 
HETATM    7  C8  UNL     1      -1.988   5.039  10.836  1.00  0.00     0.091 C 
HETATM    8  C9  UNL     1      -0.886   4.360  11.622  1.00  0.00     0.016 C 
HETATM    9  C10 UNL     1      -1.178   4.792  13.060  1.00  0.00     0.021 C 
HETATM   10  C11 UNL     1      -2.482   5.532  12.975  1.00  0.00     0.051 C 
HETATM   11  C13 UNL     1      -2.218   6.233  11.678  1.00  0.00     0.145 C 
HETATM   12  O5  UNL     1      -2.218   7.398  11.492  1.00  0.00    -0.296 OA
HETATM   13  C14 UNL     1      -3.623   4.675  12.491  1.00  0.00     0.071 C 
HETATM   14  C15 UNL     1      -4.132   3.663  13.441  1.00  0.00     0.172 C 
ENDROOT
BRANCH   1  15
HETATM   15  O2  UNL     1      -4.560   1.293  13.707  1.00  0.00    -0.311 OA
BRANCH  15  16
HETATM   16  C2  UNL     1      -4.430   0.714  14.949  1.00  0.00     0.255 C 
HETATM   17  C1  UNL     1      -3.840   1.390  16.125  1.00  0.00     0.126 C 
HETATM   18  O1  UNL     1      -4.856  -0.484  15.058  1.00  0.00    -0.266 OA
ENDBRANCH  15  16
ENDBRANCH   1  15
BRANCH  14  19
HETATM   19  O6  UNL     1      -5.543   3.611  13.405  1.00  0.00    -0.313 OA
BRANCH  19  20
HETATM   20  C16 UNL     1      -6.277   4.320  14.329  1.00  0.00     0.255 C 
HETATM   21  C17 UNL     1      -6.474   3.901  15.730  1.00  0.00     0.126 C 
HETATM   22  O7  UNL     1      -6.817   5.392  13.956  1.00  0.00    -0.266 OA
ENDBRANCH  19  20
ENDBRANCH  14  19
BRANCH  10  23
HETATM   23  C12 UNL     1      -2.768   6.483  14.053  1.00  0.00     0.182 C 
BRANCH  23  24
HETATM   24  O4  UNL     1      -1.757   7.340  14.381  1.00  0.00    -0.400 OA
ATOM     25  H4  UNL     1      -1.628   7.497  15.309  1.00  0.00     0.209 HD
ENDBRANCH  23  24
ENDBRANCH  10  23
TORSDOF 6
ENDMDL
MODEL 3
REMARK VINA RESULT: -6.941073844      1.576      5.125
REMARK  6 active torsions:
REMARK  status: ('A' for Active; 'I' for Inactive)
REMARK    1  A    between atoms: C2_2  and  O2_4 
REMARK    2  A    between atoms: O2_4  and  C3_5 
REMARK    3  A    between atoms: C11_14  and  C12_15 
REMARK    4  A    between atoms: C12_15  and  O4_16 
REMARK    5  A    between atoms: C15_21  and  O6_22 
REMARK    6  A    between atoms: O6_22  and  C16_23 
ROOT
HETATM    1  C3  UNL     1      -4.365   3.235  11.161  1.00  0.00     0.190 C 
HETATM    2  C4  UNL     1      -5.315   2.059  11.255  1.00  0.00     0.150 C 
HETATM    3  C5  UNL     1      -4.966   0.958  10.272  1.00  0.00     0.042 C 
HETATM    4  O3  UNL     1      -5.518   1.620  12.520  1.00  0.00    -0.372 OA
HETATM    5  C6  UNL     1      -4.444   1.345  13.288  1.00  0.00     0.075 C 
HETATM    6  C7  UNL     1      -4.045  -0.116  13.179  1.00  0.00     0.047 C 
HETATM    7  C8  UNL     1      -4.904   1.530  14.749  1.00  0.00     0.091 C 
HETATM    8  C9  UNL     1      -5.680   2.830  14.724  1.00  0.00     0.016 C 
HETATM    9  C10 UNL     1      -4.574   3.884  14.651  1.00  0.00     0.021 C 
HETATM   10  C11 UNL     1      -3.307   3.093  14.487  1.00  0.00     0.051 C 
HETATM   11  C13 UNL     1      -3.663   1.974  15.417  1.00  0.00     0.145 C 
HETATM   12  O5  UNL     1      -3.060   1.631  16.372  1.00  0.00    -0.296 OA
HETATM   13  C14 UNL     1      -3.274   2.276  13.222  1.00  0.00     0.071 C 
HETATM   14  C15 UNL     1      -3.099   3.028  11.961  1.00  0.00     0.172 C 
ENDROOT
BRANCH   1  15
HETATM   15  O2  UNL     1      -4.091   3.430   9.787  1.00  0.00    -0.311 OA
BRANCH  15  16
HETATM   16  C2  UNL     1      -3.939   4.664   9.196  1.00  0.00     0.255 C 
HETATM   17  C1  UNL     1      -3.785   5.931   9.944  1.00  0.00     0.126 C 
HETATM   18  O1  UNL     1      -3.936   4.680   7.920  1.00  0.00    -0.266 OA
ENDBRANCH  15  16
ENDBRANCH   1  15
BRANCH  14  19
HETATM   19  O6  UNL     1      -2.207   2.353  11.099  1.00  0.00    -0.313 OA
BRANCH  19  20
HETATM   20  C16 UNL     1      -0.949   2.869  10.876  1.00  0.00     0.255 C 
HETATM   21  C17 UNL     1      -0.522   3.495   9.610  1.00  0.00     0.126 C 
HETATM   22  O7  UNL     1      -0.110   2.800  11.808  1.00  0.00    -0.266 OA
ENDBRANCH  19  20
ENDBRANCH  14  19
BRANCH  10  23
HETATM   23  C12 UNL     1      -2.064   3.755  14.890  1.00  0.00     0.182 C 
BRANCH  23  24
HETATM   24  O4  UNL     1      -1.363   4.373  13.894  1.00  0.00    -0.400 OA
ATOM     25  H4  UNL     1      -0.794   5.085  14.163  1.00  0.00     0.209 HD
ENDBRANCH  23  24
ENDBRANCH  10  23
TORSDOF 6
ENDMDL
MODEL 4
REMARK VINA RESULT: -6.914108478      1.975      3.359
REMARK  6 active torsions:
REMARK  status: ('A' for Active; 'I' for Inactive)
REMARK    1  A    between atoms: C2_2  and  O2_4 
REMARK    2  A    between atoms: O2_4  and  C3_5 
REMARK    3  A    between atoms: C11_14  and  C12_15 
REMARK    4  A    between atoms: C12_15  and  O4_16 
REMARK    5  A    between atoms: C15_21  and  O6_22 
REMARK    6  A    between atoms: O6_22  and  C16_23 
ROOT
HETATM    1  C3  UNL     1      -3.499   2.109  12.677  1.00  0.00     0.190 C 
HETATM    2  C4  UNL     1      -3.777   1.716  11.240  1.00  0.00     0.150 C 
HETATM    3  C5  UNL     1      -5.253   1.798  10.898  1.00  0.00     0.042 C 
HETATM    4  O3  UNL     1      -2.971   2.328  10.340  1.00  0.00    -0.372 OA
HETATM    5  C6  UNL     1      -2.856   3.672  10.386  1.00  0.00     0.075 C 
HETATM    6  C7  UNL     1      -3.864   4.346   9.473  1.00  0.00     0.047 C 
HETATM    7  C8  UNL     1      -1.477   4.003   9.779  1.00  0.00     0.091 C 
HETATM    8  C9  UNL     1      -0.545   3.000  10.426  1.00  0.00     0.016 C 
HETATM    9  C10 UNL     1      -0.365   3.564  11.837  1.00  0.00     0.021 C 
HETATM   10  C11 UNL     1      -1.316   4.725  11.905  1.00  0.00     0.051 C 
HETATM   11  C13 UNL     1      -1.096   5.230  10.512  1.00  0.00     0.145 C 
HETATM   12  O5  UNL     1      -0.727   6.307  10.202  1.00  0.00    -0.296 OA
HETATM   13  C14 UNL     1      -2.758   4.325  11.729  1.00  0.00     0.071 C 
HETATM   14  C15 UNL     1      -3.381   3.605  12.860  1.00  0.00     0.172 C 
ENDROOT
BRANCH   1  15
HETATM   15  O2  UNL     1      -4.545   1.566  13.459  1.00  0.00    -0.311 OA
BRANCH  15  16
HETATM   16  C2  UNL     1      -4.359   0.937  14.669  1.00  0.00     0.255 C 
HETATM   17  C1  UNL     1      -3.759   1.580  15.857  1.00  0.00     0.126 C 
HETATM   18  O1  UNL     1      -4.741  -0.279  14.735  1.00  0.00    -0.266 OA
ENDBRANCH  15  16
ENDBRANCH   1  15
BRANCH  14  19
HETATM   19  O6  UNL     1      -4.696   4.069  13.083  1.00  0.00    -0.313 OA
BRANCH  19  20
HETATM   20  C16 UNL     1      -4.974   4.827  14.198  1.00  0.00     0.255 C 
HETATM   21  C17 UNL     1      -6.234   4.745  14.962  1.00  0.00     0.126 C 
HETATM   22  O7  UNL     1      -4.103   5.641  14.591  1.00  0.00    -0.266 OA
ENDBRANCH  19  20
ENDBRANCH  14  19
BRANCH  10  23
HETATM   23  C12 UNL     1      -1.023   5.754  12.905  1.00  0.00     0.182 C 
BRANCH  23  24
HETATM   24  O4  UNL     1      -1.877   6.820  12.938  1.00  0.00    -0.400 OA
ATOM     25  H4  UNL     1      -1.642   7.525  13.528  1.00  0.00     0.209 HD
ENDBRANCH  23  24
ENDBRANCH  10  23
TORSDOF 6
ENDMDL
MODEL 5
REMARK VINA RESULT: -6.882305404      2.643      5.293
REMARK  6 active torsions:
REMARK  status: ('A' for Active; 'I' for Inactive)
REMARK    1  A    between atoms: C2_2  and  O2_4 
REMARK    2  A    between atoms: O2_4  and  C3_5 
REMARK    3  A    between atoms: C11_14  and  C12_15 
REMARK    4  A    between atoms: C12_15  and  O4_16 
REMARK    5  A    between atoms: C15_21  and  O6_22 
REMARK    6  A    between atoms: O6_22  and  C16_23 
ROOT
HETATM    1  C3  UNL     1      -2.992   2.156  11.436  1.00  0.00     0.190 C 
HETATM    2  C4  UNL     1      -1.503   2.433  11.473  1.00  0.00     0.150 C 
HETATM    3  C5  UNL     1      -0.931   2.681  10.090  1.00  0.00     0.042 C 
HETATM    4  O3  UNL     1      -1.142   3.362  12.390  1.00  0.00    -0.372 OA
HETATM    5  C6  UNL     1      -1.783   4.549  12.393  1.00  0.00     0.075 C 
HETATM    6  C7  UNL     1      -1.061   5.571  11.534  1.00  0.00     0.047 C 
HETATM    7  C8  UNL     1      -1.679   5.088  13.835  1.00  0.00     0.091 C 
HETATM    8  C9  UNL     1      -2.009   3.887  14.696  1.00  0.00     0.016 C 
HETATM    9  C10 UNL     1      -3.529   3.776  14.556  1.00  0.00     0.021 C 
HETATM   10  C11 UNL     1      -3.890   4.808  13.526  1.00  0.00     0.051 C 
HETATM   11  C13 UNL     1      -2.928   5.866  13.973  1.00  0.00     0.145 C 
HETATM   12  O5  UNL     1      -3.195   6.964  14.314  1.00  0.00    -0.296 OA
HETATM   13  C14 UNL     1      -3.264   4.549  12.180  1.00  0.00     0.071 C 
HETATM   14  C15 UNL     1      -3.820   3.420  11.405  1.00  0.00     0.172 C 
ENDROOT
BRANCH   1  15
HETATM   15  O2  UNL     1      -3.229   1.344  10.302  1.00  0.00    -0.311 OA
BRANCH  15  16
HETATM   16  C2  UNL     1      -3.799   0.093  10.353  1.00  0.00     0.255 C 
HETATM   17  C1  UNL     1      -3.378  -0.976  11.283  1.00  0.00     0.126 C 
HETATM   18  O1  UNL     1      -4.750  -0.125   9.530  1.00  0.00    -0.266 OA
ENDBRANCH  15  16
ENDBRANCH   1  15
BRANCH  14  19
HETATM   19  O6  UNL     1      -3.943   3.764  10.041  1.00  0.00    -0.313 OA
BRANCH  19  20
HETATM   20  C16 UNL     1      -4.372   5.024   9.689  1.00  0.00     0.255 C 
HETATM   21  C17 UNL     1      -3.535   6.020   8.992  1.00  0.00     0.126 C 
HETATM   22  O7  UNL     1      -5.550   5.349   9.980  1.00  0.00    -0.266 OA
ENDBRANCH  19  20
ENDBRANCH  14  19
BRANCH  10  23
HETATM   23  C12 UNL     1      -5.272   5.294  13.541  1.00  0.00     0.182 C 
BRANCH  23  24
HETATM   24  O4  UNL     1      -5.597   6.208  12.580  1.00  0.00    -0.400 OA
ATOM     25  H4  UNL     1      -6.441   6.634  12.678  1.00  0.00     0.209 HD
ENDBRANCH  23  24
ENDBRANCH  10  23
TORSDOF 6
ENDMDL
