MODEL 1
REMARK VINA RESULT: -9.283232708      0.000      0.000
REMARK  10 active torsions:
REMARK  status: ('A' for Active; 'I' for Inactive)
REMARK    1  A    between atoms: C6_9  and  C7_10 
REMARK    2  A    between atoms: C7_10  and  O2_11 
REMARK    3  A    between atoms: C7_10  and  C8_13 
REMARK    4  A    between atoms: C8_13  and  O3_14 
REMARK    5  A    between atoms: C11_18  and  C12_19 
REMARK    6  A    between atoms: C11_18  and  C21_31 
REMARK    7  A    between atoms: C12_19  and  C13_20 
REMARK    8  A    between atoms: C14_21  and  C15_22 
REMARK    9  A    between atoms: C15_22  and  C16_23 
REMARK   10  A    between atoms: C21_31  and  C22_32 
ROOT
HETATM    1  O1  UNL     1     -94.634 -15.384  11.798  1.00  0.00    -0.239 OA
HETATM    2  C1  UNL     1     -93.686 -16.083  11.345  1.00  0.00     0.360 C 
HETATM    3  N1  UNL     1     -92.755 -16.622  12.249  1.00  0.00    -0.336 N 
ATOM      4  H1  UNL     1     -92.887 -16.503  13.254  1.00  0.00     0.164 HD
HETATM    5  C2  UNL     1     -91.603 -17.351  11.741  1.00  0.00     0.133 C 
HETATM    6  C3  UNL     1     -91.281 -16.776  10.400  1.00  0.00     0.043 C 
HETATM    7  C4  UNL     1     -92.423 -17.111   9.498  1.00  0.00     0.140 C 
HETATM    8  C5  UNL     1     -92.893 -18.515   9.552  1.00  0.00     0.040 C 
HETATM    9  C6  UNL     1     -92.024 -19.632   9.236  1.00  0.00     0.019 C 
HETATM   10  C9  UNL     1     -90.606 -19.706   9.508  1.00  0.00     0.008 C 
HETATM   11  C10 UNL     1     -89.846 -18.679  10.227  1.00  0.00     0.012 C 
HETATM   12  C11 UNL     1     -90.000 -17.263   9.802  1.00  0.00    -0.019 C 
HETATM   13  O4  UNL     1     -93.537 -16.332  10.010  1.00  0.00    -0.298 OA
ENDROOT
BRANCH  12  14
HETATM   14  C12 UNL     1     -90.073 -17.229   8.271  1.00  0.00     0.104 C 
BRANCH  14  15
HETATM   15  C13 UNL     1     -88.808 -16.695   7.744  1.00  0.00    -0.106 C 
HETATM   16  C14 UNL     1     -87.753 -16.227   7.323  1.00  0.00    -0.106 C 
BRANCH  16  17
HETATM   17  C15 UNL     1     -86.506 -15.662   6.806  1.00  0.00     0.098 C 
BRANCH  17  18
HETATM   18  C16 UNL     1     -85.401 -16.217   7.677  1.00  0.00    -0.000 C 
HETATM   19  C17 UNL     1     -84.048 -16.069   7.056  1.00  0.00     0.033 C 
HETATM   20  C18 UNL     1     -83.240 -15.048   7.829  1.00  0.00     0.232 C 
HETATM   21  N2  UNL     1     -83.062 -15.441   9.194  1.00  0.00    -0.075 N 
HETATM   22  C19 UNL     1     -84.284 -15.747   9.874  1.00  0.00     0.232 C 
ATOM     23  H22 UNL     1     -82.409 -16.221   9.260  1.00  0.00     0.277 HD
ATOM     24  H21 UNL     1     -82.535 -14.732   9.704  1.00  0.00     0.277 HD
HETATM   25  C20 UNL     1     -85.502 -15.511   9.013  1.00  0.00     0.033 C 
ENDBRANCH  17  18
ENDBRANCH  16  17
ENDBRANCH  14  15
ENDBRANCH  12  14
BRANCH  12  26
HETATM   26  C21 UNL     1     -88.801 -16.430  10.101  1.00  0.00     0.049 C 
BRANCH  26  27
HETATM   27  C22 UNL     1     -88.522 -16.006  11.453  1.00  0.00    -0.054 A 
HETATM   28  C23 UNL     1     -87.964 -16.871  12.365  1.00  0.00     0.010 A 
HETATM   29  C24 UNL     1     -87.650 -16.530  13.663  1.00  0.00     0.046 A 
HETATM   30  C25 UNL     1     -87.920 -15.242  14.050  1.00  0.00     0.154 A 
HETATM   31  F1  UNL     1     -87.612 -14.894  15.336  1.00  0.00    -0.203 F 
HETATM   32  C26 UNL     1     -88.475 -14.345  13.172  1.00  0.00     0.155 A 
HETATM   33  F2  UNL     1     -88.706 -13.094  13.641  1.00  0.00    -0.203 F 
HETATM   34  C27 UNL     1     -88.769 -14.725  11.898  1.00  0.00     0.052 A 
ENDBRANCH  26  27
ENDBRANCH  12  26
BRANCH   9  35
HETATM   35  C7  UNL     1     -92.726 -20.900   9.795  1.00  0.00     0.145 C 
BRANCH  35  36
HETATM   36  O2  UNL     1     -93.091 -21.646   8.690  1.00  0.00    -0.393 OA
ATOM     37  H2  UNL     1     -93.556 -22.401   9.031  1.00  0.00     0.210 HD
ENDBRANCH  35  36
BRANCH  35  38
HETATM   38  C8  UNL     1     -93.982 -20.512  10.528  1.00  0.00     0.196 C 
BRANCH  38  39
HETATM   39  O3  UNL     1     -93.855 -20.999  11.837  1.00  0.00    -0.398 OA
ATOM     40  H3  UNL     1     -93.231 -20.437  12.280  1.00  0.00     0.209 HD
ENDBRANCH  38  39
ENDBRANCH  35  38
ENDBRANCH   9  35
TORSDOF 10
ENDMDL
MODEL 2
REMARK VINA RESULT: -9.154578136      0.481      1.132
REMARK  10 active torsions:
REMARK  status: ('A' for Active; 'I' for Inactive)
REMARK    1  A    between atoms: C6_9  and  C7_10 
REMARK    2  A    between atoms: C7_10  and  O2_11 
REMARK    3  A    between atoms: C7_10  and  C8_13 
REMARK    4  A    between atoms: C8_13  and  O3_14 
REMARK    5  A    between atoms: C11_18  and  C12_19 
REMARK    6  A    between atoms: C11_18  and  C21_31 
REMARK    7  A    between atoms: C12_19  and  C13_20 
REMARK    8  A    between atoms: C14_21  and  C15_22 
REMARK    9  A    between atoms: C15_22  and  C16_23 
REMARK   10  A    between atoms: C21_31  and  C22_32 
ROOT
HETATM    1  O1  UNL     1     -94.666 -15.373  11.759  1.00  0.00    -0.239 OA
HETATM    2  C1  UNL     1     -93.695 -16.052  11.322  1.00  0.00     0.360 C 
HETATM    3  N1  UNL     1     -92.766 -16.566  12.243  1.00  0.00    -0.336 N 
ATOM      4  H1  UNL     1     -92.914 -16.446  13.244  1.00  0.00     0.164 HD
HETATM    5  C2  UNL     1     -91.590 -17.271  11.755  1.00  0.00     0.133 C 
HETATM    6  C3  UNL     1     -91.261 -16.694  10.416  1.00  0.00     0.043 C 
HETATM    7  C4  UNL     1     -92.382 -17.059   9.499  1.00  0.00     0.140 C 
HETATM    8  C5  UNL     1     -92.820 -18.472   9.552  1.00  0.00     0.040 C 
HETATM    9  C6  UNL     1     -91.922 -19.571   9.254  1.00  0.00     0.019 C 
HETATM   10  C9  UNL     1     -90.507 -19.612   9.547  1.00  0.00     0.008 C 
HETATM   11  C10 UNL     1     -89.781 -18.564  10.273  1.00  0.00     0.012 C 
HETATM   12  C11 UNL     1     -89.960 -17.154   9.839  1.00  0.00    -0.019 C 
HETATM   13  O4  UNL     1     -93.520 -16.303   9.991  1.00  0.00    -0.298 OA
ENDROOT
BRANCH  12  14
HETATM   14  C12 UNL     1     -90.012 -17.127   8.307  1.00  0.00     0.104 C 
BRANCH  14  15
HETATM   15  C13 UNL     1     -88.757 -16.556   7.796  1.00  0.00    -0.106 C 
HETATM   16  C14 UNL     1     -87.700 -16.106   7.359  1.00  0.00    -0.106 C 
BRANCH  16  17
HETATM   17  C15 UNL     1     -86.435 -15.570   6.857  1.00  0.00     0.098 C 
BRANCH  17  18
HETATM   18  C16 UNL     1     -85.351 -16.168   7.725  1.00  0.00    -0.000 C 
HETATM   19  C17 UNL     1     -83.998 -16.098   7.090  1.00  0.00     0.033 C 
HETATM   20  C18 UNL     1     -83.132 -15.109   7.841  1.00  0.00     0.232 C 
HETATM   21  N2  UNL     1     -82.961 -15.491   9.210  1.00  0.00    -0.075 N 
HETATM   22  C19 UNL     1     -84.190 -15.726   9.906  1.00  0.00     0.232 C 
ATOM     23  H22 UNL     1     -82.348 -16.303   9.281  1.00  0.00     0.277 HD
ATOM     24  H21 UNL     1     -82.394 -14.804   9.705  1.00  0.00     0.277 HD
HETATM   25  C20 UNL     1     -85.403 -15.440   9.052  1.00  0.00     0.033 C 
ENDBRANCH  17  18
ENDBRANCH  16  17
ENDBRANCH  14  15
ENDBRANCH  12  14
BRANCH  12  26
HETATM   26  C21 UNL     1     -88.785 -16.293  10.151  1.00  0.00     0.049 C 
BRANCH  26  27
HETATM   27  C22 UNL     1     -88.462 -15.963  11.521  1.00  0.00    -0.054 A 
HETATM   28  C23 UNL     1     -88.661 -14.692  12.007  1.00  0.00     0.010 A 
HETATM   29  C24 UNL     1     -88.397 -14.311  13.305  1.00  0.00     0.046 A 
HETATM   30  C25 UNL     1     -87.907 -15.276  14.149  1.00  0.00     0.154 A 
HETATM   31  F1  UNL     1     -87.642 -14.908  15.439  1.00  0.00    -0.203 F 
HETATM   32  C26 UNL     1     -87.694 -16.558  13.705  1.00  0.00     0.155 A 
HETATM   33  F2  UNL     1     -87.208 -17.444  14.608  1.00  0.00    -0.203 F 
HETATM   34  C27 UNL     1     -87.969 -16.889  12.413  1.00  0.00     0.052 A 
ENDBRANCH  26  27
ENDBRANCH  12  26
BRANCH   9  35
HETATM   35  C7  UNL     1     -92.603 -20.852   9.808  1.00  0.00     0.145 C 
BRANCH  35  36
HETATM   36  O2  UNL     1     -92.891 -21.633   8.705  1.00  0.00    -0.393 OA
ATOM     37  H2  UNL     1     -93.816 -21.506   8.532  1.00  0.00     0.210 HD
ENDBRANCH  35  36
BRANCH  35  38
HETATM   38  C8  UNL     1     -93.904 -20.496  10.477  1.00  0.00     0.196 C 
BRANCH  38  39
HETATM   39  O3  UNL     1     -93.833 -20.985  11.789  1.00  0.00    -0.398 OA
ATOM     40  H3  UNL     1     -94.614 -21.506  11.931  1.00  0.00     0.209 HD
ENDBRANCH  38  39
ENDBRANCH  35  38
ENDBRANCH   9  35
TORSDOF 10
ENDMDL
MODEL 3
REMARK VINA RESULT: -9.143601629      3.690      7.193
REMARK  10 active torsions:
REMARK  status: ('A' for Active; 'I' for Inactive)
REMARK    1  A    between atoms: C6_9  and  C7_10 
REMARK    2  A    between atoms: C7_10  and  O2_11 
REMARK    3  A    between atoms: C7_10  and  C8_13 
REMARK    4  A    between atoms: C8_13  and  O3_14 
REMARK    5  A    between atoms: C11_18  and  C12_19 
REMARK    6  A    between atoms: C11_18  and  C21_31 
REMARK    7  A    between atoms: C12_19  and  C13_20 
REMARK    8  A    between atoms: C14_21  and  C15_22 
REMARK    9  A    between atoms: C15_22  and  C16_23 
REMARK   10  A    between atoms: C21_31  and  C22_32 
ROOT
HETATM    1  O1  UNL     1     -88.634 -12.119  11.749  1.00  0.00    -0.239 OA
HETATM    2  C1  UNL     1     -88.270 -13.274  12.103  1.00  0.00     0.360 C 
HETATM    3  N1  UNL     1     -86.933 -13.653  11.889  1.00  0.00    -0.336 N 
ATOM      4  H1  UNL     1     -86.262 -12.981  11.518  1.00  0.00     0.164 HD
HETATM    5  C2  UNL     1     -86.514 -15.011  12.203  1.00  0.00     0.133 C 
HETATM    6  C3  UNL     1     -87.709 -15.889  12.013  1.00  0.00     0.043 C 
HETATM    7  C4  UNL     1     -88.703 -15.502  13.058  1.00  0.00     0.140 C 
HETATM    8  C5  UNL     1     -88.166 -15.355  14.431  1.00  0.00     0.040 C 
HETATM    9  C6  UNL     1     -87.522 -16.450  15.129  1.00  0.00     0.019 C 
HETATM   10  C9  UNL     1     -86.710 -17.481  14.524  1.00  0.00     0.008 C 
HETATM   11  C10 UNL     1     -86.346 -17.521  13.104  1.00  0.00     0.012 C 
HETATM   12  C11 UNL     1     -87.426 -17.355  12.096  1.00  0.00    -0.019 C 
HETATM   13  O4  UNL     1     -89.126 -14.164  12.685  1.00  0.00    -0.298 OA
ENDROOT
BRANCH  12  14
HETATM   14  C12 UNL     1     -88.663 -18.114  12.591  1.00  0.00     0.104 C 
BRANCH  14  15
HETATM   15  C13 UNL     1     -89.430 -18.587  11.428  1.00  0.00    -0.106 C 
HETATM   16  C14 UNL     1     -90.093 -18.989  10.475  1.00  0.00    -0.106 C 
BRANCH  16  17
HETATM   17  C15 UNL     1     -90.873 -19.484   9.340  1.00  0.00     0.098 C 
BRANCH  17  18
HETATM   18  C16 UNL     1     -92.111 -18.619   9.272  1.00  0.00    -0.000 C 
HETATM   19  C17 UNL     1     -93.078 -18.907  10.377  1.00  0.00     0.033 C 
HETATM   20  C18 UNL     1     -93.120 -17.737  11.336  1.00  0.00     0.232 C 
HETATM   21  N2  UNL     1     -93.537 -16.533  10.683  1.00  0.00    -0.075 N 
HETATM   22  C19 UNL     1     -92.773 -16.210   9.516  1.00  0.00     0.232 C 
ATOM     23  H22 UNL     1     -94.532 -16.573  10.460  1.00  0.00     0.277 HD
ATOM     24  H21 UNL     1     -93.539 -15.752  11.338  1.00  0.00     0.277 HD
HETATM   25  C20 UNL     1     -91.639 -17.179   9.281  1.00  0.00     0.033 C 
ENDBRANCH  17  18
ENDBRANCH  16  17
ENDBRANCH  14  15
ENDBRANCH  12  14
BRANCH  12  26
HETATM   26  C21 UNL     1     -87.120 -18.019  10.797  1.00  0.00     0.049 C 
BRANCH  26  27
HETATM   27  C22 UNL     1     -86.784 -17.232   9.634  1.00  0.00    -0.054 A 
HETATM   28  C23 UNL     1     -85.480 -16.884   9.369  1.00  0.00     0.010 A 
HETATM   29  C24 UNL     1     -85.082 -16.156   8.268  1.00  0.00     0.046 A 
HETATM   30  C25 UNL     1     -86.064 -15.763   7.395  1.00  0.00     0.154 A 
HETATM   31  F1  UNL     1     -85.679 -15.040   6.300  1.00  0.00    -0.203 F 
HETATM   32  C26 UNL     1     -87.378 -16.089   7.620  1.00  0.00     0.155 A 
HETATM   33  F2  UNL     1     -88.280 -15.659   6.703  1.00  0.00    -0.203 F 
HETATM   34  C27 UNL     1     -87.726 -16.811   8.721  1.00  0.00     0.052 A 
ENDBRANCH  26  27
ENDBRANCH  12  26
BRANCH   9  35
HETATM   35  C7  UNL     1     -86.752 -15.814  16.318  1.00  0.00     0.145 C 
BRANCH  35  36
HETATM   36  O2  UNL     1     -85.660 -16.632  16.541  1.00  0.00    -0.393 OA
ATOM     37  H2  UNL     1     -85.938 -17.507  16.300  1.00  0.00     0.210 HD
ENDBRANCH  35  36
BRANCH  35  38
HETATM   38  C8  UNL     1     -87.607 -15.836  17.557  1.00  0.00     0.196 C 
BRANCH  38  39
HETATM   39  O3  UNL     1     -87.903 -14.502  17.871  1.00  0.00    -0.398 OA
ATOM     40  H3  UNL     1     -88.532 -14.519  18.582  1.00  0.00     0.209 HD
ENDBRANCH  38  39
ENDBRANCH  35  38
ENDBRANCH   9  35
TORSDOF 10
ENDMDL
MODEL 4
REMARK VINA RESULT: -9.058732863      4.036      6.518
REMARK  10 active torsions:
REMARK  status: ('A' for Active; 'I' for Inactive)
REMARK    1  A    between atoms: C6_9  and  C7_10 
REMARK    2  A    between atoms: C7_10  and  O2_11 
REMARK    3  A    between atoms: C7_10  and  C8_13 
REMARK    4  A    between atoms: C8_13  and  O3_14 
REMARK    5  A    between atoms: C11_18  and  C12_19 
REMARK    6  A    between atoms: C11_18  and  C21_31 
REMARK    7  A    between atoms: C12_19  and  C13_20 
REMARK    8  A    between atoms: C14_21  and  C15_22 
REMARK    9  A    between atoms: C15_22  and  C16_23 
REMARK   10  A    between atoms: C21_31  and  C22_32 
ROOT
HETATM    1  O1  UNL     1     -88.356 -20.018  14.400  1.00  0.00    -0.239 OA
HETATM    2  C1  UNL     1     -87.962 -19.060  13.679  1.00  0.00     0.360 C 
HETATM    3  N1  UNL     1     -88.872 -18.475  12.780  1.00  0.00    -0.336 N 
ATOM      4  H1  UNL     1     -89.846 -18.779  12.765  1.00  0.00     0.164 HD
HETATM    5  C2  UNL     1     -88.414 -17.434  11.874  1.00  0.00     0.133 C 
HETATM    6  C3  UNL     1     -86.968 -17.701  11.599  1.00  0.00     0.043 C 
HETATM    7  C4  UNL     1     -86.237 -17.494  12.884  1.00  0.00     0.140 C 
HETATM    8  C5  UNL     1     -86.581 -16.259  13.627  1.00  0.00     0.040 C 
HETATM    9  C6  UNL     1     -86.404 -14.939  13.053  1.00  0.00     0.019 C 
HETATM   10  C9  UNL     1     -86.570 -14.591  11.660  1.00  0.00     0.008 C 
HETATM   11  C10 UNL     1     -87.029 -15.521  10.623  1.00  0.00     0.012 C 
HETATM   12  C11 UNL     1     -86.368 -16.848  10.527  1.00  0.00    -0.019 C 
HETATM   13  O4  UNL     1     -86.688 -18.575  13.743  1.00  0.00    -0.298 OA
ENDROOT
BRANCH  12  14
HETATM   14  C12 UNL     1     -84.867 -16.655  10.772  1.00  0.00     0.104 C 
BRANCH  14  15
HETATM   15  C13 UNL     1     -84.282 -15.948   9.623  1.00  0.00    -0.106 C 
HETATM   16  C14 UNL     1     -83.815 -15.335   8.665  1.00  0.00    -0.106 C 
BRANCH  16  17
HETATM   17  C15 UNL     1     -83.266 -14.619   7.513  1.00  0.00     0.098 C 
BRANCH  17  18
HETATM   18  C16 UNL     1     -83.070 -15.655   6.429  1.00  0.00    -0.000 C 
HETATM   19  C17 UNL     1     -84.180 -15.657   5.426  1.00  0.00     0.033 C 
HETATM   20  C18 UNL     1     -83.670 -15.136   4.099  1.00  0.00     0.232 C 
HETATM   21  N2  UNL     1     -82.606 -15.946   3.588  1.00  0.00    -0.075 N 
HETATM   22  C19 UNL     1     -81.528 -16.139   4.510  1.00  0.00     0.232 C 
ATOM     23  H22 UNL     1     -82.964 -16.844   3.262  1.00  0.00     0.277 HD
ATOM     24  H21 UNL     1     -82.261 -15.569   2.706  1.00  0.00     0.277 HD
HETATM   25  C20 UNL     1     -81.722 -15.374   5.797  1.00  0.00     0.033 C 
ENDBRANCH  17  18
ENDBRANCH  16  17
ENDBRANCH  14  15
ENDBRANCH  12  14
BRANCH  12  26
HETATM   26  C21 UNL     1     -86.414 -17.426   9.154  1.00  0.00     0.049 C 
BRANCH  26  27
HETATM   27  C22 UNL     1     -87.432 -17.009   8.217  1.00  0.00    -0.054 A 
HETATM   28  C23 UNL     1     -87.120 -16.205   7.147  1.00  0.00     0.010 A 
HETATM   29  C24 UNL     1     -88.033 -15.787   6.202  1.00  0.00     0.046 A 
HETATM   30  C25 UNL     1     -89.328 -16.212   6.358  1.00  0.00     0.154 A 
HETATM   31  F1  UNL     1     -90.241 -15.803   5.426  1.00  0.00    -0.203 F 
HETATM   32  C26 UNL     1     -89.682 -17.017   7.412  1.00  0.00     0.155 A 
HETATM   33  F2  UNL     1     -90.985 -17.388   7.486  1.00  0.00    -0.203 F 
HETATM   34  C27 UNL     1     -88.748 -17.406   8.322  1.00  0.00     0.052 A 
ENDBRANCH  26  27
ENDBRANCH  12  26
BRANCH   9  35
HETATM   35  C7  UNL     1     -87.237 -13.967  13.933  1.00  0.00     0.145 C 
BRANCH  35  36
HETATM   36  O2  UNL     1     -86.531 -13.828  15.113  1.00  0.00    -0.393 OA
ATOM     37  H2  UNL     1     -85.999 -14.611  15.190  1.00  0.00     0.210 HD
ENDBRANCH  35  36
BRANCH  35  38
HETATM   38  C8  UNL     1     -88.571 -14.584  14.260  1.00  0.00     0.196 C 
BRANCH  38  39
HETATM   39  O3  UNL     1     -89.551 -13.650  13.893  1.00  0.00    -0.398 OA
ATOM     40  H3  UNL     1     -90.023 -13.420  14.685  1.00  0.00     0.209 HD
ENDBRANCH  38  39
ENDBRANCH  35  38
ENDBRANCH   9  35
TORSDOF 10
ENDMDL
MODEL 5
REMARK VINA RESULT: -9.046623853      5.398      8.578
REMARK  10 active torsions:
REMARK  status: ('A' for Active; 'I' for Inactive)
REMARK    1  A    between atoms: C6_9  and  C7_10 
REMARK    2  A    between atoms: C7_10  and  O2_11 
REMARK    3  A    between atoms: C7_10  and  C8_13 
REMARK    4  A    between atoms: C8_13  and  O3_14 
REMARK    5  A    between atoms: C11_18  and  C12_19 
REMARK    6  A    between atoms: C11_18  and  C21_31 
REMARK    7  A    between atoms: C12_19  and  C13_20 
REMARK    8  A    between atoms: C14_21  and  C15_22 
REMARK    9  A    between atoms: C15_22  and  C16_23 
REMARK   10  A    between atoms: C21_31  and  C22_32 
ROOT
HETATM    1  O1  UNL     1     -89.022 -12.887  13.067  1.00  0.00    -0.239 OA
HETATM    2  C1  UNL     1     -88.578 -13.952  13.580  1.00  0.00     0.360 C 
HETATM    3  N1  UNL     1     -87.186 -14.123  13.677  1.00  0.00    -0.336 N 
ATOM      4  H1  UNL     1     -86.555 -13.371  13.398  1.00  0.00     0.164 HD
HETATM    5  C2  UNL     1     -86.652 -15.380  14.178  1.00  0.00     0.133 C 
HETATM    6  C3  UNL     1     -87.638 -16.446  13.818  1.00  0.00     0.043 C 
HETATM    7  C4  UNL     1     -88.879 -16.171  14.602  1.00  0.00     0.140 C 
HETATM    8  C5  UNL     1     -88.677 -15.875  16.040  1.00  0.00     0.040 C 
HETATM    9  C6  UNL     1     -88.047 -16.820  16.941  1.00  0.00     0.019 C 
HETATM   10  C9  UNL     1     -86.983 -17.736  16.601  1.00  0.00     0.008 C 
HETATM   11  C10 UNL     1     -86.320 -17.786  15.293  1.00  0.00     0.012 C 
HETATM   12  C11 UNL     1     -87.170 -17.843  14.076  1.00  0.00    -0.019 C 
HETATM   13  O4  UNL     1     -89.402 -14.937  14.044  1.00  0.00    -0.298 OA
ENDROOT
BRANCH  12  14
HETATM   14  C12 UNL     1     -88.361 -18.763  14.365  1.00  0.00     0.104 C 
BRANCH  14  15
HETATM   15  C13 UNL     1     -87.874 -20.143  14.511  1.00  0.00    -0.106 C 
HETATM   16  C14 UNL     1     -87.495 -21.306  14.640  1.00  0.00    -0.106 C 
BRANCH  16  17
HETATM   17  C15 UNL     1     -87.035 -22.684  14.811  1.00  0.00     0.098 C 
BRANCH  17  18
HETATM   18  C16 UNL     1     -87.627 -23.165  16.116  1.00  0.00    -0.000 C 
HETATM   19  C17 UNL     1     -89.068 -23.548  15.990  1.00  0.00     0.033 C 
HETATM   20  C18 UNL     1     -89.212 -25.048  16.136  1.00  0.00     0.232 C 
HETATM   21  N2  UNL     1     -88.742 -25.502  17.409  1.00  0.00    -0.075 N 
HETATM   22  C19 UNL     1     -87.407 -25.084  17.718  1.00  0.00     0.232 C 
ATOM     23  H22 UNL     1     -89.385 -25.222  18.150  1.00  0.00     0.277 HD
ATOM     24  H21 UNL     1     -88.827 -26.515  17.482  1.00  0.00     0.277 HD
HETATM   25  C20 UNL     1     -86.764 -24.318  16.587  1.00  0.00     0.033 C 
ENDBRANCH  17  18
ENDBRANCH  16  17
ENDBRANCH  14  15
ENDBRANCH  12  14
BRANCH  12  26
HETATM   26  C21 UNL     1     -86.499 -18.511  12.925  1.00  0.00     0.049 C 
BRANCH  26  27
HETATM   27  C22 UNL     1     -86.719 -18.043  11.576  1.00  0.00    -0.054 A 
HETATM   28  C23 UNL     1     -85.663 -17.675  10.775  1.00  0.00     0.010 A 
HETATM   29  C24 UNL     1     -85.795 -17.241   9.473  1.00  0.00     0.046 A 
HETATM   30  C25 UNL     1     -87.067 -17.180   8.964  1.00  0.00     0.154 A 
HETATM   31  F1  UNL     1     -87.208 -16.751   7.673  1.00  0.00    -0.203 F 
HETATM   32  C26 UNL     1     -88.150 -17.539   9.728  1.00  0.00     0.155 A 
HETATM   33  F2  UNL     1     -89.369 -17.447   9.142  1.00  0.00    -0.203 F 
HETATM   34  C27 UNL     1     -87.973 -17.962  11.010  1.00  0.00     0.052 A 
ENDBRANCH  26  27
ENDBRANCH  12  26
BRANCH   9  35
HETATM   35  C7  UNL     1     -87.651 -16.014  18.208  1.00  0.00     0.145 C 
BRANCH  35  36
HETATM   36  O2  UNL     1     -88.795 -15.939  18.981  1.00  0.00    -0.393 OA
ATOM     37  H2  UNL     1     -88.816 -15.055  19.327  1.00  0.00     0.210 HD
ENDBRANCH  35  36
BRANCH  35  38
HETATM   38  C8  UNL     1     -87.258 -14.612  17.825  1.00  0.00     0.196 C 
BRANCH  38  39
HETATM   39  O3  UNL     1     -88.038 -13.744  18.603  1.00  0.00    -0.398 OA
ATOM     40  H3  UNL     1     -88.881 -14.164  18.722  1.00  0.00     0.209 HD
ENDBRANCH  38  39
ENDBRANCH  35  38
ENDBRANCH   9  35
TORSDOF 10
ENDMDL
