MODEL 1
REMARK VINA RESULT: -8.295085734      0.000      0.000
REMARK  8 active torsions:
REMARK  status: ('A' for Active; 'I' for Inactive)
REMARK    1  A    between atoms: O1_2  and  C2_3 
REMARK    2  A    between atoms: C4_5  and  N1_6 
REMARK    3  A    between atoms: N1_6  and  C5_8 
REMARK    4  A    between atoms: C15_25  and  N4_26 
REMARK    5  A    between atoms: N4_26  and  C16_28 
REMARK    6  A    between atoms: C16_28  and  C17_29 
REMARK    7  A    between atoms: C17_29  and  O2_30 
REMARK    8  A    between atoms: C19_33  and  O3_34 
ROOT
HETATM    1  C5  UNL     1     -87.084 -13.254   9.159  1.00  0.00     0.124 A 
HETATM    2  N2  UNL     1     -87.463 -13.716  10.394  1.00  0.00    -0.350 N 
ATOM      3  H2  UNL     1     -86.741 -13.967  11.070  1.00  0.00     0.166 HD
HETATM    4  C6  UNL     1     -88.747 -13.846  10.741  1.00  0.00     0.102 A 
HETATM    5  C7  UNL     1     -89.743 -13.520   9.862  1.00  0.00     0.003 A 
HETATM    6  C8  UNL     1     -91.052 -13.653  10.210  1.00  0.00     0.008 A 
HETATM    7  C9  UNL     1     -92.065 -13.331   9.332  1.00  0.00     0.041 A 
HETATM    8  C10 UNL     1     -91.717 -12.858   8.071  1.00  0.00     0.054 A 
HETATM    9  C11 UNL     1     -90.391 -12.720   7.712  1.00  0.00     0.044 A 
HETATM   10 CL1  UNL     1     -89.940 -12.120   6.108  1.00  0.00    -0.106 Cl
HETATM   11  C12 UNL     1     -89.403 -13.053   8.614  1.00  0.00     0.019 A 
HETATM   12  C13 UNL     1     -88.053 -12.917   8.255  1.00  0.00     0.071 A 
HETATM   13 BR1  UNL     1     -87.648 -12.255   6.496  1.00  0.00    -0.022 Br
HETATM   14  N3  UNL     1     -93.339 -13.591   9.962  1.00  0.00    -0.357 N 
ATOM     15  H3  UNL     1     -94.240 -13.144   9.788  1.00  0.00     0.162 HD
HETATM   16  C14 UNL     1     -93.012 -14.665  10.917  1.00  0.00     0.296 C 
HETATM   17  F1  UNL     1     -94.002 -14.962  11.775  1.00  0.00    -0.224 F 
HETATM   18  C15 UNL     1     -91.741 -14.107  11.487  1.00  0.00     0.167 C 
ENDROOT
BRANCH   1  19
HETATM   19  N1  UNL     1     -85.875 -13.173   8.932  1.00  0.00    -0.341 N 
ATOM     20  H1  UNL     1     -85.519 -14.045   8.539  1.00  0.00     0.167 HD
BRANCH  19  21
HETATM   21  C4  UNL     1     -84.870 -12.248   9.055  1.00  0.00     0.038 A 
HETATM   22  C3  UNL     1     -84.511 -11.658  10.268  1.00  0.00     0.066 A 
HETATM   23  C2  UNL     1     -83.491 -10.740  10.388  1.00  0.00     0.073 A 
HETATM   24  C21 UNL     1     -82.768 -10.362   9.270  1.00  0.00     0.073 A 
HETATM   25  C19 UNL     1     -83.107 -10.933   8.066  1.00  0.00     0.073 A 
HETATM   26  C18 UNL     1     -84.131 -11.857   7.930  1.00  0.00     0.066 A 
BRANCH  23  27
HETATM   27  O1  UNL     1     -83.134 -10.153  11.598  1.00  0.00    -0.356 OA
HETATM   28  C1  UNL     1     -84.114 -10.046  12.613  1.00  0.00     0.210 C 
ENDBRANCH  23  27
BRANCH  25  29
HETATM   29  O3  UNL     1     -82.406 -10.582   6.916  1.00  0.00    -0.356 OA
HETATM   30  C20 UNL     1     -82.637 -11.238   5.701  1.00  0.00     0.210 C 
ENDBRANCH  25  29
ENDBRANCH  19  21
ENDBRANCH   1  19
BRANCH  18  31
HETATM   31  N4  UNL     1     -91.924 -12.948  12.255  1.00  0.00    -0.407 N 
ATOM     32  H4  UNL     1     -92.769 -12.392  12.122  1.00  0.00     0.154 HD
BRANCH  31  33
HETATM   33  C16 UNL     1     -90.972 -12.535  13.204  1.00  0.00     0.140 C 
BRANCH  33  34
HETATM   34  C17 UNL     1     -90.738 -13.697  14.187  1.00  0.00     0.183 C 
BRANCH  34  35
HETATM   35  O2  UNL     1     -91.388 -13.444  15.393  1.00  0.00    -0.399 OA
ATOM     36  H2  UNL     1     -91.746 -14.249  15.748  1.00  0.00     0.209 HD
ENDBRANCH  34  35
ENDBRANCH  33  34
ENDBRANCH  31  33
ENDBRANCH  18  31
TORSDOF 8
ENDMDL
MODEL 2
REMARK VINA RESULT: -8.279664273      0.470      2.245
REMARK  8 active torsions:
REMARK  status: ('A' for Active; 'I' for Inactive)
REMARK    1  A    between atoms: O1_2  and  C2_3 
REMARK    2  A    between atoms: C4_5  and  N1_6 
REMARK    3  A    between atoms: N1_6  and  C5_8 
REMARK    4  A    between atoms: C15_25  and  N4_26 
REMARK    5  A    between atoms: N4_26  and  C16_28 
REMARK    6  A    between atoms: C16_28  and  C17_29 
REMARK    7  A    between atoms: C17_29  and  O2_30 
REMARK    8  A    between atoms: C19_33  and  O3_34 
ROOT
HETATM    1  C5  UNL     1     -87.070 -13.240   9.184  1.00  0.00     0.124 A 
HETATM    2  N2  UNL     1     -87.453 -13.691  10.421  1.00  0.00    -0.350 N 
ATOM      3  H2  UNL     1     -86.733 -13.935  11.103  1.00  0.00     0.166 HD
HETATM    4  C6  UNL     1     -88.738 -13.821  10.764  1.00  0.00     0.102 A 
HETATM    5  C7  UNL     1     -89.731 -13.505   9.878  1.00  0.00     0.003 A 
HETATM    6  C8  UNL     1     -91.041 -13.638  10.222  1.00  0.00     0.008 A 
HETATM    7  C9  UNL     1     -92.051 -13.326   9.336  1.00  0.00     0.041 A 
HETATM    8  C10 UNL     1     -91.699 -12.864   8.072  1.00  0.00     0.054 A 
HETATM    9  C11 UNL     1     -90.371 -12.726   7.718  1.00  0.00     0.044 A 
HETATM   10 CL1  UNL     1     -89.914 -12.139   6.111  1.00  0.00    -0.106 Cl
HETATM   11  C12 UNL     1     -89.386 -13.048   8.627  1.00  0.00     0.019 A 
HETATM   12  C13 UNL     1     -88.035 -12.913   8.273  1.00  0.00     0.071 A 
HETATM   13 BR1  UNL     1     -87.624 -12.266   6.510  1.00  0.00    -0.022 Br
HETATM   14  N3  UNL     1     -93.328 -13.583   9.962  1.00  0.00    -0.357 N 
ATOM     15  H3  UNL     1     -94.228 -13.139   9.781  1.00  0.00     0.162 HD
HETATM   16  C14 UNL     1     -93.003 -14.647  10.929  1.00  0.00     0.296 C 
HETATM   17  F1  UNL     1     -93.996 -14.939  11.785  1.00  0.00    -0.224 F 
HETATM   18  C15 UNL     1     -91.735 -14.082  11.499  1.00  0.00     0.167 C 
ENDROOT
BRANCH   1  19
HETATM   19  N1  UNL     1     -85.859 -13.158   8.961  1.00  0.00    -0.341 N 
ATOM     20  H1  UNL     1     -85.505 -14.025   8.557  1.00  0.00     0.167 HD
BRANCH  19  21
HETATM   21  C4  UNL     1     -84.853 -12.237   9.101  1.00  0.00     0.038 A 
HETATM   22  C3  UNL     1     -84.086 -11.767   8.034  1.00  0.00     0.066 A 
HETATM   23  C2  UNL     1     -83.086 -10.830   8.178  1.00  0.00     0.073 A 
HETATM   24  C21 UNL     1     -82.804 -10.310   9.429  1.00  0.00     0.073 A 
HETATM   25  C19 UNL     1     -83.549 -10.762  10.492  1.00  0.00     0.073 A 
HETATM   26  C18 UNL     1     -84.557 -11.704  10.363  1.00  0.00     0.066 A 
BRANCH  23  27
HETATM   27  O1  UNL     1     -82.323 -10.362   7.113  1.00  0.00    -0.356 OA
HETATM   28  C1  UNL     1     -81.399  -9.317   7.351  1.00  0.00     0.210 C 
ENDBRANCH  23  27
BRANCH  25  29
HETATM   29  O3  UNL     1     -83.298 -10.266  11.769  1.00  0.00    -0.356 OA
HETATM   30  C20 UNL     1     -84.344 -10.017  12.665  1.00  0.00     0.210 C 
ENDBRANCH  25  29
ENDBRANCH  19  21
ENDBRANCH   1  19
BRANCH  18  31
HETATM   31  N4  UNL     1     -91.924 -12.917  12.256  1.00  0.00    -0.407 N 
ATOM     32  H4  UNL     1     -92.760 -12.353  12.101  1.00  0.00     0.154 HD
BRANCH  31  33
HETATM   33  C16 UNL     1     -90.990 -12.506  13.224  1.00  0.00     0.140 C 
BRANCH  33  34
HETATM   34  C17 UNL     1     -90.774 -13.672  14.207  1.00  0.00     0.183 C 
BRANCH  34  35
HETATM   35  O2  UNL     1     -91.416 -13.406  15.415  1.00  0.00    -0.399 OA
ATOM     36  H2  UNL     1     -90.861 -12.870  15.969  1.00  0.00     0.209 HD
ENDBRANCH  34  35
ENDBRANCH  33  34
ENDBRANCH  31  33
ENDBRANCH  18  31
TORSDOF 8
ENDMDL
MODEL 3
REMARK VINA RESULT: -8.061384647      0.970      1.007
REMARK  8 active torsions:
REMARK  status: ('A' for Active; 'I' for Inactive)
REMARK    1  A    between atoms: O1_2  and  C2_3 
REMARK    2  A    between atoms: C4_5  and  N1_6 
REMARK    3  A    between atoms: N1_6  and  C5_8 
REMARK    4  A    between atoms: C15_25  and  N4_26 
REMARK    5  A    between atoms: N4_26  and  C16_28 
REMARK    6  A    between atoms: C16_28  and  C17_29 
REMARK    7  A    between atoms: C17_29  and  O2_30 
REMARK    8  A    between atoms: C19_33  and  O3_34 
ROOT
HETATM    1  C5  UNL     1     -86.542 -13.064   8.815  1.00  0.00     0.124 A 
HETATM    2  N2  UNL     1     -86.713 -13.694  10.021  1.00  0.00    -0.350 N 
ATOM      3  H2  UNL     1     -85.892 -13.903  10.590  1.00  0.00     0.166 HD
HETATM    4  C6  UNL     1     -87.921 -14.043  10.476  1.00  0.00     0.102 A 
HETATM    5  C7  UNL     1     -89.045 -13.779   9.743  1.00  0.00     0.003 A 
HETATM    6  C8  UNL     1     -90.276 -14.134  10.200  1.00  0.00     0.008 A 
HETATM    7  C9  UNL     1     -91.416 -13.877   9.468  1.00  0.00     0.041 A 
HETATM    8  C10 UNL     1     -91.280 -13.238   8.241  1.00  0.00     0.054 A 
HETATM    9  C11 UNL     1     -90.033 -12.874   7.771  1.00  0.00     0.044 A 
HETATM   10 CL1  UNL     1     -89.851 -12.061   6.209  1.00  0.00    -0.106 Cl
HETATM   11  C12 UNL     1     -88.914 -13.148   8.527  1.00  0.00     0.019 A 
HETATM   12  C13 UNL     1     -87.644 -12.783   8.055  1.00  0.00     0.071 A 
HETATM   13 BR1  UNL     1     -87.533 -11.901   6.351  1.00  0.00    -0.022 Br
HETATM   14  N3  UNL     1     -92.565 -14.379  10.187  1.00  0.00    -0.357 N 
ATOM     15  H3  UNL     1     -93.531 -14.053  10.155  1.00  0.00     0.162 HD
HETATM   16  C14 UNL     1     -91.991 -15.483  10.978  1.00  0.00     0.296 C 
HETATM   17  F1  UNL     1     -92.829 -16.003  11.891  1.00  0.00    -0.224 F 
HETATM   18  C15 UNL     1     -90.750 -14.806  11.479  1.00  0.00     0.167 C 
ENDROOT
BRANCH   1  19
HETATM   19  N1  UNL     1     -85.388 -12.786   8.480  1.00  0.00    -0.341 N 
ATOM     20  H1  UNL     1     -85.054 -13.429   7.761  1.00  0.00     0.167 HD
BRANCH  19  21
HETATM   21  C4  UNL     1     -84.425 -11.863   8.796  1.00  0.00     0.038 A 
HETATM   22  C3  UNL     1     -84.151 -11.452  10.102  1.00  0.00     0.066 A 
HETATM   23  C2  UNL     1     -83.172 -10.535  10.415  1.00  0.00     0.073 A 
HETATM   24  C21 UNL     1     -82.405  -9.975   9.408  1.00  0.00     0.073 A 
HETATM   25  C19 UNL     1     -82.661 -10.367   8.116  1.00  0.00     0.073 A 
HETATM   26  C18 UNL     1     -83.643 -11.288   7.785  1.00  0.00     0.066 A 
BRANCH  23  27
HETATM   27  O1  UNL     1     -82.899 -10.127  11.717  1.00  0.00    -0.356 OA
HETATM   28  C1  UNL     1     -83.963 -10.079  12.647  1.00  0.00     0.210 C 
ENDBRANCH  23  27
BRANCH  25  29
HETATM   29  O3  UNL     1     -81.914  -9.828   7.072  1.00  0.00    -0.356 OA
HETATM   30  C20 UNL     1     -81.103  -8.703   7.271  1.00  0.00     0.210 C 
ENDBRANCH  25  29
ENDBRANCH  19  21
ENDBRANCH   1  19
BRANCH  18  31
HETATM   31  N4  UNL     1     -90.997 -13.767  12.388  1.00  0.00    -0.407 N 
ATOM     32  H4  UNL     1     -91.880 -13.258  12.333  1.00  0.00     0.154 HD
BRANCH  31  33
HETATM   33  C16 UNL     1     -90.059 -13.409  13.373  1.00  0.00     0.140 C 
BRANCH  33  34
HETATM   34  C17 UNL     1     -90.829 -12.979  14.635  1.00  0.00     0.183 C 
BRANCH  34  35
HETATM   35  O2  UNL     1     -91.394 -14.092  15.255  1.00  0.00    -0.399 OA
ATOM     36  H2  UNL     1     -91.915 -13.821  16.002  1.00  0.00     0.209 HD
ENDBRANCH  34  35
ENDBRANCH  33  34
ENDBRANCH  31  33
ENDBRANCH  18  31
TORSDOF 8
ENDMDL
MODEL 4
REMARK VINA RESULT: -7.999034885      1.289      2.621
REMARK  8 active torsions:
REMARK  status: ('A' for Active; 'I' for Inactive)
REMARK    1  A    between atoms: O1_2  and  C2_3 
REMARK    2  A    between atoms: C4_5  and  N1_6 
REMARK    3  A    between atoms: N1_6  and  C5_8 
REMARK    4  A    between atoms: C15_25  and  N4_26 
REMARK    5  A    between atoms: N4_26  and  C16_28 
REMARK    6  A    between atoms: C16_28  and  C17_29 
REMARK    7  A    between atoms: C17_29  and  O2_30 
REMARK    8  A    between atoms: C19_33  and  O3_34 
ROOT
HETATM    1  C5  UNL     1     -85.961 -12.753   8.695  1.00  0.00     0.124 A 
HETATM    2  N2  UNL     1     -86.462 -13.222   9.882  1.00  0.00    -0.350 N 
ATOM      3  H2  UNL     1     -85.813 -13.442  10.639  1.00  0.00     0.166 HD
HETATM    4  C6  UNL     1     -87.771 -13.402  10.081  1.00  0.00     0.102 A 
HETATM    5  C7  UNL     1     -88.672 -13.120   9.090  1.00  0.00     0.003 A 
HETATM    6  C8  UNL     1     -90.005 -13.303   9.286  1.00  0.00     0.008 A 
HETATM    7  C9  UNL     1     -90.922 -13.025   8.294  1.00  0.00     0.041 A 
HETATM    8  C10 UNL     1     -90.450 -12.546   7.077  1.00  0.00     0.054 A 
HETATM    9  C11 UNL     1     -89.098 -12.356   6.873  1.00  0.00     0.044 A 
HETATM   10 CL1  UNL     1     -88.488 -11.747   5.325  1.00  0.00    -0.106 Cl
HETATM   11  C12 UNL     1     -88.208 -12.646   7.885  1.00  0.00     0.019 A 
HETATM   12  C13 UNL     1     -86.832 -12.459   7.682  1.00  0.00     0.071 A 
HETATM   13 BR1  UNL     1     -86.252 -11.790   5.976  1.00  0.00    -0.022 Br
HETATM   14  N3  UNL     1     -92.250 -13.333   8.776  1.00  0.00    -0.357 N 
ATOM     15  H3  UNL     1     -93.141 -12.923   8.496  1.00  0.00     0.162 HD
HETATM   16  C14 UNL     1     -91.994 -14.388   9.772  1.00  0.00     0.296 C 
HETATM   17  F1  UNL     1     -93.064 -14.720  10.513  1.00  0.00    -0.224 F 
HETATM   18  C15 UNL     1     -90.820 -13.778  10.479  1.00  0.00     0.167 C 
ENDROOT
BRANCH   1  19
HETATM   19  N1  UNL     1     -84.738 -12.625   8.608  1.00  0.00    -0.341 N 
ATOM     20  H1  UNL     1     -84.309 -13.475   8.242  1.00  0.00     0.167 HD
BRANCH  19  21
HETATM   21  C4  UNL     1     -83.789 -11.668   8.860  1.00  0.00     0.038 A 
HETATM   22  C3  UNL     1     -83.068 -11.014   7.858  1.00  0.00     0.066 A 
HETATM   23  C2  UNL     1     -82.126 -10.043   8.118  1.00  0.00     0.073 A 
HETATM   24  C21 UNL     1     -81.857  -9.675   9.424  1.00  0.00     0.073 A 
HETATM   25  C19 UNL     1     -82.557 -10.308  10.424  1.00  0.00     0.073 A 
HETATM   26  C18 UNL     1     -83.507 -11.287  10.179  1.00  0.00     0.066 A 
BRANCH  23  27
HETATM   27  O1  UNL     1     -81.410  -9.392   7.119  1.00  0.00    -0.356 OA
HETATM   28  C1  UNL     1     -81.009  -8.053   7.337  1.00  0.00     0.210 C 
ENDBRANCH  23  27
BRANCH  25  29
HETATM   29  O3  UNL     1     -82.317  -9.969  11.753  1.00  0.00    -0.356 OA
HETATM   30  C20 UNL     1     -83.360  -9.921  12.686  1.00  0.00     0.210 C 
ENDBRANCH  25  29
ENDBRANCH  19  21
ENDBRANCH   1  19
BRANCH  18  31
HETATM   31  N4  UNL     1     -91.135 -12.624  11.211  1.00  0.00    -0.407 N 
ATOM     32  H4  UNL     1     -91.155 -11.723  10.733  1.00  0.00     0.154 HD
BRANCH  31  33
HETATM   33  C16 UNL     1     -91.424 -12.678  12.586  1.00  0.00     0.140 C 
BRANCH  33  34
HETATM   34  C17 UNL     1     -90.772 -13.949  13.163  1.00  0.00     0.183 C 
BRANCH  34  35
HETATM   35  O2  UNL     1     -91.300 -14.229  14.421  1.00  0.00    -0.399 OA
ATOM     36  H2  UNL     1     -91.168 -13.490  15.004  1.00  0.00     0.209 HD
ENDBRANCH  34  35
ENDBRANCH  33  34
ENDBRANCH  31  33
ENDBRANCH  18  31
TORSDOF 8
ENDMDL
MODEL 5
REMARK VINA RESULT: -7.988797032      2.186      3.594
REMARK  8 active torsions:
REMARK  status: ('A' for Active; 'I' for Inactive)
REMARK    1  A    between atoms: O1_2  and  C2_3 
REMARK    2  A    between atoms: C4_5  and  N1_6 
REMARK    3  A    between atoms: N1_6  and  C5_8 
REMARK    4  A    between atoms: C15_25  and  N4_26 
REMARK    5  A    between atoms: N4_26  and  C16_28 
REMARK    6  A    between atoms: C16_28  and  C17_29 
REMARK    7  A    between atoms: C17_29  and  O2_30 
REMARK    8  A    between atoms: C19_33  and  O3_34 
ROOT
HETATM    1  C5  UNL     1     -85.750 -11.736   7.965  1.00  0.00     0.124 A 
HETATM    2  N2  UNL     1     -85.611 -12.188   9.252  1.00  0.00    -0.350 N 
ATOM      3  H2  UNL     1     -84.713 -12.068   9.723  1.00  0.00     0.166 HD
HETATM    4  C6  UNL     1     -86.612 -12.781   9.911  1.00  0.00     0.102 A 
HETATM    5  C7  UNL     1     -87.829 -12.960   9.313  1.00  0.00     0.003 A 
HETATM    6  C8  UNL     1     -88.851 -13.565   9.978  1.00  0.00     0.008 A 
HETATM    7  C9  UNL     1     -90.081 -13.754   9.385  1.00  0.00     0.041 A 
HETATM    8  C10 UNL     1     -90.259 -13.307   8.080  1.00  0.00     0.054 A 
HETATM    9  C11 UNL     1     -89.226 -12.692   7.400  1.00  0.00     0.044 A 
HETATM   10 CL1  UNL     1     -89.444 -12.121   5.738  1.00  0.00    -0.106 Cl
HETATM   11  C12 UNL     1     -88.008 -12.520   8.022  1.00  0.00     0.019 A 
HETATM   12  C13 UNL     1     -86.953 -11.898   7.336  1.00  0.00     0.071 A 
HETATM   13 BR1  UNL     1     -87.273 -11.303   5.536  1.00  0.00    -0.022 Br
HETATM   14  N3  UNL     1     -90.956 -14.434  10.313  1.00  0.00    -0.357 N 
ATOM     15  H3  UNL     1     -91.973 -14.398  10.375  1.00  0.00     0.162 HD
HETATM   16  C14 UNL     1     -90.008 -15.194  11.149  1.00  0.00     0.296 C 
HETATM   17  F1  UNL     1     -90.563 -15.774  12.226  1.00  0.00    -0.224 F 
HETATM   18  C15 UNL     1     -88.979 -14.129  11.384  1.00  0.00     0.167 C 
ENDROOT
BRANCH   1  19
HETATM   19  N1  UNL     1     -84.767 -11.207   7.441  1.00  0.00    -0.341 N 
ATOM     20  H1  UNL     1     -84.844 -10.190   7.468  1.00  0.00     0.167 HD
BRANCH  19  21
HETATM   21  C4  UNL     1     -83.600 -11.593   6.833  1.00  0.00     0.038 A 
HETATM   22  C3  UNL     1     -83.496 -11.861   5.467  1.00  0.00     0.066 A 
HETATM   23  C2  UNL     1     -82.317 -12.233   4.859  1.00  0.00     0.073 A 
HETATM   24  C21 UNL     1     -81.162 -12.357   5.612  1.00  0.00     0.073 A 
HETATM   25  C19 UNL     1     -81.246 -12.097   6.959  1.00  0.00     0.073 A 
HETATM   26  C18 UNL     1     -82.424 -11.722   7.585  1.00  0.00     0.066 A 
BRANCH  23  27
HETATM   27  O1  UNL     1     -82.214 -12.500   3.497  1.00  0.00    -0.356 OA
HETATM   28  C1  UNL     1     -80.967 -12.925   2.984  1.00  0.00     0.210 C 
ENDBRANCH  23  27
BRANCH  25  29
HETATM   29  O3  UNL     1     -80.108 -12.210   7.753  1.00  0.00    -0.356 OA
HETATM   30  C20 UNL     1     -79.311 -11.094   8.035  1.00  0.00     0.210 C 
ENDBRANCH  25  29
ENDBRANCH  19  21
ENDBRANCH   1  19
BRANCH  18  31
HETATM   31  N4  UNL     1     -89.433 -13.068  12.181  1.00  0.00    -0.407 N 
ATOM     32  H4  UNL     1     -89.799 -12.229  11.731  1.00  0.00     0.154 HD
BRANCH  31  33
HETATM   33  C16 UNL     1     -89.395 -13.132  13.585  1.00  0.00     0.140 C 
BRANCH  33  34
HETATM   34  C17 UNL     1     -90.834 -12.976  14.112  1.00  0.00     0.183 C 
BRANCH  34  35
HETATM   35  O2  UNL     1     -91.195 -14.095  14.859  1.00  0.00    -0.399 OA
ATOM     36  H2  UNL     1     -92.083 -14.359  14.645  1.00  0.00     0.209 HD
ENDBRANCH  34  35
ENDBRANCH  33  34
ENDBRANCH  31  33
ENDBRANCH  18  31
TORSDOF 8
ENDMDL
