MODEL 1
REMARK VINA RESULT: -9.354392384      0.000      0.000
REMARK  7 active torsions:
REMARK  status: ('A' for Active; 'I' for Inactive)
REMARK    1  A    between atoms: N1_1  and  C1_4 
REMARK    2  A    between atoms: N4_14  and  C7_15 
REMARK    3  A    between atoms: C7_15  and  C8_16 
REMARK    4  A    between atoms: N5_27  and  O1_29 
REMARK    5  A    between atoms: O1_29  and  C17_30 
REMARK    6  A    between atoms: C17_30  and  C18_31 
REMARK    7  A    between atoms: C21_35  and  O2_36 
ROOT
HETATM    1  C1  UNL     1     -87.360 -10.411  13.535  1.00  0.00     0.123 A 
HETATM    2  N2  UNL     1     -86.730  -9.733  14.486  1.00  0.00    -0.285 N 
ATOM      3  H2  UNL     1     -86.202  -8.873  14.341  1.00  0.00     0.188 HD
HETATM    4  N3  UNL     1     -86.887 -10.332  15.631  1.00  0.00    -0.299 N 
ATOM      5  H3  UNL     1     -86.500 -10.005  16.517  1.00  0.00     0.186 HD
HETATM    6  C2  UNL     1     -87.635 -11.445  15.482  1.00  0.00     0.076 A 
HETATM    7  C3  UNL     1     -87.952 -11.509  14.117  1.00  0.00     0.029 A 
HETATM    8  C4  UNL     1     -88.738 -12.707  13.931  1.00  0.00     0.040 C 
HETATM    9  C5  UNL     1     -88.507 -13.425  12.634  1.00  0.00     0.051 C 
HETATM   10  C6  UNL     1     -89.306 -12.919  11.501  1.00  0.00     0.274 C 
HETATM   11  N4  UNL     1     -90.374 -12.019  11.694  1.00  0.00     0.092 N 
HETATM   12  C14 UNL     1     -90.917 -11.880  12.986  1.00  0.00     0.274 C 
HETATM   13  C15 UNL     1     -90.255 -12.584  14.080  1.00  0.00     0.051 C 
HETATM   14  C16 UNL     1     -88.373 -13.588  15.060  1.00  0.00     0.063 C 
HETATM   15  N5  UNL     1     -88.228 -14.768  15.233  1.00  0.00    -0.270 N 
ATOM     16  H5  UNL     1     -87.956 -14.842  16.214  1.00  0.00     0.194 HD
HETATM   17  C23 UNL     1     -88.243 -12.603  16.213  1.00  0.00     0.270 C 
HETATM   18  F1  UNL     1     -87.265 -13.008  17.123  1.00  0.00    -0.236 F 
ENDROOT
BRANCH   1  19
HETATM   19  N1  UNL     1     -87.449 -10.094  12.262  1.00  0.00    -0.384 N 
ATOM     20  H12 UNL     1     -87.257  -9.170  11.875  1.00  0.00     0.157 HD
ATOM     21  H11 UNL     1     -87.689 -10.715  11.489  1.00  0.00     0.157 HD
ENDBRANCH   1  19
BRANCH  15  22
HETATM   22  O1  UNL     1     -88.240 -16.003  14.814  1.00  0.00    -0.275 OA
BRANCH  22  23
HETATM   23  C17 UNL     1     -86.900 -16.641  14.669  1.00  0.00     0.245 C 
BRANCH  23  24
HETATM   24  C18 UNL     1     -86.673 -17.019  16.152  1.00  0.00     0.086 C 
HETATM   25  N6  UNL     1     -87.071 -18.214  16.611  1.00  0.00    -0.389 N 
HETATM   26  C19 UNL     1     -88.283 -18.788  16.808  1.00  0.00     0.124 C 
HETATM   27  C22 UNL     1     -86.174 -19.305  16.175  1.00  0.00     0.153 C 
HETATM   28  C20 UNL     1     -87.925 -20.127  17.481  1.00  0.00     0.053 C 
HETATM   29  C21 UNL     1     -86.409 -20.289  17.289  1.00  0.00     0.137 C 
BRANCH  29  30
HETATM   30  O2  UNL     1     -86.027 -21.523  16.838  1.00  0.00    -0.394 OA
ATOM     31  H2  UNL     1     -85.341 -21.932  17.352  1.00  0.00     0.210 HD
ENDBRANCH  29  30
ENDBRANCH  23  24
ENDBRANCH  22  23
ENDBRANCH  15  22
BRANCH  11  32
HETATM   32  C7  UNL     1     -91.442 -12.233  10.694  1.00  0.00     0.311 C 
BRANCH  32  33
HETATM   33  C8  UNL     1     -91.711 -13.656  10.399  1.00  0.00    -0.027 A 
HETATM   34  C9  UNL     1     -91.016 -14.423   9.520  1.00  0.00     0.032 A 
HETATM   35  C10 UNL     1     -91.355 -15.759   9.335  1.00  0.00     0.036 A 
HETATM   36 CL1  UNL     1     -90.501 -16.714   8.179  1.00  0.00    -0.084 Cl
HETATM   37  C11 UNL     1     -92.404 -16.288  10.051  1.00  0.00     0.047 A 
HETATM   38  C12 UNL     1     -93.101 -15.511  10.944  1.00  0.00     0.036 A 
HETATM   39 CL2  UNL     1     -94.408 -16.285  11.846  1.00  0.00    -0.084 Cl
HETATM   40  C13 UNL     1     -92.780 -14.205  11.137  1.00  0.00     0.032 A 
ENDBRANCH  32  33
ENDBRANCH  11  32
TORSDOF 7
ENDMDL
MODEL 2
REMARK VINA RESULT: -9.241134021      3.342      5.796
REMARK  7 active torsions:
REMARK  status: ('A' for Active; 'I' for Inactive)
REMARK    1  A    between atoms: N1_1  and  C1_4 
REMARK    2  A    between atoms: N4_14  and  C7_15 
REMARK    3  A    between atoms: C7_15  and  C8_16 
REMARK    4  A    between atoms: N5_27  and  O1_29 
REMARK    5  A    between atoms: O1_29  and  C17_30 
REMARK    6  A    between atoms: C17_30  and  C18_31 
REMARK    7  A    between atoms: C21_35  and  O2_36 
ROOT
HETATM    1  C1  UNL     1     -88.568 -10.759  14.702  1.00  0.00     0.123 A 
HETATM    2  N2  UNL     1     -88.066 -10.696  15.929  1.00  0.00    -0.285 N 
ATOM      3  H2  UNL     1     -88.219  -9.931  16.586  1.00  0.00     0.188 HD
HETATM    4  N3  UNL     1     -87.350 -11.756  16.168  1.00  0.00    -0.299 N 
ATOM      5  H3  UNL     1     -86.861 -11.943  17.043  1.00  0.00     0.186 HD
HETATM    6  C2  UNL     1     -87.347 -12.573  15.094  1.00  0.00     0.076 A 
HETATM    7  C3  UNL     1     -88.140 -11.935  14.129  1.00  0.00     0.029 A 
HETATM    8  C4  UNL     1     -88.135 -12.786  12.961  1.00  0.00     0.040 C 
HETATM    9  C5  UNL     1     -88.151 -12.063  11.646  1.00  0.00     0.051 C 
HETATM   10  C6  UNL     1     -89.496 -11.688  11.168  1.00  0.00     0.274 C 
HETATM   11  N4  UNL     1     -90.663 -12.200  11.770  1.00  0.00     0.092 N 
HETATM   12  C14 UNL     1     -90.558 -13.344  12.587  1.00  0.00     0.274 C 
HETATM   13  C15 UNL     1     -89.221 -13.858  12.866  1.00  0.00     0.051 C 
HETATM   14  C16 UNL     1     -86.899 -13.589  13.073  1.00  0.00     0.063 C 
HETATM   15  N5  UNL     1     -86.079 -14.036  12.318  1.00  0.00    -0.270 N 
ATOM     16  H5  UNL     1     -85.412 -14.509  12.928  1.00  0.00     0.194 HD
HETATM   17  C23 UNL     1     -86.832 -13.878  14.566  1.00  0.00     0.270 C 
HETATM   18  F1  UNL     1     -85.512 -13.952  15.014  1.00  0.00    -0.236 F 
ENDROOT
BRANCH   1  19
HETATM   19  N1  UNL     1     -89.364  -9.887  14.126  1.00  0.00    -0.384 N 
ATOM     20  H12 UNL     1     -89.216  -9.480  13.202  1.00  0.00     0.157 HD
ATOM     21  H11 UNL     1     -90.241  -9.518  14.494  1.00  0.00     0.157 HD
ENDBRANCH   1  19
BRANCH  15  22
HETATM   22  O1  UNL     1     -85.601 -14.230  11.119  1.00  0.00    -0.275 OA
BRANCH  22  23
HETATM   23  C17 UNL     1     -85.276 -12.993  10.354  1.00  0.00     0.245 C 
BRANCH  23  24
HETATM   24  C18 UNL     1     -85.444 -13.566   8.926  1.00  0.00     0.086 C 
HETATM   25  N6  UNL     1     -86.383 -13.070   8.108  1.00  0.00    -0.389 N 
HETATM   26  C19 UNL     1     -87.739 -13.091   8.112  1.00  0.00     0.124 C 
HETATM   27  C22 UNL     1     -86.003 -11.753   7.556  1.00  0.00     0.153 C 
HETATM   28  C20 UNL     1     -88.099 -12.418   6.774  1.00  0.00     0.053 C 
HETATM   29  C21 UNL     1     -86.795 -11.773   6.277  1.00  0.00     0.137 C 
BRANCH  29  30
HETATM   30  O2  UNL     1     -86.933 -10.478   5.855  1.00  0.00    -0.394 OA
ATOM     31  H2  UNL     1     -86.390 -10.251   5.109  1.00  0.00     0.210 HD
ENDBRANCH  29  30
ENDBRANCH  23  24
ENDBRANCH  22  23
ENDBRANCH  15  22
BRANCH  11  32
HETATM   32  C7  UNL     1     -91.751 -12.357  10.782  1.00  0.00     0.311 C 
BRANCH  32  33
HETATM   33  C8  UNL     1     -92.055 -13.762  10.442  1.00  0.00    -0.027 A 
HETATM   34  C9  UNL     1     -91.330 -14.544   9.601  1.00  0.00     0.032 A 
HETATM   35  C10 UNL     1     -91.710 -15.861   9.368  1.00  0.00     0.036 A 
HETATM   36 CL1  UNL     1     -90.814 -16.833   8.258  1.00  0.00    -0.084 Cl
HETATM   37  C11 UNL     1     -92.827 -16.358   9.997  1.00  0.00     0.047 A 
HETATM   38  C12 UNL     1     -93.555 -15.566  10.853  1.00  0.00     0.036 A 
HETATM   39 CL2  UNL     1     -94.954 -16.299  11.645  1.00  0.00    -0.084 Cl
HETATM   40  C13 UNL     1     -93.196 -14.278  11.092  1.00  0.00     0.032 A 
ENDBRANCH  32  33
ENDBRANCH  11  32
TORSDOF 7
ENDMDL
MODEL 3
REMARK VINA RESULT: -9.227158160      3.345      6.005
REMARK  7 active torsions:
REMARK  status: ('A' for Active; 'I' for Inactive)
REMARK    1  A    between atoms: N1_1  and  C1_4 
REMARK    2  A    between atoms: N4_14  and  C7_15 
REMARK    3  A    between atoms: C7_15  and  C8_16 
REMARK    4  A    between atoms: N5_27  and  O1_29 
REMARK    5  A    between atoms: O1_29  and  C17_30 
REMARK    6  A    between atoms: C17_30  and  C18_31 
REMARK    7  A    between atoms: C21_35  and  O2_36 
ROOT
HETATM    1  C1  UNL     1     -88.589 -10.794  14.688  1.00  0.00     0.123 A 
HETATM    2  N2  UNL     1     -88.109 -10.740  15.924  1.00  0.00    -0.285 N 
ATOM      3  H2  UNL     1     -88.277  -9.983  16.586  1.00  0.00     0.188 HD
HETATM    4  N3  UNL     1     -87.390 -11.798  16.163  1.00  0.00    -0.299 N 
ATOM      5  H3  UNL     1     -86.913 -11.990  17.045  1.00  0.00     0.186 HD
HETATM    6  C2  UNL     1     -87.363 -12.604  15.082  1.00  0.00     0.076 A 
HETATM    7  C3  UNL     1     -88.144 -11.961  14.110  1.00  0.00     0.029 A 
HETATM    8  C4  UNL     1     -88.114 -12.800  12.934  1.00  0.00     0.040 C 
HETATM    9  C5  UNL     1     -88.113 -12.064  11.626  1.00  0.00     0.051 C 
HETATM   10  C6  UNL     1     -89.452 -11.693  11.129  1.00  0.00     0.274 C 
HETATM   11  N4  UNL     1     -90.626 -12.219  11.707  1.00  0.00     0.092 N 
HETATM   12  C14 UNL     1     -90.527 -13.370  12.513  1.00  0.00     0.274 C 
HETATM   13  C15 UNL     1     -89.191 -13.878  12.809  1.00  0.00     0.051 C 
HETATM   14  C16 UNL     1     -86.874 -13.596  13.059  1.00  0.00     0.063 C 
HETATM   15  N5  UNL     1     -86.039 -14.030  12.312  1.00  0.00    -0.270 N 
ATOM     16  H5  UNL     1     -85.379 -14.505  12.929  1.00  0.00     0.194 HD
HETATM   17  C23 UNL     1     -86.830 -13.900  14.549  1.00  0.00     0.270 C 
HETATM   18  F1  UNL     1     -85.518 -13.969  15.018  1.00  0.00    -0.236 F 
ENDROOT
BRANCH   1  19
HETATM   19  N1  UNL     1     -89.382  -9.921  14.107  1.00  0.00    -0.384 N 
ATOM     20  H12 UNL     1     -90.361 -10.084  13.874  1.00  0.00     0.157 HD
ATOM     21  H11 UNL     1     -89.149  -8.965  13.836  1.00  0.00     0.157 HD
ENDBRANCH   1  19
BRANCH  15  22
HETATM   22  O1  UNL     1     -85.540 -14.208  11.120  1.00  0.00    -0.275 OA
BRANCH  22  23
HETATM   23  C17 UNL     1     -85.256 -12.961  10.354  1.00  0.00     0.245 C 
BRANCH  23  24
HETATM   24  C18 UNL     1     -85.399 -13.541   8.926  1.00  0.00     0.086 C 
HETATM   25  N6  UNL     1     -86.344 -13.070   8.100  1.00  0.00    -0.389 N 
HETATM   26  C19 UNL     1     -87.699 -13.123   8.094  1.00  0.00     0.124 C 
HETATM   27  C22 UNL     1     -85.990 -11.745   7.547  1.00  0.00     0.153 C 
HETATM   28  C20 UNL     1     -88.064 -12.461   6.751  1.00  0.00     0.053 C 
HETATM   29  C21 UNL     1     -86.771 -11.787   6.263  1.00  0.00     0.137 C 
BRANCH  29  30
HETATM   30  O2  UNL     1     -86.936 -10.497   5.836  1.00  0.00    -0.394 OA
ATOM     31  H2  UNL     1     -86.776 -10.369   4.909  1.00  0.00     0.210 HD
ENDBRANCH  29  30
ENDBRANCH  23  24
ENDBRANCH  22  23
ENDBRANCH  15  22
BRANCH  11  32
HETATM   32  C7  UNL     1     -91.696 -12.372  10.699  1.00  0.00     0.311 C 
BRANCH  32  33
HETATM   33  C8  UNL     1     -92.161 -13.764  10.526  1.00  0.00    -0.027 A 
HETATM   34  C9  UNL     1     -93.243 -14.314  11.134  1.00  0.00     0.032 A 
HETATM   35  C10 UNL     1     -93.592 -15.637  10.883  1.00  0.00     0.036 A 
HETATM   36 CL1  UNL     1     -94.937 -16.345  11.700  1.00  0.00    -0.084 Cl
HETATM   37  C11 UNL     1     -92.825 -16.377  10.014  1.00  0.00     0.047 A 
HETATM   38  C12 UNL     1     -91.735 -15.816   9.394  1.00  0.00     0.036 A 
HETATM   39 CL2  UNL     1     -90.830 -16.830   8.265  1.00  0.00    -0.084 Cl
HETATM   40  C13 UNL     1     -91.382 -14.525   9.629  1.00  0.00     0.032 A 
ENDBRANCH  32  33
ENDBRANCH  11  32
TORSDOF 7
ENDMDL
MODEL 4
REMARK VINA RESULT: -9.172178300      4.606      7.007
REMARK  7 active torsions:
REMARK  status: ('A' for Active; 'I' for Inactive)
REMARK    1  A    between atoms: N1_1  and  C1_4 
REMARK    2  A    between atoms: N4_14  and  C7_15 
REMARK    3  A    between atoms: C7_15  and  C8_16 
REMARK    4  A    between atoms: N5_27  and  O1_29 
REMARK    5  A    between atoms: O1_29  and  C17_30 
REMARK    6  A    between atoms: C17_30  and  C18_31 
REMARK    7  A    between atoms: C21_35  and  O2_36 
ROOT
HETATM    1  C1  UNL     1     -86.207 -12.370  14.643  1.00  0.00     0.123 A 
HETATM    2  N2  UNL     1     -86.357 -11.684  15.769  1.00  0.00    -0.285 N 
ATOM      3  H2  UNL     1     -85.900 -11.903  16.654  1.00  0.00     0.188 HD
HETATM    4  N3  UNL     1     -87.174 -10.690  15.574  1.00  0.00    -0.299 N 
ATOM      5  H3  UNL     1     -87.450 -10.015  16.287  1.00  0.00     0.186 HD
HETATM    6  C2  UNL     1     -87.606 -10.679  14.296  1.00  0.00     0.076 A 
HETATM    7  C3  UNL     1     -86.981 -11.771  13.676  1.00  0.00     0.029 A 
HETATM    8  C4  UNL     1     -87.445 -11.791  12.307  1.00  0.00     0.040 C 
HETATM    9  C5  UNL     1     -87.631 -13.157  11.716  1.00  0.00     0.051 C 
HETATM   10  C6  UNL     1     -86.407 -13.748  11.139  1.00  0.00     0.274 C 
HETATM   11  N4  UNL     1     -85.243 -12.980  10.934  1.00  0.00     0.092 N 
HETATM   12  C14 UNL     1     -85.348 -11.575  10.936  1.00  0.00     0.274 C 
HETATM   13  C15 UNL     1     -86.642 -10.992  11.279  1.00  0.00     0.051 C 
HETATM   14  C16 UNL     1     -88.740 -11.077  12.328  1.00  0.00     0.063 C 
HETATM   15  N5  UNL     1     -89.794 -11.169  11.761  1.00  0.00    -0.270 N 
ATOM     16  H5  UNL     1     -90.359 -10.423  12.167  1.00  0.00     0.194 HD
HETATM   17  C23 UNL     1     -88.475  -9.950  13.317  1.00  0.00     0.270 C 
HETATM   18  F1  UNL     1     -89.626  -9.619  14.034  1.00  0.00    -0.236 F 
ENDROOT
BRANCH   1  19
HETATM   19  N1  UNL     1     -85.436 -13.417  14.450  1.00  0.00    -0.384 N 
ATOM     20  H12 UNL     1     -84.446 -13.467  14.692  1.00  0.00     0.157 HD
ATOM     21  H11 UNL     1     -85.711 -14.321  14.065  1.00  0.00     0.157 HD
ENDBRANCH   1  19
BRANCH  15  22
HETATM   22  O1  UNL     1     -90.591 -11.731  10.894  1.00  0.00    -0.275 OA
BRANCH  22  23
HETATM   23  C17 UNL     1     -91.763 -12.447  11.472  1.00  0.00     0.245 C 
BRANCH  23  24
HETATM   24  C18 UNL     1     -91.153 -13.868  11.522  1.00  0.00     0.086 C 
HETATM   25  N6  UNL     1     -91.753 -14.881  10.881  1.00  0.00    -0.389 N 
HETATM   26  C19 UNL     1     -92.924 -15.542  11.057  1.00  0.00     0.124 C 
HETATM   27  C22 UNL     1     -91.541 -14.819   9.420  1.00  0.00     0.153 C 
HETATM   28  C20 UNL     1     -92.850 -16.662  10.002  1.00  0.00     0.053 C 
HETATM   29  C21 UNL     1     -91.682 -16.278   9.079  1.00  0.00     0.137 C 
BRANCH  29  30
HETATM   30  O2  UNL     1     -91.967 -16.366   7.744  1.00  0.00    -0.394 OA
ATOM     31  H2  UNL     1     -91.280 -16.041   7.175  1.00  0.00     0.210 HD
ENDBRANCH  29  30
ENDBRANCH  23  24
ENDBRANCH  22  23
ENDBRANCH  15  22
BRANCH  11  32
HETATM   32  C7  UNL     1     -84.494 -13.451   9.749  1.00  0.00     0.311 C 
BRANCH  32  33
HETATM   33  C8  UNL     1     -84.828 -12.731   8.504  1.00  0.00    -0.027 A 
HETATM   34  C9  UNL     1     -86.084 -12.495   8.043  1.00  0.00     0.032 A 
HETATM   35  C10 UNL     1     -86.276 -11.793   6.858  1.00  0.00     0.036 A 
HETATM   36 CL1  UNL     1     -87.872 -11.543   6.253  1.00  0.00    -0.084 Cl
HETATM   37  C11 UNL     1     -85.178 -11.345   6.161  1.00  0.00     0.047 A 
HETATM   38  C12 UNL     1     -83.909 -11.579   6.633  1.00  0.00     0.036 A 
HETATM   39 CL2  UNL     1     -82.561 -10.935   5.690  1.00  0.00    -0.084 Cl
HETATM   40  C13 UNL     1     -83.706 -12.263   7.789  1.00  0.00     0.032 A 
ENDBRANCH  32  33
ENDBRANCH  11  32
TORSDOF 7
ENDMDL
MODEL 5
REMARK VINA RESULT: -9.033841887      4.404      7.149
REMARK  7 active torsions:
REMARK  status: ('A' for Active; 'I' for Inactive)
REMARK    1  A    between atoms: N1_1  and  C1_4 
REMARK    2  A    between atoms: N4_14  and  C7_15 
REMARK    3  A    between atoms: C7_15  and  C8_16 
REMARK    4  A    between atoms: N5_27  and  O1_29 
REMARK    5  A    between atoms: O1_29  and  C17_30 
REMARK    6  A    between atoms: C17_30  and  C18_31 
REMARK    7  A    between atoms: C21_35  and  O2_36 
ROOT
HETATM    1  C1  UNL     1     -90.677 -12.588  12.888  1.00  0.00     0.123 A 
HETATM    2  N2  UNL     1     -91.642 -12.963  13.718  1.00  0.00    -0.285 N 
ATOM      3  H2  UNL     1     -92.626 -13.061  13.468  1.00  0.00     0.188 HD
HETATM    4  N3  UNL     1     -91.144 -13.187  14.900  1.00  0.00    -0.299 N 
ATOM      5  H3  UNL     1     -91.684 -13.488  15.711  1.00  0.00     0.186 HD
HETATM    6  C2  UNL     1     -89.814 -12.964  14.900  1.00  0.00     0.076 A 
HETATM    7  C3  UNL     1     -89.494 -12.573  13.592  1.00  0.00     0.029 A 
HETATM    8  C4  UNL     1     -88.074 -12.310  13.573  1.00  0.00     0.040 C 
HETATM    9  C5  UNL     1     -87.646 -11.180  12.683  1.00  0.00     0.051 C 
HETATM   10  C6  UNL     1     -87.430 -11.558  11.273  1.00  0.00     0.274 C 
HETATM   11  N4  UNL     1     -87.378 -12.907  10.869  1.00  0.00     0.092 N 
HETATM   12  C14 UNL     1     -87.168 -13.899  11.848  1.00  0.00     0.274 C 
HETATM   13  C15 UNL     1     -87.145 -13.480  13.245  1.00  0.00     0.051 C 
HETATM   14  C16 UNL     1     -87.720 -12.001  14.975  1.00  0.00     0.063 C 
HETATM   15  N5  UNL     1     -86.957 -11.264  15.539  1.00  0.00    -0.270 N 
ATOM     16  H5  UNL     1     -87.128 -11.442  16.529  1.00  0.00     0.194 HD
HETATM   17  C23 UNL     1     -88.582 -12.985  15.753  1.00  0.00     0.270 C 
HETATM   18  F1  UNL     1     -88.984 -12.454  16.980  1.00  0.00    -0.236 F 
ENDROOT
BRANCH   1  19
HETATM   19  N1  UNL     1     -90.796 -12.310  11.609  1.00  0.00    -0.384 N 
ATOM     20  H12 UNL     1     -91.559 -11.774  11.195  1.00  0.00     0.157 HD
ATOM     21  H11 UNL     1     -90.146 -12.558  10.863  1.00  0.00     0.157 HD
ENDBRANCH   1  19
BRANCH  15  22
HETATM   22  O1  UNL     1     -86.023 -10.354  15.539  1.00  0.00    -0.275 OA
BRANCH  22  23
HETATM   23  C17 UNL     1     -85.165 -10.318  16.757  1.00  0.00     0.245 C 
BRANCH  23  24
HETATM   24  C18 UNL     1     -83.800 -10.571  16.073  1.00  0.00     0.086 C 
HETATM   25  N6  UNL     1     -83.144  -9.561  15.484  1.00  0.00    -0.389 N 
HETATM   26  C19 UNL     1     -83.381  -8.800  14.387  1.00  0.00     0.124 C 
HETATM   27  C22 UNL     1     -82.507  -8.661  16.468  1.00  0.00     0.153 C 
HETATM   28  C20 UNL     1     -82.111  -7.935  14.286  1.00  0.00     0.053 C 
HETATM   29  C21 UNL     1     -81.383  -8.118  15.628  1.00  0.00     0.137 C 
BRANCH  29  30
HETATM   30  O2  UNL     1     -80.963  -6.950  16.204  1.00  0.00    -0.394 OA
ATOM     31  H2  UNL     1     -80.027  -6.905  16.358  1.00  0.00     0.210 HD
ENDBRANCH  29  30
ENDBRANCH  23  24
ENDBRANCH  22  23
ENDBRANCH  15  22
BRANCH  11  32
HETATM   32  C7  UNL     1     -86.456 -13.090   9.728  1.00  0.00     0.311 C 
BRANCH  32  33
HETATM   33  C8  UNL     1     -87.018 -12.663   8.430  1.00  0.00    -0.027 A 
HETATM   34  C9  UNL     1     -88.338 -12.646   8.110  1.00  0.00     0.032 A 
HETATM   35  C10 UNL     1     -88.749 -12.210   6.855  1.00  0.00     0.036 A 
HETATM   36 CL1  UNL     1     -90.423 -12.241   6.437  1.00  0.00    -0.084 Cl
HETATM   37  C11 UNL     1     -87.802 -11.801   5.945  1.00  0.00     0.047 A 
HETATM   38  C12 UNL     1     -86.468 -11.812   6.274  1.00  0.00     0.036 A 
HETATM   39 CL2  UNL     1     -85.326 -11.234   5.057  1.00  0.00    -0.084 Cl
HETATM   40  C13 UNL     1     -86.051 -12.234   7.497  1.00  0.00     0.032 A 
ENDBRANCH  32  33
ENDBRANCH  11  32
TORSDOF 7
ENDMDL
