MODEL 1
REMARK VINA RESULT: -8.960468158      0.000      0.000
REMARK  9 active torsions:
REMARK  status: ('A' for Active; 'I' for Inactive)
REMARK    1  A    between atoms: C2_2  and  C3_3 
REMARK    2  A    between atoms: C3_3  and  C4_4 
REMARK    3  A    between atoms: C4_4  and  C5_5 
REMARK    4  A    between atoms: C5_5  and  C6_6 
REMARK       I    between atoms: C6_6  and  N1_8 
REMARK    5  A    between atoms: N1_8  and  N2_10 
REMARK    6  A    between atoms: C7_11  and  O2_12 
REMARK    7  A    between atoms: C9_17  and  S1_18 
REMARK    8  A    between atoms: S1_18  and  C10_19 
REMARK    9  A    between atoms: C21_33  and  O3_34 
ROOT
HETATM    1  N2  UNL     1     -89.366 -14.507  15.080  1.00  0.00    -0.206 N 
HETATM    2  C7  UNL     1     -90.566 -15.074  14.744  1.00  0.00     0.192 A 
HETATM    3  C8  UNL     1     -90.643 -15.201  13.372  1.00  0.00     0.103 A 
HETATM    4  N3  UNL     1     -91.588 -15.685  12.547  1.00  0.00    -0.346 N 
ATOM      5  H3  UNL     1     -92.454 -16.052  12.941  1.00  0.00     0.167 HD
HETATM    6  C9  UNL     1     -91.415 -15.695  11.199  1.00  0.00     0.084 A 
HETATM    7  C12 UNL     1     -90.232 -15.196  10.697  1.00  0.00     0.038 A 
HETATM    8  C13 UNL     1     -89.693 -15.070   9.409  1.00  0.00     0.006 A 
HETATM    9  C14 UNL     1     -90.203 -15.414   8.193  1.00  0.00     0.016 A 
HETATM   10  C15 UNL     1     -89.413 -15.178   7.063  1.00  0.00     0.020 A 
HETATM   11  C16 UNL     1     -88.158 -14.618   7.144  1.00  0.00     0.013 A 
HETATM   12 BR1  UNL     1     -87.149 -14.331   5.545  1.00  0.00    -0.051 Br
HETATM   13  C17 UNL     1     -87.671 -14.281   8.385  1.00  0.00     0.049 A 
HETATM   14  C18 UNL     1     -88.418 -14.499   9.520  1.00  0.00     0.045 A 
HETATM   15  N4  UNL     1     -88.170 -14.278  10.812  1.00  0.00    -0.354 N 
ATOM     16  H4  UNL     1     -87.317 -13.869  11.194  1.00  0.00     0.166 HD
HETATM   17  C19 UNL     1     -89.241 -14.689  11.533  1.00  0.00     0.064 A 
HETATM   18  C20 UNL     1     -89.460 -14.695  12.904  1.00  0.00     0.075 A 
HETATM   19  C21 UNL     1     -88.670 -14.265  13.971  1.00  0.00     0.179 A 
ENDROOT
BRANCH   1  20
HETATM   20  N1  UNL     1     -89.003 -14.254  16.391  1.00  0.00    -0.259 N 
HETATM   21  C6  UNL     1     -88.490 -15.083  17.377  1.00  0.00     0.236 C 
HETATM   22  O1  UNL     1     -88.250 -16.277  17.253  1.00  0.00    -0.272 OA
ATOM     23  H1  UNL     1     -89.136 -13.286  16.684  1.00  0.00     0.190 HD
BRANCH  21  24
HETATM   24  C5  UNL     1     -88.202 -14.458  18.729  1.00  0.00     0.104 C 
BRANCH  24  25
HETATM   25  C4  UNL     1     -87.531 -13.136  18.481  1.00  0.00     0.009 C 
BRANCH  25  26
HETATM   26  C3  UNL     1     -86.053 -13.407  18.261  1.00  0.00     0.000 C 
BRANCH  26  27
HETATM   27  C2  UNL     1     -85.321 -12.147  17.874  1.00  0.00    -0.005 C 
HETATM   28  C1  UNL     1     -85.422 -11.861  16.397  1.00  0.00     0.005 C 
ENDBRANCH  26  27
ENDBRANCH  25  26
ENDBRANCH  24  25
ENDBRANCH  21  24
ENDBRANCH   1  20
BRANCH   2  29
HETATM   29  O2  UNL     1     -91.583 -15.477  15.610  1.00  0.00    -0.343 OA
ATOM     30  H2  UNL     1     -91.984 -16.337  15.667  1.00  0.00     0.219 HD
ENDBRANCH   2  29
BRANCH  19  31
HETATM   31  O3  UNL     1     -87.413 -13.709  13.768  1.00  0.00    -0.344 OA
ATOM     32  H3  UNL     1     -86.807 -13.763  13.039  1.00  0.00     0.219 HD
ENDBRANCH  19  31
BRANCH   6  33
HETATM   33  S1  UNL     1     -92.672 -16.376  10.138  1.00  0.00    -0.112 SA
BRANCH  33  34
HETATM   34  C10 UNL     1     -93.854 -17.298  11.128  1.00  0.00     0.076 C 
HETATM   35  C11 UNL     1     -93.476 -18.681  11.496  1.00  0.00     0.016 C 
ENDBRANCH  33  34
ENDBRANCH   6  33
TORSDOF 9
ENDMDL
MODEL 2
REMARK VINA RESULT: -8.396565984      3.535      7.650
REMARK  9 active torsions:
REMARK  status: ('A' for Active; 'I' for Inactive)
REMARK    1  A    between atoms: C2_2  and  C3_3 
REMARK    2  A    between atoms: C3_3  and  C4_4 
REMARK    3  A    between atoms: C4_4  and  C5_5 
REMARK    4  A    between atoms: C5_5  and  C6_6 
REMARK       I    between atoms: C6_6  and  N1_8 
REMARK    5  A    between atoms: N1_8  and  N2_10 
REMARK    6  A    between atoms: C7_11  and  O2_12 
REMARK    7  A    between atoms: C9_17  and  S1_18 
REMARK    8  A    between atoms: S1_18  and  C10_19 
REMARK    9  A    between atoms: C21_33  and  O3_34 
ROOT
HETATM    1  N2  UNL     1     -90.553 -15.312  13.056  1.00  0.00    -0.206 N 
HETATM    2  C7  UNL     1     -90.585 -15.263  14.425  1.00  0.00     0.192 A 
HETATM    3  C8  UNL     1     -89.457 -14.616  14.884  1.00  0.00     0.103 A 
HETATM    4  N3  UNL     1     -89.012 -14.310  16.116  1.00  0.00    -0.346 N 
ATOM      5  H3  UNL     1     -89.569 -14.577  16.928  1.00  0.00     0.167 HD
HETATM    6  C9  UNL     1     -87.838 -13.652  16.303  1.00  0.00     0.084 A 
HETATM    7  C12 UNL     1     -87.110 -13.301  15.186  1.00  0.00     0.038 A 
HETATM    8  C13 UNL     1     -85.907 -12.611  14.981  1.00  0.00     0.006 A 
HETATM    9  C14 UNL     1     -85.038 -12.054  15.870  1.00  0.00     0.016 A 
HETATM   10  C15 UNL     1     -83.908 -11.406  15.359  1.00  0.00     0.020 A 
HETATM   11  C16 UNL     1     -83.655 -11.317  14.010  1.00  0.00     0.013 A 
HETATM   12 BR1  UNL     1     -82.085 -10.411  13.403  1.00  0.00    -0.051 Br
HETATM   13  C17 UNL     1     -84.551 -11.889  13.137  1.00  0.00     0.049 A 
HETATM   14  C18 UNL     1     -85.675 -12.535  13.601  1.00  0.00     0.045 A 
HETATM   15  N4  UNL     1     -86.681 -13.145  12.973  1.00  0.00    -0.354 N 
ATOM     16  H4  UNL     1     -86.780 -13.246  11.963  1.00  0.00     0.166 HD
HETATM   17  C19 UNL     1     -87.551 -13.609  13.902  1.00  0.00     0.064 A 
HETATM   18  C20 UNL     1     -88.756 -14.284  13.756  1.00  0.00     0.075 A 
HETATM   19  C21 UNL     1     -89.443 -14.719  12.623  1.00  0.00     0.179 A 
ENDROOT
BRANCH   1  20
HETATM   20  N1  UNL     1     -91.556 -15.904  12.309  1.00  0.00    -0.259 N 
HETATM   21  C6  UNL     1     -92.722 -15.387  11.765  1.00  0.00     0.236 C 
HETATM   22  O1  UNL     1     -93.099 -14.226  11.857  1.00  0.00    -0.272 OA
ATOM     23  H1  UNL     1     -91.412 -16.897  12.126  1.00  0.00     0.190 HD
BRANCH  21  24
HETATM   24  C5  UNL     1     -93.609 -16.342  10.988  1.00  0.00     0.104 C 
BRANCH  24  25
HETATM   25  C4  UNL     1     -93.372 -17.722  11.534  1.00  0.00     0.009 C 
BRANCH  25  26
HETATM   26  C3  UNL     1     -93.166 -18.653  10.352  1.00  0.00     0.000 C 
BRANCH  26  27
HETATM   27  C2  UNL     1     -91.923 -18.288   9.583  1.00  0.00    -0.005 C 
HETATM   28  C1  UNL     1     -91.824 -19.029   8.273  1.00  0.00     0.005 C 
ENDBRANCH  26  27
ENDBRANCH  25  26
ENDBRANCH  24  25
ENDBRANCH  21  24
ENDBRANCH   1  20
BRANCH   2  29
HETATM   29  O2  UNL     1     -91.576 -15.770  15.267  1.00  0.00    -0.343 OA
ATOM     30  H2  UNL     1     -91.453 -16.266  16.068  1.00  0.00     0.219 HD
ENDBRANCH   2  29
BRANCH  19  31
HETATM   31  O3  UNL     1     -88.945 -14.507  11.343  1.00  0.00    -0.344 OA
ATOM     32  H3  UNL     1     -89.212 -13.915  10.650  1.00  0.00     0.219 HD
ENDBRANCH  19  31
BRANCH   6  33
HETATM   33  S1  UNL     1     -87.297 -13.232  17.947  1.00  0.00    -0.112 SA
BRANCH  33  34
HETATM   34  C10 UNL     1     -85.957 -14.324  18.433  1.00  0.00     0.076 C 
HETATM   35  C11 UNL     1     -85.846 -15.606  17.702  1.00  0.00     0.016 C 
ENDBRANCH  33  34
ENDBRANCH   6  33
TORSDOF 9
ENDMDL
MODEL 3
REMARK VINA RESULT: -8.041076761      3.739      7.719
REMARK  9 active torsions:
REMARK  status: ('A' for Active; 'I' for Inactive)
REMARK    1  A    between atoms: C2_2  and  C3_3 
REMARK    2  A    between atoms: C3_3  and  C4_4 
REMARK    3  A    between atoms: C4_4  and  C5_5 
REMARK    4  A    between atoms: C5_5  and  C6_6 
REMARK       I    between atoms: C6_6  and  N1_8 
REMARK    5  A    between atoms: N1_8  and  N2_10 
REMARK    6  A    between atoms: C7_11  and  O2_12 
REMARK    7  A    between atoms: C9_17  and  S1_18 
REMARK    8  A    between atoms: S1_18  and  C10_19 
REMARK    9  A    between atoms: C21_33  and  O3_34 
ROOT
HETATM    1  N2  UNL     1     -90.846 -14.452  13.399  1.00  0.00    -0.206 N 
HETATM    2  C7  UNL     1     -90.677 -14.991  14.647  1.00  0.00     0.192 A 
HETATM    3  C8  UNL     1     -89.435 -14.637  15.132  1.00  0.00     0.103 A 
HETATM    4  N3  UNL     1     -88.790 -14.900  16.283  1.00  0.00    -0.346 N 
ATOM      5  H3  UNL     1     -89.250 -15.471  16.993  1.00  0.00     0.167 HD
HETATM    6  C9  UNL     1     -87.541 -14.421  16.521  1.00  0.00     0.084 A 
HETATM    7  C12 UNL     1     -86.949 -13.649  15.545  1.00  0.00     0.038 A 
HETATM    8  C13 UNL     1     -85.724 -12.975  15.441  1.00  0.00     0.006 A 
HETATM    9  C14 UNL     1     -84.685 -12.878  16.316  1.00  0.00     0.016 A 
HETATM   10  C15 UNL     1     -83.580 -12.109  15.935  1.00  0.00     0.020 A 
HETATM   11  C16 UNL     1     -83.515 -11.460  14.724  1.00  0.00     0.013 A 
HETATM   12 BR1  UNL     1     -81.964 -10.430  14.288  1.00  0.00    -0.051 Br
HETATM   13  C17 UNL     1     -84.580 -11.577  13.861  1.00  0.00     0.049 A 
HETATM   14  C18 UNL     1     -85.685 -12.325  14.201  1.00  0.00     0.045 A 
HETATM   15  N4  UNL     1     -86.827 -12.577  13.559  1.00  0.00    -0.354 N 
ATOM     16  H4  UNL     1     -87.079 -12.234  12.632  1.00  0.00     0.166 HD
HETATM   17  C19 UNL     1     -87.598 -13.366  14.346  1.00  0.00     0.064 A 
HETATM   18  C20 UNL     1     -88.873 -13.877  14.142  1.00  0.00     0.075 A 
HETATM   19  C21 UNL     1     -89.755 -13.766  13.068  1.00  0.00     0.179 A 
ENDROOT
BRANCH   1  20
HETATM   20  N1  UNL     1     -92.000 -14.637  12.659  1.00  0.00    -0.259 N 
HETATM   21  C6  UNL     1     -92.194 -14.893  11.310  1.00  0.00     0.236 C 
HETATM   22  O1  UNL     1     -91.310 -15.009  10.471  1.00  0.00    -0.272 OA
ATOM     23  H1  UNL     1     -92.861 -14.574  13.202  1.00  0.00     0.190 HD
BRANCH  21  24
HETATM   24  C5  UNL     1     -93.626 -15.042  10.830  1.00  0.00     0.104 C 
BRANCH  24  25
HETATM   25  C4  UNL     1     -93.738 -16.380  10.154  1.00  0.00     0.009 C 
BRANCH  25  26
HETATM   26  C3  UNL     1     -93.897 -17.430  11.239  1.00  0.00     0.000 C 
BRANCH  26  27
HETATM   27  C2  UNL     1     -93.131 -18.683  10.899  1.00  0.00    -0.005 C 
HETATM   28  C1  UNL     1     -92.420 -18.575   9.574  1.00  0.00     0.005 C 
ENDBRANCH  26  27
ENDBRANCH  25  26
ENDBRANCH  24  25
ENDBRANCH  21  24
ENDBRANCH   1  20
BRANCH   2  29
HETATM   29  O2  UNL     1     -91.584 -15.778  15.359  1.00  0.00    -0.343 OA
ATOM     30  H2  UNL     1     -91.487 -16.692  15.600  1.00  0.00     0.219 HD
ENDBRANCH   2  29
BRANCH  19  31
HETATM   31  O3  UNL     1     -89.426 -13.043  11.928  1.00  0.00    -0.344 OA
ATOM     32  H3  UNL     1     -89.643 -12.160  11.653  1.00  0.00     0.219 HD
ENDBRANCH  19  31
BRANCH   6  33
HETATM   33  S1  UNL     1     -86.732 -14.760  18.071  1.00  0.00    -0.112 SA
BRANCH  33  34
HETATM   34  C10 UNL     1     -85.571 -16.113  17.856  1.00  0.00     0.076 C 
HETATM   35  C11 UNL     1     -85.803 -17.011  16.702  1.00  0.00     0.016 C 
ENDBRANCH  33  34
ENDBRANCH   6  33
TORSDOF 9
ENDMDL
MODEL 4
REMARK VINA RESULT: -8.034749190      4.870      8.784
REMARK  9 active torsions:
REMARK  status: ('A' for Active; 'I' for Inactive)
REMARK    1  A    between atoms: C2_2  and  C3_3 
REMARK    2  A    between atoms: C3_3  and  C4_4 
REMARK    3  A    between atoms: C4_4  and  C5_5 
REMARK    4  A    between atoms: C5_5  and  C6_6 
REMARK       I    between atoms: C6_6  and  N1_8 
REMARK    5  A    between atoms: N1_8  and  N2_10 
REMARK    6  A    between atoms: C7_11  and  O2_12 
REMARK    7  A    between atoms: C9_17  and  S1_18 
REMARK    8  A    between atoms: S1_18  and  C10_19 
REMARK    9  A    between atoms: C21_33  and  O3_34 
ROOT
HETATM    1  N2  UNL     1     -86.710 -14.237   6.441  1.00  0.00    -0.206 N 
HETATM    2  C7  UNL     1     -88.047 -14.433   6.221  1.00  0.00     0.192 A 
HETATM    3  C8  UNL     1     -88.623 -14.965   7.356  1.00  0.00     0.103 A 
HETATM    4  N3  UNL     1     -89.880 -15.336   7.660  1.00  0.00    -0.346 N 
ATOM      5  H3  UNL     1     -90.614 -15.231   6.959  1.00  0.00     0.167 HD
HETATM    6  C9  UNL     1     -90.193 -15.847   8.879  1.00  0.00     0.084 A 
HETATM    7  C12 UNL     1     -89.179 -15.973   9.806  1.00  0.00     0.038 A 
HETATM    8  C13 UNL     1     -89.120 -16.413  11.135  1.00  0.00     0.006 A 
HETATM    9  C14 UNL     1     -90.095 -16.885  11.961  1.00  0.00     0.016 A 
HETATM   10  C15 UNL     1     -89.732 -17.240  13.264  1.00  0.00     0.020 A 
HETATM   11  C16 UNL     1     -88.441 -17.129  13.727  1.00  0.00     0.013 A 
HETATM   12 BR1  UNL     1     -88.037 -17.638  15.525  1.00  0.00    -0.051 Br
HETATM   13  C17 UNL     1     -87.478 -16.649  12.870  1.00  0.00     0.049 A 
HETATM   14  C18 UNL     1     -87.797 -16.288  11.580  1.00  0.00     0.045 A 
HETATM   15  N4  UNL     1     -87.064 -15.794  10.581  1.00  0.00    -0.354 N 
ATOM     16  H4  UNL     1     -86.064 -15.597  10.616  1.00  0.00     0.166 HD
HETATM   17  C19 UNL     1     -87.872 -15.596   9.512  1.00  0.00     0.064 A 
HETATM   18  C20 UNL     1     -87.595 -15.081   8.252  1.00  0.00     0.075 A 
HETATM   19  C21 UNL     1     -86.408 -14.626   7.677  1.00  0.00     0.179 A 
ENDROOT
BRANCH   1  20
HETATM   20  N1  UNL     1     -85.866 -13.711   5.478  1.00  0.00    -0.259 N 
HETATM   21  C6  UNL     1     -84.514 -13.902   5.240  1.00  0.00     0.236 C 
HETATM   22  O1  UNL     1     -83.769 -14.624   5.890  1.00  0.00    -0.272 OA
ATOM     23  H1  UNL     1     -86.320 -13.069   4.828  1.00  0.00     0.190 HD
BRANCH  21  24
HETATM   24  C5  UNL     1     -83.901 -13.150   4.073  1.00  0.00     0.104 C 
BRANCH  24  25
HETATM   25  C4  UNL     1     -82.432 -13.004   4.352  1.00  0.00     0.009 C 
BRANCH  25  26
HETATM   26  C3  UNL     1     -81.681 -13.549   3.150  1.00  0.00     0.000 C 
BRANCH  26  27
HETATM   27  C2  UNL     1     -81.123 -14.920   3.434  1.00  0.00    -0.005 C 
HETATM   28  C1  UNL     1     -80.455 -14.995   4.784  1.00  0.00     0.005 C 
ENDBRANCH  26  27
ENDBRANCH  25  26
ENDBRANCH  24  25
ENDBRANCH  21  24
ENDBRANCH   1  20
BRANCH   2  29
HETATM   29  O2  UNL     1     -88.763 -14.155   5.055  1.00  0.00    -0.343 OA
ATOM     30  H2  UNL     1     -88.648 -14.553   4.200  1.00  0.00     0.219 HD
ENDBRANCH   2  29
BRANCH  19  31
HETATM   31  O3  UNL     1     -85.209 -14.635   8.379  1.00  0.00    -0.344 OA
ATOM     32  H3  UNL     1     -84.453 -15.208   8.334  1.00  0.00     0.219 HD
ENDBRANCH  19  31
BRANCH   6  33
HETATM   33  S1  UNL     1     -91.873 -16.294   9.260  1.00  0.00    -0.112 SA
BRANCH  33  34
HETATM   34  C10 UNL     1     -92.061 -18.076   9.137  1.00  0.00     0.076 C 
HETATM   35  C11 UNL     1     -90.944 -18.820   8.512  1.00  0.00     0.016 C 
ENDBRANCH  33  34
ENDBRANCH   6  33
TORSDOF 9
ENDMDL
MODEL 5
REMARK VINA RESULT: -8.015091325      4.854      8.558
REMARK  9 active torsions:
REMARK  status: ('A' for Active; 'I' for Inactive)
REMARK    1  A    between atoms: C2_2  and  C3_3 
REMARK    2  A    between atoms: C3_3  and  C4_4 
REMARK    3  A    between atoms: C4_4  and  C5_5 
REMARK    4  A    between atoms: C5_5  and  C6_6 
REMARK       I    between atoms: C6_6  and  N1_8 
REMARK    5  A    between atoms: N1_8  and  N2_10 
REMARK    6  A    between atoms: C7_11  and  O2_12 
REMARK    7  A    between atoms: C9_17  and  S1_18 
REMARK    8  A    between atoms: S1_18  and  C10_19 
REMARK    9  A    between atoms: C21_33  and  O3_34 
ROOT
HETATM    1  N2  UNL     1     -86.740 -14.240   6.424  1.00  0.00    -0.206 N 
HETATM    2  C7  UNL     1     -88.079 -14.441   6.216  1.00  0.00     0.192 A 
HETATM    3  C8  UNL     1     -88.642 -14.976   7.355  1.00  0.00     0.103 A 
HETATM    4  N3  UNL     1     -89.895 -15.352   7.671  1.00  0.00    -0.346 N 
ATOM      5  H3  UNL     1     -90.636 -15.250   6.977  1.00  0.00     0.167 HD
HETATM    6  C9  UNL     1     -90.195 -15.865   8.893  1.00  0.00     0.084 A 
HETATM    7  C12 UNL     1     -89.172 -15.987   9.810  1.00  0.00     0.038 A 
HETATM    8  C13 UNL     1     -89.099 -16.428  11.139  1.00  0.00     0.006 A 
HETATM    9  C14 UNL     1     -90.065 -16.904  11.973  1.00  0.00     0.016 A 
HETATM   10  C15 UNL     1     -89.688 -17.258  13.273  1.00  0.00     0.020 A 
HETATM   11  C16 UNL     1     -88.394 -17.142  13.724  1.00  0.00     0.013 A 
HETATM   12 BR1  UNL     1     -87.971 -17.651  15.518  1.00  0.00    -0.051 Br
HETATM   13  C17 UNL     1     -87.441 -16.658  12.858  1.00  0.00     0.049 A 
HETATM   14  C18 UNL     1     -87.773 -16.298  11.572  1.00  0.00     0.045 A 
HETATM   15  N4  UNL     1     -87.051 -15.800  10.566  1.00  0.00    -0.354 N 
ATOM     16  H4  UNL     1     -86.052 -15.599  10.592  1.00  0.00     0.166 HD
HETATM   17  C19 UNL     1     -87.869 -15.605   9.504  1.00  0.00     0.064 A 
HETATM   18  C20 UNL     1     -87.606 -15.088   8.243  1.00  0.00     0.075 A 
HETATM   19  C21 UNL     1     -86.426 -14.628   7.657  1.00  0.00     0.179 A 
ENDROOT
BRANCH   1  20
HETATM   20  N1  UNL     1     -85.908 -13.711   5.453  1.00  0.00    -0.259 N 
HETATM   21  C6  UNL     1     -84.556 -13.894   5.205  1.00  0.00     0.236 C 
HETATM   22  O1  UNL     1     -83.802 -14.611   5.849  1.00  0.00    -0.272 OA
ATOM     23  H1  UNL     1     -86.371 -13.072   4.806  1.00  0.00     0.190 HD
BRANCH  21  24
HETATM   24  C5  UNL     1     -83.958 -13.140   4.032  1.00  0.00     0.104 C 
BRANCH  24  25
HETATM   25  C4  UNL     1     -82.471 -13.358   4.067  1.00  0.00     0.009 C 
BRANCH  25  26
HETATM   26  C3  UNL     1     -81.811 -11.996   4.189  1.00  0.00     0.000 C 
BRANCH  26  27
HETATM   27  C2  UNL     1     -81.153 -11.829   5.535  1.00  0.00    -0.005 C 
HETATM   28  C1  UNL     1     -80.812 -10.390   5.828  1.00  0.00     0.005 C 
ENDBRANCH  26  27
ENDBRANCH  25  26
ENDBRANCH  24  25
ENDBRANCH  21  24
ENDBRANCH   1  20
BRANCH   2  29
HETATM   29  O2  UNL     1     -88.806 -14.165   5.057  1.00  0.00    -0.343 OA
ATOM     30  H2  UNL     1     -89.733 -14.317   4.908  1.00  0.00     0.219 HD
ENDBRANCH   2  29
BRANCH  19  31
HETATM   31  O3  UNL     1     -85.221 -14.633   8.348  1.00  0.00    -0.344 OA
ATOM     32  H3  UNL     1     -84.701 -15.341   8.710  1.00  0.00     0.219 HD
ENDBRANCH  19  31
BRANCH   6  33
HETATM   33  S1  UNL     1     -91.870 -16.319   9.289  1.00  0.00    -0.112 SA
BRANCH  33  34
HETATM   34  C10 UNL     1     -92.053 -18.100   9.160  1.00  0.00     0.076 C 
HETATM   35  C11 UNL     1     -90.945 -18.837   8.511  1.00  0.00     0.016 C 
ENDBRANCH  33  34
ENDBRANCH   6  33
TORSDOF 9
ENDMDL
