MODEL 1
REMARK VINA RESULT: -7.553647481      0.000      0.000
REMARK  10 active torsions:
REMARK  status: ('A' for Active; 'I' for Inactive)
REMARK    1  A    between atoms: C2_2  and  C3_3 
REMARK    2  A    between atoms: C3_3  and  C4_4 
REMARK    3  A    between atoms: C4_4  and  C5_5 
REMARK    4  A    between atoms: C6_6  and  C7_7 
REMARK    5  A    between atoms: C10_11  and  C11_12 
REMARK    6  A    between atoms: C12_13  and  O2_14 
REMARK    7  A    between atoms: C14_17  and  O3_18 
REMARK    8  A    between atoms: C16_21  and  C17_22 
REMARK    9  A    between atoms: C17_22  and  O4_25 
REMARK   10  A    between atoms: C24_33  and  O6_34 
ROOT
HETATM    1  C7  UNL     1     -88.876 -10.859  12.688  1.00  0.00     0.185 C 
HETATM    2  O1  UNL     1     -89.272 -10.809  14.051  1.00  0.00    -0.368 OA
HETATM    3  C8  UNL     1     -88.853 -11.991  14.611  1.00  0.00     0.164 C 
HETATM    4  C9  UNL     1     -87.846 -12.607  13.562  1.00  0.00     0.084 C 
HETATM    5  C10 UNL     1     -87.484 -11.426  12.845  1.00  0.00     0.130 C 
HETATM    6  O5  UNL     1     -86.982 -10.559  13.925  1.00  0.00    -0.330 OA
HETATM    7  C20 UNL     1     -86.907 -10.814  15.233  1.00  0.00     0.099 A 
HETATM    8  C21 UNL     1     -85.934 -10.368  16.118  1.00  0.00     0.045 A 
HETATM    9 BR1  UNL     1     -84.521  -9.270  15.463  1.00  0.00    -0.048 Br
HETATM   10  C22 UNL     1     -86.045 -10.748  17.444  1.00  0.00     0.025 A 
HETATM   11  C23 UNL     1     -87.083 -11.553  17.912  1.00  0.00     0.039 A 
HETATM   12  C24 UNL     1     -88.063 -12.003  17.025  1.00  0.00     0.077 A 
HETATM   13  C25 UNL     1     -87.936 -11.621  15.741  1.00  0.00     0.039 A 
ENDROOT
BRANCH   5  14
HETATM   14  C11 UNL     1     -86.521 -11.167  11.850  1.00  0.00     0.022 A 
HETATM   15  C12 UNL     1     -86.294  -9.795  11.561  1.00  0.00     0.078 A 
HETATM   16  C13 UNL     1     -85.436  -9.322  10.613  1.00  0.00     0.073 A 
HETATM   17  C14 UNL     1     -84.723 -10.202   9.870  1.00  0.00     0.069 A 
HETATM   18  C15 UNL     1     -84.903 -11.544  10.111  1.00  0.00     0.047 A 
HETATM   19  C16 UNL     1     -85.798 -12.045  11.097  1.00  0.00    -0.010 A 
BRANCH  15  20
HETATM   20  O2  UNL     1     -86.983  -8.815  12.288  1.00  0.00    -0.360 OA
ATOM     21  H2  UNL     1     -86.495  -8.128  12.725  1.00  0.00     0.217 HD
ENDBRANCH  15  20
BRANCH  17  22
HETATM   22  O3  UNL     1     -83.822  -9.805   8.878  1.00  0.00    -0.361 OA
ATOM     23  H3  UNL     1     -83.867 -10.119   7.982  1.00  0.00     0.217 HD
ENDBRANCH  17  22
BRANCH  19  24
HETATM   24  C17 UNL     1     -85.904 -13.465  11.253  1.00  0.00     0.078 C 
HETATM   25  C18 UNL     1     -85.031 -14.077  10.085  1.00  0.00     0.051 C 
HETATM   26  C19 UNL     1     -85.134 -14.110  12.375  1.00  0.00     0.051 C 
BRANCH  24  27
HETATM   27  O4  UNL     1     -87.055 -14.110  10.850  1.00  0.00    -0.386 OA
ATOM     28  H4  UNL     1     -87.800 -14.150  11.438  1.00  0.00     0.211 HD
ENDBRANCH  24  27
ENDBRANCH  19  24
ENDBRANCH   5  14
BRANCH   1  29
HETATM   29  C6  UNL     1     -89.845 -11.779  12.067  1.00  0.00     0.004 C 
HETATM   30  C5  UNL     1     -90.059 -11.773  10.766  1.00  0.00    -0.028 C 
BRANCH  30  31
HETATM   31  C4  UNL     1     -91.031 -12.694  10.138  1.00  0.00     0.027 C 
BRANCH  31  32
HETATM   32  C3  UNL     1     -92.237 -11.950   9.587  1.00  0.00     0.003 C 
BRANCH  32  33
HETATM   33  C2  UNL     1     -93.520 -12.688   9.929  1.00  0.00    -0.004 C 
HETATM   34  C1  UNL     1     -93.253 -13.846  10.852  1.00  0.00     0.005 C 
ENDBRANCH  32  33
ENDBRANCH  31  32
ENDBRANCH  30  31
ENDBRANCH   1  29
BRANCH  12  35
HETATM   35  O6  UNL     1     -89.127 -12.800  17.392  1.00  0.00    -0.360 OA
ATOM     36  H6  UNL     1     -89.999 -12.722  17.026  1.00  0.00     0.217 HD
ENDBRANCH  12  35
TORSDOF 10
ENDMDL
MODEL 2
REMARK VINA RESULT: -7.479767159      2.939      6.209
REMARK  10 active torsions:
REMARK  status: ('A' for Active; 'I' for Inactive)
REMARK    1  A    between atoms: C2_2  and  C3_3 
REMARK    2  A    between atoms: C3_3  and  C4_4 
REMARK    3  A    between atoms: C4_4  and  C5_5 
REMARK    4  A    between atoms: C6_6  and  C7_7 
REMARK    5  A    between atoms: C10_11  and  C11_12 
REMARK    6  A    between atoms: C12_13  and  O2_14 
REMARK    7  A    between atoms: C14_17  and  O3_18 
REMARK    8  A    between atoms: C16_21  and  C17_22 
REMARK    9  A    between atoms: C17_22  and  O4_25 
REMARK   10  A    between atoms: C24_33  and  O6_34 
ROOT
HETATM    1  C7  UNL     1     -88.464 -13.978  10.174  1.00  0.00     0.185 C 
HETATM    2  O1  UNL     1     -88.555 -13.973   8.756  1.00  0.00    -0.368 OA
HETATM    3  C8  UNL     1     -89.077 -12.751   8.413  1.00  0.00     0.164 C 
HETATM    4  C9  UNL     1     -88.955 -11.871   9.720  1.00  0.00     0.084 C 
HETATM    5  C10 UNL     1     -87.922 -12.585  10.400  1.00  0.00     0.130 C 
HETATM    6  O5  UNL     1     -86.838 -12.573   9.402  1.00  0.00    -0.330 OA
HETATM    7  C20 UNL     1     -86.840 -12.047   8.176  1.00  0.00     0.099 A 
HETATM    8  C21 UNL     1     -85.767 -11.467   7.513  1.00  0.00     0.045 A 
HETATM    9 BR1  UNL     1     -84.078 -11.375   8.390  1.00  0.00    -0.048 Br
HETATM   10  C22 UNL     1     -85.983 -10.980   6.236  1.00  0.00     0.025 A 
HETATM   11  C23 UNL     1     -87.224 -11.052   5.603  1.00  0.00     0.039 A 
HETATM   12  C24 UNL     1     -88.306 -11.635   6.267  1.00  0.00     0.077 A 
HETATM   13  C25 UNL     1     -88.073 -12.101   7.507  1.00  0.00     0.039 A 
ENDROOT
BRANCH   5  14
HETATM   14  C11 UNL     1     -87.184 -12.317  11.570  1.00  0.00     0.022 A 
HETATM   15  C12 UNL     1     -86.065 -13.163  11.794  1.00  0.00     0.078 A 
HETATM   16  C13 UNL     1     -85.239 -13.104  12.877  1.00  0.00     0.073 A 
HETATM   17  C14 UNL     1     -85.471 -12.175  13.835  1.00  0.00     0.069 A 
HETATM   18  C15 UNL     1     -86.542 -11.329  13.666  1.00  0.00     0.047 A 
HETATM   19  C16 UNL     1     -87.409 -11.385  12.540  1.00  0.00    -0.010 A 
BRANCH  15  20
HETATM   20  O2  UNL     1     -85.746 -14.147  10.849  1.00  0.00    -0.360 OA
ATOM     21  H2  UNL     1     -85.797 -15.063  11.093  1.00  0.00     0.217 HD
ENDBRANCH  15  20
BRANCH  17  22
HETATM   22  O3  UNL     1     -84.675 -12.044  14.977  1.00  0.00    -0.361 OA
ATOM     23  H3  UNL     1     -85.030 -12.044  15.858  1.00  0.00     0.217 HD
ENDBRANCH  17  22
BRANCH  19  24
HETATM   24  C17 UNL     1     -88.495 -10.454  12.478  1.00  0.00     0.078 C 
HETATM   25  C18 UNL     1     -88.689  -9.941  13.962  1.00  0.00     0.051 C 
HETATM   26  C19 UNL     1     -88.227  -9.097  11.881  1.00  0.00     0.051 C 
BRANCH  24  27
HETATM   27  O4  UNL     1     -89.789 -10.922  12.377  1.00  0.00    -0.386 OA
ATOM     28  H4  UNL     1     -90.465 -10.556  12.935  1.00  0.00     0.211 HD
ENDBRANCH  24  27
ENDBRANCH  19  24
ENDBRANCH   5  14
BRANCH   1  29
HETATM   29  C6  UNL     1     -89.854 -14.173  10.622  1.00  0.00     0.004 C 
HETATM   30  C5  UNL     1     -90.132 -14.525  11.861  1.00  0.00    -0.028 C 
BRANCH  30  31
HETATM   31  C4  UNL     1     -91.525 -14.723  12.316  1.00  0.00     0.027 C 
BRANCH  31  32
HETATM   32  C3  UNL     1     -92.513 -13.944  11.462  1.00  0.00     0.003 C 
BRANCH  32  33
HETATM   33  C2  UNL     1     -93.535 -14.881  10.842  1.00  0.00    -0.004 C 
HETATM   34  C1  UNL     1     -93.489 -16.240  11.485  1.00  0.00     0.005 C 
ENDBRANCH  32  33
ENDBRANCH  31  32
ENDBRANCH  30  31
ENDBRANCH   1  29
BRANCH  12  35
HETATM   35  O6  UNL     1     -89.568 -11.752   5.725  1.00  0.00    -0.360 OA
ATOM     36  H6  UNL     1     -90.370 -11.642   6.222  1.00  0.00     0.217 HD
ENDBRANCH  12  35
TORSDOF 10
ENDMDL
MODEL 3
REMARK VINA RESULT: -7.468084909      2.904      5.645
REMARK  10 active torsions:
REMARK  status: ('A' for Active; 'I' for Inactive)
REMARK    1  A    between atoms: C2_2  and  C3_3 
REMARK    2  A    between atoms: C3_3  and  C4_4 
REMARK    3  A    between atoms: C4_4  and  C5_5 
REMARK    4  A    between atoms: C6_6  and  C7_7 
REMARK    5  A    between atoms: C10_11  and  C11_12 
REMARK    6  A    between atoms: C12_13  and  O2_14 
REMARK    7  A    between atoms: C14_17  and  O3_18 
REMARK    8  A    between atoms: C16_21  and  C17_22 
REMARK    9  A    between atoms: C17_22  and  O4_25 
REMARK   10  A    between atoms: C24_33  and  O6_34 
ROOT
HETATM    1  C7  UNL     1     -88.771 -13.746  10.882  1.00  0.00     0.185 C 
HETATM    2  O1  UNL     1     -89.010 -14.029   9.511  1.00  0.00    -0.368 OA
HETATM    3  C8  UNL     1     -89.687 -12.945   9.011  1.00  0.00     0.164 C 
HETATM    4  C9  UNL     1     -89.520 -11.818  10.106  1.00  0.00     0.084 C 
HETATM    5  C10 UNL     1     -88.354 -12.297  10.776  1.00  0.00     0.130 C 
HETATM    6  O5  UNL     1     -87.387 -12.396   9.668  1.00  0.00    -0.330 OA
HETATM    7  C20 UNL     1     -87.571 -12.124   8.375  1.00  0.00     0.099 A 
HETATM    8  C21 UNL     1     -86.638 -11.602   7.489  1.00  0.00     0.045 A 
HETATM    9 BR1  UNL     1     -84.885 -11.204   8.121  1.00  0.00    -0.048 Br
HETATM   10  C22 UNL     1     -87.035 -11.396   6.180  1.00  0.00     0.025 A 
HETATM   11  C23 UNL     1     -88.321 -11.691   5.728  1.00  0.00     0.039 A 
HETATM   12  C24 UNL     1     -89.262 -12.217   6.616  1.00  0.00     0.077 A 
HETATM   13  C25 UNL     1     -88.854 -12.408   7.884  1.00  0.00     0.039 A 
ENDROOT
BRANCH   5  14
HETATM   14  C11 UNL     1     -87.529 -11.746  11.776  1.00  0.00     0.022 A 
HETATM   15  C12 UNL     1     -87.819 -10.402  12.135  1.00  0.00     0.078 A 
HETATM   16  C13 UNL     1     -87.126  -9.665  13.050  1.00  0.00     0.073 A 
HETATM   17  C14 UNL     1     -86.073 -10.228  13.691  1.00  0.00     0.069 A 
HETATM   18  C15 UNL     1     -85.751 -11.529  13.381  1.00  0.00     0.047 A 
HETATM   19  C16 UNL     1     -86.468 -12.303  12.427  1.00  0.00    -0.010 A 
BRANCH  15  20
HETATM   20  O2  UNL     1     -88.897  -9.745  11.529  1.00  0.00    -0.360 OA
ATOM     21  H2  UNL     1     -89.767  -9.832  11.902  1.00  0.00     0.217 HD
ENDBRANCH  15  20
BRANCH  17  22
HETATM   22  O3  UNL     1     -85.308  -9.547  14.641  1.00  0.00    -0.361 OA
ATOM     23  H3  UNL     1     -85.250  -8.600  14.676  1.00  0.00     0.217 HD
ENDBRANCH  17  22
BRANCH  19  24
HETATM   24  C17 UNL     1     -86.034 -13.647  12.185  1.00  0.00     0.078 C 
HETATM   25  C18 UNL     1     -84.574 -13.727  12.789  1.00  0.00     0.051 C 
HETATM   26  C19 UNL     1     -86.615 -14.740  13.043  1.00  0.00     0.051 C 
BRANCH  24  27
HETATM   27  O4  UNL     1     -85.627 -14.014  10.920  1.00  0.00    -0.386 OA
ATOM     28  H4  UNL     1     -85.769 -14.905  10.621  1.00  0.00     0.211 HD
ENDBRANCH  24  27
ENDBRANCH  19  24
ENDBRANCH   5  14
BRANCH   1  29
HETATM   29  C6  UNL     1     -90.079 -13.960  11.525  1.00  0.00     0.004 C 
HETATM   30  C5  UNL     1     -90.801 -15.033  11.271  1.00  0.00    -0.028 C 
BRANCH  30  31
HETATM   31  C4  UNL     1     -92.115 -15.252  11.913  1.00  0.00     0.027 C 
BRANCH  31  32
HETATM   32  C3  UNL     1     -93.262 -14.817  11.014  1.00  0.00     0.003 C 
BRANCH  32  33
HETATM   33  C2  UNL     1     -93.476 -13.317  11.113  1.00  0.00    -0.004 C 
HETATM   34  C1  UNL     1     -93.284 -12.648   9.779  1.00  0.00     0.005 C 
ENDBRANCH  32  33
ENDBRANCH  31  32
ENDBRANCH  30  31
ENDBRANCH   1  29
BRANCH  12  35
HETATM   35  O6  UNL     1     -90.556 -12.540   6.264  1.00  0.00    -0.360 OA
ATOM     36  H6  UNL     1     -91.210 -12.853   6.878  1.00  0.00     0.217 HD
ENDBRANCH  12  35
TORSDOF 10
ENDMDL
MODEL 4
REMARK VINA RESULT: -7.465638848      2.221      5.656
REMARK  10 active torsions:
REMARK  status: ('A' for Active; 'I' for Inactive)
REMARK    1  A    between atoms: C2_2  and  C3_3 
REMARK    2  A    between atoms: C3_3  and  C4_4 
REMARK    3  A    between atoms: C4_4  and  C5_5 
REMARK    4  A    between atoms: C6_6  and  C7_7 
REMARK    5  A    between atoms: C10_11  and  C11_12 
REMARK    6  A    between atoms: C12_13  and  O2_14 
REMARK    7  A    between atoms: C14_17  and  O3_18 
REMARK    8  A    between atoms: C16_21  and  C17_22 
REMARK    9  A    between atoms: C17_22  and  O4_25 
REMARK   10  A    between atoms: C24_33  and  O6_34 
ROOT
HETATM    1  C7  UNL     1     -88.920 -12.730  13.642  1.00  0.00     0.185 C 
HETATM    2  O1  UNL     1     -90.241 -13.175  13.368  1.00  0.00    -0.368 OA
HETATM    3  C8  UNL     1     -90.976 -12.046  13.108  1.00  0.00     0.164 C 
HETATM    4  C9  UNL     1     -89.908 -10.903  12.887  1.00  0.00     0.084 C 
HETATM    5  C10 UNL     1     -88.768 -11.695  12.551  1.00  0.00     0.130 C 
HETATM    6  O5  UNL     1     -89.265 -12.469  11.400  1.00  0.00    -0.330 OA
HETATM    7  C20 UNL     1     -90.475 -12.443  10.839  1.00  0.00     0.099 A 
HETATM    8  C21 UNL     1     -90.778 -12.616   9.494  1.00  0.00     0.045 A 
HETATM    9 BR1  UNL     1     -89.360 -12.925   8.260  1.00  0.00    -0.048 Br
HETATM   10  C22 UNL     1     -92.108 -12.554   9.119  1.00  0.00     0.025 A 
HETATM   11  C23 UNL     1     -93.138 -12.326  10.031  1.00  0.00     0.039 A 
HETATM   12  C24 UNL     1     -92.838 -12.152  11.384  1.00  0.00     0.077 A 
HETATM   13  C25 UNL     1     -91.538 -12.216  11.726  1.00  0.00     0.039 A 
ENDROOT
BRANCH   5  14
HETATM   14  C11 UNL     1     -87.477 -11.368  12.091  1.00  0.00     0.022 A 
HETATM   15  C12 UNL     1     -87.221  -9.981  11.923  1.00  0.00     0.078 A 
HETATM   16  C13 UNL     1     -86.057  -9.446  11.455  1.00  0.00     0.073 A 
HETATM   17  C14 UNL     1     -85.039 -10.274  11.117  1.00  0.00     0.069 A 
HETATM   18  C15 UNL     1     -85.234 -11.628  11.263  1.00  0.00     0.047 A 
HETATM   19  C16 UNL     1     -86.446 -12.193  11.748  1.00  0.00    -0.010 A 
BRANCH  15  20
HETATM   20  O2  UNL     1     -88.215  -9.052  12.257  1.00  0.00    -0.360 OA
ATOM     21  H2  UNL     1     -88.368  -8.306  11.688  1.00  0.00     0.217 HD
ENDBRANCH  15  20
BRANCH  17  22
HETATM   22  O3  UNL     1     -83.813  -9.813  10.630  1.00  0.00    -0.361 OA
ATOM     23  H3  UNL     1     -83.004  -9.871  11.126  1.00  0.00     0.217 HD
ENDBRANCH  17  22
BRANCH  19  24
HETATM   24  C17 UNL     1     -86.533 -13.619  11.851  1.00  0.00     0.078 C 
HETATM   25  C18 UNL     1     -85.244 -14.167  11.116  1.00  0.00     0.051 C 
HETATM   26  C19 UNL     1     -86.228 -14.248  13.185  1.00  0.00     0.051 C 
BRANCH  24  27
HETATM   27  O4  UNL     1     -87.401 -14.309  11.032  1.00  0.00    -0.386 OA
ATOM     28  H4  UNL     1     -88.307 -14.421  11.297  1.00  0.00     0.211 HD
ENDBRANCH  24  27
ENDBRANCH  19  24
ENDBRANCH   5  14
BRANCH   1  29
HETATM   29  C6  UNL     1     -89.003 -12.176  15.004  1.00  0.00     0.004 C 
HETATM   30  C5  UNL     1     -88.136 -12.515  15.936  1.00  0.00    -0.028 C 
BRANCH  30  31
HETATM   31  C4  UNL     1     -88.215 -11.962  17.305  1.00  0.00     0.027 C 
BRANCH  31  32
HETATM   32  C3  UNL     1     -86.844 -11.575  17.838  1.00  0.00     0.003 C 
BRANCH  32  33
HETATM   33  C2  UNL     1     -86.148 -10.628  16.877  1.00  0.00    -0.004 C 
HETATM   34  C1  UNL     1     -85.551  -9.454  17.604  1.00  0.00     0.005 C 
ENDBRANCH  32  33
ENDBRANCH  31  32
ENDBRANCH  30  31
ENDBRANCH   1  29
BRANCH  12  35
HETATM   35  O6  UNL     1     -93.785 -11.922  12.359  1.00  0.00    -0.360 OA
ATOM     36  H6  UNL     1     -93.596 -11.516  13.197  1.00  0.00     0.217 HD
ENDBRANCH  12  35
TORSDOF 10
ENDMDL
MODEL 5
REMARK VINA RESULT: -7.451608193      3.317      6.053
REMARK  10 active torsions:
REMARK  status: ('A' for Active; 'I' for Inactive)
REMARK    1  A    between atoms: C2_2  and  C3_3 
REMARK    2  A    between atoms: C3_3  and  C4_4 
REMARK    3  A    between atoms: C4_4  and  C5_5 
REMARK    4  A    between atoms: C6_6  and  C7_7 
REMARK    5  A    between atoms: C10_11  and  C11_12 
REMARK    6  A    between atoms: C12_13  and  O2_14 
REMARK    7  A    between atoms: C14_17  and  O3_18 
REMARK    8  A    between atoms: C16_21  and  C17_22 
REMARK    9  A    between atoms: C17_22  and  O4_25 
REMARK   10  A    between atoms: C24_33  and  O6_34 
ROOT
HETATM    1  C7  UNL     1     -89.119 -12.166   8.425  1.00  0.00     0.185 C 
HETATM    2  O1  UNL     1     -90.305 -12.929   8.257  1.00  0.00    -0.368 OA
HETATM    3  C8  UNL     1     -89.968 -14.225   8.560  1.00  0.00     0.164 C 
HETATM    4  C9  UNL     1     -88.565 -14.126   9.279  1.00  0.00     0.084 C 
HETATM    5  C10 UNL     1     -88.607 -12.767   9.713  1.00  0.00     0.130 C 
HETATM    6  O5  UNL     1     -89.846 -12.742  10.511  1.00  0.00    -0.330 OA
HETATM    7  C20 UNL     1     -90.708 -13.733  10.743  1.00  0.00     0.099 A 
HETATM    8  C21 UNL     1     -91.447 -13.946  11.900  1.00  0.00     0.045 A 
HETATM    9 BR1  UNL     1     -91.256 -12.730  13.355  1.00  0.00    -0.048 Br
HETATM   10  C22 UNL     1     -92.291 -15.041  11.935  1.00  0.00     0.025 A 
HETATM   11  C23 UNL     1     -92.422 -15.925  10.864  1.00  0.00     0.039 A 
HETATM   12  C24 UNL     1     -91.681 -15.714   9.699  1.00  0.00     0.077 A 
HETATM   13  C25 UNL     1     -90.866 -14.643   9.687  1.00  0.00     0.039 A 
ENDROOT
BRANCH   5  14
HETATM   14  C11 UNL     1     -87.764 -11.999  10.541  1.00  0.00     0.022 A 
HETATM   15  C12 UNL     1     -88.369 -10.867  11.149  1.00  0.00     0.078 A 
HETATM   16  C13 UNL     1     -87.731  -9.971  11.954  1.00  0.00     0.073 A 
HETATM   17  C14 UNL     1     -86.414 -10.145  12.222  1.00  0.00     0.069 A 
HETATM   18  C15 UNL     1     -85.780 -11.228  11.659  1.00  0.00     0.047 A 
HETATM   19  C16 UNL     1     -86.439 -12.166  10.817  1.00  0.00    -0.010 A 
BRANCH  15  20
HETATM   20  O2  UNL     1     -89.731 -10.616  10.934  1.00  0.00    -0.360 OA
ATOM     21  H2  UNL     1     -89.990  -9.968  10.290  1.00  0.00     0.217 HD
ENDBRANCH  15  20
BRANCH  17  22
HETATM   22  O3  UNL     1     -85.682  -9.276  13.036  1.00  0.00    -0.361 OA
ATOM     23  H3  UNL     1     -86.018  -8.925  13.852  1.00  0.00     0.217 HD
ENDBRANCH  17  22
BRANCH  19  24
HETATM   24  C17 UNL     1     -85.670 -13.251  10.285  1.00  0.00     0.078 C 
HETATM   25  C18 UNL     1     -84.173 -12.742  10.289  1.00  0.00     0.051 C 
HETATM   26  C19 UNL     1     -85.429 -14.445  11.172  1.00  0.00     0.051 C 
BRANCH  24  27
HETATM   27  O4  UNL     1     -85.678 -13.491   8.927  1.00  0.00    -0.386 OA
ATOM     28  H4  UNL     1     -86.302 -14.108   8.563  1.00  0.00     0.211 HD
ENDBRANCH  24  27
ENDBRANCH  19  24
ENDBRANCH   5  14
BRANCH   1  29
HETATM   29  C6  UNL     1     -88.313 -12.490   7.236  1.00  0.00     0.004 C 
HETATM   30  C5  UNL     1     -87.530 -11.593   6.671  1.00  0.00    -0.028 C 
BRANCH  30  31
HETATM   31  C4  UNL     1     -86.719 -11.913   5.477  1.00  0.00     0.027 C 
BRANCH  31  32
HETATM   32  C3  UNL     1     -85.274 -11.468   5.642  1.00  0.00     0.003 C 
BRANCH  32  33
HETATM   33  C2  UNL     1     -85.055 -10.866   7.018  1.00  0.00    -0.004 C 
HETATM   34  C1  UNL     1     -83.589 -10.736   7.330  1.00  0.00     0.005 C 
ENDBRANCH  32  33
ENDBRANCH  31  32
ENDBRANCH  30  31
ENDBRANCH   1  29
BRANCH  12  35
HETATM   35  O6  UNL     1     -91.742 -16.531   8.589  1.00  0.00    -0.360 OA
ATOM     36  H6  UNL     1     -92.209 -16.308   7.793  1.00  0.00     0.217 HD
ENDBRANCH  12  35
TORSDOF 10
ENDMDL
