MODEL 1
REMARK VINA RESULT: -9.625458674      0.000      0.000
REMARK  7 active torsions:
REMARK  status: ('A' for Active; 'I' for Inactive)
REMARK    1  A    between atoms: O1_2  and  C2_3 
REMARK    2  A    between atoms: C5_8  and  C6_9 
REMARK    3  A    between atoms: C8_11  and  C9_12 
REMARK    4  A    between atoms: C13_16  and  S1_17 
REMARK    5  A    between atoms: N5_29  and  C18_30 
REMARK    6  A    between atoms: C18_30  and  C19_31 
REMARK    7  A    between atoms: C19_31  and  C20_32 
ROOT
HETATM    1  C6  UNL     1      96.200  17.280  13.921  1.00  0.00     0.065 A 
HETATM    2  C7  UNL     1      95.509  17.224  12.756  1.00  0.00     0.064 A 
HETATM    3  C8  UNL     1      95.994  16.185  11.947  1.00  0.00     0.063 A 
HETATM    4  N5  UNL     1      96.972  15.641  12.655  1.00  0.00    -0.291 N 
HETATM    5  N7  UNL     1      97.098  16.292  13.834  1.00  0.00    -0.297 N 
ATOM      6  H7  UNL     1      97.782  16.062  14.555  1.00  0.00     0.187 HD
ENDROOT
BRANCH   3   7
HETATM    7  C9  UNL     1      95.484  15.908  10.588  1.00  0.00    -0.007 A 
HETATM    8  C10 UNL     1      94.191  15.619  10.286  1.00  0.00     0.014 A 
HETATM    9  C11 UNL     1      93.829  15.302   8.955  1.00  0.00     0.016 A 
HETATM   10  C12 UNL     1      94.786  15.288   7.977  1.00  0.00     0.013 A 
HETATM   11  C13 UNL     1      94.428  14.979   6.697  1.00  0.00     0.095 A 
HETATM   12  C16 UNL     1      96.102  15.581   8.277  1.00  0.00     0.023 A 
HETATM   13  N2  UNL     1      95.351  14.956   5.715  1.00  0.00    -0.292 N 
HETATM   14  N3  UNL     1      96.606  15.233   5.985  1.00  0.00    -0.284 N 
ATOM     15  H2  UNL     1      95.074  14.724   4.760  1.00  0.00     0.187 HD
HETATM   16  C15 UNL     1      97.032  15.551   7.250  1.00  0.00     0.124 A 
ATOM     17  H3  UNL     1      97.289  15.210   5.227  1.00  0.00     0.188 HD
HETATM   18  N4  UNL     1      98.261  15.810   7.457  1.00  0.00    -0.384 N 
ATOM     19  H42 UNL     1      98.946  15.788   6.701  1.00  0.00     0.157 HD
ATOM     20  H41 UNL     1      98.578  16.047   8.397  1.00  0.00     0.157 HD
HETATM   21  C17 UNL     1      96.444  15.888   9.572  1.00  0.00     0.030 A 
BRANCH  11  22
HETATM   22  S1  UNL     1      92.740  14.606   6.323  1.00  0.00    -0.115 SA
HETATM   23  C14 UNL     1      92.535  14.208   4.544  1.00  0.00     0.097 C 
ENDBRANCH  11  22
ENDBRANCH   3   7
BRANCH   4  24
HETATM   24  C18 UNL     1      97.838  14.541  12.339  1.00  0.00     0.154 C 
BRANCH  24  25
HETATM   25  C19 UNL     1      98.818  14.832  11.218  1.00  0.00     0.062 C 
BRANCH  25  26
HETATM   26  C20 UNL     1      99.903  15.755  11.657  1.00  0.00    -0.029 A 
HETATM   27  C21 UNL     1     100.881  15.491  12.610  1.00  0.00     0.096 A 
HETATM   28  N6  UNL     1     101.664  16.569  12.714  1.00  0.00    -0.365 N 
HETATM   29  C22 UNL     1     101.233  17.535  11.860  1.00  0.00     0.043 A 
ATOM     30  H6  UNL     1     102.465  16.654  13.340  1.00  0.00     0.165 HD
HETATM   31  C23 UNL     1     101.673  18.814  11.573  1.00  0.00     0.033 A 
HETATM   32  C27 UNL     1     100.141  17.024  11.207  1.00  0.00     0.001 A 
HETATM   33  C24 UNL     1     101.055  19.610  10.648  1.00  0.00     0.044 A 
HETATM   34  C25 UNL     1      99.953  19.071  10.002  1.00  0.00     0.117 A 
HETATM   35  F1  UNL     1      99.342  19.876   9.078  1.00  0.00    -0.206 F 
HETATM   36  C26 UNL     1      99.499  17.801  10.272  1.00  0.00     0.056 A 
ENDBRANCH  25  26
ENDBRANCH  24  25
ENDBRANCH   4  24
BRANCH   1  37
HETATM   37  C5  UNL     1      96.050  18.205  15.061  1.00  0.00     0.044 A 
HETATM   38  C2  UNL     1      96.538  18.048  16.320  1.00  0.00     0.154 A 
HETATM   39  N1  UNL     1      96.181  19.123  17.095  1.00  0.00    -0.346 N 
HETATM   40  C3  UNL     1      95.469  19.957  16.322  1.00  0.00     0.091 A 
ATOM     41  H1  UNL     1      96.414  19.262  18.079  1.00  0.00     0.167 HD
HETATM   42  C4  UNL     1      95.371  19.405  15.039  1.00  0.00     0.035 A 
BRANCH  38  43
HETATM   43  O1  UNL     1      97.293  17.020  16.877  1.00  0.00    -0.340 OA
HETATM   44  C1  UNL     1      98.134  17.233  18.019  1.00  0.00     0.211 C 
ENDBRANCH  38  43
ENDBRANCH   1  37
TORSDOF 7
ENDMDL
MODEL 2
REMARK VINA RESULT: -9.425282271      3.410      6.404
REMARK  7 active torsions:
REMARK  status: ('A' for Active; 'I' for Inactive)
REMARK    1  A    between atoms: O1_2  and  C2_3 
REMARK    2  A    between atoms: C5_8  and  C6_9 
REMARK    3  A    between atoms: C8_11  and  C9_12 
REMARK    4  A    between atoms: C13_16  and  S1_17 
REMARK    5  A    between atoms: N5_29  and  C18_30 
REMARK    6  A    between atoms: C18_30  and  C19_31 
REMARK    7  A    between atoms: C19_31  and  C20_32 
ROOT
HETATM    1  C6  UNL     1      96.520  15.950   9.400  1.00  0.00     0.065 A 
HETATM    2  C7  UNL     1      95.230  16.310   9.614  1.00  0.00     0.064 A 
HETATM    3  C8  UNL     1      94.979  16.444  10.988  1.00  0.00     0.063 A 
HETATM    4  N5  UNL     1      96.136  16.160  11.566  1.00  0.00    -0.291 N 
HETATM    5  N7  UNL     1      97.058  15.864  10.622  1.00  0.00    -0.297 N 
ATOM      6  H7  UNL     1      98.028  15.612  10.814  1.00  0.00     0.187 HD
ENDROOT
BRANCH   3   7
HETATM    7  C9  UNL     1      93.649  16.768  11.543  1.00  0.00    -0.007 A 
HETATM    8  C10 UNL     1      92.475  16.242  11.106  1.00  0.00     0.014 A 
HETATM    9  C11 UNL     1      91.251  16.678  11.668  1.00  0.00     0.016 A 
HETATM   10  C12 UNL     1      91.258  17.631  12.651  1.00  0.00     0.013 A 
HETATM   11  C13 UNL     1      90.073  18.047  13.185  1.00  0.00     0.095 A 
HETATM   12  C16 UNL     1      92.448  18.169  13.100  1.00  0.00     0.023 A 
HETATM   13  N2  UNL     1      90.051  18.984  14.153  1.00  0.00    -0.292 N 
HETATM   14  N3  UNL     1      91.175  19.506  14.590  1.00  0.00    -0.284 N 
ATOM     15  H2  UNL     1      89.160  19.290  14.547  1.00  0.00     0.187 HD
HETATM   16  C15 UNL     1      92.399  19.132  14.095  1.00  0.00     0.124 A 
ATOM     17  H3  UNL     1      91.136  20.214  15.323  1.00  0.00     0.188 HD
HETATM   18  N4  UNL     1      93.457  19.670  14.554  1.00  0.00    -0.384 N 
ATOM     19  H42 UNL     1      93.421  20.378  15.287  1.00  0.00     0.157 HD
ATOM     20  H41 UNL     1      94.367  19.392  14.187  1.00  0.00     0.157 HD
HETATM   21  C17 UNL     1      93.631  17.740  12.548  1.00  0.00     0.030 A 
BRANCH  11  22
HETATM   22  S1  UNL     1      88.555  17.350  12.604  1.00  0.00    -0.115 SA
HETATM   23  C14 UNL     1      87.205  18.591  12.645  1.00  0.00     0.097 C 
ENDBRANCH  11  22
ENDBRANCH   3   7
BRANCH   4  24
HETATM   24  C18 UNL     1      96.489  16.128  12.957  1.00  0.00     0.154 C 
BRANCH  24  25
HETATM   25  C19 UNL     1      97.015  17.448  13.489  1.00  0.00     0.062 C 
BRANCH  25  26
HETATM   26  C20 UNL     1      98.482  17.589  13.266  1.00  0.00    -0.029 A 
HETATM   27  C21 UNL     1      99.496  17.120  14.095  1.00  0.00     0.096 A 
HETATM   28  N6  UNL     1     100.669  17.445  13.544  1.00  0.00    -0.365 N 
HETATM   29  C22 UNL     1     100.461  18.113  12.378  1.00  0.00     0.043 A 
ATOM     30  H6  UNL     1     101.583  17.224  13.939  1.00  0.00     0.165 HD
HETATM   31  C23 UNL     1     101.309  18.661  11.434  1.00  0.00     0.033 A 
HETATM   32  C27 UNL     1      99.103  18.199  12.211  1.00  0.00     0.001 A 
HETATM   33  C24 UNL     1     100.844  19.299  10.316  1.00  0.00     0.044 A 
HETATM   34  C25 UNL     1      99.468  19.373  10.170  1.00  0.00     0.117 A 
HETATM   35  F1  UNL     1      99.014  20.013   9.049  1.00  0.00    -0.206 F 
HETATM   36  C26 UNL     1      98.607  18.835  11.097  1.00  0.00     0.056 A 
ENDBRANCH  25  26
ENDBRANCH  24  25
ENDBRANCH   4  24
BRANCH   1  37
HETATM   37  C5  UNL     1      97.227  15.689   8.131  1.00  0.00     0.044 A 
HETATM   38  C2  UNL     1      98.541  15.904   7.860  1.00  0.00     0.154 A 
HETATM   39  N1  UNL     1      98.815  15.540   6.565  1.00  0.00    -0.346 N 
HETATM   40  C3  UNL     1      97.671  15.095   6.023  1.00  0.00     0.091 A 
ATOM     41  H1  UNL     1      99.721  15.598   6.100  1.00  0.00     0.167 HD
HETATM   42  C4  UNL     1      96.656  15.178   6.984  1.00  0.00     0.035 A 
BRANCH  38  43
HETATM   43  O1  UNL     1      99.562  16.404   8.662  1.00  0.00    -0.340 OA
HETATM   44  C1  UNL     1     100.435  15.540   9.403  1.00  0.00     0.211 C 
ENDBRANCH  38  43
ENDBRANCH   1  37
TORSDOF 7
ENDMDL
MODEL 3
REMARK VINA RESULT: -9.274738458      3.771      6.193
REMARK  7 active torsions:
REMARK  status: ('A' for Active; 'I' for Inactive)
REMARK    1  A    between atoms: O1_2  and  C2_3 
REMARK    2  A    between atoms: C5_8  and  C6_9 
REMARK    3  A    between atoms: C8_11  and  C9_12 
REMARK    4  A    between atoms: C13_16  and  S1_17 
REMARK    5  A    between atoms: N5_29  and  C18_30 
REMARK    6  A    between atoms: C18_30  and  C19_31 
REMARK    7  A    between atoms: C19_31  and  C20_32 
ROOT
HETATM    1  C6  UNL     1      96.694  15.973   9.326  1.00  0.00     0.065 A 
HETATM    2  C7  UNL     1      95.398  16.347   9.461  1.00  0.00     0.064 A 
HETATM    3  C8  UNL     1      95.063  16.480  10.817  1.00  0.00     0.063 A 
HETATM    4  N5  UNL     1      96.179  16.180  11.465  1.00  0.00    -0.291 N 
HETATM    5  N7  UNL     1      97.155  15.877  10.579  1.00  0.00    -0.297 N 
ATOM      6  H7  UNL     1      98.107  15.612  10.830  1.00  0.00     0.187 HD
ENDROOT
BRANCH   3   7
HETATM    7  C9  UNL     1      93.705  16.817  11.290  1.00  0.00    -0.007 A 
HETATM    8  C10 UNL     1      93.428  17.611  12.357  1.00  0.00     0.014 A 
HETATM    9  C11 UNL     1      92.086  17.810  12.762  1.00  0.00     0.016 A 
HETATM   10  C12 UNL     1      91.073  17.201  12.073  1.00  0.00     0.013 A 
HETATM   11  C13 UNL     1      89.783  17.397  12.472  1.00  0.00     0.095 A 
HETATM   12  C16 UNL     1      91.348  16.393  10.987  1.00  0.00     0.023 A 
HETATM   13  N2  UNL     1      88.765  16.807  11.813  1.00  0.00    -0.292 N 
HETATM   14  N3  UNL     1      89.012  16.037  10.778  1.00  0.00    -0.284 N 
ATOM     15  H2  UNL     1      87.804  16.959  12.118  1.00  0.00     0.187 HD
HETATM   16  C15 UNL     1      90.285  15.798  10.326  1.00  0.00     0.124 A 
ATOM     17  H3  UNL     1      88.228  15.600  10.293  1.00  0.00     0.188 HD
HETATM   18  N4  UNL     1      90.467  15.042   9.318  1.00  0.00    -0.384 N 
ATOM     19  H42 UNL     1      89.685  14.604   8.831  1.00  0.00     0.157 HD
ATOM     20  H41 UNL     1      91.414  14.865   8.982  1.00  0.00     0.157 HD
HETATM   21  C17 UNL     1      92.653  16.205  10.602  1.00  0.00     0.030 A 
BRANCH  11  22
HETATM   22  S1  UNL     1      89.441  18.433  13.864  1.00  0.00    -0.115 SA
HETATM   23  C14 UNL     1      87.664  18.884  13.927  1.00  0.00     0.097 C 
ENDBRANCH  11  22
ENDBRANCH   3   7
BRANCH   4  24
HETATM   24  C18 UNL     1      96.444  16.139  12.875  1.00  0.00     0.154 C 
BRANCH  24  25
HETATM   25  C19 UNL     1      96.938  17.455  13.447  1.00  0.00     0.062 C 
BRANCH  25  26
HETATM   26  C20 UNL     1      98.410  17.615  13.276  1.00  0.00    -0.029 A 
HETATM   27  C21 UNL     1      99.399  17.170  14.146  1.00  0.00     0.096 A 
HETATM   28  N6  UNL     1     100.587  17.505  13.634  1.00  0.00    -0.365 N 
HETATM   29  C22 UNL     1     100.413  18.157  12.455  1.00  0.00     0.043 A 
ATOM     30  H6  UNL     1     101.490  17.302  14.065  1.00  0.00     0.165 HD
HETATM   31  C23 UNL     1     101.287  18.707  11.535  1.00  0.00     0.033 A 
HETATM   32  C27 UNL     1      99.060  18.222  12.237  1.00  0.00     0.001 A 
HETATM   33  C24 UNL     1     100.854  19.325  10.394  1.00  0.00     0.044 A 
HETATM   34  C25 UNL     1      99.483  19.378  10.197  1.00  0.00     0.117 A 
HETATM   35  F1  UNL     1      99.061  19.999   9.052  1.00  0.00    -0.206 F 
HETATM   36  C26 UNL     1      98.596  18.838  11.099  1.00  0.00     0.056 A 
ENDBRANCH  25  26
ENDBRANCH  24  25
ENDBRANCH   4  24
BRANCH   1  37
HETATM   37  C5  UNL     1      97.475  15.707   8.102  1.00  0.00     0.044 A 
HETATM   38  C2  UNL     1      98.809  15.896   7.919  1.00  0.00     0.154 A 
HETATM   39  N1  UNL     1      99.157  15.538   6.641  1.00  0.00    -0.346 N 
HETATM   40  C3  UNL     1      98.041  15.123   6.021  1.00  0.00     0.091 A 
ATOM     41  H1  UNL     1     100.093  15.580   6.236  1.00  0.00     0.167 HD
HETATM   42  C4  UNL     1      96.969  15.219   6.916  1.00  0.00     0.035 A 
BRANCH  38  43
HETATM   43  O1  UNL     1      99.786  16.366   8.790  1.00  0.00    -0.340 OA
HETATM   44  C1  UNL     1     100.585  15.477   9.584  1.00  0.00     0.211 C 
ENDBRANCH  38  43
ENDBRANCH   1  37
TORSDOF 7
ENDMDL
MODEL 4
REMARK VINA RESULT: -9.152875243      2.580      5.303
REMARK  7 active torsions:
REMARK  status: ('A' for Active; 'I' for Inactive)
REMARK    1  A    between atoms: O1_2  and  C2_3 
REMARK    2  A    between atoms: C5_8  and  C6_9 
REMARK    3  A    between atoms: C8_11  and  C9_12 
REMARK    4  A    between atoms: C13_16  and  S1_17 
REMARK    5  A    between atoms: N5_29  and  C18_30 
REMARK    6  A    between atoms: C18_30  and  C19_31 
REMARK    7  A    between atoms: C19_31  and  C20_32 
ROOT
HETATM    1  C6  UNL     1      99.213  17.727  11.971  1.00  0.00     0.065 A 
HETATM    2  C7  UNL     1      98.621  17.213  10.865  1.00  0.00     0.064 A 
HETATM    3  C8  UNL     1      97.231  17.135  11.044  1.00  0.00     0.063 A 
HETATM    4  N5  UNL     1      97.026  17.610  12.263  1.00  0.00    -0.291 N 
HETATM    5  N7  UNL     1      98.207  17.964  12.820  1.00  0.00    -0.297 N 
ATOM      6  H7  UNL     1      98.314  18.357  13.755  1.00  0.00     0.187 HD
ENDROOT
BRANCH   3   7
HETATM    7  C9  UNL     1      96.313  16.561  10.039  1.00  0.00    -0.007 A 
HETATM    8  C10 UNL     1      94.981  16.367  10.223  1.00  0.00     0.014 A 
HETATM    9  C11 UNL     1      94.210  15.743   9.213  1.00  0.00     0.016 A 
HETATM   10  C12 UNL     1      94.813  15.339   8.052  1.00  0.00     0.013 A 
HETATM   11  C13 UNL     1      94.062  14.737   7.085  1.00  0.00     0.095 A 
HETATM   12  C16 UNL     1      96.167  15.534   7.858  1.00  0.00     0.023 A 
HETATM   13  N2  UNL     1      94.631  14.328   5.933  1.00  0.00    -0.292 N 
HETATM   14  N3  UNL     1      95.917  14.506   5.735  1.00  0.00    -0.284 N 
ATOM     15  H2  UNL     1      94.062  13.878   5.215  1.00  0.00     0.187 HD
HETATM   16  C15 UNL     1      96.728  15.104   6.666  1.00  0.00     0.124 A 
ATOM     17  H3  UNL     1      96.327  14.189   4.857  1.00  0.00     0.188 HD
HETATM   18  N4  UNL     1      97.968  15.252   6.423  1.00  0.00    -0.384 N 
ATOM     19  H42 UNL     1      98.381  14.936   5.546  1.00  0.00     0.157 HD
ATOM     20  H41 UNL     1      98.571  15.697   7.115  1.00  0.00     0.157 HD
HETATM   21  C17 UNL     1      96.907  16.140   8.845  1.00  0.00     0.030 A 
BRANCH  11  22
HETATM   22  S1  UNL     1      92.329  14.493   7.342  1.00  0.00    -0.115 SA
HETATM   23  C14 UNL     1      91.465  14.193   5.753  1.00  0.00     0.097 C 
ENDBRANCH  11  22
ENDBRANCH   3   7
BRANCH   4  24
HETATM   24  C18 UNL     1      95.803  17.772  12.996  1.00  0.00     0.154 C 
BRANCH  24  25
HETATM   25  C19 UNL     1      95.611  16.756  14.106  1.00  0.00     0.062 C 
BRANCH  25  26
HETATM   26  C20 UNL     1      94.845  15.566  13.640  1.00  0.00    -0.029 A 
HETATM   27  C21 UNL     1      93.463  15.410  13.658  1.00  0.00     0.096 A 
HETATM   28  N6  UNL     1      93.173  14.207  13.154  1.00  0.00    -0.365 N 
HETATM   29  C22 UNL     1      94.318  13.564  12.805  1.00  0.00     0.043 A 
ATOM     30  H6  UNL     1      92.231  13.827  13.048  1.00  0.00     0.165 HD
HETATM   31  C23 UNL     1      94.582  12.325  12.252  1.00  0.00     0.033 A 
HETATM   32  C27 UNL     1      95.353  14.412  13.109  1.00  0.00     0.001 A 
HETATM   33  C24 UNL     1      95.854  11.898  11.986  1.00  0.00     0.044 A 
HETATM   34  C25 UNL     1      96.882  12.773  12.302  1.00  0.00     0.117 A 
HETATM   35  F1  UNL     1      98.151  12.335  12.033  1.00  0.00    -0.206 F 
HETATM   36  C26 UNL     1      96.642  14.009  12.854  1.00  0.00     0.056 A 
ENDBRANCH  25  26
ENDBRANCH  24  25
ENDBRANCH   4  24
BRANCH   1  37
HETATM   37  C5  UNL     1     100.642  17.982  12.241  1.00  0.00     0.044 A 
HETATM   38  C2  UNL     1     101.653  17.073  12.256  1.00  0.00     0.154 A 
HETATM   39  N1  UNL     1     102.837  17.700  12.554  1.00  0.00    -0.346 N 
HETATM   40  C3  UNL     1     102.569  19.004  12.726  1.00  0.00     0.091 A 
ATOM     41  H1  UNL     1     103.752  17.256  12.631  1.00  0.00     0.167 HD
HETATM   42  C4  UNL     1     101.197  19.209  12.536  1.00  0.00     0.035 A 
BRANCH  38  43
HETATM   43  O1  UNL     1     101.642  15.701  12.024  1.00  0.00    -0.340 OA
HETATM   44  C1  UNL     1     101.732  15.156  10.701  1.00  0.00     0.211 C 
ENDBRANCH  38  43
ENDBRANCH   1  37
TORSDOF 7
ENDMDL
MODEL 5
REMARK VINA RESULT: -9.133135176      0.915      1.450
REMARK  7 active torsions:
REMARK  status: ('A' for Active; 'I' for Inactive)
REMARK    1  A    between atoms: O1_2  and  C2_3 
REMARK    2  A    between atoms: C5_8  and  C6_9 
REMARK    3  A    between atoms: C8_11  and  C9_12 
REMARK    4  A    between atoms: C13_16  and  S1_17 
REMARK    5  A    between atoms: N5_29  and  C18_30 
REMARK    6  A    between atoms: C18_30  and  C19_31 
REMARK    7  A    between atoms: C19_31  and  C20_32 
ROOT
HETATM    1  C6  UNL     1      96.308  16.911  13.873  1.00  0.00     0.065 A 
HETATM    2  C7  UNL     1      95.573  16.887  12.734  1.00  0.00     0.064 A 
HETATM    3  C8  UNL     1      96.069  15.917  11.850  1.00  0.00     0.063 A 
HETATM    4  N5  UNL     1      97.097  15.379  12.490  1.00  0.00    -0.291 N 
HETATM    5  N7  UNL     1      97.243  15.970  13.698  1.00  0.00    -0.297 N 
ATOM      6  H7  UNL     1      97.964  15.731  14.379  1.00  0.00     0.187 HD
ENDROOT
BRANCH   3   7
HETATM    7  C9  UNL     1      95.517  15.692  10.499  1.00  0.00    -0.007 A 
HETATM    8  C10 UNL     1      94.212  15.431  10.225  1.00  0.00     0.014 A 
HETATM    9  C11 UNL     1      93.807  15.163   8.895  1.00  0.00     0.016 A 
HETATM   10  C12 UNL     1      94.737  15.168   7.890  1.00  0.00     0.013 A 
HETATM   11  C13 UNL     1      94.338  14.906   6.611  1.00  0.00     0.095 A 
HETATM   12  C16 UNL     1      96.065  15.433   8.161  1.00  0.00     0.023 A 
HETATM   13  N2  UNL     1      95.232  14.904   5.602  1.00  0.00    -0.292 N 
HETATM   14  N3  UNL     1      96.499  15.154   5.846  1.00  0.00    -0.284 N 
ATOM     15  H2  UNL     1      94.925  14.707   4.649  1.00  0.00     0.187 HD
HETATM   16  C15 UNL     1      96.965  15.424   7.108  1.00  0.00     0.124 A 
ATOM     17  H3  UNL     1      97.159  15.146   5.069  1.00  0.00     0.188 HD
HETATM   18  N4  UNL     1      98.203  15.659   7.288  1.00  0.00    -0.384 N 
ATOM     19  H42 UNL     1      98.865  15.652   6.512  1.00  0.00     0.157 HD
ATOM     20  H41 UNL     1      98.550  15.860   8.225  1.00  0.00     0.157 HD
HETATM   21  C17 UNL     1      96.448  15.692   9.456  1.00  0.00     0.030 A 
BRANCH  11  22
HETATM   22  S1  UNL     1      92.635  14.570   6.273  1.00  0.00    -0.115 SA
HETATM   23  C14 UNL     1      92.386  14.156   4.504  1.00  0.00     0.097 C 
ENDBRANCH  11  22
ENDBRANCH   3   7
BRANCH   4  24
HETATM   24  C18 UNL     1      97.995  14.337  12.080  1.00  0.00     0.154 C 
BRANCH  24  25
HETATM   25  C19 UNL     1      98.966  14.755  10.991  1.00  0.00     0.062 C 
BRANCH  25  26
HETATM   26  C20 UNL     1     100.004  15.692  11.506  1.00  0.00    -0.029 A 
HETATM   27  C21 UNL     1     100.958  15.420  12.480  1.00  0.00     0.096 A 
HETATM   28  N6  UNL     1     101.700  16.517  12.656  1.00  0.00    -0.365 N 
HETATM   29  C22 UNL     1     101.266  17.504  11.829  1.00  0.00     0.043 A 
ATOM     30  H6  UNL     1     102.476  16.601  13.313  1.00  0.00     0.165 HD
HETATM   31  C23 UNL     1     101.671  18.808  11.611  1.00  0.00     0.033 A 
HETATM   32  C27 UNL     1     100.214  16.987  11.117  1.00  0.00     0.001 A 
HETATM   33  C24 UNL     1     101.058  19.622  10.699  1.00  0.00     0.044 A 
HETATM   34  C25 UNL     1      99.997  19.076   9.993  1.00  0.00     0.117 A 
HETATM   35  F1  UNL     1      99.390  19.899   9.083  1.00  0.00    -0.206 F 
HETATM   36  C26 UNL     1      99.577  17.782  10.194  1.00  0.00     0.056 A 
ENDBRANCH  25  26
ENDBRANCH  24  25
ENDBRANCH   4  24
BRANCH   1  37
HETATM   37  C5  UNL     1      96.165  17.765  15.069  1.00  0.00     0.044 A 
HETATM   38  C2  UNL     1      95.249  18.747  15.275  1.00  0.00     0.154 A 
HETATM   39  N1  UNL     1      95.446  19.316  16.509  1.00  0.00    -0.346 N 
HETATM   40  C3  UNL     1      96.487  18.688  17.078  1.00  0.00     0.091 A 
ATOM     41  H1  UNL     1      94.901  20.075  16.918  1.00  0.00     0.167 HD
HETATM   42  C4  UNL     1      96.959  17.710  16.195  1.00  0.00     0.035 A 
BRANCH  38  43
HETATM   43  O1  UNL     1      94.220  19.211  14.462  1.00  0.00    -0.340 OA
HETATM   44  C1  UNL     1      93.368  20.294  14.863  1.00  0.00     0.211 C 
ENDBRANCH  38  43
ENDBRANCH   1  37
TORSDOF 7
ENDMDL
