MODEL 1
REMARK VINA RESULT: -9.076978959      0.000      0.000
REMARK  8 active torsions:
REMARK  status: ('A' for Active; 'I' for Inactive)
REMARK    1  A    between atoms: O1_2  and  C2_3 
REMARK    2  A    between atoms: C4_5  and  C5_6 
REMARK    3  A    between atoms: C15_17  and  O3_18 
REMARK    4  A    between atoms: C17_20  and  O4_21 
REMARK    5  A    between atoms: C19_23  and  O5_24 
REMARK    6  A    between atoms: C22_27  and  O6_28 
REMARK    7  A    between atoms: O6_28  and  N1_29 
REMARK    8  A    between atoms: C23_33  and  C24_34 
ROOT
HETATM    1  C5  UNL     1     -87.313 -16.394  11.911  1.00  0.00     0.113 C 
HETATM    2  C6  UNL     1     -86.853 -16.557  10.547  1.00  0.00    -0.034 C 
HETATM    3  C7  UNL     1     -85.631 -15.951  10.348  1.00  0.00     0.013 C 
HETATM    4  C8  UNL     1     -84.871 -15.816   9.179  1.00  0.00     0.055 C 
HETATM    5  C9  UNL     1     -85.209 -16.285   7.930  1.00  0.00     0.172 C 
HETATM    6  O2  UNL     1     -84.524 -15.830   6.983  1.00  0.00    -0.289 OA
HETATM    7  C10 UNL     1     -86.214 -17.201   7.573  1.00  0.00     0.055 C 
HETATM    8  C11 UNL     1     -87.162 -17.786   8.387  1.00  0.00     0.017 C 
HETATM    9  C12 UNL     1     -87.592 -17.247   9.587  1.00  0.00    -0.018 C 
HETATM   10  C13 UNL     1     -88.993 -17.501   9.845  1.00  0.00    -0.011 A 
HETATM   11  C14 UNL     1     -89.708 -18.228   8.925  1.00  0.00     0.052 A 
HETATM   12  C15 UNL     1     -91.039 -18.525   9.207  1.00  0.00     0.105 A 
HETATM   13  C17 UNL     1     -91.642 -18.114  10.362  1.00  0.00     0.135 A 
HETATM   14  C19 UNL     1     -90.887 -17.371  11.282  1.00  0.00     0.114 A 
HETATM   15  C21 UNL     1     -89.574 -17.052  11.050  1.00  0.00     0.022 A 
HETATM   16  C22 UNL     1     -88.830 -16.263  12.009  1.00  0.00     0.203 C 
ENDROOT
BRANCH   1  17
HETATM   17  C4  UNL     1     -86.780 -17.475  12.777  1.00  0.00     0.068 A 
HETATM   18  C3  UNL     1     -85.483 -17.578  13.238  1.00  0.00     0.073 A 
HETATM   19  C2  UNL     1     -85.403 -18.748  14.015  1.00  0.00     0.105 A 
HETATM   20  C23 UNL     1     -86.655 -19.297  13.987  1.00  0.00     0.119 A 
HETATM   21  O7  UNL     1     -87.414 -18.505  13.247  1.00  0.00    -0.310 OA
BRANCH  19  22
HETATM   22  O1  UNL     1     -84.279 -19.205  14.647  1.00  0.00    -0.353 OA
HETATM   23  C1  UNL     1     -83.311 -20.032  14.013  1.00  0.00     0.210 C 
ENDBRANCH  19  22
BRANCH  20  24
HETATM   24  C24 UNL     1     -87.127 -20.509  14.623  1.00  0.00     0.001 A 
HETATM   25  C25 UNL     1     -88.166 -20.373  15.558  1.00  0.00     0.017 A 
HETATM   26  C26 UNL     1     -88.657 -21.490  16.195  1.00  0.00     0.043 A 
HETATM   27  C27 UNL     1     -88.132 -22.731  15.913  1.00  0.00     0.116 A 
HETATM   28  F1  UNL     1     -88.616 -23.821  16.538  1.00  0.00    -0.206 F 
HETATM   29  C28 UNL     1     -87.115 -22.859  14.997  1.00  0.00     0.043 A 
HETATM   30  C29 UNL     1     -86.599 -21.735  14.337  1.00  0.00     0.017 A 
ENDBRANCH  20  24
ENDBRANCH   1  17
BRANCH  16  31
HETATM   31  O6  UNL     1     -89.138 -14.882  11.948  1.00  0.00    -0.276 OA
BRANCH  31  32
HETATM   32  N1  UNL     1     -89.159 -14.337  13.210  1.00  0.00    -0.310 N 
ATOM     33  H12 UNL     1     -89.401 -14.859  14.051  1.00  0.00     0.184 HD
ATOM     34  H11 UNL     1     -88.901 -13.351  13.178  1.00  0.00     0.184 HD
ENDBRANCH  31  32
ENDBRANCH  16  31
BRANCH  14  35
HETATM   35  O5  UNL     1     -91.566 -16.997  12.420  1.00  0.00    -0.352 OA
HETATM   36  C20 UNL     1     -91.180 -17.484  13.681  1.00  0.00     0.210 C 
ENDBRANCH  14  35
BRANCH  13  37
HETATM   37  O4  UNL     1     -92.973 -18.434  10.606  1.00  0.00    -0.351 OA
HETATM   38  C18 UNL     1     -93.390 -19.581  11.278  1.00  0.00     0.210 C 
ENDBRANCH  13  37
BRANCH  12  39
HETATM   39  O3  UNL     1     -91.792 -19.257   8.303  1.00  0.00    -0.353 OA
HETATM   40  C16 UNL     1     -91.636 -20.662   8.244  1.00  0.00     0.210 C 
ENDBRANCH  12  39
TORSDOF 8
ENDMDL
MODEL 2
REMARK VINA RESULT: -9.059715168      3.433      7.139
REMARK  8 active torsions:
REMARK  status: ('A' for Active; 'I' for Inactive)
REMARK    1  A    between atoms: O1_2  and  C2_3 
REMARK    2  A    between atoms: C4_5  and  C5_6 
REMARK    3  A    between atoms: C15_17  and  O3_18 
REMARK    4  A    between atoms: C17_20  and  O4_21 
REMARK    5  A    between atoms: C19_23  and  O5_24 
REMARK    6  A    between atoms: C22_27  and  O6_28 
REMARK    7  A    between atoms: O6_28  and  N1_29 
REMARK    8  A    between atoms: C23_33  and  C24_34 
ROOT
HETATM    1  C5  UNL     1     -88.126 -16.384  10.168  1.00  0.00     0.113 C 
HETATM    2  C6  UNL     1     -88.981 -17.542  10.008  1.00  0.00    -0.034 C 
HETATM    3  C7  UNL     1     -89.598 -17.551   8.776  1.00  0.00     0.013 C 
HETATM    4  C8  UNL     1     -90.540 -18.442   8.245  1.00  0.00     0.055 C 
HETATM    5  C9  UNL     1     -91.066 -19.544   8.881  1.00  0.00     0.172 C 
HETATM    6  O2  UNL     1     -92.079 -20.045   8.336  1.00  0.00    -0.289 OA
HETATM    7  C10 UNL     1     -90.624 -20.181  10.053  1.00  0.00     0.055 C 
HETATM    8  C11 UNL     1     -89.602 -19.799  10.897  1.00  0.00     0.017 C 
HETATM    9  C12 UNL     1     -89.132 -18.503  11.007  1.00  0.00    -0.018 C 
HETATM   10  C13 UNL     1     -88.717 -18.169  12.353  1.00  0.00    -0.011 A 
HETATM   11  C14 UNL     1     -88.815 -19.134  13.327  1.00  0.00     0.052 A 
HETATM   12  C15 UNL     1     -88.356 -18.830  14.606  1.00  0.00     0.105 A 
HETATM   13  C17 UNL     1     -87.819 -17.612  14.911  1.00  0.00     0.135 A 
HETATM   14  C19 UNL     1     -87.735 -16.646  13.897  1.00  0.00     0.114 A 
HETATM   15  C21 UNL     1     -88.173 -16.896  12.622  1.00  0.00     0.022 A 
HETATM   16  C22 UNL     1     -88.094 -15.870  11.605  1.00  0.00     0.203 C 
ENDROOT
BRANCH   1  17
HETATM   17  C4  UNL     1     -86.769 -16.656   9.633  1.00  0.00     0.068 A 
HETATM   18  C3  UNL     1     -85.717 -17.207  10.335  1.00  0.00     0.073 A 
HETATM   19  C2  UNL     1     -84.619 -17.285   9.460  1.00  0.00     0.105 A 
HETATM   20  C23 UNL     1     -85.059 -16.777   8.269  1.00  0.00     0.119 A 
HETATM   21  O7  UNL     1     -86.324 -16.427   8.435  1.00  0.00    -0.310 OA
BRANCH  19  22
HETATM   22  O1  UNL     1     -83.382 -17.773   9.781  1.00  0.00    -0.353 OA
HETATM   23  C1  UNL     1     -82.699 -17.436  10.983  1.00  0.00     0.210 C 
ENDBRANCH  19  22
BRANCH  20  24
HETATM   24  C24 UNL     1     -84.332 -16.624   7.027  1.00  0.00     0.001 A 
HETATM   25  C25 UNL     1     -85.078 -16.260   5.894  1.00  0.00     0.017 A 
HETATM   26  C26 UNL     1     -84.442 -16.097   4.685  1.00  0.00     0.043 A 
HETATM   27  C27 UNL     1     -83.082 -16.290   4.590  1.00  0.00     0.116 A 
HETATM   28  F1  UNL     1     -82.464 -16.129   3.404  1.00  0.00    -0.206 F 
HETATM   29  C28 UNL     1     -82.355 -16.646   5.701  1.00  0.00     0.043 A 
HETATM   30  C29 UNL     1     -82.982 -16.818   6.943  1.00  0.00     0.017 A 
ENDBRANCH  20  24
ENDBRANCH   1  17
BRANCH  16  31
HETATM   31  O6  UNL     1     -89.111 -14.891  11.723  1.00  0.00    -0.276 OA
BRANCH  31  32
HETATM   32  N1  UNL     1     -88.574 -13.677  12.078  1.00  0.00    -0.310 N 
ATOM     33  H12 UNL     1     -88.140 -13.489  12.981  1.00  0.00     0.184 HD
ATOM     34  H11 UNL     1     -88.672 -13.006  11.316  1.00  0.00     0.184 HD
ENDBRANCH  31  32
ENDBRANCH  16  31
BRANCH  14  35
HETATM   35  O5  UNL     1     -87.181 -15.446  14.284  1.00  0.00    -0.352 OA
HETATM   36  C20 UNL     1     -85.797 -15.224  14.175  1.00  0.00     0.210 C 
ENDBRANCH  14  35
BRANCH  13  37
HETATM   37  O4  UNL     1     -87.371 -17.350  16.201  1.00  0.00    -0.351 OA
HETATM   38  C18 UNL     1     -88.167 -16.812  17.210  1.00  0.00     0.210 C 
ENDBRANCH  13  37
BRANCH  12  39
HETATM   39  O3  UNL     1     -88.437 -19.778  15.614  1.00  0.00    -0.353 OA
HETATM   40  C16 UNL     1     -87.979 -21.094  15.371  1.00  0.00     0.210 C 
ENDBRANCH  12  39
TORSDOF 8
ENDMDL
MODEL 3
REMARK VINA RESULT: -9.045857781      1.080      1.250
REMARK  8 active torsions:
REMARK  status: ('A' for Active; 'I' for Inactive)
REMARK    1  A    between atoms: O1_2  and  C2_3 
REMARK    2  A    between atoms: C4_5  and  C5_6 
REMARK    3  A    between atoms: C15_17  and  O3_18 
REMARK    4  A    between atoms: C17_20  and  O4_21 
REMARK    5  A    between atoms: C19_23  and  O5_24 
REMARK    6  A    between atoms: C22_27  and  O6_28 
REMARK    7  A    between atoms: O6_28  and  N1_29 
REMARK    8  A    between atoms: C23_33  and  C24_34 
ROOT
HETATM    1  C5  UNL     1     -86.899 -16.009  12.183  1.00  0.00     0.113 C 
HETATM    2  C6  UNL     1     -86.457 -16.209  10.818  1.00  0.00    -0.034 C 
HETATM    3  C7  UNL     1     -85.258 -15.575  10.575  1.00  0.00     0.013 C 
HETATM    4  C8  UNL     1     -84.521 -15.463   9.388  1.00  0.00     0.055 C 
HETATM    5  C9  UNL     1     -84.866 -15.988   8.164  1.00  0.00     0.172 C 
HETATM    6  O2  UNL     1     -84.210 -15.550   7.188  1.00  0.00    -0.289 OA
HETATM    7  C10 UNL     1     -85.848 -16.947   7.860  1.00  0.00     0.055 C 
HETATM    8  C11 UNL     1     -86.764 -17.528   8.712  1.00  0.00     0.017 C 
HETATM    9  C12 UNL     1     -87.190 -16.957   9.897  1.00  0.00    -0.018 C 
HETATM   10  C13 UNL     1     -88.578 -17.243  10.190  1.00  0.00    -0.011 A 
HETATM   11  C14 UNL     1     -89.286 -18.026   9.310  1.00  0.00     0.052 A 
HETATM   12  C15 UNL     1     -90.602 -18.351   9.627  1.00  0.00     0.105 A 
HETATM   13  C17 UNL     1     -91.198 -17.915  10.776  1.00  0.00     0.135 A 
HETATM   14  C19 UNL     1     -90.452 -17.115  11.653  1.00  0.00     0.114 A 
HETATM   15  C21 UNL     1     -89.153 -16.766  11.387  1.00  0.00     0.022 A 
HETATM   16  C22 UNL     1     -88.418 -15.920  12.302  1.00  0.00     0.203 C 
ENDROOT
BRANCH   1  17
HETATM   17  C4  UNL     1     -86.319 -17.039  13.079  1.00  0.00     0.068 A 
HETATM   18  C3  UNL     1     -85.384 -16.818  14.069  1.00  0.00     0.073 A 
HETATM   19  C2  UNL     1     -85.105 -18.058  14.671  1.00  0.00     0.105 A 
HETATM   20  C23 UNL     1     -85.884 -18.971  14.016  1.00  0.00     0.119 A 
HETATM   21  O7  UNL     1     -86.571 -18.313  13.096  1.00  0.00    -0.310 OA
BRANCH  19  22
HETATM   22  O1  UNL     1     -84.222 -18.262  15.696  1.00  0.00    -0.353 OA
HETATM   23  C1  UNL     1     -84.616 -18.330  17.062  1.00  0.00     0.210 C 
ENDBRANCH  19  22
BRANCH  20  24
HETATM   24  C24 UNL     1     -85.986 -20.398  14.235  1.00  0.00     0.001 A 
HETATM   25  C25 UNL     1     -87.156 -20.865  14.856  1.00  0.00     0.017 A 
HETATM   26  C26 UNL     1     -87.311 -22.212  15.090  1.00  0.00     0.043 A 
HETATM   27  C27 UNL     1     -86.323 -23.094  14.716  1.00  0.00     0.116 A 
HETATM   28  F1  UNL     1     -86.478 -24.412  14.947  1.00  0.00    -0.206 F 
HETATM   29  C28 UNL     1     -85.178 -22.633  14.109  1.00  0.00     0.043 A 
HETATM   30  C29 UNL     1     -84.999 -21.266  13.861  1.00  0.00     0.017 A 
ENDBRANCH  20  24
ENDBRANCH   1  17
BRANCH  16  31
HETATM   31  O6  UNL     1     -88.768 -14.551  12.195  1.00  0.00    -0.276 OA
BRANCH  31  32
HETATM   32  N1  UNL     1     -89.287 -14.092  13.382  1.00  0.00    -0.310 N 
ATOM     33  H12 UNL     1     -89.352 -13.105  13.630  1.00  0.00     0.184 HD
ATOM     34  H11 UNL     1     -89.592 -14.871  13.965  1.00  0.00     0.184 HD
ENDBRANCH  31  32
ENDBRANCH  16  31
BRANCH  14  35
HETATM   35  O5  UNL     1     -91.123 -16.718  12.789  1.00  0.00    -0.352 OA
HETATM   36  C20 UNL     1     -90.922 -17.381  14.011  1.00  0.00     0.210 C 
ENDBRANCH  14  35
BRANCH  13  37
HETATM   37  O4  UNL     1     -92.515 -18.265  11.055  1.00  0.00    -0.351 OA
HETATM   38  C18 UNL     1     -93.621 -17.503  10.682  1.00  0.00     0.210 C 
ENDBRANCH  13  37
BRANCH  12  39
HETATM   39  O3  UNL     1     -91.347 -19.140   8.764  1.00  0.00    -0.353 OA
HETATM   40  C16 UNL     1     -91.092 -20.529   8.696  1.00  0.00     0.210 C 
ENDBRANCH  12  39
TORSDOF 8
ENDMDL
MODEL 4
REMARK VINA RESULT: -8.979779479      2.012      3.291
REMARK  8 active torsions:
REMARK  status: ('A' for Active; 'I' for Inactive)
REMARK    1  A    between atoms: O1_2  and  C2_3 
REMARK    2  A    between atoms: C4_5  and  C5_6 
REMARK    3  A    between atoms: C15_17  and  O3_18 
REMARK    4  A    between atoms: C17_20  and  O4_21 
REMARK    5  A    between atoms: C19_23  and  O5_24 
REMARK    6  A    between atoms: C22_27  and  O6_28 
REMARK    7  A    between atoms: O6_28  and  N1_29 
REMARK    8  A    between atoms: C23_33  and  C24_34 
ROOT
HETATM    1  C5  UNL     1     -88.373 -18.034  14.090  1.00  0.00     0.113 C 
HETATM    2  C6  UNL     1     -87.371 -17.208  13.447  1.00  0.00    -0.034 C 
HETATM    3  C7  UNL     1     -86.652 -16.476  14.366  1.00  0.00     0.013 C 
HETATM    4  C8  UNL     1     -85.648 -15.517  14.170  1.00  0.00     0.055 C 
HETATM    5  C9  UNL     1     -85.155 -15.094  12.958  1.00  0.00     0.172 C 
HETATM    6  O2  UNL     1     -84.458 -14.051  12.997  1.00  0.00    -0.289 OA
HETATM    7  C10 UNL     1     -85.323 -15.669  11.686  1.00  0.00     0.055 C 
HETATM    8  C11 UNL     1     -86.101 -16.754  11.338  1.00  0.00     0.017 C 
HETATM    9  C12 UNL     1     -87.195 -17.187  12.064  1.00  0.00    -0.018 C 
HETATM   10  C13 UNL     1     -88.249 -17.718  11.227  1.00  0.00    -0.011 A 
HETATM   11  C14 UNL     1     -88.053 -17.748   9.867  1.00  0.00     0.052 A 
HETATM   12  C15 UNL     1     -89.042 -18.318   9.069  1.00  0.00     0.105 A 
HETATM   13  C17 UNL     1     -90.187 -18.840   9.600  1.00  0.00     0.135 A 
HETATM   14  C19 UNL     1     -90.361 -18.792  10.991  1.00  0.00     0.114 A 
HETATM   15  C21 UNL     1     -89.417 -18.242  11.820  1.00  0.00     0.022 A 
HETATM   16  C22 UNL     1     -89.637 -18.187  13.249  1.00  0.00     0.203 C 
ENDROOT
BRANCH   1  17
HETATM   17  C4  UNL     1     -87.796 -19.342  14.490  1.00  0.00     0.068 A 
HETATM   18  C3  UNL     1     -86.453 -19.628  14.621  1.00  0.00     0.073 A 
HETATM   19  C2  UNL     1     -86.344 -20.976  15.009  1.00  0.00     0.105 A 
HETATM   20  C23 UNL     1     -87.627 -21.440  15.094  1.00  0.00     0.119 A 
HETATM   21  O7  UNL     1     -88.430 -20.437  14.779  1.00  0.00    -0.310 OA
BRANCH  19  22
HETATM   22  O1  UNL     1     -85.172 -21.643  15.239  1.00  0.00    -0.353 OA
HETATM   23  C1  UNL     1     -84.637 -21.855  16.541  1.00  0.00     0.210 C 
ENDBRANCH  19  22
BRANCH  20  24
HETATM   24  C24 UNL     1     -88.088 -22.765  15.454  1.00  0.00     0.001 A 
HETATM   25  C25 UNL     1     -87.509 -23.847  14.772  1.00  0.00     0.017 A 
HETATM   26  C26 UNL     1     -87.905 -25.130  15.071  1.00  0.00     0.043 A 
HETATM   27  C27 UNL     1     -88.863 -25.348  16.035  1.00  0.00     0.116 A 
HETATM   28  F1  UNL     1     -89.247 -26.606  16.326  1.00  0.00    -0.206 F 
HETATM   29  C28 UNL     1     -89.427 -24.286  16.701  1.00  0.00     0.043 A 
HETATM   30  C29 UNL     1     -89.039 -22.971  16.412  1.00  0.00     0.017 A 
ENDBRANCH  20  24
ENDBRANCH   1  17
BRANCH  16  31
HETATM   31  O6  UNL     1     -90.525 -17.153  13.634  1.00  0.00    -0.276 OA
BRANCH  31  32
HETATM   32  N1  UNL     1     -91.199 -17.499  14.781  1.00  0.00    -0.310 N 
ATOM     33  H12 UNL     1     -91.355 -18.461  15.082  1.00  0.00     0.184 HD
ATOM     34  H11 UNL     1     -91.515 -16.665  15.276  1.00  0.00     0.184 HD
ENDBRANCH  31  32
ENDBRANCH  16  31
BRANCH  14  35
HETATM   35  O5  UNL     1     -91.539 -19.340  11.448  1.00  0.00    -0.352 OA
HETATM   36  C20 UNL     1     -92.734 -18.601  11.422  1.00  0.00     0.210 C 
ENDBRANCH  14  35
BRANCH  13  37
HETATM   37  O4  UNL     1     -91.149 -19.402   8.768  1.00  0.00    -0.351 OA
HETATM   38  C18 UNL     1     -91.231 -20.762   8.476  1.00  0.00     0.210 C 
ENDBRANCH  13  37
BRANCH  12  39
HETATM   39  O3  UNL     1     -88.879 -18.368   7.694  1.00  0.00    -0.353 OA
HETATM   40  C16 UNL     1     -88.281 -17.275   7.024  1.00  0.00     0.210 C 
ENDBRANCH  12  39
TORSDOF 8
ENDMDL
MODEL 5
REMARK VINA RESULT: -8.938779925      3.191      6.934
REMARK  8 active torsions:
REMARK  status: ('A' for Active; 'I' for Inactive)
REMARK    1  A    between atoms: O1_2  and  C2_3 
REMARK    2  A    between atoms: C4_5  and  C5_6 
REMARK    3  A    between atoms: C15_17  and  O3_18 
REMARK    4  A    between atoms: C17_20  and  O4_21 
REMARK    5  A    between atoms: C19_23  and  O5_24 
REMARK    6  A    between atoms: C22_27  and  O6_28 
REMARK    7  A    between atoms: O6_28  and  N1_29 
REMARK    8  A    between atoms: C23_33  and  C24_34 
ROOT
HETATM    1  C5  UNL     1     -88.564 -16.064  11.198  1.00  0.00     0.113 C 
HETATM    2  C6  UNL     1     -89.222 -17.269  10.734  1.00  0.00    -0.034 C 
HETATM    3  C7  UNL     1     -89.909 -17.050   9.559  1.00  0.00     0.013 C 
HETATM    4  C8  UNL     1     -90.722 -17.916   8.815  1.00  0.00     0.055 C 
HETATM    5  C9  UNL     1     -91.014 -19.224   9.124  1.00  0.00     0.172 C 
HETATM    6  O2  UNL     1     -91.962 -19.730   8.477  1.00  0.00    -0.289 OA
HETATM    7  C10 UNL     1     -90.395 -20.069  10.063  1.00  0.00     0.055 C 
HETATM    8  C11 UNL     1     -89.398 -19.756  10.963  1.00  0.00     0.017 C 
HETATM    9  C12 UNL     1     -89.145 -18.477  11.425  1.00  0.00    -0.018 C 
HETATM   10  C13 UNL     1     -88.704 -18.455  12.803  1.00  0.00    -0.011 A 
HETATM   11  C14 UNL     1     -88.575 -19.651  13.468  1.00  0.00     0.052 A 
HETATM   12  C15 UNL     1     -88.090 -19.632  14.774  1.00  0.00     0.105 A 
HETATM   13  C17 UNL     1     -87.745 -18.467  15.400  1.00  0.00     0.135 A 
HETATM   14  C19 UNL     1     -87.891 -17.262  14.697  1.00  0.00     0.114 A 
HETATM   15  C21 UNL     1     -88.364 -17.228  13.410  1.00  0.00     0.022 A 
HETATM   16  C22 UNL     1     -88.524 -15.966  12.721  1.00  0.00     0.203 C 
ENDROOT
BRANCH   1  17
HETATM   17  C4  UNL     1     -87.219 -15.932  10.586  1.00  0.00     0.068 A 
HETATM   18  C3  UNL     1     -86.081 -15.478  11.221  1.00  0.00     0.073 A 
HETATM   19  C2  UNL     1     -85.034 -15.506  10.283  1.00  0.00     0.105 A 
HETATM   20  C23 UNL     1     -85.588 -15.976   9.124  1.00  0.00     0.119 A 
HETATM   21  O7  UNL     1     -86.868 -16.206   9.367  1.00  0.00    -0.310 OA
BRANCH  19  22
HETATM   22  O1  UNL     1     -83.742 -15.126  10.525  1.00  0.00    -0.353 OA
HETATM   23  C1  UNL     1     -83.108 -15.280  11.789  1.00  0.00     0.210 C 
ENDBRANCH  19  22
BRANCH  20  24
HETATM   24  C24 UNL     1     -84.952 -16.201   7.843  1.00  0.00     0.001 A 
HETATM   25  C25 UNL     1     -85.720 -15.937   6.698  1.00  0.00     0.017 A 
HETATM   26  C26 UNL     1     -85.170 -16.130   5.451  1.00  0.00     0.043 A 
HETATM   27  C27 UNL     1     -83.874 -16.578   5.332  1.00  0.00     0.116 A 
HETATM   28  F1  UNL     1     -83.339 -16.766   4.110  1.00  0.00    -0.206 F 
HETATM   29  C28 UNL     1     -83.125 -16.835   6.457  1.00  0.00     0.043 A 
HETATM   30  C29 UNL     1     -83.665 -16.645   7.736  1.00  0.00     0.017 A 
ENDBRANCH  20  24
ENDBRANCH   1  17
BRANCH  16  31
HETATM   31  O6  UNL     1     -89.681 -15.255  13.126  1.00  0.00    -0.276 OA
BRANCH  31  32
HETATM   32  N1  UNL     1     -89.332 -14.070  13.728  1.00  0.00    -0.310 N 
ATOM     33  H12 UNL     1     -88.473 -13.559  13.524  1.00  0.00     0.184 HD
ATOM     34  H11 UNL     1     -90.047 -13.784  14.397  1.00  0.00     0.184 HD
ENDBRANCH  31  32
ENDBRANCH  16  31
BRANCH  14  35
HETATM   35  O5  UNL     1     -87.520 -16.135  15.395  1.00  0.00    -0.352 OA
HETATM   36  C20 UNL     1     -86.257 -15.550  15.201  1.00  0.00     0.210 C 
ENDBRANCH  14  35
BRANCH  13  37
HETATM   37  O4  UNL     1     -87.263 -18.493  16.704  1.00  0.00    -0.351 OA
HETATM   38  C18 UNL     1     -85.929 -18.719  17.038  1.00  0.00     0.210 C 
ENDBRANCH  13  37
BRANCH  12  39
HETATM   39  O3  UNL     1     -87.945 -20.818  15.476  1.00  0.00    -0.353 OA
HETATM   40  C16 UNL     1     -87.138 -21.849  14.942  1.00  0.00     0.210 C 
ENDBRANCH  12  39
TORSDOF 8
ENDMDL
