MODEL 1
REMARK VINA RESULT: -7.929387573      0.000      0.000
REMARK  13 active torsions:
REMARK  status: ('A' for Active; 'I' for Inactive)
REMARK    1  A    between atoms: C3_3  and  C4_4 
REMARK    2  A    between atoms: C4_4  and  C5_5 
REMARK    3  A    between atoms: C5_5  and  C6_6 
REMARK    4  A    between atoms: C8_8  and  N1_9 
REMARK    5  A    between atoms: C10_11  and  C11_12 
REMARK    6  A    between atoms: C11_12  and  O1_13 
REMARK    7  A    between atoms: C11_12  and  N2_15 
REMARK    8  A    between atoms: C14_19  and  C15_20 
REMARK    9  A    between atoms: N4_26  and  C19_27 
REMARK   10  A    between atoms: C19_27  and  C20_28 
REMARK   11  A    between atoms: C20_28  and  C21_29 
REMARK   12  A    between atoms: C21_29  and  O2_30 
REMARK   13  A    between atoms: C24_33  and  O3_34 
ROOT
HETATM    1  C11 UNL     1     -90.704 -15.937  12.398  1.00  0.00     0.255 C 
ENDROOT
BRANCH   1   2
HETATM    2  C10 UNL     1     -89.833 -16.344  13.548  1.00  0.00     0.010 A 
HETATM    3  C9  UNL     1     -89.287 -17.575  13.810  1.00  0.00     0.111 A 
HETATM    4  N1  UNL     1     -88.592 -17.519  14.984  1.00  0.00    -0.302 N 
HETATM    5  C24 UNL     1     -88.684 -16.294  15.471  1.00  0.00     0.147 A 
HETATM    6  C23 UNL     1     -89.449 -15.549  14.593  1.00  0.00     0.069 A 
BRANCH   4   7
HETATM    7  C8  UNL     1     -87.898 -18.626  15.520  1.00  0.00     0.042 A 
HETATM    8  C7  UNL     1     -88.300 -19.929  15.379  1.00  0.00     0.052 A 
HETATM    9  C6  UNL     1     -87.577 -20.943  15.965  1.00  0.00     0.042 A 
HETATM   10  C27 UNL     1     -86.424 -20.699  16.714  1.00  0.00     0.052 A 
HETATM   11  C26 UNL     1     -86.016 -19.409  16.858  1.00  0.00     0.028 A 
HETATM   12 CL1  UNL     1     -85.507 -21.980  17.455  1.00  0.00    -0.083 Cl
HETATM   13  C25 UNL     1     -86.738 -18.415  16.276  1.00  0.00     0.032 A 
BRANCH   9  14
HETATM   14  C5  UNL     1     -87.979 -22.331  15.862  1.00  0.00    -0.060 C 
BRANCH  14  15
HETATM   15  C4  UNL     1     -88.290 -23.505  15.805  1.00  0.00    -0.073 C 
BRANCH  15  16
HETATM   16  C3  UNL     1     -88.627 -24.902  15.737  1.00  0.00     0.060 C 
HETATM   17  C2  UNL     1     -89.677 -25.447  16.301  1.00  0.00    -0.022 C 
HETATM   18  C1  UNL     1     -90.654 -24.660  17.087  1.00  0.00     0.036 C 
ENDBRANCH  15  16
ENDBRANCH  14  15
ENDBRANCH   9  14
ENDBRANCH   4   7
BRANCH   5  19
HETATM   19  O3  UNL     1     -88.123 -15.802  16.666  1.00  0.00    -0.346 OA
ATOM     20  H3  UNL     1     -88.024 -14.894  16.927  1.00  0.00     0.219 HD
ENDBRANCH   5  19
ENDBRANCH   1   2
BRANCH   1  21
HETATM   21  O1  UNL     1     -92.021 -16.483  12.646  1.00  0.00    -0.372 OA
ATOM     22  H1  UNL     1     -92.527 -16.368  11.850  1.00  0.00     0.212 HD
ENDBRANCH   1  21
BRANCH   1  23
HETATM   23  N2  UNL     1     -90.335 -16.423  11.168  1.00  0.00    -0.345 N 
HETATM   24  C12 UNL     1     -89.442 -16.574  10.354  1.00  0.00     0.122 A 
HETATM   25  C13 UNL     1     -88.125 -16.212  10.408  1.00  0.00     0.077 A 
HETATM   26  N4  UNL     1     -89.636 -17.129   9.119  1.00  0.00    -0.277 N 
HETATM   27  C14 UNL     1     -87.506 -16.543   9.212  1.00  0.00     0.037 A 
HETATM   28  N3  UNL     1     -88.495 -17.098   8.480  1.00  0.00    -0.300 N 
ATOM     29  H3  UNL     1     -88.367 -17.455   7.533  1.00  0.00     0.187 HD
ATOM     30  H2  UNL     1     -91.173 -16.836  10.757  1.00  0.00     0.164 HD
BRANCH  27  31
HETATM   31  C15 UNL     1     -86.101 -16.379   8.772  1.00  0.00    -0.007 C 
HETATM   32  C16 UNL     1     -85.396 -15.249   9.496  1.00  0.00     0.021 C 
HETATM   33  C17 UNL     1     -86.097 -16.007   7.296  1.00  0.00     0.021 C 
HETATM   34  C18 UNL     1     -85.300 -17.621   8.936  1.00  0.00     0.021 C 
ENDBRANCH  27  31
BRANCH  26  35
HETATM   35  C19 UNL     1     -90.926 -17.633   8.606  1.00  0.00     0.153 C 
BRANCH  35  36
HETATM   36  C20 UNL     1     -90.889 -19.162   8.658  1.00  0.00     0.048 C 
BRANCH  36  37
HETATM   37  C21 UNL     1     -91.867 -19.734   9.649  1.00  0.00     0.168 C 
BRANCH  37  38
HETATM   38  O2  UNL     1     -92.358 -18.795  10.517  1.00  0.00    -0.396 OA
HETATM   39  C22 UNL     1     -93.557 -19.103  11.124  1.00  0.00     0.201 C 
ENDBRANCH  37  38
ENDBRANCH  36  37
ENDBRANCH  35  36
ENDBRANCH  26  35
ENDBRANCH   1  23
TORSDOF 13
ENDMDL
MODEL 2
REMARK VINA RESULT: -7.924644196      1.825      3.782
REMARK  13 active torsions:
REMARK  status: ('A' for Active; 'I' for Inactive)
REMARK    1  A    between atoms: C3_3  and  C4_4 
REMARK    2  A    between atoms: C4_4  and  C5_5 
REMARK    3  A    between atoms: C5_5  and  C6_6 
REMARK    4  A    between atoms: C8_8  and  N1_9 
REMARK    5  A    between atoms: C10_11  and  C11_12 
REMARK    6  A    between atoms: C11_12  and  O1_13 
REMARK    7  A    between atoms: C11_12  and  N2_15 
REMARK    8  A    between atoms: C14_19  and  C15_20 
REMARK    9  A    between atoms: N4_26  and  C19_27 
REMARK   10  A    between atoms: C19_27  and  C20_28 
REMARK   11  A    between atoms: C20_28  and  C21_29 
REMARK   12  A    between atoms: C21_29  and  O2_30 
REMARK   13  A    between atoms: C24_33  and  O3_34 
ROOT
HETATM    1  C11 UNL     1     -87.697 -14.818  12.901  1.00  0.00     0.255 C 
ENDROOT
BRANCH   1   2
HETATM    2  C10 UNL     1     -87.850 -15.743  14.070  1.00  0.00     0.010 A 
HETATM    3  C9  UNL     1     -87.395 -17.029  14.205  1.00  0.00     0.111 A 
HETATM    4  N1  UNL     1     -87.786 -17.522  15.417  1.00  0.00    -0.302 N 
HETATM    5  C24 UNL     1     -88.474 -16.588  16.050  1.00  0.00     0.147 A 
HETATM    6  C23 UNL     1     -88.523 -15.475  15.230  1.00  0.00     0.069 A 
BRANCH   4   7
HETATM    7  C8  UNL     1     -87.457 -18.821  15.862  1.00  0.00     0.042 A 
HETATM    8  C7  UNL     1     -88.349 -19.861  15.928  1.00  0.00     0.052 A 
HETATM    9  C6  UNL     1     -87.947 -21.087  16.407  1.00  0.00     0.042 A 
HETATM   10  C27 UNL     1     -86.639 -21.326  16.837  1.00  0.00     0.052 A 
HETATM   11  C26 UNL     1     -85.748 -20.301  16.773  1.00  0.00     0.028 A 
HETATM   12 CL1  UNL     1     -86.128 -22.876  17.442  1.00  0.00    -0.083 Cl
HETATM   13  C25 UNL     1     -86.156 -19.094  16.300  1.00  0.00     0.032 A 
BRANCH   9  14
HETATM   14  C5  UNL     1     -88.860 -22.205  16.517  1.00  0.00    -0.060 C 
BRANCH  14  15
HETATM   15  C4  UNL     1     -89.653 -23.125  16.586  1.00  0.00    -0.073 C 
BRANCH  15  16
HETATM   16  C3  UNL     1     -90.578 -24.226  16.638  1.00  0.00     0.060 C 
HETATM   17  C2  UNL     1     -90.235 -25.491  16.634  1.00  0.00    -0.022 C 
HETATM   18  C1  UNL     1     -88.824 -25.932  16.574  1.00  0.00     0.036 C 
ENDBRANCH  15  16
ENDBRANCH  14  15
ENDBRANCH   9  14
ENDBRANCH   4   7
BRANCH   5  19
HETATM   19  O3  UNL     1     -89.069 -16.675  17.323  1.00  0.00    -0.346 OA
ATOM     20  H3  UNL     1     -88.731 -16.335  18.144  1.00  0.00     0.219 HD
ENDBRANCH   5  19
ENDBRANCH   1   2
BRANCH   1  21
HETATM   21  O1  UNL     1     -88.715 -13.796  13.029  1.00  0.00    -0.372 OA
ATOM     22  H1  UNL     1     -88.320 -13.064  13.489  1.00  0.00     0.212 HD
ENDBRANCH   1  21
BRANCH   1  23
HETATM   23  N2  UNL     1     -87.899 -15.379  11.664  1.00  0.00    -0.345 N 
HETATM   24  C12 UNL     1     -88.659 -15.978  10.925  1.00  0.00     0.122 A 
HETATM   25  C13 UNL     1     -89.938 -16.416  11.137  1.00  0.00     0.077 A 
HETATM   26  N4  UNL     1     -88.313 -16.400   9.671  1.00  0.00    -0.277 N 
HETATM   27  C14 UNL     1     -90.380 -17.104  10.017  1.00  0.00     0.037 A 
HETATM   28  N3  UNL     1     -89.332 -17.049   9.168  1.00  0.00    -0.300 N 
ATOM     29  H3  UNL     1     -89.333 -17.466   8.238  1.00  0.00     0.187 HD
ATOM     30  H2  UNL     1     -87.041 -15.229  11.134  1.00  0.00     0.164 HD
BRANCH  27  31
HETATM   31  C15 UNL     1     -91.680 -17.756   9.733  1.00  0.00    -0.007 C 
HETATM   32  C16 UNL     1     -92.701 -16.787   9.167  1.00  0.00     0.021 C 
HETATM   33  C17 UNL     1     -92.260 -18.270  11.042  1.00  0.00     0.021 C 
HETATM   34  C18 UNL     1     -91.553 -18.908   8.802  1.00  0.00     0.021 C 
ENDBRANCH  27  31
BRANCH  26  35
HETATM   35  C19 UNL     1     -87.000 -16.181   9.032  1.00  0.00     0.153 C 
BRANCH  35  36
HETATM   36  C20 UNL     1     -86.334 -17.545   8.844  1.00  0.00     0.048 C 
BRANCH  36  37
HETATM   37  C21 UNL     1     -85.244 -17.805   9.849  1.00  0.00     0.168 C 
BRANCH  37  38
HETATM   38  O2  UNL     1     -85.529 -17.295  11.088  1.00  0.00    -0.396 OA
HETATM   39  C22 UNL     1     -84.450 -16.835  11.814  1.00  0.00     0.201 C 
ENDBRANCH  37  38
ENDBRANCH  36  37
ENDBRANCH  35  36
ENDBRANCH  26  35
ENDBRANCH   1  23
TORSDOF 13
ENDMDL
MODEL 3
REMARK VINA RESULT: -7.900807873      3.046      8.954
REMARK  13 active torsions:
REMARK  status: ('A' for Active; 'I' for Inactive)
REMARK    1  A    between atoms: C3_3  and  C4_4 
REMARK    2  A    between atoms: C4_4  and  C5_5 
REMARK    3  A    between atoms: C5_5  and  C6_6 
REMARK    4  A    between atoms: C8_8  and  N1_9 
REMARK    5  A    between atoms: C10_11  and  C11_12 
REMARK    6  A    between atoms: C11_12  and  O1_13 
REMARK    7  A    between atoms: C11_12  and  N2_15 
REMARK    8  A    between atoms: C14_19  and  C15_20 
REMARK    9  A    between atoms: N4_26  and  C19_27 
REMARK   10  A    between atoms: C19_27  and  C20_28 
REMARK   11  A    between atoms: C20_28  and  C21_29 
REMARK   12  A    between atoms: C21_29  and  O2_30 
REMARK   13  A    between atoms: C24_33  and  O3_34 
ROOT
HETATM    1  C11 UNL     1     -89.115 -17.750  15.498  1.00  0.00     0.255 C 
ENDROOT
BRANCH   1   2
HETATM    2  C10 UNL     1     -88.990 -16.983  14.217  1.00  0.00     0.010 A 
HETATM    3  C9  UNL     1     -88.703 -17.460  12.963  1.00  0.00     0.111 A 
HETATM    4  N1  UNL     1     -88.645 -16.415  12.086  1.00  0.00    -0.302 N 
HETATM    5  C24 UNL     1     -88.884 -15.295  12.746  1.00  0.00     0.147 A 
HETATM    6  C23 UNL     1     -89.102 -15.628  14.071  1.00  0.00     0.069 A 
BRANCH   4   7
HETATM    7  C8  UNL     1     -88.384 -16.581  10.708  1.00  0.00     0.042 A 
HETATM    8  C7  UNL     1     -87.155 -16.400  10.129  1.00  0.00     0.052 A 
HETATM    9  C6  UNL     1     -87.000 -16.552   8.770  1.00  0.00     0.042 A 
HETATM   10  C27 UNL     1     -88.065 -16.892   7.934  1.00  0.00     0.052 A 
HETATM   11  C26 UNL     1     -89.289 -17.076   8.499  1.00  0.00     0.028 A 
HETATM   12 CL1  UNL     1     -87.872 -17.086   6.214  1.00  0.00    -0.083 Cl
HETATM   13  C25 UNL     1     -89.430 -16.922   9.842  1.00  0.00     0.032 A 
BRANCH   9  14
HETATM   14  C5  UNL     1     -85.725 -16.346   8.115  1.00  0.00    -0.060 C 
BRANCH  14  15
HETATM   15  C4  UNL     1     -84.637 -16.194   7.593  1.00  0.00    -0.073 C 
BRANCH  15  16
HETATM   16  C3  UNL     1     -83.364 -16.013   6.947  1.00  0.00     0.060 C 
HETATM   17  C2  UNL     1     -83.201 -15.793   5.666  1.00  0.00    -0.022 C 
HETATM   18  C1  UNL     1     -84.340 -15.705   4.724  1.00  0.00     0.036 C 
ENDBRANCH  15  16
ENDBRANCH  14  15
ENDBRANCH   9  14
ENDBRANCH   4   7
BRANCH   5  19
HETATM   19  O3  UNL     1     -88.915 -13.985  12.231  1.00  0.00    -0.346 OA
ATOM     20  H3  UNL     1     -88.263 -13.303  12.345  1.00  0.00     0.219 HD
ENDBRANCH   5  19
ENDBRANCH   1   2
BRANCH   1  21
HETATM   21  O1  UNL     1     -89.168 -16.780  16.572  1.00  0.00    -0.372 OA
ATOM     22  H1  UNL     1     -89.137 -17.265  17.389  1.00  0.00     0.212 HD
ENDBRANCH   1  21
BRANCH   1  23
HETATM   23  N2  UNL     1     -88.063 -18.577  15.807  1.00  0.00    -0.345 N 
HETATM   24  C12 UNL     1     -87.634 -19.716  15.841  1.00  0.00     0.122 A 
HETATM   25  C13 UNL     1     -88.222 -20.894  15.472  1.00  0.00     0.077 A 
HETATM   26  N4  UNL     1     -86.407 -20.042  16.349  1.00  0.00    -0.277 N 
HETATM   27  C14 UNL     1     -87.362 -21.945  15.751  1.00  0.00     0.037 A 
HETATM   28  N3  UNL     1     -86.277 -21.342  16.283  1.00  0.00    -0.300 N 
ATOM     29  H3  UNL     1     -85.447 -21.844  16.598  1.00  0.00     0.187 HD
ATOM     30  H2  UNL     1     -87.318 -17.977  16.161  1.00  0.00     0.164 HD
BRANCH  27  31
HETATM   31  C15 UNL     1     -87.511 -23.403  15.530  1.00  0.00    -0.007 C 
HETATM   32  C16 UNL     1     -88.901 -23.901  15.878  1.00  0.00     0.021 C 
HETATM   33  C17 UNL     1     -86.552 -24.133  16.459  1.00  0.00     0.021 C 
HETATM   34  C18 UNL     1     -87.198 -23.807  14.134  1.00  0.00     0.021 C 
ENDBRANCH  27  31
BRANCH  26  35
HETATM   35  C19 UNL     1     -85.434 -19.081  16.905  1.00  0.00     0.153 C 
BRANCH  35  36
HETATM   36  C20 UNL     1     -84.672 -18.454  15.736  1.00  0.00     0.048 C 
BRANCH  36  37
HETATM   37  C21 UNL     1     -84.743 -16.950  15.735  1.00  0.00     0.168 C 
BRANCH  37  38
HETATM   38  O2  UNL     1     -85.991 -16.475  16.042  1.00  0.00    -0.396 OA
HETATM   39  C22 UNL     1     -86.068 -15.131  16.341  1.00  0.00     0.201 C 
ENDBRANCH  37  38
ENDBRANCH  36  37
ENDBRANCH  35  36
ENDBRANCH  26  35
ENDBRANCH   1  23
TORSDOF 13
ENDMDL
MODEL 4
REMARK VINA RESULT: -7.875757746      5.840      9.449
REMARK  13 active torsions:
REMARK  status: ('A' for Active; 'I' for Inactive)
REMARK    1  A    between atoms: C3_3  and  C4_4 
REMARK    2  A    between atoms: C4_4  and  C5_5 
REMARK    3  A    between atoms: C5_5  and  C6_6 
REMARK    4  A    between atoms: C8_8  and  N1_9 
REMARK    5  A    between atoms: C10_11  and  C11_12 
REMARK    6  A    between atoms: C11_12  and  O1_13 
REMARK    7  A    between atoms: C11_12  and  N2_15 
REMARK    8  A    between atoms: C14_19  and  C15_20 
REMARK    9  A    between atoms: N4_26  and  C19_27 
REMARK   10  A    between atoms: C19_27  and  C20_28 
REMARK   11  A    between atoms: C20_28  and  C21_29 
REMARK   12  A    between atoms: C21_29  and  O2_30 
REMARK   13  A    between atoms: C24_33  and  O3_34 
ROOT
HETATM    1  C11 UNL     1     -82.803 -15.522   6.154  1.00  0.00     0.255 C 
ENDROOT
BRANCH   1   2
HETATM    2  C10 UNL     1     -84.282 -15.672   6.343  1.00  0.00     0.010 A 
HETATM    3  C9  UNL     1     -84.959 -16.116   7.449  1.00  0.00     0.111 A 
HETATM    4  N1  UNL     1     -86.298 -16.134   7.182  1.00  0.00    -0.302 N 
HETATM    5  C24 UNL     1     -86.486 -15.717   5.942  1.00  0.00     0.147 A 
HETATM    6  C23 UNL     1     -85.246 -15.424   5.405  1.00  0.00     0.069 A 
BRANCH   4   7
HETATM    7  C8  UNL     1     -87.266 -16.529   8.131  1.00  0.00     0.042 A 
HETATM    8  C7  UNL     1     -88.203 -17.506   7.914  1.00  0.00     0.052 A 
HETATM    9  C6  UNL     1     -89.131 -17.803   8.886  1.00  0.00     0.042 A 
HETATM   10  C27 UNL     1     -89.162 -17.138  10.114  1.00  0.00     0.052 A 
HETATM   11  C26 UNL     1     -88.236 -16.167  10.338  1.00  0.00     0.028 A 
HETATM   12 CL1  UNL     1     -90.335 -17.512  11.345  1.00  0.00    -0.083 Cl
HETATM   13  C25 UNL     1     -87.324 -15.882   9.372  1.00  0.00     0.032 A 
BRANCH   9  14
HETATM   14  C5  UNL     1     -90.153 -18.810   8.690  1.00  0.00    -0.060 C 
BRANCH  14  15
HETATM   15  C4  UNL     1     -90.987 -19.683   8.542  1.00  0.00    -0.073 C 
BRANCH  15  16
HETATM   16  C3  UNL     1     -91.967 -20.727   8.398  1.00  0.00     0.060 C 
HETATM   17  C2  UNL     1     -92.943 -20.957   9.242  1.00  0.00    -0.022 C 
HETATM   18  C1  UNL     1     -93.146 -20.146  10.463  1.00  0.00     0.036 C 
ENDBRANCH  15  16
ENDBRANCH  14  15
ENDBRANCH   9  14
ENDBRANCH   4   7
BRANCH   5  19
HETATM   19  O3  UNL     1     -87.710 -15.587   5.258  1.00  0.00    -0.346 OA
ATOM     20  H3  UNL     1     -88.456 -16.175   5.288  1.00  0.00     0.219 HD
ENDBRANCH   5  19
ENDBRANCH   1   2
BRANCH   1  21
HETATM   21  O1  UNL     1     -82.182 -16.718   6.683  1.00  0.00    -0.372 OA
ATOM     22  H1  UNL     1     -82.120 -16.610   7.625  1.00  0.00     0.212 HD
ENDBRANCH   1  21
BRANCH   1  23
HETATM   23  N2  UNL     1     -82.216 -14.480   6.829  1.00  0.00    -0.345 N 
HETATM   24  C12 UNL     1     -81.871 -14.022   7.903  1.00  0.00     0.122 A 
HETATM   25  C13 UNL     1     -81.978 -14.545   9.162  1.00  0.00     0.077 A 
HETATM   26  N4  UNL     1     -81.322 -12.778   8.050  1.00  0.00    -0.277 N 
HETATM   27  C14 UNL     1     -81.496 -13.628  10.084  1.00  0.00     0.037 A 
HETATM   28  N3  UNL     1     -81.114 -12.578   9.325  1.00  0.00    -0.300 N 
ATOM     29  H3  UNL     1     -80.708 -11.722   9.705  1.00  0.00     0.187 HD
ATOM     30  H2  UNL     1     -81.956 -13.789   6.125  1.00  0.00     0.164 HD
BRANCH  27  31
HETATM   31  C15 UNL     1     -81.375 -13.710  11.559  1.00  0.00    -0.007 C 
HETATM   32  C16 UNL     1     -81.072 -12.365  12.190  1.00  0.00     0.021 C 
HETATM   33  C17 UNL     1     -80.200 -14.614  11.898  1.00  0.00     0.021 C 
HETATM   34  C18 UNL     1     -82.591 -14.273  12.203  1.00  0.00     0.021 C 
ENDBRANCH  27  31
BRANCH  26  35
HETATM   35  C19 UNL     1     -81.056 -11.831   6.949  1.00  0.00     0.153 C 
BRANCH  35  36
HETATM   36  C20 UNL     1     -79.811 -12.315   6.202  1.00  0.00     0.048 C 
BRANCH  36  37
HETATM   37  C21 UNL     1     -80.029 -12.421   4.716  1.00  0.00     0.168 C 
BRANCH  37  38
HETATM   38  O2  UNL     1     -81.281 -12.872   4.391  1.00  0.00    -0.396 OA
HETATM   39  C22 UNL     1     -81.377 -13.599   3.223  1.00  0.00     0.201 C 
ENDBRANCH  37  38
ENDBRANCH  36  37
ENDBRANCH  35  36
ENDBRANCH  26  35
ENDBRANCH   1  23
TORSDOF 13
ENDMDL
MODEL 5
REMARK VINA RESULT: -7.870152377      5.156      8.507
REMARK  13 active torsions:
REMARK  status: ('A' for Active; 'I' for Inactive)
REMARK    1  A    between atoms: C3_3  and  C4_4 
REMARK    2  A    between atoms: C4_4  and  C5_5 
REMARK    3  A    between atoms: C5_5  and  C6_6 
REMARK    4  A    between atoms: C8_8  and  N1_9 
REMARK    5  A    between atoms: C10_11  and  C11_12 
REMARK    6  A    between atoms: C11_12  and  O1_13 
REMARK    7  A    between atoms: C11_12  and  N2_15 
REMARK    8  A    between atoms: C14_19  and  C15_20 
REMARK    9  A    between atoms: N4_26  and  C19_27 
REMARK   10  A    between atoms: C19_27  and  C20_28 
REMARK   11  A    between atoms: C20_28  and  C21_29 
REMARK   12  A    between atoms: C21_29  and  O2_30 
REMARK   13  A    between atoms: C24_33  and  O3_34 
ROOT
HETATM    1  C11 UNL     1     -89.730 -17.943   8.646  1.00  0.00     0.255 C 
ENDROOT
BRANCH   1   2
HETATM    2  C10 UNL     1     -88.738 -17.256   7.758  1.00  0.00     0.010 A 
HETATM    3  C9  UNL     1     -87.406 -17.025   7.987  1.00  0.00     0.111 A 
HETATM    4  N1  UNL     1     -86.880 -16.332   6.934  1.00  0.00    -0.302 N 
HETATM    5  C24 UNL     1     -87.839 -16.118   6.049  1.00  0.00     0.147 A 
HETATM    6  C23 UNL     1     -89.000 -16.686   6.542  1.00  0.00     0.069 A 
BRANCH   4   7
HETATM    7  C8  UNL     1     -85.521 -15.955   6.862  1.00  0.00     0.042 A 
HETATM    8  C7  UNL     1     -84.809 -15.437   7.913  1.00  0.00     0.052 A 
HETATM    9  C6  UNL     1     -83.495 -15.066   7.741  1.00  0.00     0.042 A 
HETATM   10  C27 UNL     1     -82.838 -15.198   6.516  1.00  0.00     0.052 A 
HETATM   11  C26 UNL     1     -83.536 -15.713   5.468  1.00  0.00     0.028 A 
HETATM   12 CL1  UNL     1     -81.175 -14.730   6.298  1.00  0.00    -0.083 Cl
HETATM   13  C25 UNL     1     -84.833 -16.075   5.648  1.00  0.00     0.032 A 
BRANCH   9  14
HETATM   14  C5  UNL     1     -82.713 -14.492   8.817  1.00  0.00    -0.060 C 
BRANCH  14  15
HETATM   15  C4  UNL     1     -82.036 -13.990   9.693  1.00  0.00    -0.073 C 
BRANCH  15  16
HETATM   16  C3  UNL     1     -81.211 -13.390  10.708  1.00  0.00     0.060 C 
HETATM   17  C2  UNL     1     -81.465 -13.421  11.993  1.00  0.00    -0.022 C 
HETATM   18  C1  UNL     1     -82.659 -14.095  12.551  1.00  0.00     0.036 C 
ENDBRANCH  15  16
ENDBRANCH  14  15
ENDBRANCH   9  14
ENDBRANCH   4   7
BRANCH   5  19
HETATM   19  O3  UNL     1     -87.736 -15.436   4.821  1.00  0.00    -0.346 OA
ATOM     20  H3  UNL     1     -87.660 -15.815   3.953  1.00  0.00     0.219 HD
ENDBRANCH   5  19
ENDBRANCH   1   2
BRANCH   1  21
HETATM   21  O1  UNL     1     -90.965 -18.054   7.900  1.00  0.00    -0.372 OA
ATOM     22  H1  UNL     1     -91.665 -17.759   8.471  1.00  0.00     0.212 HD
ENDBRANCH   1  21
BRANCH   1  23
HETATM   23  N2  UNL     1     -90.061 -17.277   9.801  1.00  0.00    -0.345 N 
HETATM   24  C12 UNL     1     -89.725 -16.470  10.648  1.00  0.00     0.122 A 
HETATM   25  C13 UNL     1     -88.574 -15.740  10.767  1.00  0.00     0.077 A 
HETATM   26  N4  UNL     1     -90.483 -16.173  11.747  1.00  0.00    -0.277 N 
HETATM   27  C14 UNL     1     -88.621 -14.994  11.936  1.00  0.00     0.037 A 
HETATM   28  N3  UNL     1     -89.817 -15.314  12.475  1.00  0.00    -0.300 N 
ATOM     29  H3  UNL     1     -90.164 -14.928  13.353  1.00  0.00     0.187 HD
ATOM     30  H2  UNL     1     -90.994 -17.598  10.062  1.00  0.00     0.164 HD
BRANCH  27  31
HETATM   31  C15 UNL     1     -87.647 -14.040  12.514  1.00  0.00    -0.007 C 
HETATM   32  C16 UNL     1     -87.957 -12.602  12.145  1.00  0.00     0.021 C 
HETATM   33  C17 UNL     1     -86.273 -14.341  11.936  1.00  0.00     0.021 C 
HETATM   34  C18 UNL     1     -87.556 -14.140  13.995  1.00  0.00     0.021 C 
ENDBRANCH  27  31
BRANCH  26  35
HETATM   35  C19 UNL     1     -91.801 -16.762  12.055  1.00  0.00     0.153 C 
BRANCH  35  36
HETATM   36  C20 UNL     1     -92.799 -16.256  11.011  1.00  0.00     0.048 C 
BRANCH  36  37
HETATM   37  C21 UNL     1     -93.527 -17.373  10.312  1.00  0.00     0.168 C 
BRANCH  37  38
HETATM   38  O2  UNL     1     -92.826 -18.550  10.315  1.00  0.00    -0.396 OA
HETATM   39  C22 UNL     1     -93.542 -19.678  10.656  1.00  0.00     0.201 C 
ENDBRANCH  37  38
ENDBRANCH  36  37
ENDBRANCH  35  36
ENDBRANCH  26  35
ENDBRANCH   1  23
TORSDOF 13
ENDMDL
