MODEL 1
REMARK VINA RESULT: -8.432046562      0.000      0.000
REMARK  10 active torsions:
REMARK  status: ('A' for Active; 'I' for Inactive)
REMARK    1  A    between atoms: C2_2  and  C3_3 
REMARK    2  A    between atoms: C3_3  and  C4_4 
REMARK    3  A    between atoms: C7_7  and  O1_8 
REMARK    4  A    between atoms: C9_10  and  O2_11 
REMARK    5  A    between atoms: C11_13  and  O3_14 
REMARK    6  A    between atoms: C14_17  and  C15_18 
REMARK    7  A    between atoms: C15_18  and  S1_19 
REMARK    8  A    between atoms: S1_19  and  C16_20 
REMARK    9  A    between atoms: C20_26  and  N2_27 
REMARK   10  A    between atoms: N4_35  and  C24_36 
ROOT
HETATM    1  C4  UNL     1     -87.595 -16.904   8.552  1.00  0.00     0.042 A 
HETATM    2  C5  UNL     1     -88.669 -17.518   9.302  1.00  0.00     0.007 A 
HETATM    3  C6  UNL     1     -89.667 -18.159   8.565  1.00  0.00     0.054 A 
HETATM    4  C7  UNL     1     -90.820 -18.638   9.172  1.00  0.00     0.105 A 
HETATM    5  C9  UNL     1     -90.993 -18.485  10.515  1.00  0.00     0.136 A 
HETATM    6  C11 UNL     1     -89.967 -17.825  11.243  1.00  0.00     0.116 A 
HETATM    7  C13 UNL     1     -88.836 -17.343  10.690  1.00  0.00     0.021 A 
HETATM    8  C14 UNL     1     -87.915 -16.506  11.453  1.00  0.00    -0.019 A 
HETATM    9  C23 UNL     1     -86.935 -15.935  10.745  1.00  0.00     0.100 A 
HETATM   10  N4  UNL     1     -86.711 -16.068   9.382  1.00  0.00    -0.348 N 
ENDROOT
BRANCH   8  11
HETATM   11  C15 UNL     1     -88.115 -16.179  12.872  1.00  0.00     0.120 C 
BRANCH  11  12
HETATM   12  S1  UNL     1     -86.718 -16.436  13.930  1.00  0.00    -0.125 SA
BRANCH  12  13
HETATM   13  C16 UNL     1     -86.360 -18.162  14.156  1.00  0.00     0.003 A 
HETATM   14  C17 UNL     1     -85.029 -18.565  14.034  1.00  0.00     0.021 A 
HETATM   15  C18 UNL     1     -84.661 -19.890  14.094  1.00  0.00     0.034 A 
HETATM   16  C19 UNL     1     -85.661 -20.833  14.282  1.00  0.00     0.076 A 
HETATM   17  N1  UNL     1     -85.540 -22.188  14.343  1.00  0.00    -0.190 N 
HETATM   18  C21 UNL     1     -86.978 -20.471  14.407  1.00  0.00     0.077 A 
HETATM   19  C20 UNL     1     -86.813 -22.653  14.508  1.00  0.00     0.676 A 
ATOM     20  H1  UNL     1     -84.683 -22.738  14.279  1.00  0.00     0.184 HD
HETATM   21  N3  UNL     1     -87.656 -21.620  14.544  1.00  0.00    -0.190 N 
ATOM     22  H3  UNL     1     -88.666 -21.693  14.659  1.00  0.00     0.184 HD
HETATM   23  C22 UNL     1     -87.319 -19.143  14.345  1.00  0.00     0.051 A 
BRANCH  19  24
HETATM   24  N2  UNL     1     -87.067 -23.927  14.593  1.00  0.00    -0.234 N 
ATOM     25  H22 UNL     1     -87.320 -24.586  13.856  1.00  0.00     0.174 HD
ATOM     26  H21 UNL     1     -87.021 -24.422  15.484  1.00  0.00     0.174 HD
ENDBRANCH  19  24
ENDBRANCH  12  13
ENDBRANCH  11  12
ENDBRANCH   8  11
BRANCH   6  27
HETATM   27  O3  UNL     1     -90.304 -17.741  12.577  1.00  0.00    -0.352 OA
HETATM   28  C12 UNL     1     -91.180 -16.669  13.034  1.00  0.00     0.210 C 
ENDBRANCH   6  27
BRANCH  10  29
HETATM   29  C24 UNL     1     -85.606 -15.435   8.712  1.00  0.00     0.126 A 
HETATM   30  C25 UNL     1     -84.197 -15.915   9.035  1.00  0.00     0.068 A 
HETATM   31  C26 UNL     1     -84.652 -14.530   9.351  1.00  0.00     0.195 A 
HETATM   32  F1  UNL     1     -84.791 -14.218  10.681  1.00  0.00    -0.247 F 
ENDBRANCH  10  29
BRANCH   1  33
HETATM   33  C3  UNL     1     -87.211 -17.166   7.337  1.00  0.00     0.003 C 
BRANCH  33  34
HETATM   34  C2  UNL     1     -87.675 -16.885   5.993  1.00  0.00     0.025 C 
HETATM   35  C1  UNL     1     -87.951 -15.362   5.831  1.00  0.00     0.009 C 
ENDBRANCH  33  34
ENDBRANCH   1  33
BRANCH   5  36
HETATM   36  O2  UNL     1     -92.136 -18.973  11.096  1.00  0.00    -0.351 OA
HETATM   37  C10 UNL     1     -93.417 -18.465  10.993  1.00  0.00     0.210 C 
ENDBRANCH   5  36
BRANCH   4  38
HETATM   38  O1  UNL     1     -91.791 -19.262   8.444  1.00  0.00    -0.353 OA
HETATM   39  C8  UNL     1     -91.941 -20.594   8.105  1.00  0.00     0.210 C 
ENDBRANCH   4  38
TORSDOF 10
ENDMDL
MODEL 2
REMARK VINA RESULT: -8.336871415      3.177      4.394
REMARK  10 active torsions:
REMARK  status: ('A' for Active; 'I' for Inactive)
REMARK    1  A    between atoms: C2_2  and  C3_3 
REMARK    2  A    between atoms: C3_3  and  C4_4 
REMARK    3  A    between atoms: C7_7  and  O1_8 
REMARK    4  A    between atoms: C9_10  and  O2_11 
REMARK    5  A    between atoms: C11_13  and  O3_14 
REMARK    6  A    between atoms: C14_17  and  C15_18 
REMARK    7  A    between atoms: C15_18  and  S1_19 
REMARK    8  A    between atoms: S1_19  and  C16_20 
REMARK    9  A    between atoms: C20_26  and  N2_27 
REMARK   10  A    between atoms: N4_35  and  C24_36 
ROOT
HETATM    1  C4  UNL     1     -87.716 -16.990   8.335  1.00  0.00     0.042 A 
HETATM    2  C5  UNL     1     -88.763 -17.580   9.140  1.00  0.00     0.007 A 
HETATM    3  C6  UNL     1     -89.777 -18.256   8.461  1.00  0.00     0.054 A 
HETATM    4  C7  UNL     1     -90.908 -18.717   9.121  1.00  0.00     0.105 A 
HETATM    5  C9  UNL     1     -91.043 -18.510  10.461  1.00  0.00     0.136 A 
HETATM    6  C11 UNL     1     -90.000 -17.815  11.131  1.00  0.00     0.116 A 
HETATM    7  C13 UNL     1     -88.890 -17.349  10.525  1.00  0.00     0.021 A 
HETATM    8  C14 UNL     1     -87.952 -16.476  11.225  1.00  0.00    -0.019 A 
HETATM    9  C23 UNL     1     -86.998 -15.929  10.465  1.00  0.00     0.100 A 
HETATM   10  N4  UNL     1     -86.814 -16.116   9.103  1.00  0.00    -0.348 N 
ENDROOT
BRANCH   8  11
HETATM   11  C15 UNL     1     -88.113 -16.092  12.635  1.00  0.00     0.120 C 
BRANCH  11  12
HETATM   12  S1  UNL     1     -86.814 -16.598  13.727  1.00  0.00    -0.125 SA
BRANCH  12  13
HETATM   13  C16 UNL     1     -85.315 -15.683  13.451  1.00  0.00     0.003 A 
HETATM   14  C17 UNL     1     -84.223 -16.379  12.931  1.00  0.00     0.021 A 
HETATM   15  C18 UNL     1     -82.991 -15.786  12.773  1.00  0.00     0.034 A 
HETATM   16  C19 UNL     1     -82.857 -14.457  13.149  1.00  0.00     0.076 A 
HETATM   17  N1  UNL     1     -81.739 -13.679  13.112  1.00  0.00    -0.190 N 
HETATM   18  C21 UNL     1     -83.910 -13.745  13.662  1.00  0.00     0.077 A 
HETATM   19  C20 UNL     1     -82.128 -12.472  13.615  1.00  0.00     0.676 A 
ATOM     20  H1  UNL     1     -80.811 -13.943  12.780  1.00  0.00     0.184 HD
HETATM   21  N3  UNL     1     -83.421 -12.527  13.937  1.00  0.00    -0.190 N 
ATOM     22  H3  UNL     1     -83.959 -11.756  14.334  1.00  0.00     0.184 HD
HETATM   23  C22 UNL     1     -85.129 -14.358  13.809  1.00  0.00     0.051 A 
BRANCH  19  24
HETATM   24  N2  UNL     1     -81.290 -11.482  13.735  1.00  0.00    -0.234 N 
ATOM     25  H22 UNL     1     -80.926 -10.854  13.019  1.00  0.00     0.174 HD
ATOM     26  H21 UNL     1     -80.898 -11.221  14.641  1.00  0.00     0.174 HD
ENDBRANCH  19  24
ENDBRANCH  12  13
ENDBRANCH  11  12
ENDBRANCH   8  11
BRANCH   6  27
HETATM   27  O3  UNL     1     -90.298 -17.677  12.470  1.00  0.00    -0.352 OA
HETATM   28  C12 UNL     1     -91.158 -16.585  12.910  1.00  0.00     0.210 C 
ENDBRANCH   6  27
BRANCH  10  29
HETATM   29  C24 UNL     1     -85.733 -15.504   8.375  1.00  0.00     0.126 A 
HETATM   30  C25 UNL     1     -84.321 -16.027   8.606  1.00  0.00     0.068 A 
HETATM   31  C26 UNL     1     -84.718 -14.634   8.965  1.00  0.00     0.195 A 
HETATM   32  F1  UNL     1     -84.768 -14.336  10.305  1.00  0.00    -0.247 F 
ENDBRANCH  10  29
BRANCH   1  33
HETATM   33  C3  UNL     1     -87.366 -17.300   7.121  1.00  0.00     0.003 C 
BRANCH  33  34
HETATM   34  C2  UNL     1     -87.662 -16.837   5.779  1.00  0.00     0.025 C 
HETATM   35  C1  UNL     1     -88.707 -15.684   5.830  1.00  0.00     0.009 C 
ENDBRANCH  33  34
ENDBRANCH   1  33
BRANCH   5  36
HETATM   36  O2  UNL     1     -92.165 -18.980  11.096  1.00  0.00    -0.351 OA
HETATM   37  C10 UNL     1     -93.450 -18.481  11.015  1.00  0.00     0.210 C 
ENDBRANCH   5  36
BRANCH   4  38
HETATM   38  O1  UNL     1     -91.896 -19.376   8.449  1.00  0.00    -0.353 OA
HETATM   39  C8  UNL     1     -92.023 -20.715   8.127  1.00  0.00     0.210 C 
ENDBRANCH   4  38
TORSDOF 10
ENDMDL
MODEL 3
REMARK VINA RESULT: -8.296007123      1.227      1.551
REMARK  10 active torsions:
REMARK  status: ('A' for Active; 'I' for Inactive)
REMARK    1  A    between atoms: C2_2  and  C3_3 
REMARK    2  A    between atoms: C3_3  and  C4_4 
REMARK    3  A    between atoms: C7_7  and  O1_8 
REMARK    4  A    between atoms: C9_10  and  O2_11 
REMARK    5  A    between atoms: C11_13  and  O3_14 
REMARK    6  A    between atoms: C14_17  and  C15_18 
REMARK    7  A    between atoms: C15_18  and  S1_19 
REMARK    8  A    between atoms: S1_19  and  C16_20 
REMARK    9  A    between atoms: C20_26  and  N2_27 
REMARK   10  A    between atoms: N4_35  and  C24_36 
ROOT
HETATM    1  C4  UNL     1     -87.620 -16.871   8.346  1.00  0.00     0.042 A 
HETATM    2  C5  UNL     1     -88.651 -17.489   9.150  1.00  0.00     0.007 A 
HETATM    3  C6  UNL     1     -89.684 -18.133   8.467  1.00  0.00     0.054 A 
HETATM    4  C7  UNL     1     -90.802 -18.617   9.133  1.00  0.00     0.105 A 
HETATM    5  C9  UNL     1     -90.904 -18.465  10.484  1.00  0.00     0.136 A 
HETATM    6  C11 UNL     1     -89.844 -17.801  11.157  1.00  0.00     0.116 A 
HETATM    7  C13 UNL     1     -88.745 -17.315  10.546  1.00  0.00     0.021 A 
HETATM    8  C14 UNL     1     -87.788 -16.475  11.260  1.00  0.00    -0.019 A 
HETATM    9  C23 UNL     1     -86.848 -15.901  10.501  1.00  0.00     0.100 A 
HETATM   10  N4  UNL     1     -86.696 -16.032   9.128  1.00  0.00    -0.348 N 
ENDROOT
BRANCH   8  11
HETATM   11  C15 UNL     1     -87.914 -16.150  12.687  1.00  0.00     0.120 C 
BRANCH  11  12
HETATM   12  S1  UNL     1     -86.631 -16.771  13.739  1.00  0.00    -0.125 SA
BRANCH  12  13
HETATM   13  C16 UNL     1     -87.226 -18.026  14.848  1.00  0.00     0.003 A 
HETATM   14  C17 UNL     1     -87.280 -17.712  16.207  1.00  0.00     0.021 A 
HETATM   15  C18 UNL     1     -87.633 -18.645  17.156  1.00  0.00     0.034 A 
HETATM   16  C19 UNL     1     -87.938 -19.927  16.723  1.00  0.00     0.076 A 
HETATM   17  N1  UNL     1     -88.280 -21.010  17.475  1.00  0.00    -0.190 N 
HETATM   18  C21 UNL     1     -87.896 -20.268  15.396  1.00  0.00     0.077 A 
HETATM   19  C20 UNL     1     -88.447 -22.027  16.580  1.00  0.00     0.676 A 
ATOM     20  H1  UNL     1     -88.388 -21.053  18.489  1.00  0.00     0.184 HD
HETATM   21  N3  UNL     1     -88.215 -21.569  15.348  1.00  0.00    -0.190 N 
ATOM     22  H3  UNL     1     -88.272 -22.127  14.497  1.00  0.00     0.184 HD
HETATM   23  C22 UNL     1     -87.543 -19.320  14.469  1.00  0.00     0.051 A 
BRANCH  19  24
HETATM   24  N2  UNL     1     -88.771 -23.228  16.966  1.00  0.00    -0.234 N 
ATOM     25  H22 UNL     1     -89.217 -23.529  17.832  1.00  0.00     0.174 HD
ATOM     26  H21 UNL     1     -88.599 -24.042  16.376  1.00  0.00     0.174 HD
ENDBRANCH  19  24
ENDBRANCH  12  13
ENDBRANCH  11  12
ENDBRANCH   8  11
BRANCH   6  27
HETATM   27  O3  UNL     1     -90.110 -17.718  12.507  1.00  0.00    -0.352 OA
HETATM   28  C12 UNL     1     -90.924 -16.621  13.017  1.00  0.00     0.210 C 
ENDBRANCH   6  27
BRANCH  10  29
HETATM   29  C24 UNL     1     -85.630 -15.395   8.401  1.00  0.00     0.126 A 
HETATM   30  C25 UNL     1     -84.239 -16.011   8.475  1.00  0.00     0.068 A 
HETATM   31  C26 UNL     1     -84.532 -14.652   9.015  1.00  0.00     0.195 A 
HETATM   32  F1  UNL     1     -84.480 -14.510  10.380  1.00  0.00    -0.247 F 
ENDBRANCH  10  29
BRANCH   1  33
HETATM   33  C3  UNL     1     -87.299 -17.131   7.112  1.00  0.00     0.003 C 
BRANCH  33  34
HETATM   34  C2  UNL     1     -87.578 -16.575   5.802  1.00  0.00     0.025 C 
HETATM   35  C1  UNL     1     -88.846 -15.674   5.863  1.00  0.00     0.009 C 
ENDBRANCH  33  34
ENDBRANCH   1  33
BRANCH   5  36
HETATM   36  O2  UNL     1     -92.014 -18.956  11.125  1.00  0.00    -0.351 OA
HETATM   37  C10 UNL     1     -93.292 -18.432  11.119  1.00  0.00     0.210 C 
ENDBRANCH   5  36
BRANCH   4  38
HETATM   38  O1  UNL     1     -91.808 -19.243   8.458  1.00  0.00    -0.353 OA
HETATM   39  C8  UNL     1     -91.975 -20.577   8.133  1.00  0.00     0.210 C 
ENDBRANCH   4  38
TORSDOF 10
ENDMDL
MODEL 4
REMARK VINA RESULT: -8.196511507      3.624      7.369
REMARK  10 active torsions:
REMARK  status: ('A' for Active; 'I' for Inactive)
REMARK    1  A    between atoms: C2_2  and  C3_3 
REMARK    2  A    between atoms: C3_3  and  C4_4 
REMARK    3  A    between atoms: C7_7  and  O1_8 
REMARK    4  A    between atoms: C9_10  and  O2_11 
REMARK    5  A    between atoms: C11_13  and  O3_14 
REMARK    6  A    between atoms: C14_17  and  C15_18 
REMARK    7  A    between atoms: C15_18  and  S1_19 
REMARK    8  A    between atoms: S1_19  and  C16_20 
REMARK    9  A    between atoms: C20_26  and  N2_27 
REMARK   10  A    between atoms: N4_35  and  C24_36 
ROOT
HETATM    1  C4  UNL     1     -89.342 -17.251   9.000  1.00  0.00     0.042 A 
HETATM    2  C5  UNL     1     -88.691 -17.487  10.270  1.00  0.00     0.007 A 
HETATM    3  C6  UNL     1     -89.516 -17.591  11.392  1.00  0.00     0.054 A 
HETATM    4  C7  UNL     1     -88.989 -17.655  12.675  1.00  0.00     0.105 A 
HETATM    5  C9  UNL     1     -87.639 -17.615  12.856  1.00  0.00     0.136 A 
HETATM    6  C11 UNL     1     -86.820 -17.503  11.700  1.00  0.00     0.116 A 
HETATM    7  C13 UNL     1     -87.293 -17.435  10.440  1.00  0.00     0.021 A 
HETATM    8  C14 UNL     1     -86.416 -17.125   9.315  1.00  0.00    -0.019 A 
HETATM    9  C23 UNL     1     -87.032 -16.898   8.150  1.00  0.00     0.100 A 
HETATM   10  N4  UNL     1     -88.398 -16.936   7.914  1.00  0.00    -0.348 N 
ENDROOT
BRANCH   8  11
HETATM   11  C15 UNL     1     -84.967 -16.926   9.459  1.00  0.00     0.120 C 
BRANCH  11  12
HETATM   12  S1  UNL     1     -84.323 -15.417   8.792  1.00  0.00    -0.125 SA
BRANCH  12  13
HETATM   13  C16 UNL     1     -83.654 -15.639   7.161  1.00  0.00     0.003 A 
HETATM   14  C17 UNL     1     -84.547 -15.604   6.088  1.00  0.00     0.021 A 
HETATM   15  C18 UNL     1     -84.144 -15.862   4.797  1.00  0.00     0.034 A 
HETATM   16  C19 UNL     1     -82.807 -16.165   4.583  1.00  0.00     0.076 A 
HETATM   17  N1  UNL     1     -82.193 -16.481   3.409  1.00  0.00    -0.190 N 
HETATM   18  C21 UNL     1     -81.904 -16.207   5.614  1.00  0.00     0.077 A 
HETATM   19  C20 UNL     1     -80.891 -16.719   3.740  1.00  0.00     0.676 A 
ATOM     20  H1  UNL     1     -82.615 -16.529   2.481  1.00  0.00     0.184 HD
HETATM   21  N3  UNL     1     -80.735 -16.552   5.055  1.00  0.00    -0.190 N 
ATOM     22  H3  UNL     1     -79.857 -16.670   5.559  1.00  0.00     0.184 HD
HETATM   23  C22 UNL     1     -82.330 -15.944   6.891  1.00  0.00     0.051 A 
BRANCH  19  24
HETATM   24  N2  UNL     1     -80.012 -17.064   2.844  1.00  0.00    -0.234 N 
ATOM     25  H22 UNL     1     -80.127 -17.657   2.022  1.00  0.00     0.174 HD
ATOM     26  H21 UNL     1     -79.048 -16.733   2.886  1.00  0.00     0.174 HD
ENDBRANCH  19  24
ENDBRANCH  12  13
ENDBRANCH  11  12
ENDBRANCH   8  11
BRANCH   6  27
HETATM   27  O3  UNL     1     -85.489 -17.461  12.058  1.00  0.00    -0.352 OA
HETATM   28  C12 UNL     1     -84.824 -18.678  12.510  1.00  0.00     0.210 C 
ENDBRANCH   6  27
BRANCH  10  29
HETATM   29  C24 UNL     1     -88.967 -16.706   6.612  1.00  0.00     0.126 A 
HETATM   30  C25 UNL     1     -88.079 -16.909   5.391  1.00  0.00     0.068 A 
HETATM   31  C26 UNL     1     -88.640 -15.573   5.748  1.00  0.00     0.195 A 
HETATM   32  F1  UNL     1     -87.743 -14.625   6.175  1.00  0.00    -0.247 F 
ENDBRANCH  10  29
BRANCH   1  33
HETATM   33  C3  UNL     1     -90.578 -17.489   8.674  1.00  0.00     0.003 C 
BRANCH  33  34
HETATM   34  C2  UNL     1     -91.840 -16.776   8.704  1.00  0.00     0.025 C 
HETATM   35  C1  UNL     1     -92.847 -17.511   9.636  1.00  0.00     0.009 C 
ENDBRANCH  33  34
ENDBRANCH   1  33
BRANCH   5  36
HETATM   36  O2  UNL     1     -87.138 -17.687  14.131  1.00  0.00    -0.351 OA
HETATM   37  C10 UNL     1     -86.864 -16.640  14.989  1.00  0.00     0.210 C 
ENDBRANCH   5  36
BRANCH   4  38
HETATM   38  O1  UNL     1     -89.802 -17.755  13.765  1.00  0.00    -0.353 OA
HETATM   39  C8  UNL     1     -90.569 -16.797  14.403  1.00  0.00     0.210 C 
ENDBRANCH   4  38
TORSDOF 10
ENDMDL
MODEL 5
REMARK VINA RESULT: -8.029973404      1.551      2.039
REMARK  10 active torsions:
REMARK  status: ('A' for Active; 'I' for Inactive)
REMARK    1  A    between atoms: C2_2  and  C3_3 
REMARK    2  A    between atoms: C3_3  and  C4_4 
REMARK    3  A    between atoms: C7_7  and  O1_8 
REMARK    4  A    between atoms: C9_10  and  O2_11 
REMARK    5  A    between atoms: C11_13  and  O3_14 
REMARK    6  A    between atoms: C14_17  and  C15_18 
REMARK    7  A    between atoms: C15_18  and  S1_19 
REMARK    8  A    between atoms: S1_19  and  C16_20 
REMARK    9  A    between atoms: C20_26  and  N2_27 
REMARK   10  A    between atoms: N4_35  and  C24_36 
ROOT
HETATM    1  C4  UNL     1     -86.394 -16.975   9.523  1.00  0.00     0.042 A 
HETATM    2  C5  UNL     1     -87.797 -17.287   9.686  1.00  0.00     0.007 A 
HETATM    3  C6  UNL     1     -88.602 -17.191   8.549  1.00  0.00     0.054 A 
HETATM    4  C7  UNL     1     -89.983 -17.310   8.627  1.00  0.00     0.105 A 
HETATM    5  C9  UNL     1     -90.578 -17.524   9.834  1.00  0.00     0.136 A 
HETATM    6  C11 UNL     1     -89.740 -17.613  10.978  1.00  0.00     0.116 A 
HETATM    7  C13 UNL     1     -88.397 -17.499  10.943  1.00  0.00     0.021 A 
HETATM    8  C14 UNL     1     -87.611 -17.404  12.170  1.00  0.00    -0.019 A 
HETATM    9  C23 UNL     1     -86.319 -17.104  12.004  1.00  0.00     0.100 A 
HETATM   10  N4  UNL     1     -85.666 -16.886  10.800  1.00  0.00    -0.348 N 
ENDROOT
BRANCH   8  11
HETATM   11  C15 UNL     1     -88.206 -17.483  13.512  1.00  0.00     0.120 C 
BRANCH  11  12
HETATM   12  S1  UNL     1     -87.119 -18.001  14.811  1.00  0.00    -0.125 SA
BRANCH  12  13
HETATM   13  C16 UNL     1     -86.964 -19.770  14.885  1.00  0.00     0.003 A 
HETATM   14  C17 UNL     1     -85.788 -20.335  14.389  1.00  0.00     0.021 A 
HETATM   15  C18 UNL     1     -85.611 -21.698  14.311  1.00  0.00     0.034 A 
HETATM   16  C19 UNL     1     -86.647 -22.512  14.744  1.00  0.00     0.076 A 
HETATM   17  N1  UNL     1     -86.709 -23.873  14.735  1.00  0.00    -0.190 N 
HETATM   18  C21 UNL     1     -87.815 -21.990  15.238  1.00  0.00     0.077 A 
HETATM   19  C20 UNL     1     -87.942 -24.177  15.233  1.00  0.00     0.676 A 
ATOM     20  H1  UNL     1     -85.989 -24.524  14.422  1.00  0.00     0.184 HD
HETATM   21  N3  UNL     1     -88.588 -23.047  15.528  1.00  0.00    -0.190 N 
ATOM     22  H3  UNL     1     -89.529 -22.995  15.916  1.00  0.00     0.184 HD
HETATM   23  C22 UNL     1     -87.966 -20.628  15.307  1.00  0.00     0.051 A 
BRANCH  19  24
HETATM   24  N2  UNL     1     -88.344 -25.410  15.353  1.00  0.00    -0.234 N 
ATOM     25  H22 UNL     1     -89.094 -25.895  14.861  1.00  0.00     0.174 HD
ATOM     26  H21 UNL     1     -87.894 -26.057  16.001  1.00  0.00     0.174 HD
ENDBRANCH  19  24
ENDBRANCH  12  13
ENDBRANCH  11  12
ENDBRANCH   8  11
BRANCH   6  27
HETATM   27  O3  UNL     1     -90.496 -17.816  12.113  1.00  0.00    -0.352 OA
HETATM   28  C12 UNL     1     -91.243 -16.704  12.690  1.00  0.00     0.210 C 
ENDBRANCH   6  27
BRANCH  10  29
HETATM   29  C24 UNL     1     -84.259 -16.597  10.721  1.00  0.00     0.126 A 
HETATM   30  C25 UNL     1     -83.607 -15.864  11.886  1.00  0.00     0.068 A 
HETATM   31  C26 UNL     1     -83.693 -15.264  10.523  1.00  0.00     0.195 A 
HETATM   32  F1  UNL     1     -84.525 -14.181  10.380  1.00  0.00    -0.247 F 
ENDBRANCH  10  29
BRANCH   1  33
HETATM   33  C3  UNL     1     -85.692 -16.982   8.428  1.00  0.00     0.003 C 
BRANCH  33  34
HETATM   34  C2  UNL     1     -85.441 -16.078   7.322  1.00  0.00     0.025 C 
HETATM   35  C1  UNL     1     -83.925 -16.073   6.969  1.00  0.00     0.009 C 
ENDBRANCH  33  34
ENDBRANCH   1  33
BRANCH   5  36
HETATM   36  O2  UNL     1     -91.943 -17.646   9.888  1.00  0.00    -0.351 OA
HETATM   37  C10 UNL     1     -92.686 -18.811   9.891  1.00  0.00     0.210 C 
ENDBRANCH   5  36
BRANCH   4  38
HETATM   38  O1  UNL     1     -90.762 -17.213   7.511  1.00  0.00    -0.353 OA
HETATM   39  C8  UNL     1     -90.702 -16.328   6.450  1.00  0.00     0.210 C 
ENDBRANCH   4  38
TORSDOF 10
ENDMDL
