MODEL 1
REMARK VINA RESULT: -9.510598181      0.000      0.000
REMARK  10 active torsions:
REMARK  status: ('A' for Active; 'I' for Inactive)
REMARK    1  A    between atoms: N1_2  and  C2_3 
REMARK    2  A    between atoms: N1_2  and  C17_25 
REMARK    3  A    between atoms: C6_7  and  N2_8 
REMARK    4  A    between atoms: N2_8  and  C7_10 
REMARK    5  A    between atoms: C7_10  and  C8_11 
REMARK    6  A    between atoms: C8_11  and  C9_12 
REMARK    7  A    between atoms: C17_25  and  C18_26 
REMARK    8  A    between atoms: C17_25  and  C19_33 
REMARK    9  A    between atoms: C18_26  and  O1_27 
REMARK   10  A    between atoms: N5_29  and  O2_31 
ROOT
HETATM    1  C2  UNL     1     -88.610 -15.451  11.504  1.00  0.00     0.105 A 
HETATM    2  C3  UNL     1     -88.574 -14.084  11.378  1.00  0.00     0.048 A 
HETATM    3  C4  UNL     1     -87.358 -13.440  11.450  1.00  0.00     0.007 A 
HETATM    4  C5  UNL     1     -86.197 -14.151  11.643  1.00  0.00     0.048 A 
HETATM    5  C6  UNL     1     -86.244 -15.523  11.766  1.00  0.00     0.102 A 
HETATM    6  N4  UNL     1     -87.454 -16.107  11.691  1.00  0.00    -0.329 N 
ATOM      7  H4  UNL     1     -87.496 -17.122  11.782  1.00  0.00     0.169 HD
ENDROOT
BRANCH   1   8
HETATM    8  N1  UNL     1     -89.855 -16.127  11.424  1.00  0.00    -0.355 N 
HETATM    9  C1  UNL     1     -90.971 -15.395  10.833  1.00  0.00     0.152 C 
BRANCH   8  10
HETATM   10  C17 UNL     1     -90.120 -17.469  11.870  1.00  0.00     0.195 C 
BRANCH  10  11
HETATM   11  C18 UNL     1     -90.797 -17.573  13.165  1.00  0.00     0.163 C 
HETATM   12  N5  UNL     1     -90.770 -16.621  14.042  1.00  0.00    -0.249 N 
ATOM     13  H5  UNL     1     -90.255 -15.773  13.808  1.00  0.00     0.196 HD
BRANCH  11  14
HETATM   14  O1  UNL     1     -91.507 -18.706  13.525  1.00  0.00    -0.346 OA
ATOM     15  H1  UNL     1     -92.294 -18.654  14.054  1.00  0.00     0.219 HD
ENDBRANCH  11  14
BRANCH  12  16
HETATM   16  O2  UNL     1     -91.380 -16.676  15.245  1.00  0.00    -0.288 OA
ATOM     17  H2  UNL     1     -91.666 -15.915  15.737  1.00  0.00     0.244 HD
ENDBRANCH  12  16
ENDBRANCH  10  11
BRANCH  10  18
HETATM   18  C19 UNL     1     -90.726 -18.334  10.815  1.00  0.00    -0.028 A 
HETATM   19  C20 UNL     1     -89.962 -18.836   9.801  1.00  0.00     0.010 A 
HETATM   20  C21 UNL     1     -90.491 -19.650   8.795  1.00  0.00     0.001 A 
HETATM   21  C22 UNL     1     -91.831 -19.949   8.832  1.00  0.00     0.000 A 
HETATM   22  C23 UNL     1     -92.635 -19.462   9.837  1.00  0.00     0.001 A 
HETATM   23  C24 UNL     1     -92.080 -18.655  10.824  1.00  0.00     0.010 A 
ENDBRANCH  10  18
ENDBRANCH   8  10
ENDBRANCH   1   8
BRANCH   5  24
HETATM   24  N2  UNL     1     -85.165 -16.215  11.939  1.00  0.00    -0.376 N 
ATOM     25  H2  UNL     1     -85.029 -16.631  12.861  1.00  0.00     0.161 HD
BRANCH  24  26
HETATM   26  C7  UNL     1     -84.150 -16.454  10.972  1.00  0.00     0.126 C 
BRANCH  26  27
HETATM   27  C8  UNL     1     -84.664 -17.129   9.721  1.00  0.00     0.060 C 
BRANCH  27  28
HETATM   28  C9  UNL     1     -84.643 -16.226   8.543  1.00  0.00    -0.029 A 
HETATM   29  C10 UNL     1     -83.540 -15.624   7.959  1.00  0.00     0.096 A 
HETATM   30  N3  UNL     1     -83.992 -14.899   6.922  1.00  0.00    -0.365 N 
HETATM   31  C11 UNL     1     -85.329 -15.019   6.831  1.00  0.00     0.043 A 
ATOM     32  H3  UNL     1     -83.409 -14.342   6.298  1.00  0.00     0.165 HD
HETATM   33  C12 UNL     1     -86.280 -14.483   5.955  1.00  0.00     0.031 A 
HETATM   34  C16 UNL     1     -85.782 -15.846   7.834  1.00  0.00    -0.001 A 
HETATM   35  C13 UNL     1     -87.619 -14.796   6.124  1.00  0.00     0.021 A 
HETATM   36  C14 UNL     1     -88.055 -15.629   7.137  1.00  0.00     0.011 A 
HETATM   37 BR1  UNL     1     -89.878 -16.077   7.398  1.00  0.00    -0.051 Br
HETATM   38  C15 UNL     1     -87.124 -16.162   8.004  1.00  0.00     0.033 A 
ENDBRANCH  27  28
ENDBRANCH  26  27
ENDBRANCH  24  26
ENDBRANCH   5  24
TORSDOF 10
ENDMDL
MODEL 2
REMARK VINA RESULT: -9.018277559      1.402      2.026
REMARK  10 active torsions:
REMARK  status: ('A' for Active; 'I' for Inactive)
REMARK    1  A    between atoms: N1_2  and  C2_3 
REMARK    2  A    between atoms: N1_2  and  C17_25 
REMARK    3  A    between atoms: C6_7  and  N2_8 
REMARK    4  A    between atoms: N2_8  and  C7_10 
REMARK    5  A    between atoms: C7_10  and  C8_11 
REMARK    6  A    between atoms: C8_11  and  C9_12 
REMARK    7  A    between atoms: C17_25  and  C18_26 
REMARK    8  A    between atoms: C17_25  and  C19_33 
REMARK    9  A    between atoms: C18_26  and  O1_27 
REMARK   10  A    between atoms: N5_29  and  O2_31 
ROOT
HETATM    1  C2  UNL     1     -87.321 -17.341  12.160  1.00  0.00     0.105 A 
HETATM    2  C3  UNL     1     -86.953 -17.862  13.377  1.00  0.00     0.048 A 
HETATM    3  C4  UNL     1     -85.628 -18.164  13.600  1.00  0.00     0.007 A 
HETATM    4  C5  UNL     1     -84.684 -17.947  12.623  1.00  0.00     0.048 A 
HETATM    5  C6  UNL     1     -85.063 -17.422  11.407  1.00  0.00     0.102 A 
HETATM    6  N4  UNL     1     -86.368 -17.145  11.235  1.00  0.00    -0.329 N 
ATOM      7  H4  UNL     1     -86.655 -16.758  10.336  1.00  0.00     0.169 HD
ENDROOT
BRANCH   1   8
HETATM    8  N1  UNL     1     -88.681 -17.020  11.920  1.00  0.00    -0.355 N 
HETATM    9  C1  UNL     1     -88.953 -15.791  11.179  1.00  0.00     0.152 C 
BRANCH   8  10
HETATM   10  C17 UNL     1     -89.820 -17.793  12.337  1.00  0.00     0.195 C 
BRANCH  10  11
HETATM   11  C18 UNL     1     -90.727 -17.116  13.266  1.00  0.00     0.163 C 
HETATM   12  N5  UNL     1     -90.683 -17.309  14.545  1.00  0.00    -0.249 N 
ATOM     13  H5  UNL     1     -89.986 -17.960  14.905  1.00  0.00     0.196 HD
BRANCH  11  14
HETATM   14  O1  UNL     1     -91.690 -16.225  12.823  1.00  0.00    -0.346 OA
ATOM     15  H1  UNL     1     -92.073 -15.576  13.401  1.00  0.00     0.219 HD
ENDBRANCH  11  14
BRANCH  12  16
HETATM   16  O2  UNL     1     -91.500 -16.706  15.436  1.00  0.00    -0.288 OA
ATOM     17  H2  UNL     1     -91.322 -16.638  16.366  1.00  0.00     0.244 HD
ENDBRANCH  12  16
ENDBRANCH  10  11
BRANCH  10  18
HETATM   18  C19 UNL     1     -90.526 -18.464  11.205  1.00  0.00    -0.028 A 
HETATM   19  C20 UNL     1     -89.826 -18.966  10.146  1.00  0.00     0.010 A 
HETATM   20  C21 UNL     1     -90.449 -19.601   9.068  1.00  0.00     0.001 A 
HETATM   21  C22 UNL     1     -91.818 -19.720   9.080  1.00  0.00     0.000 A 
HETATM   22  C23 UNL     1     -92.559 -19.227  10.129  1.00  0.00     0.001 A 
HETATM   23  C24 UNL     1     -91.911 -18.600  11.188  1.00  0.00     0.010 A 
ENDBRANCH  10  18
ENDBRANCH   8  10
ENDBRANCH   1   8
BRANCH   5  24
HETATM   24  N2  UNL     1     -84.192 -17.201  10.475  1.00  0.00    -0.376 N 
ATOM     25  H2  UNL     1     -83.210 -17.239  10.746  1.00  0.00     0.161 HD
BRANCH  24  26
HETATM   26  C7  UNL     1     -84.470 -16.911   9.111  1.00  0.00     0.126 C 
BRANCH  26  27
HETATM   27  C8  UNL     1     -84.801 -15.456   8.866  1.00  0.00     0.060 C 
BRANCH  27  28
HETATM   28  C9  UNL     1     -85.230 -15.202   7.468  1.00  0.00    -0.029 A 
HETATM   29  C10 UNL     1     -84.436 -14.831   6.394  1.00  0.00     0.096 A 
HETATM   30  N3  UNL     1     -85.246 -14.717   5.328  1.00  0.00    -0.365 N 
HETATM   31  C11 UNL     1     -86.512 -15.000   5.686  1.00  0.00     0.043 A 
ATOM     32  H3  UNL     1     -84.947 -14.456   4.389  1.00  0.00     0.165 HD
HETATM   33  C12 UNL     1     -87.721 -15.029   4.983  1.00  0.00     0.031 A 
HETATM   34  C16 UNL     1     -86.548 -15.311   7.027  1.00  0.00    -0.001 A 
HETATM   35  C13 UNL     1     -88.891 -15.362   5.646  1.00  0.00     0.021 A 
HETATM   36  C14 UNL     1     -88.908 -15.672   6.993  1.00  0.00     0.011 A 
HETATM   37 BR1  UNL     1     -90.489 -16.131   7.932  1.00  0.00    -0.051 Br
HETATM   38  C15 UNL     1     -87.720 -15.646   7.693  1.00  0.00     0.033 A 
ENDBRANCH  27  28
ENDBRANCH  26  27
ENDBRANCH  24  26
ENDBRANCH   5  24
TORSDOF 10
ENDMDL
MODEL 3
REMARK VINA RESULT: -8.957604803      2.048      5.000
REMARK  10 active torsions:
REMARK  status: ('A' for Active; 'I' for Inactive)
REMARK    1  A    between atoms: N1_2  and  C2_3 
REMARK    2  A    between atoms: N1_2  and  C17_25 
REMARK    3  A    between atoms: C6_7  and  N2_8 
REMARK    4  A    between atoms: N2_8  and  C7_10 
REMARK    5  A    between atoms: C7_10  and  C8_11 
REMARK    6  A    between atoms: C8_11  and  C9_12 
REMARK    7  A    between atoms: C17_25  and  C18_26 
REMARK    8  A    between atoms: C17_25  and  C19_33 
REMARK    9  A    between atoms: C18_26  and  O1_27 
REMARK   10  A    between atoms: N5_29  and  O2_31 
ROOT
HETATM    1  C2  UNL     1     -90.523 -17.592  11.330  1.00  0.00     0.105 A 
HETATM    2  C3  UNL     1     -91.081 -18.845  11.250  1.00  0.00     0.048 A 
HETATM    3  C4  UNL     1     -91.828 -19.172  10.140  1.00  0.00     0.007 A 
HETATM    4  C5  UNL     1     -92.013 -18.262   9.124  1.00  0.00     0.048 A 
HETATM    5  C6  UNL     1     -91.447 -17.009   9.214  1.00  0.00     0.102 A 
HETATM    6  N4  UNL     1     -90.729 -16.735  10.317  1.00  0.00    -0.329 N 
ATOM      7  H4  UNL     1     -90.309 -15.808  10.390  1.00  0.00     0.169 HD
ENDROOT
BRANCH   1   8
HETATM    8  N1  UNL     1     -89.747 -17.244  12.465  1.00  0.00    -0.355 N 
HETATM    9  C1  UNL     1     -88.740 -18.208  12.901  1.00  0.00     0.152 C 
BRANCH   8  10
HETATM   10  C17 UNL     1     -89.856 -16.029  13.227  1.00  0.00     0.195 C 
BRANCH  10  11
HETATM   11  C18 UNL     1     -89.931 -16.208  14.678  1.00  0.00     0.163 C 
HETATM   12  N5  UNL     1     -88.942 -15.927  15.466  1.00  0.00    -0.249 N 
ATOM     13  H5  UNL     1     -88.086 -15.568  15.045  1.00  0.00     0.196 HD
BRANCH  11  14
HETATM   14  O1  UNL     1     -91.073 -16.693  15.293  1.00  0.00    -0.346 OA
ATOM     15  H1  UNL     1     -91.110 -16.842  16.230  1.00  0.00     0.219 HD
ENDBRANCH  11  14
BRANCH  12  16
HETATM   16  O2  UNL     1     -88.970 -16.077  16.807  1.00  0.00    -0.288 OA
ATOM     17  H2  UNL     1     -88.294 -15.761  17.396  1.00  0.00     0.244 HD
ENDBRANCH  12  16
ENDBRANCH  10  11
BRANCH  10  18
HETATM   18  C19 UNL     1     -88.879 -14.979  12.810  1.00  0.00    -0.028 A 
HETATM   19  C20 UNL     1     -87.876 -15.270  11.931  1.00  0.00     0.010 A 
HETATM   20  C21 UNL     1     -86.943 -14.315  11.515  1.00  0.00     0.001 A 
HETATM   21  C22 UNL     1     -87.044 -13.040  12.016  1.00  0.00     0.000 A 
HETATM   22  C23 UNL     1     -88.040 -12.708  12.905  1.00  0.00     0.001 A 
HETATM   23  C24 UNL     1     -88.954 -13.679  13.299  1.00  0.00     0.010 A 
ENDBRANCH  10  18
ENDBRANCH   8  10
ENDBRANCH   1   8
BRANCH   5  24
HETATM   24  N2  UNL     1     -91.600 -16.139   8.268  1.00  0.00    -0.376 N 
ATOM     25  H2  UNL     1     -92.520 -15.707   8.185  1.00  0.00     0.161 HD
BRANCH  24  26
HETATM   26  C7  UNL     1     -90.611 -15.726   7.333  1.00  0.00     0.126 C 
BRANCH  26  27
HETATM   27  C8  UNL     1     -89.282 -16.419   7.525  1.00  0.00     0.060 C 
BRANCH  27  28
HETATM   28  C9  UNL     1     -88.165 -15.687   6.876  1.00  0.00    -0.029 A 
HETATM   29  C10 UNL     1     -88.218 -14.903   5.734  1.00  0.00     0.096 A 
HETATM   30  N3  UNL     1     -86.976 -14.439   5.519  1.00  0.00    -0.365 N 
HETATM   31  C11 UNL     1     -86.146 -14.898   6.475  1.00  0.00     0.043 A 
ATOM     32  H3  UNL     1     -86.702 -13.831   4.748  1.00  0.00     0.165 HD
HETATM   33  C12 UNL     1     -84.779 -14.726   6.718  1.00  0.00     0.031 A 
HETATM   34  C16 UNL     1     -86.854 -15.689   7.351  1.00  0.00    -0.001 A 
HETATM   35  C13 UNL     1     -84.195 -15.346   7.810  1.00  0.00     0.021 A 
HETATM   36  C14 UNL     1     -84.921 -16.137   8.679  1.00  0.00     0.011 A 
HETATM   37 BR1  UNL     1     -84.154 -17.001  10.182  1.00  0.00    -0.051 Br
HETATM   38  C15 UNL     1     -86.270 -16.311   8.447  1.00  0.00     0.033 A 
ENDBRANCH  27  28
ENDBRANCH  26  27
ENDBRANCH  24  26
ENDBRANCH   5  24
TORSDOF 10
ENDMDL
MODEL 4
REMARK VINA RESULT: -8.833049448      2.388      4.582
REMARK  10 active torsions:
REMARK  status: ('A' for Active; 'I' for Inactive)
REMARK    1  A    between atoms: N1_2  and  C2_3 
REMARK    2  A    between atoms: N1_2  and  C17_25 
REMARK    3  A    between atoms: C6_7  and  N2_8 
REMARK    4  A    between atoms: N2_8  and  C7_10 
REMARK    5  A    between atoms: C7_10  and  C8_11 
REMARK    6  A    between atoms: C8_11  and  C9_12 
REMARK    7  A    between atoms: C17_25  and  C18_26 
REMARK    8  A    between atoms: C17_25  and  C19_33 
REMARK    9  A    between atoms: C18_26  and  O1_27 
REMARK   10  A    between atoms: N5_29  and  O2_31 
ROOT
HETATM    1  C2  UNL     1     -90.934 -16.526  11.883  1.00  0.00     0.105 A 
HETATM    2  C3  UNL     1     -90.982 -17.328  12.997  1.00  0.00     0.048 A 
HETATM    3  C4  UNL     1     -90.447 -16.861  14.178  1.00  0.00     0.007 A 
HETATM    4  C5  UNL     1     -89.874 -15.613  14.244  1.00  0.00     0.048 A 
HETATM    5  C6  UNL     1     -89.832 -14.815  13.121  1.00  0.00     0.102 A 
HETATM    6  N4  UNL     1     -90.366 -15.314  11.992  1.00  0.00    -0.329 N 
ATOM      7  H4  UNL     1     -90.337 -14.729  11.157  1.00  0.00     0.169 HD
ENDROOT
BRANCH   1   8
HETATM    8  N1  UNL     1     -91.488 -16.991  10.663  1.00  0.00    -0.355 N 
HETATM    9  C1  UNL     1     -92.847 -16.564  10.345  1.00  0.00     0.152 C 
BRANCH   8  10
HETATM   10  C17 UNL     1     -90.834 -17.844   9.706  1.00  0.00     0.195 C 
BRANCH  10  11
HETATM   11  C18 UNL     1     -91.653 -18.941   9.187  1.00  0.00     0.163 C 
HETATM   12  N5  UNL     1     -91.587 -19.336   7.956  1.00  0.00    -0.249 N 
ATOM     13  H5  UNL     1     -90.934 -18.857   7.337  1.00  0.00     0.196 HD
BRANCH  11  14
HETATM   14  O1  UNL     1     -92.553 -19.620   9.992  1.00  0.00    -0.346 OA
ATOM     15  H1  UNL     1     -92.305 -20.406  10.463  1.00  0.00     0.219 HD
ENDBRANCH  11  14
BRANCH  12  16
HETATM   16  O2  UNL     1     -92.323 -20.342   7.438  1.00  0.00    -0.288 OA
ATOM     17  H2  UNL     1     -92.630 -20.375   6.540  1.00  0.00     0.244 HD
ENDBRANCH  12  16
ENDBRANCH  10  11
BRANCH  10  18
HETATM   18  C19 UNL     1     -90.109 -17.091   8.640  1.00  0.00    -0.028 A 
HETATM   19  C20 UNL     1     -88.755 -17.200   8.508  1.00  0.00     0.010 A 
HETATM   20  C21 UNL     1     -88.040 -16.512   7.522  1.00  0.00     0.001 A 
HETATM   21  C22 UNL     1     -88.732 -15.696   6.660  1.00  0.00     0.000 A 
HETATM   22  C23 UNL     1     -90.097 -15.559   6.762  1.00  0.00     0.001 A 
HETATM   23  C24 UNL     1     -90.781 -16.257   7.752  1.00  0.00     0.010 A 
ENDBRANCH  10  18
ENDBRANCH   8  10
ENDBRANCH   1   8
BRANCH   5  24
HETATM   24  N2  UNL     1     -89.306 -13.634  13.161  1.00  0.00    -0.376 N 
ATOM     25  H2  UNL     1     -89.950 -12.843  13.141  1.00  0.00     0.161 HD
BRANCH  24  26
HETATM   26  C7  UNL     1     -87.919 -13.329  13.229  1.00  0.00     0.126 C 
BRANCH  26  27
HETATM   27  C8  UNL     1     -87.193 -13.556  11.922  1.00  0.00     0.060 C 
BRANCH  27  28
HETATM   28  C9  UNL     1     -86.497 -14.867  11.885  1.00  0.00    -0.029 A 
HETATM   29  C10 UNL     1     -86.391 -15.797  12.907  1.00  0.00     0.096 A 
HETATM   30  N3  UNL     1     -85.678 -16.829  12.425  1.00  0.00    -0.365 N 
HETATM   31  C11 UNL     1     -85.332 -16.587  11.147  1.00  0.00     0.043 A 
ATOM     32  H3  UNL     1     -85.436 -17.670  12.949  1.00  0.00     0.165 HD
HETATM   33  C12 UNL     1     -84.603 -17.314  10.200  1.00  0.00     0.031 A 
HETATM   34  C16 UNL     1     -85.828 -15.360  10.766  1.00  0.00    -0.001 A 
HETATM   35  C13 UNL     1     -84.406 -16.784   8.934  1.00  0.00     0.021 A 
HETATM   36  C14 UNL     1     -84.911 -15.550   8.569  1.00  0.00     0.011 A 
HETATM   37 BR1  UNL     1     -84.661 -14.796   6.849  1.00  0.00    -0.051 Br
HETATM   38  C15 UNL     1     -85.632 -14.829   9.498  1.00  0.00     0.033 A 
ENDBRANCH  27  28
ENDBRANCH  26  27
ENDBRANCH  24  26
ENDBRANCH   5  24
TORSDOF 10
ENDMDL
MODEL 5
REMARK VINA RESULT: -8.734515479      1.712      2.131
REMARK  10 active torsions:
REMARK  status: ('A' for Active; 'I' for Inactive)
REMARK    1  A    between atoms: N1_2  and  C2_3 
REMARK    2  A    between atoms: N1_2  and  C17_25 
REMARK    3  A    between atoms: C6_7  and  N2_8 
REMARK    4  A    between atoms: N2_8  and  C7_10 
REMARK    5  A    between atoms: C7_10  and  C8_11 
REMARK    6  A    between atoms: C8_11  and  C9_12 
REMARK    7  A    between atoms: C17_25  and  C18_26 
REMARK    8  A    between atoms: C17_25  and  C19_33 
REMARK    9  A    between atoms: C18_26  and  O1_27 
REMARK   10  A    between atoms: N5_29  and  O2_31 
ROOT
HETATM    1  C2  UNL     1     -88.820 -16.993  12.163  1.00  0.00     0.105 A 
HETATM    2  C3  UNL     1     -89.080 -17.659  13.336  1.00  0.00     0.048 A 
HETATM    3  C4  UNL     1     -88.026 -18.174  14.058  1.00  0.00     0.007 A 
HETATM    4  C5  UNL     1     -86.732 -18.024  13.616  1.00  0.00     0.048 A 
HETATM    5  C6  UNL     1     -86.482 -17.351  12.439  1.00  0.00     0.102 A 
HETATM    6  N4  UNL     1     -87.543 -16.869  11.768  1.00  0.00    -0.329 N 
ATOM      7  H4  UNL     1     -87.364 -16.371  10.896  1.00  0.00     0.169 HD
ENDROOT
BRANCH   1   8
HETATM    8  N1  UNL     1     -89.896 -16.452  11.414  1.00  0.00    -0.355 N 
HETATM    9  C1  UNL     1     -89.650 -15.197  10.709  1.00  0.00     0.152 C 
BRANCH   8  10
HETATM   10  C17 UNL     1     -91.208 -17.026  11.280  1.00  0.00     0.195 C 
BRANCH  10  11
HETATM   11  C18 UNL     1     -92.299 -16.060  11.133  1.00  0.00     0.163 C 
HETATM   12  N5  UNL     1     -93.009 -15.656  12.137  1.00  0.00    -0.249 N 
ATOM     13  H5  UNL     1     -92.790 -16.033  13.058  1.00  0.00     0.196 HD
BRANCH  11  14
HETATM   14  O1  UNL     1     -92.633 -15.522   9.902  1.00  0.00    -0.346 OA
ATOM     15  H1  UNL     1     -92.121 -15.704   9.123  1.00  0.00     0.219 HD
ENDBRANCH  11  14
BRANCH  12  16
HETATM   16  O2  UNL     1     -94.022 -14.768  12.045  1.00  0.00    -0.288 OA
ATOM     17  H2  UNL     1     -94.942 -14.994  12.117  1.00  0.00     0.244 HD
ENDBRANCH  12  16
ENDBRANCH  10  11
BRANCH  10  18
HETATM   18  C19 UNL     1     -91.268 -18.142  10.290  1.00  0.00    -0.028 A 
HETATM   19  C20 UNL     1     -90.206 -18.409   9.475  1.00  0.00     0.010 A 
HETATM   20  C21 UNL     1     -90.223 -19.444   8.535  1.00  0.00     0.001 A 
HETATM   21  C22 UNL     1     -91.355 -20.216   8.432  1.00  0.00     0.000 A 
HETATM   22  C23 UNL     1     -92.446 -19.977   9.234  1.00  0.00     0.001 A 
HETATM   23  C24 UNL     1     -92.400 -18.941  10.160  1.00  0.00     0.010 A 
ENDBRANCH  10  18
ENDBRANCH   8  10
ENDBRANCH   1   8
BRANCH   5  24
HETATM   24  N2  UNL     1     -85.272 -17.190  12.007  1.00  0.00    -0.376 N 
ATOM     25  H2  UNL     1     -84.539 -17.706  12.492  1.00  0.00     0.161 HD
BRANCH  24  26
HETATM   26  C7  UNL     1     -84.866 -16.363  10.925  1.00  0.00     0.126 C 
BRANCH  26  27
HETATM   27  C8  UNL     1     -84.786 -17.101   9.607  1.00  0.00     0.060 C 
BRANCH  27  28
HETATM   28  C9  UNL     1     -84.671 -16.178   8.450  1.00  0.00    -0.029 A 
HETATM   29  C10 UNL     1     -83.519 -15.597   7.944  1.00  0.00     0.096 A 
HETATM   30  N3  UNL     1     -83.889 -14.842   6.896  1.00  0.00    -0.365 N 
HETATM   31  C11 UNL     1     -85.221 -14.924   6.723  1.00  0.00     0.043 A 
ATOM     32  H3  UNL     1     -83.256 -14.289   6.318  1.00  0.00     0.165 HD
HETATM   33  C12 UNL     1     -86.103 -14.348   5.802  1.00  0.00     0.031 A 
HETATM   34  C16 UNL     1     -85.755 -15.756   7.681  1.00  0.00    -0.001 A 
HETATM   35  C13 UNL     1     -87.458 -14.628   5.884  1.00  0.00     0.021 A 
HETATM   36  C14 UNL     1     -87.976 -15.466   6.854  1.00  0.00     0.011 A 
HETATM   37 BR1  UNL     1     -89.822 -15.870   6.996  1.00  0.00    -0.051 Br
HETATM   38  C15 UNL     1     -87.112 -16.039   7.764  1.00  0.00     0.033 A 
ENDBRANCH  27  28
ENDBRANCH  26  27
ENDBRANCH  24  26
ENDBRANCH   5  24
TORSDOF 10
ENDMDL
