MODEL 1
REMARK VINA RESULT: -10.842256203      0.000      0.000
REMARK  5 active torsions:
REMARK  status: ('A' for Active; 'I' for Inactive)
REMARK       I    between atoms: C1_2  and  N1_3 
REMARK    1  A    between atoms: C1_2  and  C8_10 
REMARK    2  A    between atoms: N1_3  and  C2_4 
REMARK       I    between atoms: N2_14  and  C12_15 
REMARK    3  A    between atoms: C12_15  and  C13_17 
REMARK    4  A    between atoms: N6_24  and  C14_25 
REMARK    5  A    between atoms: C14_25  and  C15_26 
ROOT
HETATM    1  C8  UNL     1     -13.102  14.488 -26.222  1.00  0.00     0.111 C 
HETATM    2  C9  UNL     1     -14.063  15.608 -26.537  1.00  0.00     0.018 C 
HETATM    3  C10 UNL     1     -14.934  15.854 -25.341  1.00  0.00     0.021 C 
HETATM    4  C11 UNL     1     -14.024  16.573 -24.319  1.00  0.00     0.126 C 
HETATM    5  N2  UNL     1     -12.790  15.858 -24.169  1.00  0.00    -0.345 N 
HETATM    6  C12 UNL     1     -11.835  16.307 -23.202  1.00  0.00     0.290 C 
HETATM    7  O2  UNL     1     -10.783  15.642 -23.058  1.00  0.00    -0.264 OA
HETATM    8  C21 UNL     1     -12.396  14.703 -24.947  1.00  0.00     0.141 C 
ENDROOT
BRANCH   6   9
HETATM    9  C13 UNL     1     -12.032  17.501 -22.379  1.00  0.00     0.208 A 
HETATM   10  N3  UNL     1     -11.765  18.776 -22.760  1.00  0.00    -0.264 N 
HETATM   11  N4  UNL     1     -12.092  19.590 -21.804  1.00  0.00    -0.226 N 
ATOM     12  H3  UNL     1     -11.368  19.052 -23.658  1.00  0.00     0.190 HD
HETATM   13  N5  UNL     1     -12.560  18.883 -20.825  1.00  0.00    -0.224 N 
ATOM     14  H4  UNL     1     -11.997  20.605 -21.821  1.00  0.00     0.210 HD
HETATM   15  N6  UNL     1     -12.532  17.561 -21.162  1.00  0.00    -0.255 N 
ATOM     16  H5  UNL     1     -12.898  19.258 -19.939  1.00  0.00     0.210 HD
BRANCH  15  17
HETATM   17  C14 UNL     1     -12.951  16.562 -20.201  1.00  0.00     0.157 C 
BRANCH  17  18
HETATM   18  C15 UNL     1     -11.792  16.151 -19.368  1.00  0.00     0.006 C 
HETATM   19  C16 UNL     1     -12.084  16.346 -17.867  1.00  0.00     0.006 C 
HETATM   20  C17 UNL     1     -10.717  16.397 -17.230  1.00  0.00     0.000 C 
HETATM   21  C18 UNL     1      -9.945  15.132 -17.416  1.00  0.00     0.000 C 
HETATM   22  C19 UNL     1     -10.041  14.509 -18.763  1.00  0.00     0.000 C 
HETATM   23  C20 UNL     1     -11.297  14.784 -19.531  1.00  0.00     0.006 C 
ENDBRANCH  17  18
ENDBRANCH  15  17
ENDBRANCH   6   9
BRANCH   1  24
HETATM   24  C1  UNL     1     -13.847  13.137 -26.252  1.00  0.00     0.292 C 
HETATM   25  O1  UNL     1     -13.945  12.698 -27.425  1.00  0.00    -0.257 OA
HETATM   26  N1  UNL     1     -14.298  12.587 -25.087  1.00  0.00    -0.409 NA
BRANCH  26  27
HETATM   27  C2  UNL     1     -14.752  12.033 -23.914  1.00  0.00     0.166 C 
HETATM   28  C3  UNL     1     -15.019  10.563 -24.088  1.00  0.00     0.039 C 
HETATM   29  C4  UNL     1     -15.093   9.763 -22.834  1.00  0.00     0.003 C 
HETATM   30  C5  UNL     1     -13.859  10.058 -22.004  1.00  0.00     0.000 C 
HETATM   31  C6  UNL     1     -14.024  11.500 -21.550  1.00  0.00     0.003 C 
HETATM   32  C7  UNL     1     -13.840  12.363 -22.747  1.00  0.00     0.039 C 
ENDBRANCH  26  27
ENDBRANCH   1  24
TORSDOF 5
ENDMDL
MODEL 2
REMARK VINA RESULT: -9.992493361      2.660      6.367
REMARK  5 active torsions:
REMARK  status: ('A' for Active; 'I' for Inactive)
REMARK       I    between atoms: C1_2  and  N1_3 
REMARK    1  A    between atoms: C1_2  and  C8_10 
REMARK    2  A    between atoms: N1_3  and  C2_4 
REMARK       I    between atoms: N2_14  and  C12_15 
REMARK    3  A    between atoms: C12_15  and  C13_17 
REMARK    4  A    between atoms: N6_24  and  C14_25 
REMARK    5  A    between atoms: C14_25  and  C15_26 
ROOT
HETATM    1  C8  UNL     1     -11.620  13.985 -21.234  1.00  0.00     0.111 C 
HETATM    2  C9  UNL     1     -13.102  14.249 -21.121  1.00  0.00     0.018 C 
HETATM    3  C10 UNL     1     -13.314  15.504 -20.328  1.00  0.00     0.021 C 
HETATM    4  C11 UNL     1     -12.919  16.656 -21.281  1.00  0.00     0.126 C 
HETATM    5  N2  UNL     1     -11.638  16.390 -21.868  1.00  0.00    -0.345 N 
HETATM    6  C12 UNL     1     -11.042  17.376 -22.719  1.00  0.00     0.290 C 
HETATM    7  O2  UNL     1      -9.903  17.141 -23.187  1.00  0.00    -0.264 OA
HETATM    8  C21 UNL     1     -10.878  15.170 -21.697  1.00  0.00     0.141 C 
ENDROOT
BRANCH   6   9
HETATM    9  C13 UNL     1     -11.700  18.637 -23.064  1.00  0.00     0.208 A 
HETATM   10  N3  UNL     1     -11.768  19.735 -22.271  1.00  0.00    -0.264 N 
HETATM   11  N4  UNL     1     -12.388  20.685 -22.900  1.00  0.00    -0.226 N 
ATOM     12  H3  UNL     1     -11.390  19.804 -21.326  1.00  0.00     0.190 HD
HETATM   13  N5  UNL     1     -12.719  20.235 -24.069  1.00  0.00    -0.224 N 
ATOM     14  H4  UNL     1     -12.581  21.619 -22.539  1.00  0.00     0.210 HD
HETATM   15  N6  UNL     1     -12.297  18.943 -24.197  1.00  0.00    -0.255 N 
ATOM     16  H5  UNL     1     -13.217  20.765 -24.783  1.00  0.00     0.210 HD
BRANCH  15  17
HETATM   17  C14 UNL     1     -12.605  18.200 -25.401  1.00  0.00     0.157 C 
BRANCH  17  18
HETATM   18  C15 UNL     1     -13.054  16.830 -25.043  1.00  0.00     0.006 C 
HETATM   19  C16 UNL     1     -14.524  16.598 -25.444  1.00  0.00     0.006 C 
HETATM   20  C17 UNL     1     -14.961  15.438 -24.585  1.00  0.00     0.000 C 
HETATM   21  C18 UNL     1     -14.181  14.193 -24.854  1.00  0.00     0.000 C 
HETATM   22  C19 UNL     1     -12.719  14.377 -25.049  1.00  0.00     0.000 C 
HETATM   23  C20 UNL     1     -12.284  15.707 -25.582  1.00  0.00     0.006 C 
ENDBRANCH  17  18
ENDBRANCH  15  17
ENDBRANCH   6   9
BRANCH   1  24
HETATM   24  C1  UNL     1     -11.081  13.452 -19.890  1.00  0.00     0.292 C 
HETATM   25  O1  UNL     1     -11.270  12.215 -19.783  1.00  0.00    -0.257 OA
HETATM   26  N1  UNL     1     -10.493  14.312 -19.008  1.00  0.00    -0.409 NA
BRANCH  26  27
HETATM   27  C2  UNL     1      -9.902  15.178 -18.119  1.00  0.00     0.166 C 
HETATM   28  C3  UNL     1     -10.868  16.253 -17.701  1.00  0.00     0.039 C 
HETATM   29  C4  UNL     1     -10.526  16.983 -16.450  1.00  0.00     0.003 C 
HETATM   30  C5  UNL     1     -10.248  15.966 -15.361  1.00  0.00     0.000 C 
HETATM   31  C6  UNL     1      -8.952  15.287 -15.776  1.00  0.00     0.003 C 
HETATM   32  C7  UNL     1      -9.258  14.441 -16.960  1.00  0.00     0.039 C 
ENDBRANCH  26  27
ENDBRANCH   1  24
TORSDOF 5
ENDMDL
MODEL 3
REMARK VINA RESULT: -9.779369302      3.450      5.257
REMARK  5 active torsions:
REMARK  status: ('A' for Active; 'I' for Inactive)
REMARK       I    between atoms: C1_2  and  N1_3 
REMARK    1  A    between atoms: C1_2  and  C8_10 
REMARK    2  A    between atoms: N1_3  and  C2_4 
REMARK       I    between atoms: N2_14  and  C12_15 
REMARK    3  A    between atoms: C12_15  and  C13_17 
REMARK    4  A    between atoms: N6_24  and  C14_25 
REMARK    5  A    between atoms: C14_25  and  C15_26 
ROOT
HETATM    1  C8  UNL     1     -10.829  15.494 -21.731  1.00  0.00     0.111 C 
HETATM    2  C9  UNL     1     -11.578  16.251 -20.661  1.00  0.00     0.018 C 
HETATM    3  C10 UNL     1     -12.472  15.297 -19.925  1.00  0.00     0.021 C 
HETATM    4  C11 UNL     1     -11.524  14.461 -19.034  1.00  0.00     0.126 C 
HETATM    5  N2  UNL     1     -10.432  13.957 -19.815  1.00  0.00    -0.345 N 
HETATM    6  C12 UNL     1      -9.480  13.082 -19.201  1.00  0.00     0.290 C 
HETATM    7  O2  UNL     1      -8.558  12.619 -19.913  1.00  0.00    -0.264 OA
HETATM    8  C21 UNL     1     -10.178  14.282 -21.203  1.00  0.00     0.141 C 
ENDROOT
BRANCH   6   9
HETATM    9  C13 UNL     1      -9.536  12.705 -17.788  1.00  0.00     0.208 A 
HETATM   10  N3  UNL     1     -10.069  11.559 -17.296  1.00  0.00    -0.264 N 
HETATM   11  N4  UNL     1      -9.918  11.530 -16.009  1.00  0.00    -0.226 N 
ATOM     12  H3  UNL     1     -10.520  10.833 -17.852  1.00  0.00     0.190 HD
HETATM   13  N5  UNL     1      -9.304  12.615 -15.657  1.00  0.00    -0.224 N 
ATOM     14  H4  UNL     1     -10.226  10.784 -15.384  1.00  0.00     0.210 HD
HETATM   15  N6  UNL     1      -9.054  13.376 -16.762  1.00  0.00    -0.255 N 
ATOM     16  H5  UNL     1      -9.049  12.863 -14.701  1.00  0.00     0.210 HD
BRANCH  15  17
HETATM   17  C14 UNL     1      -8.427  14.673 -16.618  1.00  0.00     0.157 C 
BRANCH  17  18
HETATM   18  C15 UNL     1      -9.428  15.663 -16.142  1.00  0.00     0.006 C 
HETATM   19  C16 UNL     1      -8.790  16.690 -15.187  1.00  0.00     0.006 C 
HETATM   20  C17 UNL     1      -9.959  17.254 -14.418  1.00  0.00     0.000 C 
HETATM   21  C18 UNL     1     -10.946  17.952 -15.297  1.00  0.00     0.000 C 
HETATM   22  C19 UNL     1     -11.245  17.283 -16.590  1.00  0.00     0.000 C 
HETATM   23  C20 UNL     1     -10.158  16.422 -17.157  1.00  0.00     0.006 C 
ENDBRANCH  17  18
ENDBRANCH  15  17
ENDBRANCH   6   9
BRANCH   1  24
HETATM   24  C1  UNL     1     -11.776  15.178 -22.908  1.00  0.00     0.292 C 
HETATM   25  O1  UNL     1     -11.487  15.862 -23.920  1.00  0.00    -0.257 OA
HETATM   26  N1  UNL     1     -12.767  14.254 -22.748  1.00  0.00    -0.409 NA
BRANCH  26  27
HETATM   27  C2  UNL     1     -13.766  13.323 -22.588  1.00  0.00     0.166 C 
HETATM   28  C3  UNL     1     -14.128  12.699 -23.908  1.00  0.00     0.039 C 
HETATM   29  C4  UNL     1     -14.860  11.404 -23.836  1.00  0.00     0.003 C 
HETATM   30  C5  UNL     1     -14.095  10.472 -22.918  1.00  0.00     0.000 C 
HETATM   31  C6  UNL     1     -14.243  11.074 -21.530  1.00  0.00     0.003 C 
HETATM   32  C7  UNL     1     -13.430  12.320 -21.501  1.00  0.00     0.039 C 
ENDBRANCH  26  27
ENDBRANCH   1  24
TORSDOF 5
ENDMDL
MODEL 4
REMARK VINA RESULT: -9.741050080      2.644      6.749
REMARK  5 active torsions:
REMARK  status: ('A' for Active; 'I' for Inactive)
REMARK       I    between atoms: C1_2  and  N1_3 
REMARK    1  A    between atoms: C1_2  and  C8_10 
REMARK    2  A    between atoms: N1_3  and  C2_4 
REMARK       I    between atoms: N2_14  and  C12_15 
REMARK    3  A    between atoms: C12_15  and  C13_17 
REMARK    4  A    between atoms: N6_24  and  C14_25 
REMARK    5  A    between atoms: C14_25  and  C15_26 
ROOT
HETATM    1  C8  UNL     1     -11.571  14.800 -21.379  1.00  0.00     0.111 C 
HETATM    2  C9  UNL     1     -12.795  15.400 -20.733  1.00  0.00     0.018 C 
HETATM    3  C10 UNL     1     -12.581  16.874 -20.558  1.00  0.00     0.021 C 
HETATM    4  C11 UNL     1     -12.718  17.474 -21.977  1.00  0.00     0.126 C 
HETATM    5  N2  UNL     1     -11.905  16.739 -22.902  1.00  0.00    -0.345 N 
HETATM    6  C12 UNL     1     -11.817  17.183 -24.261  1.00  0.00     0.290 C 
HETATM    7  O2  UNL     1     -11.067  16.551 -25.041  1.00  0.00    -0.264 OA
HETATM    8  C21 UNL     1     -11.162  15.537 -22.588  1.00  0.00     0.141 C 
ENDROOT
BRANCH   6   9
HETATM    9  C13 UNL     1     -12.560  18.335 -24.774  1.00  0.00     0.208 A 
HETATM   10  N3  UNL     1     -12.038  19.560 -25.033  1.00  0.00    -0.264 N 
HETATM   11  N4  UNL     1     -12.963  20.332 -25.512  1.00  0.00    -0.226 N 
ATOM     12  H3  UNL     1     -11.068  19.833 -24.875  1.00  0.00     0.190 HD
HETATM   13  N5  UNL     1     -14.060  19.645 -25.572  1.00  0.00    -0.224 N 
ATOM     14  H4  UNL     1     -12.848  21.306 -25.793  1.00  0.00     0.210 HD
HETATM   15  N6  UNL     1     -13.832  18.381 -25.109  1.00  0.00    -0.255 N 
ATOM     16  H5  UNL     1     -14.955  19.995 -25.912  1.00  0.00     0.210 HD
BRANCH  15  17
HETATM   17  C14 UNL     1     -14.928  17.438 -25.020  1.00  0.00     0.157 C 
BRANCH  17  18
HETATM   18  C15 UNL     1     -14.501  16.122 -25.561  1.00  0.00     0.006 C 
HETATM   19  C16 UNL     1     -14.684  15.002 -24.518  1.00  0.00     0.006 C 
HETATM   20  C17 UNL     1     -13.764  13.904 -24.992  1.00  0.00     0.000 C 
HETATM   21  C18 UNL     1     -14.137  13.380 -26.341  1.00  0.00     0.000 C 
HETATM   22  C19 UNL     1     -14.541  14.402 -27.341  1.00  0.00     0.000 C 
HETATM   23  C20 UNL     1     -15.139  15.662 -26.795  1.00  0.00     0.006 C 
ENDBRANCH  17  18
ENDBRANCH  15  17
ENDBRANCH   6   9
BRANCH   1  24
HETATM   24  C1  UNL     1     -10.429  14.702 -20.346  1.00  0.00     0.292 C 
HETATM   25  O1  UNL     1      -9.357  14.337 -20.886  1.00  0.00    -0.257 OA
HETATM   26  N1  UNL     1     -10.676  14.998 -19.036  1.00  0.00    -0.409 NA
BRANCH  26  27
HETATM   27  C2  UNL     1     -10.924  15.295 -17.717  1.00  0.00     0.166 C 
HETATM   28  C3  UNL     1     -10.052  14.468 -16.813  1.00  0.00     0.039 C 
HETATM   29  C4  UNL     1      -9.895  14.973 -15.421  1.00  0.00     0.003 C 
HETATM   30  C5  UNL     1      -9.488  16.432 -15.483  1.00  0.00     0.000 C 
HETATM   31  C6  UNL     1     -10.709  17.161 -16.021  1.00  0.00     0.003 C 
HETATM   32  C7  UNL     1     -10.849  16.787 -17.454  1.00  0.00     0.039 C 
ENDBRANCH  26  27
ENDBRANCH   1  24
TORSDOF 5
ENDMDL
MODEL 5
REMARK VINA RESULT: -9.662578873      2.132      7.296
REMARK  5 active torsions:
REMARK  status: ('A' for Active; 'I' for Inactive)
REMARK       I    between atoms: C1_2  and  N1_3 
REMARK    1  A    between atoms: C1_2  and  C8_10 
REMARK    2  A    between atoms: N1_3  and  C2_4 
REMARK       I    between atoms: N2_14  and  C12_15 
REMARK    3  A    between atoms: C12_15  and  C13_17 
REMARK    4  A    between atoms: N6_24  and  C14_25 
REMARK    5  A    between atoms: C14_25  and  C15_26 
ROOT
HETATM    1  C8  UNL     1     -11.646  16.321 -20.256  1.00  0.00     0.111 C 
HETATM    2  C9  UNL     1     -10.830  15.052 -20.300  1.00  0.00     0.018 C 
HETATM    3  C10 UNL     1     -11.731  13.904 -20.644  1.00  0.00     0.021 C 
HETATM    4  C11 UNL     1     -12.036  14.067 -22.151  1.00  0.00     0.126 C 
HETATM    5  N2  UNL     1     -12.454  15.411 -22.426  1.00  0.00    -0.345 N 
HETATM    6  C12 UNL     1     -12.871  15.755 -23.752  1.00  0.00     0.290 C 
HETATM    7  O2  UNL     1     -13.273  16.924 -23.959  1.00  0.00    -0.264 OA
HETATM    8  C21 UNL     1     -12.472  16.493 -21.465  1.00  0.00     0.141 C 
ENDROOT
BRANCH   6   9
HETATM    9  C13 UNL     1     -12.846  14.809 -24.868  1.00  0.00     0.208 A 
HETATM   10  N3  UNL     1     -11.959  14.820 -25.894  1.00  0.00    -0.264 N 
HETATM   11  N4  UNL     1     -12.200  13.821 -26.685  1.00  0.00    -0.226 N 
ATOM     12  H3  UNL     1     -11.216  15.507 -26.024  1.00  0.00     0.190 HD
HETATM   13  N5  UNL     1     -13.210  13.169 -26.203  1.00  0.00    -0.224 N 
ATOM     14  H4  UNL     1     -11.687  13.590 -27.535  1.00  0.00     0.210 HD
HETATM   15  N6  UNL     1     -13.638  13.774 -25.056  1.00  0.00    -0.255 N 
ATOM     16  H5  UNL     1     -13.621  12.333 -26.616  1.00  0.00     0.210 HD
BRANCH  15  17
HETATM   17  C14 UNL     1     -14.801  13.262 -24.361  1.00  0.00     0.157 C 
BRANCH  17  18
HETATM   18  C15 UNL     1     -14.522  11.891 -23.861  1.00  0.00     0.006 C 
HETATM   19  C16 UNL     1     -14.560  11.839 -22.321  1.00  0.00     0.006 C 
HETATM   20  C17 UNL     1     -13.776  10.596 -21.976  1.00  0.00     0.000 C 
HETATM   21  C18 UNL     1     -14.397   9.351 -22.522  1.00  0.00     0.000 C 
HETATM   22  C19 UNL     1     -14.933   9.450 -23.904  1.00  0.00     0.000 C 
HETATM   23  C20 UNL     1     -15.382  10.810 -24.344  1.00  0.00     0.006 C 
ENDBRANCH  17  18
ENDBRANCH  15  17
ENDBRANCH   6   9
BRANCH   1  24
HETATM   24  C1  UNL     1     -12.492  16.354 -18.966  1.00  0.00     0.292 C 
HETATM   25  O1  UNL     1     -13.706  16.546 -19.223  1.00  0.00    -0.257 OA
HETATM   26  N1  UNL     1     -11.885  16.185 -17.755  1.00  0.00    -0.409 NA
BRANCH  26  27
HETATM   27  C2  UNL     1     -11.275  16.015 -16.535  1.00  0.00     0.166 C 
HETATM   28  C3  UNL     1     -10.499  14.727 -16.503  1.00  0.00     0.039 C 
HETATM   29  C4  UNL     1      -9.461  14.620 -15.442  1.00  0.00     0.003 C 
HETATM   30  C5  UNL     1      -8.580  15.852 -15.506  1.00  0.00     0.000 C 
HETATM   31  C6  UNL     1      -9.472  16.998 -15.056  1.00  0.00     0.003 C 
HETATM   32  C7  UNL     1     -10.465  17.235 -16.138  1.00  0.00     0.039 C 
ENDBRANCH  26  27
ENDBRANCH   1  24
TORSDOF 5
ENDMDL
