MODEL 1
REMARK VINA RESULT: -6.600836968      0.000      0.000
REMARK  10 active torsions:
REMARK  status: ('A' for Active; 'I' for Inactive)
REMARK    1  A    between atoms: O1_2  and  C2_3 
REMARK    2  A    between atoms: C2_3  and  C3_5 
REMARK    3  A    between atoms: C7_9  and  O3_10 
REMARK    4  A    between atoms: C8_12  and  O4_14 
REMARK    5  A    between atoms: C14_20  and  C15_21 
REMARK    6  A    between atoms: C15_21  and  C17_23 
REMARK    7  A    between atoms: C17_23  and  C18_24 
REMARK    8  A    between atoms: C18_24  and  C19_25 
REMARK    9  A    between atoms: C23_29  and  C25_31 
REMARK   10  A    between atoms: C25_31  and  C27_33 
ROOT
HETATM    1  C3  UNL     1      11.946  19.279   5.322  1.00  0.00     0.057 C 
HETATM    2  C4  UNL     1      12.926  20.276   5.953  1.00  0.00     0.027 C 
HETATM    3  C5  UNL     1      10.645  20.016   5.334  1.00  0.00     0.018 C 
HETATM    4  C6  UNL     1      10.650  21.347   4.661  1.00  0.00     0.041 C 
HETATM    5  C7  UNL     1       9.125  21.608   4.644  1.00  0.00     0.153 C 
HETATM    6  C8  UNL     1       8.653  20.953   5.889  1.00  0.00     0.087 C 
HETATM    7  C9  UNL     1       7.942  21.840   6.848  1.00  0.00     0.049 C 
HETATM    8  C10 UNL     1       9.896  20.271   6.538  1.00  0.00    -0.006 C 
HETATM    9  C11 UNL     1      10.402  21.380   7.460  1.00  0.00     0.019 C 
HETATM   10  C12 UNL     1       9.369  19.207   7.396  1.00  0.00     0.013 C 
HETATM   11  C13 UNL     1       9.973  17.871   7.486  1.00  0.00     0.007 C 
HETATM   12  C14 UNL     1      11.473  17.690   7.288  1.00  0.00    -0.001 C 
HETATM   13  C23 UNL     1      11.952  17.936   5.887  1.00  0.00    -0.014 C 
HETATM   14  C24 UNL     1      10.674  17.298   5.135  1.00  0.00     0.018 C 
ENDROOT
BRANCH  12  15
HETATM   15  C15 UNL     1      12.129  17.769   8.563  1.00  0.00    -0.014 C 
HETATM   16  C16 UNL     1      13.530  17.377   8.836  1.00  0.00     0.010 C 
BRANCH  15  17
HETATM   17  C17 UNL     1      11.379  16.861   9.590  1.00  0.00     0.008 C 
BRANCH  17  18
HETATM   18  C18 UNL     1      11.394  15.417   9.293  1.00  0.00     0.028 C 
BRANCH  18  19
HETATM   19  C19 UNL     1      10.070  14.744   9.218  1.00  0.00    -0.025 C 
HETATM   20  C20 UNL     1       9.895  13.445   9.283  1.00  0.00    -0.091 C 
HETATM   21  C21 UNL     1      11.083  12.565   9.443  1.00  0.00     0.042 C 
HETATM   22  C22 UNL     1       8.557  12.821   9.204  1.00  0.00     0.042 C 
ENDBRANCH  18  19
ENDBRANCH  17  18
ENDBRANCH  15  17
ENDBRANCH  12  15
BRANCH  13  23
HETATM   23  C25 UNL     1      12.911  16.898   5.477  1.00  0.00     0.053 C 
HETATM   24  C26 UNL     1      14.382  17.013   5.787  1.00  0.00     0.018 C 
BRANCH  23  25
HETATM   25  C27 UNL     1      12.659  15.512   5.954  1.00  0.00     0.236 C 
HETATM   26  O5  UNL     1      13.515  14.742   6.329  1.00  0.00    -0.306 OA
ENDBRANCH  23  25
ENDBRANCH  13  23
BRANCH   1  27
HETATM   27  C2  UNL     1      12.304  19.341   3.887  1.00  0.00     0.268 C 
HETATM   28  O2  UNL     1      11.601  19.030   2.902  1.00  0.00    -0.264 OA
BRANCH  27  29
HETATM   29  O1  UNL     1      13.570  19.794   3.448  1.00  0.00    -0.326 OA
HETATM   30  C1  UNL     1      14.448  19.066   2.653  1.00  0.00     0.213 C 
ENDBRANCH  27  29
ENDBRANCH   1  27
BRANCH   6  31
HETATM   31  O4  UNL     1       7.723  19.969   5.487  1.00  0.00    -0.387 OA
ATOM     32  H4  UNL     1       7.687  19.335   6.193  1.00  0.00     0.210 HD
ENDBRANCH   6  31
BRANCH   5  33
HETATM   33  O3  UNL     1       8.576  21.089   3.473  1.00  0.00    -0.393 OA
ATOM     34  H3  UNL     1       8.759  20.159   3.421  1.00  0.00     0.210 HD
ENDBRANCH   5  33
TORSDOF 10
ENDMDL
MODEL 2
REMARK VINA RESULT: -6.484727602      0.758      1.167
REMARK  10 active torsions:
REMARK  status: ('A' for Active; 'I' for Inactive)
REMARK    1  A    between atoms: O1_2  and  C2_3 
REMARK    2  A    between atoms: C2_3  and  C3_5 
REMARK    3  A    between atoms: C7_9  and  O3_10 
REMARK    4  A    between atoms: C8_12  and  O4_14 
REMARK    5  A    between atoms: C14_20  and  C15_21 
REMARK    6  A    between atoms: C15_21  and  C17_23 
REMARK    7  A    between atoms: C17_23  and  C18_24 
REMARK    8  A    between atoms: C18_24  and  C19_25 
REMARK    9  A    between atoms: C23_29  and  C25_31 
REMARK   10  A    between atoms: C25_31  and  C27_33 
ROOT
HETATM    1  C3  UNL     1      12.058  19.095   5.435  1.00  0.00     0.057 C 
HETATM    2  C4  UNL     1      12.982  20.052   6.198  1.00  0.00     0.027 C 
HETATM    3  C5  UNL     1      10.774  19.855   5.339  1.00  0.00     0.018 C 
HETATM    4  C6  UNL     1      10.869  21.208   4.717  1.00  0.00     0.041 C 
HETATM    5  C7  UNL     1       9.358  21.497   4.553  1.00  0.00     0.153 C 
HETATM    6  C8  UNL     1       8.750  20.810   5.719  1.00  0.00     0.087 C 
HETATM    7  C9  UNL     1       7.957  21.677   6.630  1.00  0.00     0.049 C 
HETATM    8  C10 UNL     1       9.909  20.083   6.467  1.00  0.00    -0.006 C 
HETATM    9  C11 UNL     1      10.334  21.151   7.475  1.00  0.00     0.019 C 
HETATM   10  C12 UNL     1       9.280  19.001   7.229  1.00  0.00     0.013 C 
HETATM   11  C13 UNL     1       9.851  17.652   7.334  1.00  0.00     0.007 C 
HETATM   12  C14 UNL     1      11.361  17.450   7.285  1.00  0.00    -0.001 C 
HETATM   13  C23 UNL     1      11.985  17.734   5.950  1.00  0.00    -0.014 C 
HETATM   14  C24 UNL     1      10.783  17.145   5.048  1.00  0.00     0.018 C 
ENDROOT
BRANCH  12  15
HETATM   15  C15 UNL     1      11.882  17.474   8.622  1.00  0.00    -0.014 C 
HETATM   16  C16 UNL     1      13.290  17.742   8.992  1.00  0.00     0.010 C 
BRANCH  15  17
HETATM   17  C17 UNL     1      11.680  16.073   9.284  1.00  0.00     0.008 C 
BRANCH  17  18
HETATM   18  C18 UNL     1      10.310  15.775   9.740  1.00  0.00     0.028 C 
BRANCH  18  19
HETATM   19  C19 UNL     1       9.779  14.428   9.402  1.00  0.00    -0.025 C 
HETATM   20  C20 UNL     1       8.503  14.124   9.360  1.00  0.00    -0.091 C 
HETATM   21  C21 UNL     1       7.501  15.179   9.667  1.00  0.00     0.042 C 
HETATM   22  C22 UNL     1       8.022  12.768   9.018  1.00  0.00     0.042 C 
ENDBRANCH  18  19
ENDBRANCH  17  18
ENDBRANCH  15  17
ENDBRANCH  12  15
BRANCH  13  23
HETATM   23  C25 UNL     1      12.967  16.693   5.604  1.00  0.00     0.053 C 
HETATM   24  C26 UNL     1      14.419  16.815   5.989  1.00  0.00     0.018 C 
BRANCH  23  25
HETATM   25  C27 UNL     1      12.692  15.312   6.087  1.00  0.00     0.236 C 
HETATM   26  O5  UNL     1      13.537  14.523   6.447  1.00  0.00    -0.306 OA
ENDBRANCH  23  25
ENDBRANCH  13  23
BRANCH   1  27
HETATM   27  C2  UNL     1      12.563  19.198   4.048  1.00  0.00     0.268 C 
HETATM   28  O2  UNL     1      13.706  19.528   3.664  1.00  0.00    -0.264 OA
BRANCH  27  29
HETATM   29  O1  UNL     1      11.747  18.912   2.928  1.00  0.00    -0.326 OA
HETATM   30  C1  UNL     1      12.004  19.322   1.624  1.00  0.00     0.213 C 
ENDBRANCH  27  29
ENDBRANCH   1  27
BRANCH   6  31
HETATM   31  O4  UNL     1       7.852  19.858   5.189  1.00  0.00    -0.387 OA
ATOM     32  H4  UNL     1       6.996  20.081   5.535  1.00  0.00     0.210 HD
ENDBRANCH   6  31
BRANCH   5  33
HETATM   33  O3  UNL     1       8.925  21.028   3.314  1.00  0.00    -0.393 OA
ATOM     34  H3  UNL     1       9.003  21.720   2.668  1.00  0.00     0.210 HD
ENDBRANCH   5  33
TORSDOF 10
ENDMDL
MODEL 3
REMARK VINA RESULT: -6.263939529      1.205      1.640
REMARK  10 active torsions:
REMARK  status: ('A' for Active; 'I' for Inactive)
REMARK    1  A    between atoms: O1_2  and  C2_3 
REMARK    2  A    between atoms: C2_3  and  C3_5 
REMARK    3  A    between atoms: C7_9  and  O3_10 
REMARK    4  A    between atoms: C8_12  and  O4_14 
REMARK    5  A    between atoms: C14_20  and  C15_21 
REMARK    6  A    between atoms: C15_21  and  C17_23 
REMARK    7  A    between atoms: C17_23  and  C18_24 
REMARK    8  A    between atoms: C18_24  and  C19_25 
REMARK    9  A    between atoms: C23_29  and  C25_31 
REMARK   10  A    between atoms: C25_31  and  C27_33 
ROOT
HETATM    1  C3  UNL     1      11.900  19.325   5.521  1.00  0.00     0.057 C 
HETATM    2  C4  UNL     1      13.133  19.847   6.268  1.00  0.00     0.027 C 
HETATM    3  C5  UNL     1      10.946  20.474   5.581  1.00  0.00     0.018 C 
HETATM    4  C6  UNL     1      11.459  21.769   5.045  1.00  0.00     0.041 C 
HETATM    5  C7  UNL     1      10.128  22.558   5.024  1.00  0.00     0.153 C 
HETATM    6  C8  UNL     1       9.388  22.010   6.187  1.00  0.00     0.087 C 
HETATM    7  C9  UNL     1       8.985  23.006   7.215  1.00  0.00     0.049 C 
HETATM    8  C10 UNL     1      10.271  20.874   6.788  1.00  0.00    -0.006 C 
HETATM    9  C11 UNL     1      11.086  21.645   7.828  1.00  0.00     0.019 C 
HETATM   10  C12 UNL     1       9.355  20.000   7.525  1.00  0.00     0.013 C 
HETATM   11  C13 UNL     1       9.441  18.534   7.492  1.00  0.00     0.007 C 
HETATM   12  C14 UNL     1      10.789  17.846   7.308  1.00  0.00    -0.001 C 
HETATM   13  C23 UNL     1      11.399  18.026   5.948  1.00  0.00    -0.014 C 
HETATM   14  C24 UNL     1      10.022  17.954   5.110  1.00  0.00     0.018 C 
ENDROOT
BRANCH  12  15
HETATM   15  C15 UNL     1      11.359  17.575   8.597  1.00  0.00    -0.014 C 
HETATM   16  C16 UNL     1      12.776  17.780   8.971  1.00  0.00     0.010 C 
BRANCH  15  17
HETATM   17  C17 UNL     1      11.200  16.055   8.926  1.00  0.00     0.008 C 
BRANCH  17  18
HETATM   18  C18 UNL     1       9.984  15.690   9.676  1.00  0.00     0.028 C 
BRANCH  18  19
HETATM   19  C19 UNL     1       9.430  14.335   9.417  1.00  0.00    -0.025 C 
HETATM   20  C20 UNL     1       8.150  14.045   9.418  1.00  0.00    -0.091 C 
HETATM   21  C21 UNL     1       7.167  15.127   9.692  1.00  0.00     0.042 C 
HETATM   22  C22 UNL     1       7.646  12.681   9.154  1.00  0.00     0.042 C 
ENDBRANCH  18  19
ENDBRANCH  17  18
ENDBRANCH  15  17
ENDBRANCH  12  15
BRANCH  13  23
HETATM   23  C25 UNL     1      11.950  16.753   5.455  1.00  0.00     0.053 C 
HETATM   24  C26 UNL     1      11.748  16.302   4.030  1.00  0.00     0.018 C 
BRANCH  23  25
HETATM   25  C27 UNL     1      13.420  16.556   5.577  1.00  0.00     0.236 C 
HETATM   26  O5  UNL     1      14.154  16.237   4.668  1.00  0.00    -0.306 OA
ENDBRANCH  23  25
ENDBRANCH  13  23
BRANCH   1  27
HETATM   27  C2  UNL     1      12.335  19.379   4.108  1.00  0.00     0.268 C 
HETATM   28  O2  UNL     1      13.499  19.360   3.656  1.00  0.00    -0.264 OA
BRANCH  27  29
HETATM   29  O1  UNL     1      11.409  19.462   3.040  1.00  0.00    -0.326 OA
HETATM   30  C1  UNL     1      11.698  19.940   1.766  1.00  0.00     0.213 C 
ENDBRANCH  27  29
ENDBRANCH   1  27
BRANCH   6  31
HETATM   31  O4  UNL     1       8.193  21.463   5.670  1.00  0.00    -0.387 OA
ATOM     32  H4  UNL     1       7.641  22.201   5.441  1.00  0.00     0.210 HD
ENDBRANCH   6  31
BRANCH   5  33
HETATM   33  O3  UNL     1       9.496  22.374   3.796  1.00  0.00    -0.393 OA
ATOM     34  H3  UNL     1      10.122  22.504   3.094  1.00  0.00     0.210 HD
ENDBRANCH   5  33
TORSDOF 10
ENDMDL
MODEL 4
REMARK VINA RESULT: -6.257023714      1.378      1.622
REMARK  10 active torsions:
REMARK  status: ('A' for Active; 'I' for Inactive)
REMARK    1  A    between atoms: O1_2  and  C2_3 
REMARK    2  A    between atoms: C2_3  and  C3_5 
REMARK    3  A    between atoms: C7_9  and  O3_10 
REMARK    4  A    between atoms: C8_12  and  O4_14 
REMARK    5  A    between atoms: C14_20  and  C15_21 
REMARK    6  A    between atoms: C15_21  and  C17_23 
REMARK    7  A    between atoms: C17_23  and  C18_24 
REMARK    8  A    between atoms: C18_24  and  C19_25 
REMARK    9  A    between atoms: C23_29  and  C25_31 
REMARK   10  A    between atoms: C25_31  and  C27_33 
ROOT
HETATM    1  C3  UNL     1      12.081  20.155   5.831  1.00  0.00     0.057 C 
HETATM    2  C4  UNL     1      12.377  20.881   7.149  1.00  0.00     0.027 C 
HETATM    3  C5  UNL     1      10.706  20.625   5.478  1.00  0.00     0.018 C 
HETATM    4  C6  UNL     1      10.532  22.104   5.390  1.00  0.00     0.041 C 
HETATM    5  C7  UNL     1       9.126  22.136   4.743  1.00  0.00     0.153 C 
HETATM    6  C8  UNL     1       8.464  20.934   5.305  1.00  0.00     0.087 C 
HETATM    7  C9  UNL     1       7.202  21.188   6.050  1.00  0.00     0.049 C 
HETATM    8  C10 UNL     1       9.525  20.206   6.186  1.00  0.00    -0.006 C 
HETATM    9  C11 UNL     1       9.264  20.836   7.554  1.00  0.00     0.019 C 
HETATM   10  C12 UNL     1       9.090  18.810   6.268  1.00  0.00     0.013 C 
HETATM   11  C13 UNL     1      10.012  17.671   6.170  1.00  0.00     0.007 C 
HETATM   12  C14 UNL     1      11.451  17.802   6.658  1.00  0.00    -0.001 C 
HETATM   13  C23 UNL     1      12.309  18.716   5.832  1.00  0.00    -0.014 C 
HETATM   14  C24 UNL     1      11.682  18.321   4.398  1.00  0.00     0.018 C 
ENDROOT
BRANCH  12  15
HETATM   15  C15 UNL     1      11.521  17.385   8.030  1.00  0.00    -0.014 C 
HETATM   16  C16 UNL     1      12.511  17.859   9.023  1.00  0.00     0.010 C 
BRANCH  15  17
HETATM   17  C17 UNL     1      11.778  15.844   8.091  1.00  0.00     0.008 C 
BRANCH  17  18
HETATM   18  C18 UNL     1      10.877  15.084   8.977  1.00  0.00     0.028 C 
BRANCH  18  19
HETATM   19  C19 UNL     1       9.500  15.620   9.137  1.00  0.00    -0.025 C 
HETATM   20  C20 UNL     1       8.430  14.878   9.306  1.00  0.00    -0.091 C 
HETATM   21  C21 UNL     1       8.579  13.399   9.344  1.00  0.00     0.042 C 
HETATM   22  C22 UNL     1       7.079  15.458   9.462  1.00  0.00     0.042 C 
ENDBRANCH  18  19
ENDBRANCH  17  18
ENDBRANCH  15  17
ENDBRANCH  12  15
BRANCH  13  23
HETATM   23  C25 UNL     1      13.632  18.114   5.598  1.00  0.00     0.053 C 
HETATM   24  C26 UNL     1      14.703  18.121   6.659  1.00  0.00     0.018 C 
BRANCH  23  25
HETATM   25  C27 UNL     1      13.666  16.677   5.212  1.00  0.00     0.236 C 
HETATM   26  O5  UNL     1      14.513  15.886   5.563  1.00  0.00    -0.306 OA
ENDBRANCH  23  25
ENDBRANCH  13  23
BRANCH   1  27
HETATM   27  C2  UNL     1      12.905  20.905   4.858  1.00  0.00     0.268 C 
HETATM   28  O2  UNL     1      12.755  20.989   3.621  1.00  0.00    -0.264 OA
BRANCH  27  29
HETATM   29  O1  UNL     1      14.033  21.661   5.255  1.00  0.00    -0.326 OA
HETATM   30  C1  UNL     1      15.344  21.407   4.866  1.00  0.00     0.213 C 
ENDBRANCH  27  29
ENDBRANCH   1  27
BRANCH   6  31
HETATM   31  O4  UNL     1       8.121  20.122   4.202  1.00  0.00    -0.387 OA
ATOM     32  H4  UNL     1       7.514  20.631   3.678  1.00  0.00     0.210 HD
ENDBRANCH   6  31
BRANCH   5  33
HETATM   33  O3  UNL     1       9.251  22.134   3.356  1.00  0.00    -0.393 OA
ATOM     34  H3  UNL     1       9.821  22.844   3.087  1.00  0.00     0.210 HD
ENDBRANCH   5  33
TORSDOF 10
ENDMDL
MODEL 5
REMARK VINA RESULT: -6.229310681      1.678      2.254
REMARK  10 active torsions:
REMARK  status: ('A' for Active; 'I' for Inactive)
REMARK    1  A    between atoms: O1_2  and  C2_3 
REMARK    2  A    between atoms: C2_3  and  C3_5 
REMARK    3  A    between atoms: C7_9  and  O3_10 
REMARK    4  A    between atoms: C8_12  and  O4_14 
REMARK    5  A    between atoms: C14_20  and  C15_21 
REMARK    6  A    between atoms: C15_21  and  C17_23 
REMARK    7  A    between atoms: C17_23  and  C18_24 
REMARK    8  A    between atoms: C18_24  and  C19_25 
REMARK    9  A    between atoms: C23_29  and  C25_31 
REMARK   10  A    between atoms: C25_31  and  C27_33 
ROOT
HETATM    1  C3  UNL     1      12.550  19.766   6.774  1.00  0.00     0.057 C 
HETATM    2  C4  UNL     1      12.552  20.449   8.147  1.00  0.00     0.027 C 
HETATM    3  C5  UNL     1      11.440  20.453   6.046  1.00  0.00     0.018 C 
HETATM    4  C6  UNL     1      11.540  21.940   5.968  1.00  0.00     0.041 C 
HETATM    5  C7  UNL     1      10.418  22.197   4.934  1.00  0.00     0.153 C 
HETATM    6  C8  UNL     1       9.433  21.127   5.227  1.00  0.00     0.087 C 
HETATM    7  C9  UNL     1       8.064  21.596   5.572  1.00  0.00     0.049 C 
HETATM    8  C10 UNL     1      10.049  20.244   6.355  1.00  0.00    -0.006 C 
HETATM    9  C11 UNL     1       9.496  20.925   7.607  1.00  0.00     0.019 C 
HETATM   10  C12 UNL     1       9.390  18.940   6.250  1.00  0.00     0.013 C 
HETATM   11  C13 UNL     1      10.103  17.664   6.386  1.00  0.00     0.007 C 
HETATM   12  C14 UNL     1      11.331  17.561   7.284  1.00  0.00    -0.001 C 
HETATM   13  C23 UNL     1      12.532  18.310   6.787  1.00  0.00    -0.014 C 
HETATM   14  C24 UNL     1      12.309  18.007   5.217  1.00  0.00     0.018 C 
ENDROOT
BRANCH  12  15
HETATM   15  C15 UNL     1      10.919  17.153   8.598  1.00  0.00    -0.014 C 
HETATM   16  C16 UNL     1      11.406  15.956   9.319  1.00  0.00     0.010 C 
BRANCH  15  17
HETATM   17  C17 UNL     1       9.381  16.873   8.597  1.00  0.00     0.008 C 
BRANCH  17  18
HETATM   18  C18 UNL     1       8.973  15.560   9.129  1.00  0.00     0.028 C 
BRANCH  18  19
HETATM   19  C19 UNL     1       7.510  15.312   9.225  1.00  0.00    -0.025 C 
HETATM   20  C20 UNL     1       6.965  14.121   9.315  1.00  0.00    -0.091 C 
HETATM   21  C21 UNL     1       7.848  12.924   9.325  1.00  0.00     0.042 C 
HETATM   22  C22 UNL     1       5.503  13.924   9.409  1.00  0.00     0.042 C 
ENDBRANCH  18  19
ENDBRANCH  17  18
ENDBRANCH  15  17
ENDBRANCH  12  15
BRANCH  13  23
HETATM   23  C25 UNL     1      13.749  17.494   6.933  1.00  0.00     0.053 C 
HETATM   24  C26 UNL     1      14.419  17.306   8.271  1.00  0.00     0.018 C 
BRANCH  23  25
HETATM   25  C27 UNL     1      13.676  16.078   6.485  1.00  0.00     0.236 C 
HETATM   26  O5  UNL     1      14.566  15.485   5.915  1.00  0.00    -0.306 OA
ENDBRANCH  23  25
ENDBRANCH  13  23
BRANCH   1  27
HETATM   27  C2  UNL     1      13.738  20.358   6.119  1.00  0.00     0.268 C 
HETATM   28  O2  UNL     1      13.974  20.466   4.897  1.00  0.00    -0.264 OA
BRANCH  27  29
HETATM   29  O1  UNL     1      14.811  20.905   6.863  1.00  0.00    -0.326 OA
HETATM   30  C1  UNL     1      16.113  20.417   6.866  1.00  0.00     0.213 C 
ENDBRANCH  27  29
ENDBRANCH   1  27
BRANCH   6  31
HETATM   31  O4  UNL     1       9.309  20.371   4.041  1.00  0.00    -0.387 OA
ATOM     32  H4  UNL     1       8.385  20.177   3.945  1.00  0.00     0.210 HD
ENDBRANCH   6  31
BRANCH   5  33
HETATM   33  O3  UNL     1      10.950  22.157   3.647  1.00  0.00    -0.393 OA
ATOM     34  H3  UNL     1      11.267  23.020   3.408  1.00  0.00     0.210 HD
ENDBRANCH   5  33
TORSDOF 10
ENDMDL
