MODEL 1
REMARK VINA RESULT: -5.806173968      0.000      0.000
REMARK  2 active torsions:
REMARK  status: ('A' for Active; 'I' for Inactive)
REMARK       I    between atoms: N2_3  and  C2_5 
REMARK    1  A    between atoms: N4_7  and  N5_9 
REMARK       I    between atoms: N5_9  and  C3_11 
REMARK    2  A    between atoms: N7_13  and  N8_15 
ROOT
HETATM    1  N1  UNL     1     -17.222 -30.066  95.148  1.00  0.00    -0.172 NA
HETATM    2  C1  UNL     1     -16.933 -30.606  96.138  1.00  0.00     0.184 C 
HETATM    3  N2  UNL     1     -16.601 -31.268  97.322  1.00  0.00    -0.266 N 
ATOM      4  H2  UNL     1     -17.315 -31.486  98.018  1.00  0.00     0.180 HD
HETATM    5  C2  UNL     1     -15.241 -31.630  97.532  1.00  0.00     0.216 C 
HETATM    6  N3  UNL     1     -14.813 -32.995  97.493  1.00  0.00    -0.061 NA
HETATM    7  N4  UNL     1     -14.432 -30.644  97.759  1.00  0.00    -0.271 N 
ATOM      8  H4  UNL     1     -14.755 -29.677  97.784  1.00  0.00     0.189 HD
ENDROOT
BRANCH   7   9
HETATM    9  N5  UNL     1     -13.092 -30.981  97.968  1.00  0.00    -0.270 N 
HETATM   10  C3  UNL     1     -12.214 -31.219  96.880  1.00  0.00     0.221 C 
HETATM   11  N6  UNL     1     -10.844 -30.927  97.075  1.00  0.00    -0.061 NA
HETATM   12  N7  UNL     1     -12.624 -31.685  95.744  1.00  0.00    -0.279 N 
ATOM     13  H7  UNL     1     -13.612 -31.896  95.604  1.00  0.00     0.189 HD
ATOM     14  H5  UNL     1     -12.739 -31.056  98.923  1.00  0.00     0.189 HD
BRANCH  12  15
HETATM   15  N8  UNL     1     -11.714 -31.897  94.715  1.00  0.00    -0.343 N 
ATOM     16  H82 UNL     1     -11.972 -32.515  93.945  1.00  0.00     0.176 HD
ATOM     17  H81 UNL     1     -10.804 -31.437  94.739  1.00  0.00     0.176 HD
ENDBRANCH  12  15
ENDBRANCH   7   9
TORSDOF 2
ENDMDL
MODEL 2
REMARK VINA RESULT: -5.381809710      2.569      4.405
REMARK  2 active torsions:
REMARK  status: ('A' for Active; 'I' for Inactive)
REMARK       I    between atoms: N2_3  and  C2_5 
REMARK    1  A    between atoms: N4_7  and  N5_9 
REMARK       I    between atoms: N5_9  and  C3_11 
REMARK    2  A    between atoms: N7_13  and  N8_15 
ROOT
HETATM    1  N1  UNL     1     -11.568 -30.950  96.975  1.00  0.00    -0.172 NA
HETATM    2  C1  UNL     1     -12.601 -31.169  97.465  1.00  0.00     0.184 C 
HETATM    3  N2  UNL     1     -13.842 -31.410  98.057  1.00  0.00    -0.266 N 
ATOM      4  H2  UNL     1     -14.054 -31.059  98.991  1.00  0.00     0.180 HD
HETATM    5  C2  UNL     1     -14.804 -32.159  97.322  1.00  0.00     0.216 C 
HETATM    6  N3  UNL     1     -15.982 -31.548  96.787  1.00  0.00    -0.061 NA
HETATM    7  N4  UNL     1     -14.535 -33.418  97.177  1.00  0.00    -0.271 N 
ATOM      8  H4  UNL     1     -13.691 -33.837  97.565  1.00  0.00     0.189 HD
ENDROOT
BRANCH   7   9
HETATM    9  N5  UNL     1     -15.469 -34.169  96.458  1.00  0.00    -0.270 N 
HETATM   10  C3  UNL     1     -15.058 -35.144  95.512  1.00  0.00     0.221 C 
HETATM   11  N6  UNL     1     -15.915 -36.251  95.307  1.00  0.00    -0.061 NA
HETATM   12  N7  UNL     1     -13.951 -35.047  94.850  1.00  0.00    -0.279 N 
ATOM     13  H7  UNL     1     -13.334 -34.248  94.998  1.00  0.00     0.189 HD
ATOM     14  H5  UNL     1     -16.465 -34.014  96.617  1.00  0.00     0.189 HD
BRANCH  12  15
HETATM   15  N8  UNL     1     -13.603 -36.036  93.936  1.00  0.00    -0.343 N 
ATOM     16  H82 UNL     1     -14.227 -36.833  93.807  1.00  0.00     0.176 HD
ATOM     17  H81 UNL     1     -12.735 -35.954  93.406  1.00  0.00     0.176 HD
ENDBRANCH  12  15
ENDBRANCH   7   9
TORSDOF 2
ENDMDL
MODEL 3
REMARK VINA RESULT: -5.359846612      2.827      4.289
REMARK  2 active torsions:
REMARK  status: ('A' for Active; 'I' for Inactive)
REMARK       I    between atoms: N2_3  and  C2_5 
REMARK    1  A    between atoms: N4_7  and  N5_9 
REMARK       I    between atoms: N5_9  and  C3_11 
REMARK    2  A    between atoms: N7_13  and  N8_15 
ROOT
HETATM    1  N1  UNL     1     -16.382 -36.647  97.070  1.00  0.00    -0.172 NA
HETATM    2  C1  UNL     1     -15.479 -36.358  96.396  1.00  0.00     0.184 C 
HETATM    3  N2  UNL     1     -14.403 -36.020  95.571  1.00  0.00    -0.266 N 
ATOM      4  H2  UNL     1     -13.949 -36.723  94.988  1.00  0.00     0.180 HD
HETATM    5  C2  UNL     1     -13.960 -34.667  95.566  1.00  0.00     0.216 C 
HETATM    6  N3  UNL     1     -14.166 -33.815  94.435  1.00  0.00    -0.061 NA
HETATM    7  N4  UNL     1     -13.362 -34.274  96.645  1.00  0.00    -0.271 N 
ATOM      8  H4  UNL     1     -13.223 -34.896  97.441  1.00  0.00     0.189 HD
ENDROOT
BRANCH   7   9
HETATM    9  N5  UNL     1     -12.919 -32.949  96.658  1.00  0.00    -0.270 N 
HETATM   10  C3  UNL     1     -13.713 -31.911  97.211  1.00  0.00     0.221 C 
HETATM   11  N6  UNL     1     -13.035 -30.801  97.768  1.00  0.00    -0.061 NA
HETATM   12  N7  UNL     1     -15.006 -31.954  97.220  1.00  0.00    -0.279 N 
ATOM     13  H7  UNL     1     -15.494 -32.755  96.818  1.00  0.00     0.189 HD
ATOM     14  H5  UNL     1     -12.006 -32.724  96.261  1.00  0.00     0.189 HD
BRANCH  12  15
HETATM   15  N8  UNL     1     -15.729 -30.906  97.778  1.00  0.00    -0.343 N 
ATOM     16  H82 UNL     1     -15.354 -30.424  98.595  1.00  0.00     0.176 HD
ATOM     17  H81 UNL     1     -16.621 -30.630  97.367  1.00  0.00     0.176 HD
ENDBRANCH  12  15
ENDBRANCH   7   9
TORSDOF 2
ENDMDL
MODEL 4
REMARK VINA RESULT: -5.252810276      3.294      4.241
REMARK  2 active torsions:
REMARK  status: ('A' for Active; 'I' for Inactive)
REMARK       I    between atoms: N2_3  and  C2_5 
REMARK    1  A    between atoms: N4_7  and  N5_9 
REMARK       I    between atoms: N5_9  and  C3_11 
REMARK    2  A    between atoms: N7_13  and  N8_15 
ROOT
HETATM    1  N1  UNL     1     -14.070 -37.652  93.928  1.00  0.00    -0.172 NA
HETATM    2  C1  UNL     1     -14.489 -36.580  94.100  1.00  0.00     0.184 C 
HETATM    3  N2  UNL     1     -15.012 -35.301  94.304  1.00  0.00    -0.266 N 
ATOM      4  H2  UNL     1     -15.656 -34.885  93.630  1.00  0.00     0.180 HD
HETATM    5  C2  UNL     1     -14.622 -34.594  95.476  1.00  0.00     0.216 C 
HETATM    6  N3  UNL     1     -15.539 -34.358  96.549  1.00  0.00    -0.061 NA
HETATM    7  N4  UNL     1     -13.394 -34.186  95.496  1.00  0.00    -0.271 N 
ATOM      8  H4  UNL     1     -12.754 -34.362  94.722  1.00  0.00     0.189 HD
ENDROOT
BRANCH   7   9
HETATM    9  N5  UNL     1     -12.993 -33.489  96.639  1.00  0.00    -0.270 N 
HETATM   10  C3  UNL     1     -12.838 -32.078  96.626  1.00  0.00     0.221 C 
HETATM   11  N6  UNL     1     -13.064 -31.388  97.840  1.00  0.00    -0.061 NA
HETATM   12  N7  UNL     1     -12.505 -31.425  95.559  1.00  0.00    -0.279 N 
ATOM     13  H7  UNL     1     -12.342 -31.924  94.684  1.00  0.00     0.189 HD
ATOM     14  H5  UNL     1     -12.809 -34.004  97.500  1.00  0.00     0.189 HD
BRANCH  12  15
HETATM   15  N8  UNL     1     -12.369 -30.043  95.610  1.00  0.00    -0.343 N 
ATOM     16  H82 UNL     1     -13.052 -29.459  95.125  1.00  0.00     0.176 HD
ATOM     17  H81 UNL     1     -11.594 -29.628  96.127  1.00  0.00     0.176 HD
ENDBRANCH  12  15
ENDBRANCH   7   9
TORSDOF 2
ENDMDL
MODEL 5
REMARK VINA RESULT: -5.221802984      3.268      4.337
REMARK  2 active torsions:
REMARK  status: ('A' for Active; 'I' for Inactive)
REMARK       I    between atoms: N2_3  and  C2_5 
REMARK    1  A    between atoms: N4_7  and  N5_9 
REMARK       I    between atoms: N5_9  and  C3_11 
REMARK    2  A    between atoms: N7_13  and  N8_15 
ROOT
HETATM    1  N1  UNL     1     -14.542 -37.500  93.679  1.00  0.00    -0.172 NA
HETATM    2  C1  UNL     1     -14.915 -36.710  94.448  1.00  0.00     0.184 C 
HETATM    3  N2  UNL     1     -15.374 -35.776  95.380  1.00  0.00    -0.266 N 
ATOM      4  H2  UNL     1     -16.367 -35.700  95.600  1.00  0.00     0.180 HD
HETATM    5  C2  UNL     1     -14.417 -34.935  96.015  1.00  0.00     0.216 C 
HETATM    6  N3  UNL     1     -14.087 -35.086  97.399  1.00  0.00    -0.061 NA
HETATM    7  N4  UNL     1     -13.877 -34.036  95.256  1.00  0.00    -0.271 N 
ATOM      8  H4  UNL     1     -14.125 -33.942  94.271  1.00  0.00     0.189 HD
ENDROOT
BRANCH   7   9
HETATM    9  N5  UNL     1     -12.936 -33.200  95.862  1.00  0.00    -0.270 N 
HETATM   10  C3  UNL     1     -13.333 -32.035  96.570  1.00  0.00     0.221 C 
HETATM   11  N6  UNL     1     -12.508 -31.611  97.638  1.00  0.00    -0.061 NA
HETATM   12  N7  UNL     1     -14.401 -31.369  96.270  1.00  0.00    -0.279 N 
ATOM     13  H7  UNL     1     -14.996 -31.675  95.499  1.00  0.00     0.189 HD
ATOM     14  H5  UNL     1     -11.945 -33.431  95.796  1.00  0.00     0.189 HD
BRANCH  12  15
HETATM   15  N8  UNL     1     -14.737 -30.235  97.001  1.00  0.00    -0.343 N 
ATOM     16  H82 UNL     1     -15.597 -30.236  97.551  1.00  0.00     0.176 HD
ATOM     17  H81 UNL     1     -14.125 -29.419  96.981  1.00  0.00     0.176 HD
ENDBRANCH  12  15
ENDBRANCH   7   9
TORSDOF 2
ENDMDL
