MODEL 1
REMARK VINA RESULT: -5.417479402      0.000      0.000
REMARK  2 active torsions:
REMARK  status: ('A' for Active; 'I' for Inactive)
REMARK    1  A    between atoms: N1_1  and  N2_4 
REMARK    2  A    between atoms: N2_4  and  C1_6 
ROOT
HETATM    1  C1  UNL     1     -12.226 -31.427  97.159  1.00  0.00     0.141 C 
HETATM    2  C2  UNL     1     -13.107 -32.279  96.667  1.00  0.00     0.121 A 
HETATM    3  N3  UNL     1     -12.767 -33.220  95.656  1.00  0.00    -0.313 N 
ATOM      4  H3  UNL     1     -11.814 -33.244  95.294  1.00  0.00     0.169 HD
HETATM    5  C3  UNL     1     -13.732 -34.126  95.144  1.00  0.00     0.314 A 
HETATM    6  O1  UNL     1     -13.404 -34.954  94.242  1.00  0.00    -0.262 OA
HETATM    7  C4  UNL     1     -15.109 -34.144  95.619  1.00  0.00     0.316 A 
HETATM    8  O2  UNL     1     -15.947 -34.966  95.141  1.00  0.00    -0.262 OA
HETATM    9  N4  UNL     1     -15.464 -33.210  96.630  1.00  0.00    -0.284 N 
ATOM     10  H4  UNL     1     -16.418 -33.192  96.989  1.00  0.00     0.172 HD
HETATM   11  C5  UNL     1     -14.501 -32.302  97.144  1.00  0.00     0.276 A 
HETATM   12  O3  UNL     1     -14.797 -31.458  98.050  1.00  0.00    -0.266 OA
ENDROOT
BRANCH   1  13
HETATM   13  N2  UNL     1     -10.907 -31.464  96.652  1.00  0.00    -0.316 N 
ATOM     14  H2  UNL     1     -10.765 -31.248  95.665  1.00  0.00     0.185 HD
BRANCH  13  15
HETATM   15  N1  UNL     1      -9.783 -31.779  97.427  1.00  0.00    -0.345 N 
ATOM     16  H12 UNL     1      -9.836 -32.622  97.999  1.00  0.00     0.176 HD
ATOM     17  H11 UNL     1      -8.932 -31.217  97.446  1.00  0.00     0.176 HD
ENDBRANCH  13  15
ENDBRANCH   1  13
TORSDOF 2
ENDMDL
MODEL 2
REMARK VINA RESULT: -5.186544377      2.230      4.057
REMARK  2 active torsions:
REMARK  status: ('A' for Active; 'I' for Inactive)
REMARK    1  A    between atoms: N1_1  and  N2_4 
REMARK    2  A    between atoms: N2_4  and  C1_6 
ROOT
HETATM    1  C1  UNL     1     -14.441 -35.412  94.912  1.00  0.00     0.141 C 
HETATM    2  C2  UNL     1     -14.116 -34.309  95.561  1.00  0.00     0.121 A 
HETATM    3  N3  UNL     1     -13.032 -33.483  95.154  1.00  0.00    -0.313 N 
ATOM      4  H3  UNL     1     -12.483 -33.743  94.335  1.00  0.00     0.169 HD
HETATM    5  C3  UNL     1     -12.703 -32.301  95.869  1.00  0.00     0.314 A 
HETATM    6  O1  UNL     1     -11.731 -31.582  95.486  1.00  0.00    -0.262 OA
HETATM    7  C4  UNL     1     -13.447 -31.872  97.045  1.00  0.00     0.316 A 
HETATM    8  O2  UNL     1     -13.128 -30.811  97.661  1.00  0.00    -0.262 OA
HETATM    9  N4  UNL     1     -14.535 -32.687  97.464  1.00  0.00    -0.284 N 
ATOM     10  H4  UNL     1     -15.081 -32.419  98.282  1.00  0.00     0.172 HD
HETATM   11  C5  UNL     1     -14.866 -33.869  96.751  1.00  0.00     0.276 A 
HETATM   12  O3  UNL     1     -15.836 -34.613  97.108  1.00  0.00    -0.266 OA
ENDROOT
BRANCH   1  13
HETATM   13  N2  UNL     1     -13.675 -35.769  93.778  1.00  0.00    -0.316 N 
ATOM     14  H2  UNL     1     -13.606 -35.098  93.013  1.00  0.00     0.185 HD
BRANCH  13  15
HETATM   15  N1  UNL     1     -13.005 -36.992  93.646  1.00  0.00    -0.345 N 
ATOM     16  H12 UNL     1     -13.365 -37.780  94.184  1.00  0.00     0.176 HD
ATOM     17  H11 UNL     1     -12.190 -37.130  93.048  1.00  0.00     0.176 HD
ENDBRANCH  13  15
ENDBRANCH   1  13
TORSDOF 2
ENDMDL
MODEL 3
REMARK VINA RESULT: -4.991941005      2.681      3.391
REMARK  2 active torsions:
REMARK  status: ('A' for Active; 'I' for Inactive)
REMARK    1  A    between atoms: N1_1  and  N2_4 
REMARK    2  A    between atoms: N2_4  and  C1_6 
ROOT
HETATM    1  C1  UNL     1     -14.254 -31.630  96.953  1.00  0.00     0.141 C 
HETATM    2  C2  UNL     1     -14.347 -32.857  96.476  1.00  0.00     0.121 A 
HETATM    3  N3  UNL     1     -15.286 -33.798  96.982  1.00  0.00    -0.313 N 
ATOM      4  H3  UNL     1     -15.912 -33.523  97.740  1.00  0.00     0.169 HD
HETATM    5  C3  UNL     1     -15.367 -35.111  96.452  1.00  0.00     0.314 A 
HETATM    6  O1  UNL     1     -16.212 -35.931  96.922  1.00  0.00    -0.262 OA
HETATM    7  C4  UNL     1     -14.504 -35.567  95.370  1.00  0.00     0.316 A 
HETATM    8  O2  UNL     1     -14.602 -36.747  94.918  1.00  0.00    -0.262 OA
HETATM    9  N4  UNL     1     -13.561 -34.637  94.852  1.00  0.00    -0.284 N 
ATOM     10  H4  UNL     1     -12.939 -34.918  94.094  1.00  0.00     0.172 HD
HETATM   11  C5  UNL     1     -13.477 -33.322  95.381  1.00  0.00     0.276 A 
HETATM   12  O3  UNL     1     -12.641 -32.475  94.932  1.00  0.00    -0.266 OA
ENDROOT
BRANCH   1  13
HETATM   13  N2  UNL     1     -15.124 -31.255  98.004  1.00  0.00    -0.316 N 
ATOM     14  H2  UNL     1     -14.757 -31.260  98.956  1.00  0.00     0.185 HD
BRANCH  13  15
HETATM   15  N1  UNL     1     -16.459 -30.877  97.812  1.00  0.00    -0.345 N 
ATOM     16  H12 UNL     1     -17.001 -30.649  98.645  1.00  0.00     0.176 HD
ATOM     17  H11 UNL     1     -16.906 -30.821  96.896  1.00  0.00     0.176 HD
ENDBRANCH  13  15
ENDBRANCH   1  13
TORSDOF 2
ENDMDL
MODEL 4
REMARK VINA RESULT: -4.853372218      2.892      4.797
REMARK  2 active torsions:
REMARK  status: ('A' for Active; 'I' for Inactive)
REMARK    1  A    between atoms: N1_1  and  N2_4 
REMARK    2  A    between atoms: N2_4  and  C1_6 
ROOT
HETATM    1  C1  UNL     1     -15.089 -36.801  94.793  1.00  0.00     0.141 C 
HETATM    2  C2  UNL     1     -14.670 -35.708  95.405  1.00  0.00     0.121 A 
HETATM    3  N3  UNL     1     -13.950 -34.689  94.724  1.00  0.00    -0.313 N 
ATOM      4  H3  UNL     1     -13.745 -34.797  93.731  1.00  0.00     0.169 HD
HETATM    5  C3  UNL     1     -13.510 -33.523  95.404  1.00  0.00     0.314 A 
HETATM    6  O1  UNL     1     -12.869 -32.629  94.775  1.00  0.00    -0.262 OA
HETATM    7  C4  UNL     1     -13.770 -33.306  96.821  1.00  0.00     0.316 A 
HETATM    8  O2  UNL     1     -13.365 -32.253  97.399  1.00  0.00    -0.262 OA
HETATM    9  N4  UNL     1     -14.491 -34.316  97.515  1.00  0.00    -0.284 N 
ATOM     10  H4  UNL     1     -14.693 -34.201  98.508  1.00  0.00     0.172 HD
HETATM   11  C5  UNL     1     -14.931 -35.484  96.838  1.00  0.00     0.276 A 
HETATM   12  O3  UNL     1     -15.578 -36.400  97.440  1.00  0.00    -0.266 OA
ENDROOT
BRANCH   1  13
HETATM   13  N2  UNL     1     -14.802 -36.946  93.416  1.00  0.00    -0.316 N 
ATOM     14  H2  UNL     1     -14.492 -36.123  92.900  1.00  0.00     0.185 HD
BRANCH  13  15
HETATM   15  N1  UNL     1     -14.918 -38.157  92.720  1.00  0.00    -0.345 N 
ATOM     16  H12 UNL     1     -15.782 -38.313  92.202  1.00  0.00     0.176 HD
ATOM     17  H11 UNL     1     -14.194 -38.875  92.708  1.00  0.00     0.176 HD
ENDBRANCH  13  15
ENDBRANCH   1  13
TORSDOF 2
ENDMDL
MODEL 5
REMARK VINA RESULT: -4.695465352      2.633      3.741
REMARK  2 active torsions:
REMARK  status: ('A' for Active; 'I' for Inactive)
REMARK    1  A    between atoms: N1_1  and  N2_4 
REMARK    2  A    between atoms: N2_4  and  C1_6 
ROOT
HETATM    1  C1  UNL     1     -14.099 -33.034  95.252  1.00  0.00     0.141 C 
HETATM    2  C2  UNL     1     -14.210 -34.266  95.714  1.00  0.00     0.121 A 
HETATM    3  N3  UNL     1     -14.241 -34.553  97.106  1.00  0.00    -0.313 N 
ATOM      4  H3  UNL     1     -14.176 -33.787  97.777  1.00  0.00     0.169 HD
HETATM    5  C3  UNL     1     -14.362 -35.886  97.578  1.00  0.00     0.314 A 
HETATM    6  O1  UNL     1     -14.386 -36.115  98.824  1.00  0.00    -0.262 OA
HETATM    7  C4  UNL     1     -14.460 -37.024  96.673  1.00  0.00     0.316 A 
HETATM    8  O2  UNL     1     -14.568 -38.202  97.126  1.00  0.00    -0.262 OA
HETATM    9  N4  UNL     1     -14.433 -36.753  95.277  1.00  0.00    -0.284 N 
ATOM     10  H4  UNL     1     -14.500 -37.523  94.612  1.00  0.00     0.172 HD
HETATM   11  C5  UNL     1     -14.311 -35.420  94.803  1.00  0.00     0.276 A 
HETATM   12  O3  UNL     1     -14.285 -35.156  93.558  1.00  0.00    -0.266 OA
ENDROOT
BRANCH   1  13
HETATM   13  N2  UNL     1     -14.007 -31.977  96.187  1.00  0.00    -0.316 N 
ATOM     14  H2  UNL     1     -14.731 -31.903  96.902  1.00  0.00     0.185 HD
BRANCH  13  15
HETATM   15  N1  UNL     1     -12.978 -31.026  96.188  1.00  0.00    -0.345 N 
ATOM     16  H12 UNL     1     -13.095 -30.216  96.797  1.00  0.00     0.176 HD
ATOM     17  H11 UNL     1     -12.135 -31.103  95.619  1.00  0.00     0.176 HD
ENDBRANCH  13  15
ENDBRANCH   1  13
TORSDOF 2
ENDMDL
