MODEL 1
REMARK VINA RESULT: -5.629383434      0.000      0.000
REMARK  2 active torsions:
REMARK  status: ('A' for Active; 'I' for Inactive)
REMARK       I    between atoms: C1_2  and  N2_4 
REMARK    1  A    between atoms: N2_4  and  C2_5 
REMARK    2  A    between atoms: C2_5  and  N3_6 
ROOT
HETATM    1  C2  UNL     1     -13.810 -32.458  96.719  1.00  0.00     0.419 C 
HETATM    2  C3  UNL     1     -13.281 -32.652  95.306  1.00  0.00     0.317 C 
HETATM    3  O2  UNL     1     -13.991 -32.964  94.327  1.00  0.00    -0.265 OA
HETATM    4  N4  UNL     1     -11.896 -32.432  95.284  1.00  0.00    -0.262 N 
ATOM      5  H4  UNL     1     -11.258 -32.722  94.543  1.00  0.00     0.190 HD
HETATM    6  N5  UNL     1     -11.533 -31.737  96.468  1.00  0.00    -0.262 N 
ATOM      7  H5  UNL     1     -10.594 -31.442  96.734  1.00  0.00     0.190 HD
HETATM    8  C4  UNL     1     -12.719 -31.534  97.208  1.00  0.00     0.317 C 
HETATM    9  O3  UNL     1     -12.873 -30.722  98.134  1.00  0.00    -0.265 OA
ENDROOT
BRANCH   1  10
HETATM   10  N2  UNL     1     -15.054 -31.886  96.753  1.00  0.00    -0.339 NA
HETATM   11  C1  UNL     1     -16.289 -31.319  96.785  1.00  0.00     0.404 C 
HETATM   12  N1  UNL     1     -16.905 -30.729  95.616  1.00  0.00    -0.025 NA
HETATM   13  O1  UNL     1     -17.046 -31.234  97.809  1.00  0.00    -0.234 OA
ENDBRANCH   1  10
BRANCH   1  14
HETATM   14  N3  UNL     1     -13.628 -33.780  97.295  1.00  0.00    -0.022 N 
ATOM     15  H33 UNL     1     -14.445 -34.007  97.862  1.00  0.00     0.279 HD
ATOM     16  H32 UNL     1     -13.703 -34.475  96.553  1.00  0.00     0.279 HD
ATOM     17  H31 UNL     1     -12.787 -33.970  97.839  1.00  0.00     0.279 HD
ENDBRANCH   1  14
TORSDOF 2
ENDMDL
MODEL 2
REMARK VINA RESULT: -5.331529697      2.144      3.502
REMARK  2 active torsions:
REMARK  status: ('A' for Active; 'I' for Inactive)
REMARK       I    between atoms: C1_2  and  N2_4 
REMARK    1  A    between atoms: N2_4  and  C2_5 
REMARK    2  A    between atoms: C2_5  and  N3_6 
ROOT
HETATM    1  C2  UNL     1     -14.339 -32.054  97.736  1.00  0.00     0.419 C 
HETATM    2  C3  UNL     1     -13.282 -31.304  96.939  1.00  0.00     0.317 C 
HETATM    3  O2  UNL     1     -12.165 -31.774  96.636  1.00  0.00    -0.265 OA
HETATM    4  N4  UNL     1     -13.756 -30.025  96.609  1.00  0.00    -0.262 N 
ATOM      5  H4  UNL     1     -13.186 -29.240  96.297  1.00  0.00     0.190 HD
HETATM    6  N5  UNL     1     -15.165 -30.011  96.783  1.00  0.00    -0.262 N 
ATOM      7  H5  UNL     1     -15.788 -29.219  96.624  1.00  0.00     0.190 HD
HETATM    8  C4  UNL     1     -15.542 -31.301  97.218  1.00  0.00     0.317 C 
HETATM    9  O3  UNL     1     -16.689 -31.775  97.195  1.00  0.00    -0.265 OA
ENDROOT
BRANCH   1  10
HETATM   10  N2  UNL     1     -14.378 -33.392  97.449  1.00  0.00    -0.339 NA
HETATM   11  C1  UNL     1     -14.416 -34.721  97.163  1.00  0.00     0.404 C 
HETATM   12  N1  UNL     1     -14.632 -35.222  95.823  1.00  0.00    -0.025 NA
HETATM   13  O1  UNL     1     -14.271 -35.671  98.003  1.00  0.00    -0.234 OA
ENDBRANCH   1  10
BRANCH   1  14
HETATM   14  N3  UNL     1     -14.045 -31.635  99.096  1.00  0.00    -0.022 N 
ATOM     15  H33 UNL     1     -14.851 -31.842  99.685  1.00  0.00     0.279 HD
ATOM     16  H32 UNL     1     -13.345 -32.263  99.490  1.00  0.00     0.279 HD
ATOM     17  H31 UNL     1     -13.754 -30.672  99.264  1.00  0.00     0.279 HD
ENDBRANCH   1  14
TORSDOF 2
ENDMDL
MODEL 3
REMARK VINA RESULT: -5.070945962      2.174      3.512
REMARK  2 active torsions:
REMARK  status: ('A' for Active; 'I' for Inactive)
REMARK       I    between atoms: C1_2  and  N2_4 
REMARK    1  A    between atoms: N2_4  and  C2_5 
REMARK    2  A    between atoms: C2_5  and  N3_6 
ROOT
HETATM    1  C2  UNL     1     -14.400 -32.549  96.487  1.00  0.00     0.419 C 
HETATM    2  C3  UNL     1     -13.983 -31.661  97.649  1.00  0.00     0.317 C 
HETATM    3  O2  UNL     1     -14.419 -31.777  98.814  1.00  0.00    -0.265 OA
HETATM    4  N4  UNL     1     -13.051 -30.710  97.208  1.00  0.00    -0.262 N 
ATOM      5  H4  UNL     1     -12.790 -29.856  97.702  1.00  0.00     0.190 HD
HETATM    6  N5  UNL     1     -12.531 -31.137  95.957  1.00  0.00    -0.262 N 
ATOM      7  H5  UNL     1     -11.838 -30.650  95.390  1.00  0.00     0.190 HD
HETATM    8  C4  UNL     1     -13.157 -32.364  95.647  1.00  0.00     0.317 C 
HETATM    9  O3  UNL     1     -12.769 -33.192  94.807  1.00  0.00    -0.265 OA
ENDROOT
BRANCH   1  10
HETATM   10  N2  UNL     1     -14.612 -33.850  96.854  1.00  0.00    -0.339 NA
HETATM   11  C1  UNL     1     -14.822 -35.144  97.218  1.00  0.00     0.404 C 
HETATM   12  N1  UNL     1     -15.767 -36.000  96.534  1.00  0.00    -0.025 NA
HETATM   13  O1  UNL     1     -14.238 -35.756  98.173  1.00  0.00    -0.234 OA
ENDBRANCH   1  10
BRANCH   1  14
HETATM   14  N3  UNL     1     -15.500 -31.793  95.909  1.00  0.00    -0.022 N 
ATOM     15  H33 UNL     1     -16.295 -32.418  95.779  1.00  0.00     0.279 HD
ATOM     16  H32 UNL     1     -15.864 -31.153  96.613  1.00  0.00     0.279 HD
ATOM     17  H31 UNL     1     -15.343 -31.276  95.044  1.00  0.00     0.279 HD
ENDBRANCH   1  14
TORSDOF 2
ENDMDL
MODEL 4
REMARK VINA RESULT: -4.974197482      1.902      3.455
REMARK  2 active torsions:
REMARK  status: ('A' for Active; 'I' for Inactive)
REMARK       I    between atoms: C1_2  and  N2_4 
REMARK    1  A    between atoms: N2_4  and  C2_5 
REMARK    2  A    between atoms: C2_5  and  N3_6 
ROOT
HETATM    1  C2  UNL     1     -14.346 -32.612  96.760  1.00  0.00     0.419 C 
HETATM    2  C3  UNL     1     -13.295 -31.620  96.288  1.00  0.00     0.317 C 
HETATM    3  O2  UNL     1     -12.267 -31.935  95.651  1.00  0.00    -0.265 OA
HETATM    4  N4  UNL     1     -13.658 -30.322  96.678  1.00  0.00    -0.262 N 
ATOM      5  H4  UNL     1     -13.038 -29.513  96.708  1.00  0.00     0.190 HD
HETATM    6  N5  UNL     1     -15.035 -30.327  97.022  1.00  0.00    -0.262 N 
ATOM      7  H5  UNL     1     -15.582 -29.529  97.347  1.00  0.00     0.190 HD
HETATM    8  C4  UNL     1     -15.505 -31.645  96.832  1.00  0.00     0.317 C 
HETATM    9  O3  UNL     1     -16.693 -31.992  96.736  1.00  0.00    -0.265 OA
ENDROOT
BRANCH   1  10
HETATM   10  N2  UNL     1     -14.554 -33.636  95.875  1.00  0.00    -0.339 NA
HETATM   11  C1  UNL     1     -14.762 -34.652  94.996  1.00  0.00     0.404 C 
HETATM   12  N1  UNL     1     -15.735 -35.697  95.232  1.00  0.00    -0.025 NA
HETATM   13  O1  UNL     1     -14.155 -34.818  93.886  1.00  0.00    -0.234 OA
ENDBRANCH   1  10
BRANCH   1  14
HETATM   14  N3  UNL     1     -13.885 -32.926  98.102  1.00  0.00    -0.022 N 
ATOM     15  H33 UNL     1     -14.044 -32.116  98.702  1.00  0.00     0.279 HD
ATOM     16  H32 UNL     1     -14.519 -33.607  98.517  1.00  0.00     0.279 HD
ATOM     17  H31 UNL     1     -12.926 -33.247  98.232  1.00  0.00     0.279 HD
ENDBRANCH   1  14
TORSDOF 2
ENDMDL
MODEL 5
REMARK VINA RESULT: -4.464108293      2.587      3.780
REMARK  2 active torsions:
REMARK  status: ('A' for Active; 'I' for Inactive)
REMARK       I    between atoms: C1_2  and  N2_4 
REMARK    1  A    between atoms: N2_4  and  C2_5 
REMARK    2  A    between atoms: C2_5  and  N3_6 
ROOT
HETATM    1  C2  UNL     1     -14.033 -33.664  96.511  1.00  0.00     0.419 C 
HETATM    2  C3  UNL     1     -15.078 -33.568  95.410  1.00  0.00     0.317 C 
HETATM    3  O2  UNL     1     -15.477 -34.540  94.733  1.00  0.00    -0.265 OA
HETATM    4  N4  UNL     1     -15.510 -32.240  95.280  1.00  0.00    -0.262 N 
ATOM      5  H4  UNL     1     -16.012 -31.851  94.482  1.00  0.00     0.190 HD
HETATM    6  N5  UNL     1     -15.130 -31.529  96.449  1.00  0.00    -0.262 N 
ATOM      7  H5  UNL     1     -15.304 -30.542  96.642  1.00  0.00     0.190 HD
HETATM    8  C4  UNL     1     -14.465 -32.445  97.293  1.00  0.00     0.317 C 
HETATM    9  O3  UNL     1     -14.248 -32.298  98.507  1.00  0.00    -0.265 OA
ENDROOT
BRANCH   1  10
HETATM   10  N2  UNL     1     -14.119 -34.824  97.233  1.00  0.00    -0.339 NA
HETATM   11  C1  UNL     1     -14.203 -35.977  97.950  1.00  0.00     0.404 C 
HETATM   12  N1  UNL     1     -14.069 -37.282  97.341  1.00  0.00    -0.025 NA
HETATM   13  O1  UNL     1     -14.401 -36.063  99.208  1.00  0.00    -0.234 OA
ENDBRANCH   1  10
BRANCH   1  14
HETATM   14  N3  UNL     1     -12.806 -33.374  95.788  1.00  0.00    -0.022 N 
ATOM     15  H33 UNL     1     -13.046 -33.013  94.865  1.00  0.00     0.279 HD
ATOM     16  H32 UNL     1     -12.361 -32.560  96.210  1.00  0.00     0.279 HD
ATOM     17  H31 UNL     1     -12.110 -34.112  95.682  1.00  0.00     0.279 HD
ENDBRANCH   1  14
TORSDOF 2
ENDMDL
