MODEL 1
REMARK VINA RESULT: -6.281905814      0.000      0.000
REMARK  4 active torsions:
REMARK  status: ('A' for Active; 'I' for Inactive)
REMARK    1  A    between atoms: C2_2  and  N1_3 
REMARK    2  A    between atoms: C2_2  and  C3_7 
REMARK       I    between atoms: C3_7  and  N2_9 
REMARK    3  A    between atoms: N5_17  and  N6_19 
REMARK    4  A    between atoms: N6_19  and  N7_21 
ROOT
HETATM    1  C3  UNL     1     -14.008 -33.268  95.600  1.00  0.00     0.253 C 
HETATM    2  O1  UNL     1     -13.437 -34.036  96.433  1.00  0.00    -0.271 OA
HETATM    3  N2  UNL     1     -15.179 -33.744  94.983  1.00  0.00    -0.307 N 
ATOM      4  H2  UNL     1     -16.059 -33.244  95.120  1.00  0.00     0.170 HD
HETATM    5  C4  UNL     1     -15.155 -34.802  94.247  1.00  0.00     0.177 A 
HETATM    6  N3  UNL     1     -14.004 -35.590  93.971  1.00  0.00    -0.280 N 
ATOM      7  H3  UNL     1     -13.071 -35.393  94.335  1.00  0.00     0.188 HD
HETATM    8  N4  UNL     1     -14.308 -36.656  93.150  1.00  0.00    -0.279 N 
ATOM      9  H4  UNL     1     -13.647 -37.359  92.816  1.00  0.00     0.189 HD
HETATM   10  C5  UNL     1     -15.704 -36.610  92.845  1.00  0.00     0.191 A 
HETATM   11  N5  UNL     1     -16.381 -37.438  92.100  1.00  0.00    -0.267 N 
ATOM     12  H5  UNL     1     -17.381 -37.307  91.951  1.00  0.00     0.190 HD
HETATM   13  C6  UNL     1     -16.254 -35.440  93.534  1.00  0.00     0.263 A 
HETATM   14  O2  UNL     1     -17.442 -35.027  93.537  1.00  0.00    -0.280 OA
ENDROOT
BRANCH   1  15
HETATM   15  C2  UNL     1     -13.396 -31.958  95.355  1.00  0.00     0.271 C 
HETATM   16  C1  UNL     1     -13.032 -31.231  96.630  1.00  0.00     0.050 C 
BRANCH  15  17
HETATM   17  N1  UNL     1     -12.156 -32.125  94.586  1.00  0.00    -0.067 N 
ATOM     18  H13 UNL     1     -12.008 -31.386  93.897  1.00  0.00     0.275 HD
ATOM     19  H12 UNL     1     -11.315 -31.957  95.138  1.00  0.00     0.275 HD
ATOM     20  H11 UNL     1     -12.184 -33.057  94.173  1.00  0.00     0.275 HD
ENDBRANCH  15  17
ENDBRANCH   1  15
BRANCH  11  21
HETATM   21  N6  UNL     1     -15.707 -38.509  91.512  1.00  0.00    -0.248 N 
ATOM     22  H6  UNL     1     -14.912 -38.939  91.986  1.00  0.00     0.207 HD
BRANCH  21  23
HETATM   23  N7  UNL     1     -16.131 -38.987  90.271  1.00  0.00    -0.331 N 
ATOM     24  H72 UNL     1     -16.906 -38.525  89.796  1.00  0.00     0.178 HD
ATOM     25  H71 UNL     1     -15.660 -39.792  89.856  1.00  0.00     0.178 HD
ENDBRANCH  21  23
ENDBRANCH  11  21
TORSDOF 4
ENDMDL
MODEL 2
REMARK VINA RESULT: -6.234364860      2.718      6.239
REMARK  4 active torsions:
REMARK  status: ('A' for Active; 'I' for Inactive)
REMARK    1  A    between atoms: C2_2  and  N1_3 
REMARK    2  A    between atoms: C2_2  and  C3_7 
REMARK       I    between atoms: C3_7  and  N2_9 
REMARK    3  A    between atoms: N5_17  and  N6_19 
REMARK    4  A    between atoms: N6_19  and  N7_21 
ROOT
HETATM    1  C3  UNL     1     -16.416 -34.947  94.708  1.00  0.00     0.253 C 
HETATM    2  O1  UNL     1     -16.293 -34.728  93.464  1.00  0.00    -0.271 OA
HETATM    3  N2  UNL     1     -16.089 -33.895  95.582  1.00  0.00    -0.307 N 
ATOM      4  H2  UNL     1     -16.807 -33.512  96.199  1.00  0.00     0.170 HD
HETATM    5  C4  UNL     1     -14.896 -33.409  95.614  1.00  0.00     0.177 A 
HETATM    6  N3  UNL     1     -13.804 -33.846  94.815  1.00  0.00    -0.280 N 
ATOM      7  H3  UNL     1     -13.860 -34.598  94.127  1.00  0.00     0.188 HD
HETATM    8  N4  UNL     1     -12.660 -33.125  95.087  1.00  0.00    -0.279 N 
ATOM      9  H4  UNL     1     -11.752 -33.257  94.639  1.00  0.00     0.189 HD
HETATM   10  C5  UNL     1     -12.960 -32.162  96.100  1.00  0.00     0.191 A 
HETATM   11  N5  UNL     1     -12.149 -31.291  96.631  1.00  0.00    -0.267 N 
ATOM     12  H5  UNL     1     -12.476 -30.648  97.352  1.00  0.00     0.190 HD
HETATM   13  C6  UNL     1     -14.375 -32.330  96.444  1.00  0.00     0.263 A 
HETATM   14  O2  UNL     1     -15.050 -31.689  97.288  1.00  0.00    -0.280 OA
ENDROOT
BRANCH   1  15
HETATM   15  C2  UNL     1     -16.884 -36.274  95.120  1.00  0.00     0.271 C 
HETATM   16  C1  UNL     1     -17.166 -37.189  93.949  1.00  0.00     0.050 C 
BRANCH  15  17
HETATM   17  N1  UNL     1     -15.858 -36.930  95.942  1.00  0.00    -0.067 N 
ATOM     18  H13 UNL     1     -16.249 -37.551  96.652  1.00  0.00     0.275 HD
ATOM     19  H12 UNL     1     -15.326 -37.635  95.432  1.00  0.00     0.275 HD
ATOM     20  H11 UNL     1     -15.273 -36.192  96.334  1.00  0.00     0.275 HD
ENDBRANCH  15  17
ENDBRANCH   1  15
BRANCH  11  21
HETATM   21  N6  UNL     1     -10.826 -31.257  96.192  1.00  0.00    -0.248 N 
ATOM     22  H6  UNL     1     -10.586 -30.786  95.319  1.00  0.00     0.207 HD
BRANCH  21  23
HETATM   23  N7  UNL     1      -9.833 -31.873  96.957  1.00  0.00    -0.331 N 
ATOM     24  H72 UNL     1      -9.037 -31.322  97.277  1.00  0.00     0.178 HD
ATOM     25  H71 UNL     1      -9.918 -32.864  97.184  1.00  0.00     0.178 HD
ENDBRANCH  21  23
ENDBRANCH  11  21
TORSDOF 4
ENDMDL
MODEL 3
REMARK VINA RESULT: -6.222272017      1.775      1.877
REMARK  4 active torsions:
REMARK  status: ('A' for Active; 'I' for Inactive)
REMARK    1  A    between atoms: C2_2  and  N1_3 
REMARK    2  A    between atoms: C2_2  and  C3_7 
REMARK       I    between atoms: C3_7  and  N2_9 
REMARK    3  A    between atoms: N5_17  and  N6_19 
REMARK    4  A    between atoms: N6_19  and  N7_21 
ROOT
HETATM    1  C3  UNL     1     -13.706 -33.096  95.502  1.00  0.00     0.253 C 
HETATM    2  O1  UNL     1     -12.978 -32.638  94.570  1.00  0.00    -0.271 OA
HETATM    3  N2  UNL     1     -13.944 -34.482  95.513  1.00  0.00    -0.307 N 
ATOM      4  H2  UNL     1     -13.633 -35.040  96.309  1.00  0.00     0.170 HD
HETATM    5  C4  UNL     1     -14.549 -35.056  94.530  1.00  0.00     0.177 A 
HETATM    6  N3  UNL     1     -15.034 -34.403  93.364  1.00  0.00    -0.280 N 
ATOM      7  H3  UNL     1     -14.949 -33.401  93.189  1.00  0.00     0.188 HD
HETATM    8  N4  UNL     1     -15.635 -35.295  92.500  1.00  0.00    -0.279 N 
ATOM      9  H4  UNL     1     -16.056 -35.061  91.600  1.00  0.00     0.189 HD
HETATM   10  C5  UNL     1     -15.568 -36.601  93.076  1.00  0.00     0.191 A 
HETATM   11  N5  UNL     1     -16.021 -37.714  92.574  1.00  0.00    -0.267 N 
ATOM     12  H5  UNL     1     -15.916 -38.594  93.078  1.00  0.00     0.190 HD
HETATM   13  C6  UNL     1     -14.881 -36.465  94.364  1.00  0.00     0.263 A 
HETATM   14  O2  UNL     1     -14.610 -37.365  95.199  1.00  0.00    -0.280 OA
ENDROOT
BRANCH   1  15
HETATM   15  C2  UNL     1     -14.234 -32.140  96.481  1.00  0.00     0.271 C 
HETATM   16  C1  UNL     1     -13.256 -31.035  96.812  1.00  0.00     0.050 C 
BRANCH  15  17
HETATM   17  N1  UNL     1     -15.444 -31.499  95.947  1.00  0.00    -0.067 N 
ATOM     18  H13 UNL     1     -15.960 -32.094  95.299  1.00  0.00     0.275 HD
ATOM     19  H12 UNL     1     -16.182 -31.392  96.643  1.00  0.00     0.275 HD
ATOM     20  H11 UNL     1     -15.153 -30.613  95.533  1.00  0.00     0.275 HD
ENDBRANCH  15  17
ENDBRANCH   1  15
BRANCH  11  21
HETATM   21  N6  UNL     1     -16.653 -37.676  91.331  1.00  0.00    -0.248 N 
ATOM     22  H6  UNL     1     -17.294 -36.915  91.103  1.00  0.00     0.207 HD
BRANCH  21  23
HETATM   23  N7  UNL     1     -16.400 -38.687  90.401  1.00  0.00    -0.331 N 
ATOM     24  H72 UNL     1     -15.903 -38.460  89.540  1.00  0.00     0.178 HD
ATOM     25  H71 UNL     1     -16.717 -39.637  90.595  1.00  0.00     0.178 HD
ENDBRANCH  21  23
ENDBRANCH  11  21
TORSDOF 4
ENDMDL
MODEL 4
REMARK VINA RESULT: -6.197217526      1.867      2.039
REMARK  4 active torsions:
REMARK  status: ('A' for Active; 'I' for Inactive)
REMARK    1  A    between atoms: C2_2  and  N1_3 
REMARK    2  A    between atoms: C2_2  and  C3_7 
REMARK       I    between atoms: C3_7  and  N2_9 
REMARK    3  A    between atoms: N5_17  and  N6_19 
REMARK    4  A    between atoms: N6_19  and  N7_21 
ROOT
HETATM    1  C3  UNL     1     -14.683 -32.374  96.065  1.00  0.00     0.253 C 
HETATM    2  O1  UNL     1     -15.507 -32.786  96.937  1.00  0.00    -0.271 OA
HETATM    3  N2  UNL     1     -14.815 -32.886  94.761  1.00  0.00    -0.307 N 
ATOM      4  H2  UNL     1     -15.014 -32.250  93.988  1.00  0.00     0.170 HD
HETATM    5  C4  UNL     1     -14.686 -34.147  94.531  1.00  0.00     0.177 A 
HETATM    6  N3  UNL     1     -14.407 -35.142  95.509  1.00  0.00    -0.280 N 
ATOM      7  H3  UNL     1     -14.280 -34.950  96.503  1.00  0.00     0.188 HD
HETATM    8  N4  UNL     1     -14.329 -36.398  94.943  1.00  0.00    -0.279 N 
ATOM      9  H4  UNL     1     -14.140 -37.266  95.444  1.00  0.00     0.189 HD
HETATM   10  C5  UNL     1     -14.559 -36.277  93.537  1.00  0.00     0.191 A 
HETATM   11  N5  UNL     1     -14.570 -37.232  92.650  1.00  0.00    -0.267 N 
ATOM     12  H5  UNL     1     -14.747 -37.028  91.667  1.00  0.00     0.190 HD
HETATM   13  C6  UNL     1     -14.787 -34.856  93.261  1.00  0.00     0.263 A 
HETATM   14  O2  UNL     1     -15.027 -34.307  92.155  1.00  0.00    -0.280 OA
ENDROOT
BRANCH   1  15
HETATM   15  C2  UNL     1     -13.669 -31.405  96.493  1.00  0.00     0.271 C 
HETATM   16  C1  UNL     1     -12.488 -31.333  95.551  1.00  0.00     0.050 C 
BRANCH  15  17
HETATM   17  N1  UNL     1     -14.259 -30.060  96.548  1.00  0.00    -0.067 N 
ATOM     18  H13 UNL     1     -13.758 -29.428  97.172  1.00  0.00     0.275 HD
ATOM     19  H12 UNL     1     -14.125 -29.528  95.688  1.00  0.00     0.275 HD
ATOM     20  H11 UNL     1     -15.241 -30.175  96.797  1.00  0.00     0.275 HD
ENDBRANCH  15  17
ENDBRANCH   1  15
BRANCH  11  21
HETATM   21  N6  UNL     1     -14.335 -38.539  93.076  1.00  0.00    -0.248 N 
ATOM     22  H6  UNL     1     -14.722 -38.869  93.960  1.00  0.00     0.207 HD
BRANCH  21  23
HETATM   23  N7  UNL     1     -13.566 -39.392  92.281  1.00  0.00    -0.331 N 
ATOM     24  H72 UNL     1     -13.230 -40.271  92.673  1.00  0.00     0.178 HD
ATOM     25  H71 UNL     1     -13.351 -39.123  91.320  1.00  0.00     0.178 HD
ENDBRANCH  21  23
ENDBRANCH  11  21
TORSDOF 4
ENDMDL
MODEL 5
REMARK VINA RESULT: -6.104676381      2.193      2.378
REMARK  4 active torsions:
REMARK  status: ('A' for Active; 'I' for Inactive)
REMARK    1  A    between atoms: C2_2  and  N1_3 
REMARK    2  A    between atoms: C2_2  and  C3_7 
REMARK       I    between atoms: C3_7  and  N2_9 
REMARK    3  A    between atoms: N5_17  and  N6_19 
REMARK    4  A    between atoms: N6_19  and  N7_21 
ROOT
HETATM    1  C3  UNL     1     -16.200 -32.210  95.845  1.00  0.00     0.253 C 
HETATM    2  O1  UNL     1     -17.449 -32.210  96.065  1.00  0.00    -0.271 OA
HETATM    3  N2  UNL     1     -15.760 -32.756  94.626  1.00  0.00    -0.307 N 
ATOM      4  H2  UNL     1     -15.259 -32.166  93.961  1.00  0.00     0.170 HD
HETATM    5  C4  UNL     1     -15.982 -33.993  94.338  1.00  0.00     0.177 A 
HETATM    6  N3  UNL     1     -16.663 -34.926  95.169  1.00  0.00    -0.280 N 
ATOM      7  H3  UNL     1     -17.049 -34.703  96.086  1.00  0.00     0.188 HD
HETATM    8  N4  UNL     1     -16.736 -36.169  94.576  1.00  0.00    -0.279 N 
ATOM      9  H4  UNL     1     -17.177 -36.997  94.979  1.00  0.00     0.189 HD
HETATM   10  C5  UNL     1     -16.090 -36.104  93.302  1.00  0.00     0.191 A 
HETATM   11  N5  UNL     1     -15.946 -37.066  92.435  1.00  0.00    -0.267 N 
ATOM     12  H5  UNL     1     -15.464 -36.903  91.552  1.00  0.00     0.190 HD
HETATM   13  C6  UNL     1     -15.608 -34.730  93.138  1.00  0.00     0.263 A 
HETATM   14  O2  UNL     1     -14.984 -34.237  92.164  1.00  0.00    -0.280 OA
ENDROOT
BRANCH   1  15
HETATM   15  C2  UNL     1     -15.329 -31.644  96.880  1.00  0.00     0.271 C 
HETATM   16  C1  UNL     1     -14.075 -32.460  97.105  1.00  0.00     0.050 C 
BRANCH  15  17
HETATM   17  N1  UNL     1     -14.900 -30.296  96.485  1.00  0.00    -0.067 N 
ATOM     18  H13 UNL     1     -14.215 -30.298  95.729  1.00  0.00     0.275 HD
ATOM     19  H12 UNL     1     -15.627 -29.769  96.001  1.00  0.00     0.275 HD
ATOM     20  H11 UNL     1     -14.563 -29.831  97.329  1.00  0.00     0.275 HD
ENDBRANCH  15  17
ENDBRANCH   1  15
BRANCH  11  21
HETATM   21  N6  UNL     1     -16.466 -38.323  92.743  1.00  0.00    -0.248 N 
ATOM     22  H6  UNL     1     -16.386 -38.695  93.690  1.00  0.00     0.207 HD
BRANCH  21  23
HETATM   23  N7  UNL     1     -17.097 -39.068  91.744  1.00  0.00    -0.331 N 
ATOM     24  H72 UNL     1     -16.582 -39.815  91.278  1.00  0.00     0.178 HD
ATOM     25  H71 UNL     1     -18.062 -38.854  91.494  1.00  0.00     0.178 HD
ENDBRANCH  21  23
ENDBRANCH  11  21
TORSDOF 4
ENDMDL
