MODEL 1
REMARK VINA RESULT: -7.609915713      0.000      0.000
REMARK  9 active torsions:
REMARK  status: ('A' for Active; 'I' for Inactive)
REMARK    1  A    between atoms: C3_3  and  O1_4 
REMARK    2  A    between atoms: C3_3  and  C5_6 
REMARK    3  A    between atoms: C12_19  and  N5_20 
REMARK    4  A    between atoms: C12_19  and  C13_24 
REMARK    5  A    between atoms: C17_28  and  C18_29 
REMARK    6  A    between atoms: C19_34  and  O2_35 
REMARK    7  A    between atoms: C20_37  and  O3_38 
REMARK    8  A    between atoms: O3_38  and  C21_39 
REMARK    9  A    between atoms: C21_39  and  C22_40 
ROOT
HETATM    1  C1  UNL     1      14.834  51.717  96.561  1.00  0.00     0.099 C 
HETATM    2  C2  UNL     1      13.826  52.357  96.288  1.00  0.00    -0.155 C 
HETATM    3  C3  UNL     1      12.641  53.175  95.987  1.00  0.00     0.199 C 
ENDROOT
BRANCH   3   4
HETATM    4  O1  UNL     1      11.689  52.978  96.977  1.00  0.00    -0.379 OA
HETATM    5  C4  UNL     1      11.898  53.790  98.042  1.00  0.00     0.203 C 
ENDBRANCH   3   4
BRANCH   3   6
HETATM    6  C5  UNL     1      12.093  52.995  94.588  1.00  0.00     0.057 C 
HETATM    7  C6  UNL     1      11.778  51.507  94.498  1.00  0.00     0.022 C 
HETATM    8  C7  UNL     1      12.532  50.595  93.648  1.00  0.00    -0.007 C 
HETATM    9  C8  UNL     1      11.732  50.054  92.435  1.00  0.00     0.025 C 
HETATM   10  C25 UNL     1      13.878  51.046  93.125  1.00  0.00     0.066 C 
HETATM   11  C9  UNL     1      12.021  50.942  91.191  1.00  0.00     0.145 C 
HETATM   12  N1  UNL     1      12.299  52.214  91.835  1.00  0.00    -0.185 N 
HETATM   13  C10 UNL     1      11.226  53.138  91.708  1.00  0.00     0.690 C 
HETATM   14  C20 UNL     1      13.528  52.414  92.537  1.00  0.00     0.153 C 
HETATM   15  N2  UNL     1      10.684  53.133  90.563  1.00  0.00    -0.126 N 
HETATM   16  N4  UNL     1      10.760  53.999  92.741  1.00  0.00    -0.185 N 
HETATM   17  C11 UNL     1       9.609  53.969  90.231  1.00  0.00     0.196 C 
ATOM     18  H2  UNL     1      11.045  52.496  89.854  1.00  0.00     0.197 HD
HETATM   19  N3  UNL     1       8.733  54.675  89.955  1.00  0.00    -0.171 NA
HETATM   20  C12 UNL     1      10.963  53.885  94.197  1.00  0.00     0.251 C 
ATOM     21  H4  UNL     1      10.212  54.802  92.433  1.00  0.00     0.180 HD
HETATM   22  C26 UNL     1      13.362  53.268  93.773  1.00  0.00     0.079 C 
BRANCH  20  23
HETATM   23  N5  UNL     1       9.664  53.085  94.453  1.00  0.00    -0.047 N 
ATOM     24  H53 UNL     1       9.774  52.081  94.313  1.00  0.00     0.277 HD
ATOM     25  H52 UNL     1       9.400  53.047  95.437  1.00  0.00     0.277 HD
ATOM     26  H51 UNL     1       8.946  53.499  93.858  1.00  0.00     0.277 HD
ENDBRANCH  20  23
BRANCH  20  27
HETATM   27  C13 UNL     1      10.649  55.124  94.868  1.00  0.00     0.033 A 
HETATM   28  C14 UNL     1      11.587  56.167  94.968  1.00  0.00     0.014 A 
HETATM   29  C15 UNL     1      11.361  57.393  95.507  1.00  0.00     0.002 A 
HETATM   30  C16 UNL     1      10.104  57.651  96.001  1.00  0.00     0.018 A 
HETATM   31  C17 UNL     1       9.123  56.706  95.955  1.00  0.00     0.038 A 
HETATM   32  C19 UNL     1       9.402  55.449  95.392  1.00  0.00     0.089 A 
BRANCH  31  33
HETATM   33  C18 UNL     1       7.801  56.970  96.474  1.00  0.00     0.123 C 
HETATM   34  N6  UNL     1       6.884  57.480  95.748  1.00  0.00    -0.387 N 
ATOM     35  H62 UNL     1       7.155  57.683  94.785  1.00  0.00     0.157 HD
ATOM     36  H61 UNL     1       5.950  57.666  96.114  1.00  0.00     0.157 HD
HETATM   37  N7  UNL     1       7.421  56.685  97.825  1.00  0.00    -0.082 NA
ENDBRANCH  31  33
BRANCH  32  38
HETATM   38  O2  UNL     1       8.326  54.594  95.437  1.00  0.00    -0.359 OA
ATOM     39  H2  UNL     1       8.107  54.040  96.177  1.00  0.00     0.217 HD
ENDBRANCH  32  38
ENDBRANCH  20  27
BRANCH  14  40
HETATM   40  O3  UNL     1      14.524  52.975  91.797  1.00  0.00    -0.360 OA
BRANCH  40  41
HETATM   41  C21 UNL     1      14.524  54.338  91.714  1.00  0.00     0.175 C 
BRANCH  41  42
HETATM   42  C22 UNL     1      14.899  54.720  90.275  1.00  0.00     0.009 A 
HETATM   43  C23 UNL     1      14.118  55.845  89.695  1.00  0.00     0.007 A 
HETATM   44  C24 UNL     1      13.915  54.457  89.216  1.00  0.00     0.007 A 
ENDBRANCH  41  42
ENDBRANCH  40  41
ENDBRANCH  14  40
ENDBRANCH   3   6
TORSDOF 9
ENDMDL
MODEL 2
REMARK VINA RESULT: -7.221289313      3.655      6.204
REMARK  9 active torsions:
REMARK  status: ('A' for Active; 'I' for Inactive)
REMARK    1  A    between atoms: C3_3  and  O1_4 
REMARK    2  A    between atoms: C3_3  and  C5_6 
REMARK    3  A    between atoms: C12_19  and  N5_20 
REMARK    4  A    between atoms: C12_19  and  C13_24 
REMARK    5  A    between atoms: C17_28  and  C18_29 
REMARK    6  A    between atoms: C19_34  and  O2_35 
REMARK    7  A    between atoms: C20_37  and  O3_38 
REMARK    8  A    between atoms: O3_38  and  C21_39 
REMARK    9  A    between atoms: C21_39  and  C22_40 
ROOT
HETATM    1  C1  UNL     1      13.024  48.356  88.906  1.00  0.00     0.099 C 
HETATM    2  C2  UNL     1      12.606  49.243  89.638  1.00  0.00    -0.155 C 
HETATM    3  C3  UNL     1      12.160  50.332  90.522  1.00  0.00     0.199 C 
ENDROOT
BRANCH   3   4
HETATM    4  O1  UNL     1      12.103  49.862  91.827  1.00  0.00    -0.379 OA
HETATM    5  C4  UNL     1      13.278  50.045  92.477  1.00  0.00     0.203 C 
ENDBRANCH   3   4
BRANCH   3   6
HETATM    6  C5  UNL     1      10.887  51.020  90.079  1.00  0.00     0.057 C 
HETATM    7  C6  UNL     1       9.787  50.018  90.410  1.00  0.00     0.022 C 
HETATM    8  C7  UNL     1       9.028  49.318  89.382  1.00  0.00    -0.007 C 
HETATM    9  C8  UNL     1       7.542  49.754  89.285  1.00  0.00     0.025 C 
HETATM   10  C25 UNL     1       9.576  49.298  87.971  1.00  0.00     0.066 C 
HETATM   11  C9  UNL     1       7.399  50.850  88.191  1.00  0.00     0.145 C 
HETATM   12  N1  UNL     1       8.714  51.464  88.260  1.00  0.00    -0.185 N 
HETATM   13  C10 UNL     1       8.696  52.725  88.916  1.00  0.00     0.690 C 
HETATM   14  C20 UNL     1       9.857  50.783  87.737  1.00  0.00     0.153 C 
HETATM   15  N2  UNL     1       7.697  53.442  88.611  1.00  0.00    -0.126 N 
HETATM   16  N4  UNL     1       9.675  53.180  89.843  1.00  0.00    -0.185 N 
HETATM   17  C11 UNL     1       7.491  54.720  89.148  1.00  0.00     0.196 C 
ATOM     18  H2  UNL     1       7.015  53.075  87.948  1.00  0.00     0.197 HD
HETATM   19  N3  UNL     1       7.334  55.784  89.580  1.00  0.00    -0.171 NA
HETATM   20  C12 UNL     1      10.650  52.389  90.616  1.00  0.00     0.251 C 
ATOM     21  H4  UNL     1       9.707  54.189  89.993  1.00  0.00     0.180 HD
HETATM   22  C26 UNL     1      11.101  51.014  88.562  1.00  0.00     0.079 C 
BRANCH  20  23
HETATM   23  N5  UNL     1       9.738  52.225  91.856  1.00  0.00    -0.047 N 
ATOM     24  H53 UNL     1       9.714  53.053  92.451  1.00  0.00     0.277 HD
ATOM     25  H52 UNL     1       8.745  52.204  91.627  1.00  0.00     0.277 HD
ATOM     26  H51 UNL     1      10.057  51.388  92.342  1.00  0.00     0.277 HD
ENDBRANCH  20  23
BRANCH  20  27
HETATM   27  C13 UNL     1      11.691  53.229  91.161  1.00  0.00     0.033 A 
HETATM   28  C14 UNL     1      11.795  53.469  92.543  1.00  0.00     0.014 A 
HETATM   29  C15 UNL     1      12.780  54.175  93.157  1.00  0.00     0.002 A 
HETATM   30  C16 UNL     1      13.771  54.707  92.366  1.00  0.00     0.018 A 
HETATM   31  C17 UNL     1      13.761  54.534  91.014  1.00  0.00     0.038 A 
HETATM   32  C19 UNL     1      12.720  53.799  90.421  1.00  0.00     0.089 A 
BRANCH  31  33
HETATM   33  C18 UNL     1      14.798  55.092  90.177  1.00  0.00     0.123 C 
HETATM   34  N6  UNL     1      15.649  54.352  89.580  1.00  0.00    -0.387 N 
ATOM     35  H62 UNL     1      15.540  53.350  89.739  1.00  0.00     0.157 HD
ATOM     36  H61 UNL     1      16.382  54.746  88.990  1.00  0.00     0.157 HD
HETATM   37  N7  UNL     1      14.951  56.499  89.955  1.00  0.00    -0.082 NA
ENDBRANCH  31  33
BRANCH  32  38
HETATM   38  O2  UNL     1      12.830  53.729  89.052  1.00  0.00    -0.359 OA
ATOM     39  H2  UNL     1      12.317  54.247  88.441  1.00  0.00     0.217 HD
ENDBRANCH  32  38
ENDBRANCH  20  27
BRANCH  14  40
HETATM   40  O3  UNL     1      10.168  51.095  86.449  1.00  0.00    -0.360 OA
BRANCH  40  41
HETATM   41  C21 UNL     1      11.493  51.053  86.119  1.00  0.00     0.175 C 
BRANCH  41  42
HETATM   42  C22 UNL     1      11.774  52.218  85.160  1.00  0.00     0.009 A 
HETATM   43  C23 UNL     1      13.024  52.094  84.364  1.00  0.00     0.007 A 
HETATM   44  C24 UNL     1      12.918  53.091  85.455  1.00  0.00     0.007 A 
ENDBRANCH  41  42
ENDBRANCH  40  41
ENDBRANCH  14  40
ENDBRANCH   3   6
TORSDOF 9
ENDMDL
MODEL 3
REMARK VINA RESULT: -7.219178869      1.710      3.578
REMARK  9 active torsions:
REMARK  status: ('A' for Active; 'I' for Inactive)
REMARK    1  A    between atoms: C3_3  and  O1_4 
REMARK    2  A    between atoms: C3_3  and  C5_6 
REMARK    3  A    between atoms: C12_19  and  N5_20 
REMARK    4  A    between atoms: C12_19  and  C13_24 
REMARK    5  A    between atoms: C17_28  and  C18_29 
REMARK    6  A    between atoms: C19_34  and  O2_35 
REMARK    7  A    between atoms: C20_37  and  O3_38 
REMARK    8  A    between atoms: O3_38  and  C21_39 
REMARK    9  A    between atoms: C21_39  and  C22_40 
ROOT
HETATM    1  C1  UNL     1      11.680  53.349  98.537  1.00  0.00     0.099 C 
HETATM    2  C2  UNL     1      11.183  52.963  97.487  1.00  0.00    -0.155 C 
HETATM    3  C3  UNL     1      10.535  52.532  96.238  1.00  0.00     0.199 C 
ENDROOT
BRANCH   3   4
HETATM    4  O1  UNL     1       9.946  51.292  96.438  1.00  0.00    -0.379 OA
HETATM    5  C4  UNL     1       8.784  51.394  97.126  1.00  0.00     0.203 C 
ENDBRANCH   3   4
BRANCH   3   6
HETATM    6  C5  UNL     1      11.429  52.579  95.018  1.00  0.00     0.057 C 
HETATM    7  C6  UNL     1      10.945  51.420  94.156  1.00  0.00     0.022 C 
HETATM    8  C7  UNL     1      11.746  50.225  93.926  1.00  0.00    -0.007 C 
HETATM    9  C8  UNL     1      12.268  50.083  92.472  1.00  0.00     0.025 C 
HETATM   10  C25 UNL     1      12.918  49.956  94.845  1.00  0.00     0.066 C 
HETATM   11  C9  UNL     1      13.704  50.673  92.382  1.00  0.00     0.145 C 
HETATM   12  N1  UNL     1      13.640  51.683  93.425  1.00  0.00    -0.185 N 
HETATM   13  C10 UNL     1      13.530  53.001  92.904  1.00  0.00     0.690 C 
HETATM   14  C20 UNL     1      13.647  51.300  94.802  1.00  0.00     0.153 C 
HETATM   15  N2  UNL     1      14.261  53.209  91.890  1.00  0.00    -0.126 N 
HETATM   16  N4  UNL     1      12.688  54.021  93.427  1.00  0.00    -0.185 N 
HETATM   17  C11 UNL     1      14.300  54.443  91.225  1.00  0.00     0.196 C 
ATOM     18  H2  UNL     1      14.845  52.448  91.543  1.00  0.00     0.197 HD
HETATM   19  N3  UNL     1      14.343  55.470  90.690  1.00  0.00    -0.171 NA
HETATM   20  C12 UNL     1      11.509  53.883  94.303  1.00  0.00     0.251 C 
ATOM     21  H4  UNL     1      12.932  54.976  93.162  1.00  0.00     0.180 HD
HETATM   22  C26 UNL     1      12.764  52.179  95.656  1.00  0.00     0.079 C 
BRANCH  20  23
HETATM   23  N5  UNL     1      10.487  53.813  93.143  1.00  0.00    -0.047 N 
ATOM     24  H53 UNL     1       9.677  53.232  93.354  1.00  0.00     0.277 HD
ATOM     25  H52 UNL     1       9.982  54.687  92.996  1.00  0.00     0.277 HD
ATOM     26  H51 UNL     1      11.003  53.502  92.320  1.00  0.00     0.277 HD
ENDBRANCH  20  23
BRANCH  20  27
HETATM   27  C13 UNL     1      11.148  55.149  94.898  1.00  0.00     0.033 A 
HETATM   28  C14 UNL     1      12.100  56.164  95.104  1.00  0.00     0.014 A 
HETATM   29  C15 UNL     1      11.844  57.410  95.580  1.00  0.00     0.002 A 
HETATM   30  C16 UNL     1      10.541  57.719  95.892  1.00  0.00     0.018 A 
HETATM   31  C17 UNL     1       9.544  56.805  95.731  1.00  0.00     0.038 A 
HETATM   32  C19 UNL     1       9.854  55.526  95.238  1.00  0.00     0.089 A 
BRANCH  31  33
HETATM   33  C18 UNL     1       8.173  57.123  96.058  1.00  0.00     0.123 C 
HETATM   34  N6  UNL     1       7.385  57.654  95.205  1.00  0.00    -0.387 N 
ATOM     35  H62 UNL     1       7.795  57.834  94.288  1.00  0.00     0.157 HD
ATOM     36  H61 UNL     1       6.417  57.879  95.436  1.00  0.00     0.157 HD
HETATM   37  N7  UNL     1       7.597  56.871  97.345  1.00  0.00    -0.082 NA
ENDBRANCH  31  33
BRANCH  32  38
HETATM   38  O2  UNL     1       8.753  54.706  95.153  1.00  0.00    -0.359 OA
ATOM     39  H2  UNL     1       7.853  55.000  95.239  1.00  0.00     0.217 HD
ENDBRANCH  32  38
ENDBRANCH  20  27
BRANCH  14  40
HETATM   40  O3  UNL     1      14.878  51.285  95.384  1.00  0.00    -0.360 OA
BRANCH  40  41
HETATM   41  C21 UNL     1      14.941  51.720  96.678  1.00  0.00     0.175 C 
BRANCH  41  42
HETATM   42  C22 UNL     1      15.929  50.814  97.427  1.00  0.00     0.009 A 
HETATM   43  C23 UNL     1      17.232  51.446  97.767  1.00  0.00     0.007 A 
HETATM   44  C24 UNL     1      17.149  50.398  96.723  1.00  0.00     0.007 A 
ENDBRANCH  41  42
ENDBRANCH  40  41
ENDBRANCH  14  40
ENDBRANCH   3   6
TORSDOF 9
ENDMDL
MODEL 4
REMARK VINA RESULT: -6.771511094      1.231      1.637
REMARK  9 active torsions:
REMARK  status: ('A' for Active; 'I' for Inactive)
REMARK    1  A    between atoms: C3_3  and  O1_4 
REMARK    2  A    between atoms: C3_3  and  C5_6 
REMARK    3  A    between atoms: C12_19  and  N5_20 
REMARK    4  A    between atoms: C12_19  and  C13_24 
REMARK    5  A    between atoms: C17_28  and  C18_29 
REMARK    6  A    between atoms: C19_34  and  O2_35 
REMARK    7  A    between atoms: C20_37  and  O3_38 
REMARK    8  A    between atoms: O3_38  and  C21_39 
REMARK    9  A    between atoms: C21_39  and  C22_40 
ROOT
HETATM    1  C1  UNL     1      14.528  50.943  94.253  1.00  0.00     0.099 C 
HETATM    2  C2  UNL     1      13.545  51.654  94.412  1.00  0.00    -0.155 C 
HETATM    3  C3  UNL     1      12.400  52.555  94.622  1.00  0.00     0.199 C 
ENDROOT
BRANCH   3   4
HETATM    4  O1  UNL     1      11.867  52.326  95.883  1.00  0.00    -0.379 OA
HETATM    5  C4  UNL     1      12.655  52.838  96.859  1.00  0.00     0.203 C 
ENDBRANCH   3   4
BRANCH   3   6
HETATM    6  C5  UNL     1      11.363  52.519  93.520  1.00  0.00     0.057 C 
HETATM    7  C6  UNL     1      10.926  51.059  93.466  1.00  0.00     0.022 C 
HETATM    8  C7  UNL     1      11.242  50.187  92.344  1.00  0.00    -0.007 C 
HETATM    9  C8  UNL     1      10.013  49.787  91.486  1.00  0.00     0.025 C 
HETATM   10  C25 UNL     1      12.331  50.615  91.383  1.00  0.00     0.066 C 
HETATM   11  C9  UNL     1       9.889  50.761  90.280  1.00  0.00     0.145 C 
HETATM   12  N1  UNL     1      10.480  51.961  90.848  1.00  0.00    -0.185 N 
HETATM   13  C10 UNL     1       9.509  52.942  91.186  1.00  0.00     0.690 C 
HETATM   14  C20 UNL     1      11.893  52.043  91.051  1.00  0.00     0.153 C 
HETATM   15  N2  UNL     1       8.584  53.059  90.328  1.00  0.00    -0.126 N 
HETATM   16  N4  UNL     1       9.522  53.735  92.368  1.00  0.00    -0.185 N 
HETATM   17  C11 UNL     1       7.529  53.969  90.472  1.00  0.00     0.196 C 
ATOM     18  H2  UNL     1       8.609  52.466  89.499  1.00  0.00     0.197 HD
HETATM   19  N3  UNL     1       6.668  54.737  90.585  1.00  0.00    -0.171 NA
HETATM   20  C12 UNL     1      10.239  53.490  93.633  1.00  0.00     0.251 C 
ATOM     21  H4  UNL     1       8.961  54.586  92.335  1.00  0.00     0.180 HD
HETATM   22  C26 UNL     1      12.258  52.797  92.309  1.00  0.00     0.079 C 
BRANCH  20  23
HETATM   23  N5  UNL     1       9.069  52.735  94.307  1.00  0.00    -0.047 N 
ATOM     24  H53 UNL     1       8.418  52.321  93.640  1.00  0.00     0.277 HD
ATOM     25  H52 UNL     1       9.356  51.867  94.760  1.00  0.00     0.277 HD
ATOM     26  H51 UNL     1       8.626  53.396  94.946  1.00  0.00     0.277 HD
ENDBRANCH  20  23
BRANCH  20  27
HETATM   27  C13 UNL     1      10.288  54.683  94.446  1.00  0.00     0.033 A 
HETATM   28  C14 UNL     1      11.460  55.452  94.555  1.00  0.00     0.014 A 
HETATM   29  C15 UNL     1      11.583  56.627  95.227  1.00  0.00     0.002 A 
HETATM   30  C16 UNL     1      10.466  57.118  95.861  1.00  0.00     0.018 A 
HETATM   31  C17 UNL     1       9.280  56.447  95.818  1.00  0.00     0.038 A 
HETATM   32  C19 UNL     1       9.200  55.234  95.114  1.00  0.00     0.089 A 
BRANCH  31  33
HETATM   33  C18 UNL     1       8.104  56.958  96.483  1.00  0.00     0.123 C 
HETATM   34  N6  UNL     1       7.286  57.740  95.893  1.00  0.00    -0.387 N 
ATOM     35  H62 UNL     1       7.526  57.973  94.929  1.00  0.00     0.157 HD
ATOM     36  H61 UNL     1       6.455  58.101  96.362  1.00  0.00     0.157 HD
HETATM   37  N7  UNL     1       7.767  56.632  97.836  1.00  0.00    -0.082 NA
ENDBRANCH  31  33
BRANCH  32  38
HETATM   38  O2  UNL     1       7.951  54.662  95.179  1.00  0.00    -0.359 OA
ATOM     39  H2  UNL     1       7.340  54.780  95.897  1.00  0.00     0.217 HD
ENDBRANCH  32  38
ENDBRANCH  20  27
BRANCH  14  40
HETATM   40  O3  UNL     1      12.585  52.615  90.028  1.00  0.00    -0.360 OA
BRANCH  40  41
HETATM   41  C21 UNL     1      12.553  53.979  89.962  1.00  0.00     0.175 C 
BRANCH  41  42
HETATM   42  C22 UNL     1      13.951  54.460  89.550  1.00  0.00     0.009 A 
HETATM   43  C23 UNL     1      14.886  54.724  90.676  1.00  0.00     0.007 A 
HETATM   44  C24 UNL     1      14.327  55.841  89.879  1.00  0.00     0.007 A 
ENDBRANCH  41  42
ENDBRANCH  40  41
ENDBRANCH  14  40
ENDBRANCH   3   6
TORSDOF 9
ENDMDL
MODEL 5
REMARK VINA RESULT: -6.761330777      2.434      3.870
REMARK  9 active torsions:
REMARK  status: ('A' for Active; 'I' for Inactive)
REMARK    1  A    between atoms: C3_3  and  O1_4 
REMARK    2  A    between atoms: C3_3  and  C5_6 
REMARK    3  A    between atoms: C12_19  and  N5_20 
REMARK    4  A    between atoms: C12_19  and  C13_24 
REMARK    5  A    between atoms: C17_28  and  C18_29 
REMARK    6  A    between atoms: C19_34  and  O2_35 
REMARK    7  A    between atoms: C20_37  and  O3_38 
REMARK    8  A    between atoms: O3_38  and  C21_39 
REMARK    9  A    between atoms: C21_39  and  C22_40 
ROOT
HETATM    1  C1  UNL     1      11.670  57.431  95.450  1.00  0.00     0.099 C 
HETATM    2  C2  UNL     1      10.986  56.445  95.693  1.00  0.00    -0.155 C 
HETATM    3  C3  UNL     1      10.113  55.295  95.977  1.00  0.00     0.199 C 
ENDROOT
BRANCH   3   4
HETATM    4  O1  UNL     1       9.949  55.178  97.350  1.00  0.00    -0.379 OA
HETATM    5  C4  UNL     1       9.043  56.066  97.824  1.00  0.00     0.203 C 
ENDBRANCH   3   4
BRANCH   3   6
HETATM    6  C5  UNL     1      10.541  54.004  95.314  1.00  0.00     0.057 C 
HETATM    7  C6  UNL     1      11.735  53.538  96.139  1.00  0.00     0.022 C 
HETATM    8  C7  UNL     1      13.094  53.529  95.616  1.00  0.00    -0.007 C 
HETATM    9  C8  UNL     1      13.675  52.109  95.387  1.00  0.00     0.025 C 
HETATM   10  C25 UNL     1      13.391  54.334  94.369  1.00  0.00     0.066 C 
HETATM   11  C9  UNL     1      13.444  51.692  93.906  1.00  0.00     0.145 C 
HETATM   12  N1  UNL     1      12.233  52.437  93.608  1.00  0.00    -0.185 N 
HETATM   13  C10 UNL     1      11.077  51.609  93.570  1.00  0.00     0.690 C 
HETATM   14  C20 UNL     1      12.282  53.854  93.431  1.00  0.00     0.153 C 
HETATM   15  N2  UNL     1      11.270  50.494  93.001  1.00  0.00    -0.126 N 
HETATM   16  N4  UNL     1       9.807  51.950  94.114  1.00  0.00    -0.185 N 
HETATM   17  C11 UNL     1      10.259  49.533  92.859  1.00  0.00     0.196 C 
ATOM     18  H2  UNL     1      12.197  50.287  92.631  1.00  0.00     0.197 HD
HETATM   19  N3  UNL     1       9.416  48.749  92.727  1.00  0.00    -0.171 NA
HETATM   20  C12 UNL     1       9.484  52.970  95.128  1.00  0.00     0.251 C 
ATOM     21  H4  UNL     1       9.015  51.419  93.753  1.00  0.00     0.180 HD
HETATM   22  C26 UNL     1      11.062  54.554  93.982  1.00  0.00     0.079 C 
BRANCH  20  23
HETATM   23  N5  UNL     1       9.596  52.004  96.332  1.00  0.00    -0.047 N 
ATOM     24  H53 UNL     1       9.460  52.463  97.232  1.00  0.00     0.277 HD
ATOM     25  H52 UNL     1       8.814  51.353  96.402  1.00  0.00     0.277 HD
ATOM     26  H51 UNL     1      10.501  51.540  96.248  1.00  0.00     0.277 HD
ENDBRANCH  20  23
BRANCH  20  27
HETATM   27  C13 UNL     1       8.068  53.257  95.150  1.00  0.00     0.033 A 
HETATM   28  C14 UNL     1       7.309  53.131  96.326  1.00  0.00     0.014 A 
HETATM   29  C15 UNL     1       5.996  53.452  96.466  1.00  0.00     0.002 A 
HETATM   30  C16 UNL     1       5.340  53.946  95.363  1.00  0.00     0.018 A 
HETATM   31  C17 UNL     1       5.985  54.104  94.173  1.00  0.00     0.038 A 
HETATM   32  C19 UNL     1       7.343  53.756  94.073  1.00  0.00     0.089 A 
BRANCH  31  33
HETATM   33  C18 UNL     1       5.301  54.621  93.010  1.00  0.00     0.123 C 
HETATM   34  N6  UNL     1       5.210  55.874  92.787  1.00  0.00    -0.387 N 
ATOM     35  H62 UNL     1       5.652  56.473  93.486  1.00  0.00     0.157 HD
ATOM     36  H61 UNL     1       4.726  56.240  91.967  1.00  0.00     0.157 HD
HETATM   37  N7  UNL     1       4.680  53.781  92.030  1.00  0.00    -0.082 NA
ENDBRANCH  31  33
BRANCH  32  38
HETATM   38  O2  UNL     1       7.851  53.946  92.810  1.00  0.00    -0.359 OA
ATOM     39  H2  UNL     1       8.394  53.319  92.345  1.00  0.00     0.217 HD
ENDBRANCH  32  38
ENDBRANCH  20  27
BRANCH  14  40
HETATM   40  O3  UNL     1      12.428  54.263  92.140  1.00  0.00    -0.360 OA
BRANCH  40  41
HETATM   41  C21 UNL     1      13.545  54.997  91.859  1.00  0.00     0.175 C 
BRANCH  41  42
HETATM   42  C22 UNL     1      14.275  54.312  90.696  1.00  0.00     0.009 A 
HETATM   43  C23 UNL     1      15.203  55.185  89.930  1.00  0.00     0.007 A 
HETATM   44  C24 UNL     1      13.930  54.725  89.330  1.00  0.00     0.007 A 
ENDBRANCH  41  42
ENDBRANCH  40  41
ENDBRANCH  14  40
ENDBRANCH   3   6
TORSDOF 9
ENDMDL
