MODEL 1
REMARK VINA RESULT: -5.629803745      0.000      0.000
REMARK  11 active torsions:
REMARK  status: ('A' for Active; 'I' for Inactive)
REMARK    1  A    between atoms: C2_2  and  C4_4 
REMARK    2  A    between atoms: C4_4  and  C5_5 
REMARK    3  A    between atoms: C6_8  and  O1_9 
REMARK    4  A    between atoms: C7_11  and  C8_12 
REMARK    5  A    between atoms: C8_12  and  C9_13 
REMARK    6  A    between atoms: C9_13  and  C10_14 
REMARK    7  A    between atoms: C10_14  and  C11_15 
REMARK    8  A    between atoms: C11_15  and  N2_16 
REMARK    9  A    between atoms: C12_22  and  N4_23 
REMARK   10  A    between atoms: C23_39  and  C24_40 
REMARK   11  A    between atoms: C24_40  and  C25_41 
ROOT
HETATM    1  C5  UNL     1      10.157  52.987  91.173  1.00  0.00     0.175 C 
HETATM    2  N1  UNL     1       9.349  51.817  90.936  1.00  0.00    -0.359 N 
ATOM      3  H1  UNL     1       8.651  51.655  91.663  1.00  0.00     0.162 HD
HETATM    4  C6  UNL     1       9.322  50.875  89.935  1.00  0.00     0.135 C 
HETATM    5  C7  UNL     1      10.329  50.426  88.939  1.00  0.00     0.157 C 
HETATM    6  N3  UNL     1       9.937  50.599  87.582  1.00  0.00    -0.367 N 
ATOM      7  H3  UNL     1       9.202  49.956  87.288  1.00  0.00     0.161 HD
HETATM    8  C12 UNL     1      10.310  51.381  86.670  1.00  0.00     0.085 C 
HETATM    9  C18 UNL     1      11.349  52.378  86.915  1.00  0.00     0.187 C 
HETATM   10  C19 UNL     1      12.563  52.360  86.127  1.00  0.00     0.265 C 
HETATM   11  O2  UNL     1      13.056  51.240  85.793  1.00  0.00    -0.265 OA
HETATM   12  O3  UNL     1      13.212  53.501  85.719  1.00  0.00    -0.320 OA
HETATM   13  C20 UNL     1      13.626  54.594  86.529  1.00  0.00     0.198 C 
HETATM   14  C21 UNL     1      13.429  54.290  87.993  1.00  0.00     0.149 C 
HETATM   15  N5  UNL     1      14.176  55.089  88.906  1.00  0.00    -0.357 N 
ATOM     16  H5  UNL     1      15.065  55.448  88.556  1.00  0.00     0.162 HD
HETATM   17  C22 UNL     1      13.852  55.445  90.216  1.00  0.00     0.240 C 
HETATM   18  O4  UNL     1      14.155  56.657  90.543  1.00  0.00    -0.271 OA
HETATM   19  C23 UNL     1      13.228  54.682  91.290  1.00  0.00     0.177 C 
HETATM   20  N6  UNL     1      12.732  53.374  90.969  1.00  0.00    -0.346 N 
ATOM     21  H6  UNL     1      13.339  52.844  90.345  1.00  0.00     0.163 HD
HETATM   22  C28 UNL     1      11.590  52.700  91.344  1.00  0.00     0.241 C 
HETATM   23  O5  UNL     1      11.745  51.580  91.980  1.00  0.00    -0.271 OA
ENDROOT
BRANCH   5  24
HETATM   24  C8  UNL     1      10.489  48.881  89.055  1.00  0.00     0.033 C 
BRANCH  24  25
HETATM   25  C9  UNL     1      11.859  48.416  88.733  1.00  0.00     0.004 C 
BRANCH  25  26
HETATM   26  C10 UNL     1      12.825  49.429  89.309  1.00  0.00     0.027 C 
BRANCH  26  27
HETATM   27  C11 UNL     1      13.699  48.833  90.397  1.00  0.00     0.229 C 
BRANCH  27  28
HETATM   28  N2  UNL     1      13.944  49.839  91.393  1.00  0.00    -0.079 N 
ATOM     29  H23 UNL     1      13.149  50.466  91.519  1.00  0.00     0.274 HD
ATOM     30  H22 UNL     1      13.971  49.455  92.337  1.00  0.00     0.274 HD
ATOM     31  H21 UNL     1      14.800  50.339  91.149  1.00  0.00     0.274 HD
ENDBRANCH  27  28
ENDBRANCH  26  27
ENDBRANCH  25  26
ENDBRANCH  24  25
ENDBRANCH   5  24
BRANCH   4  32
HETATM   32  O1  UNL     1       8.214  50.210  89.780  1.00  0.00    -0.348 OA
ATOM     33  H1  UNL     1       8.247  49.444  89.219  1.00  0.00     0.219 HD
ENDBRANCH   4  32
BRANCH   8  34
HETATM   34  N4  UNL     1       9.719  51.319  85.376  1.00  0.00    -0.370 N 
HETATM   35  C13 UNL     1       9.733  50.156  84.522  1.00  0.00     0.124 C 
HETATM   36  C14 UNL     1       8.803  50.457  83.336  1.00  0.00     0.020 C 
HETATM   37  C15 UNL     1       9.356  51.595  82.511  1.00  0.00     0.003 C 
HETATM   38  C16 UNL     1       9.500  52.795  83.412  1.00  0.00     0.020 C 
HETATM   39  C17 UNL     1       9.026  52.483  84.803  1.00  0.00     0.124 C 
ENDBRANCH   8  34
BRANCH   1  40
HETATM   40  C4  UNL     1       9.774  54.092  90.281  1.00  0.00     0.038 C 
BRANCH  40  41
HETATM   41  C2  UNL     1       8.333  54.205  89.886  1.00  0.00    -0.020 C 
HETATM   42  C1  UNL     1       7.997  53.969  88.463  1.00  0.00     0.009 C 
HETATM   43  C3  UNL     1       7.948  55.670  90.179  1.00  0.00     0.009 C 
ENDBRANCH  40  41
ENDBRANCH   1  40
BRANCH  19  44
HETATM   44  C24 UNL     1      14.092  54.573  92.524  1.00  0.00     0.038 C 
BRANCH  44  45
HETATM   45  C25 UNL     1      13.410  54.371  93.819  1.00  0.00    -0.020 C 
HETATM   46  C26 UNL     1      13.646  55.373  94.890  1.00  0.00     0.009 C 
HETATM   47  C27 UNL     1      13.972  53.042  94.366  1.00  0.00     0.009 C 
ENDBRANCH  44  45
ENDBRANCH  19  44
TORSDOF 11
ENDMDL
MODEL 2
REMARK VINA RESULT: -5.599417744      2.606      7.158
REMARK  11 active torsions:
REMARK  status: ('A' for Active; 'I' for Inactive)
REMARK    1  A    between atoms: C2_2  and  C4_4 
REMARK    2  A    between atoms: C4_4  and  C5_5 
REMARK    3  A    between atoms: C6_8  and  O1_9 
REMARK    4  A    between atoms: C7_11  and  C8_12 
REMARK    5  A    between atoms: C8_12  and  C9_13 
REMARK    6  A    between atoms: C9_13  and  C10_14 
REMARK    7  A    between atoms: C10_14  and  C11_15 
REMARK    8  A    between atoms: C11_15  and  N2_16 
REMARK    9  A    between atoms: C12_22  and  N4_23 
REMARK   10  A    between atoms: C23_39  and  C24_40 
REMARK   11  A    between atoms: C24_40  and  C25_41 
ROOT
HETATM    1  C5  UNL     1      10.561  53.275  86.698  1.00  0.00     0.175 C 
HETATM    2  N1  UNL     1      10.344  54.173  87.804  1.00  0.00    -0.359 N 
ATOM      3  H1  UNL     1       9.793  54.995  87.554  1.00  0.00     0.162 HD
HETATM    4  C6  UNL     1      10.723  54.153  89.125  1.00  0.00     0.135 C 
HETATM    5  C7  UNL     1      11.818  53.462  89.855  1.00  0.00     0.157 C 
HETATM    6  N3  UNL     1      11.379  52.578  90.881  1.00  0.00    -0.367 N 
ATOM      7  H3  UNL     1      10.996  53.061  91.694  1.00  0.00     0.161 HD
HETATM    8  C12 UNL     1      11.365  51.325  90.992  1.00  0.00     0.085 C 
HETATM    9  C18 UNL     1      11.865  50.471  89.918  1.00  0.00     0.187 C 
HETATM   10  C19 UNL     1      12.959  49.558  90.175  1.00  0.00     0.265 C 
HETATM   11  O2  UNL     1      13.888  49.927  90.955  1.00  0.00    -0.265 OA
HETATM   12  O3  UNL     1      13.040  48.306  89.615  1.00  0.00    -0.320 OA
HETATM   13  C20 UNL     1      12.941  47.968  88.237  1.00  0.00     0.198 C 
HETATM   14  C21 UNL     1      12.908  49.207  87.376  1.00  0.00     0.149 C 
HETATM   15  N5  UNL     1      13.238  49.025  86.002  1.00  0.00    -0.357 N 
ATOM     16  H5  UNL     1      13.877  48.257  85.798  1.00  0.00     0.162 HD
HETATM   17  C22 UNL     1      12.802  49.759  84.900  1.00  0.00     0.240 C 
HETATM   18  O4  UNL     1      12.547  49.060  83.844  1.00  0.00    -0.271 OA
HETATM   19  C23 UNL     1      12.582  51.190  84.727  1.00  0.00     0.177 C 
HETATM   20  N6  UNL     1      12.706  52.022  85.890  1.00  0.00    -0.346 N 
ATOM     21  H6  UNL     1      13.479  51.764  86.502  1.00  0.00     0.163 HD
HETATM   22  C28 UNL     1      11.977  53.104  86.335  1.00  0.00     0.241 C 
HETATM   23  O5  UNL     1      12.611  54.225  86.483  1.00  0.00    -0.271 OA
ENDROOT
BRANCH   5  24
HETATM   24  C8  UNL     1      12.638  54.524  90.646  1.00  0.00     0.033 C 
BRANCH  24  25
HETATM   25  C9  UNL     1      13.825  55.008  89.901  1.00  0.00     0.004 C 
BRANCH  25  26
HETATM   26  C10 UNL     1      14.841  55.466  90.924  1.00  0.00     0.027 C 
BRANCH  26  27
HETATM   27  C11 UNL     1      14.340  55.297  92.346  1.00  0.00     0.229 C 
BRANCH  27  28
HETATM   28  N2  UNL     1      14.697  53.984  92.807  1.00  0.00    -0.079 N 
ATOM     29  H23 UNL     1      13.982  53.572  93.406  1.00  0.00     0.274 HD
ATOM     30  H22 UNL     1      14.672  53.288  92.061  1.00  0.00     0.274 HD
ATOM     31  H21 UNL     1      15.608  54.034  93.264  1.00  0.00     0.274 HD
ENDBRANCH  27  28
ENDBRANCH  26  27
ENDBRANCH  25  26
ENDBRANCH  24  25
ENDBRANCH   5  24
BRANCH   4  32
HETATM   32  O1  UNL     1      10.017  54.867  89.953  1.00  0.00    -0.348 OA
ATOM     33  H1  UNL     1      10.280  55.772  90.074  1.00  0.00     0.219 HD
ENDBRANCH   4  32
BRANCH   8  34
HETATM   34  N4  UNL     1      10.850  50.708  92.168  1.00  0.00    -0.370 N 
HETATM   35  C13 UNL     1      11.349  50.940  93.501  1.00  0.00     0.124 C 
HETATM   36  C14 UNL     1      10.374  50.253  94.472  1.00  0.00     0.020 C 
HETATM   37  C15 UNL     1      10.394  48.757  94.265  1.00  0.00     0.003 C 
HETATM   38  C16 UNL     1      10.023  48.480  92.830  1.00  0.00     0.020 C 
HETATM   39  C17 UNL     1       9.730  49.757  92.096  1.00  0.00     0.124 C 
ENDBRANCH   8  34
BRANCH   1  40
HETATM   40  C4  UNL     1       9.726  52.069  86.816  1.00  0.00     0.038 C 
BRANCH  40  41
HETATM   41  C2  UNL     1       8.737  51.793  85.724  1.00  0.00    -0.020 C 
HETATM   42  C1  UNL     1       8.979  50.609  84.869  1.00  0.00     0.009 C 
HETATM   43  C3  UNL     1       8.818  53.019  84.789  1.00  0.00     0.009 C 
ENDBRANCH  40  41
ENDBRANCH   1  40
BRANCH  19  44
HETATM   44  C24 UNL     1      13.418  51.792  83.621  1.00  0.00     0.038 C 
BRANCH  44  45
HETATM   45  C25 UNL     1      14.866  51.947  83.868  1.00  0.00    -0.020 C 
HETATM   46  C26 UNL     1      15.367  53.300  84.223  1.00  0.00     0.009 C 
HETATM   47  C27 UNL     1      15.543  51.596  82.527  1.00  0.00     0.009 C 
ENDBRANCH  44  45
ENDBRANCH  19  44
TORSDOF 11
ENDMDL
MODEL 3
REMARK VINA RESULT: -5.396500601      2.257      5.008
REMARK  11 active torsions:
REMARK  status: ('A' for Active; 'I' for Inactive)
REMARK    1  A    between atoms: C2_2  and  C4_4 
REMARK    2  A    between atoms: C4_4  and  C5_5 
REMARK    3  A    between atoms: C6_8  and  O1_9 
REMARK    4  A    between atoms: C7_11  and  C8_12 
REMARK    5  A    between atoms: C8_12  and  C9_13 
REMARK    6  A    between atoms: C9_13  and  C10_14 
REMARK    7  A    between atoms: C10_14  and  C11_15 
REMARK    8  A    between atoms: C11_15  and  N2_16 
REMARK    9  A    between atoms: C12_22  and  N4_23 
REMARK   10  A    between atoms: C23_39  and  C24_40 
REMARK   11  A    between atoms: C24_40  and  C25_41 
ROOT
HETATM    1  C5  UNL     1      12.252  54.452  92.481  1.00  0.00     0.175 C 
HETATM    2  N1  UNL     1      11.224  55.089  91.696  1.00  0.00    -0.359 N 
ATOM      3  H1  UNL     1      11.073  56.067  91.946  1.00  0.00     0.162 HD
HETATM    4  C6  UNL     1      10.405  54.654  90.680  1.00  0.00     0.135 C 
HETATM    5  C7  UNL     1       9.943  53.307  90.258  1.00  0.00     0.157 C 
HETATM    6  N3  UNL     1      10.308  52.945  88.931  1.00  0.00    -0.367 N 
ATOM      7  H3  UNL     1       9.797  53.463  88.216  1.00  0.00     0.161 HD
HETATM    8  C12 UNL     1      11.131  52.120  88.457  1.00  0.00     0.085 C 
HETATM    9  C18 UNL     1      11.959  51.298  89.335  1.00  0.00     0.187 C 
HETATM   10  C19 UNL     1      11.875  49.855  89.260  1.00  0.00     0.265 C 
HETATM   11  O2  UNL     1      10.745  49.322  89.045  1.00  0.00    -0.265 OA
HETATM   12  O3  UNL     1      12.964  49.029  89.410  1.00  0.00    -0.320 OA
HETATM   13  C20 UNL     1      13.904  49.026  90.476  1.00  0.00     0.198 C 
HETATM   14  C21 UNL     1      13.472  49.955  91.583  1.00  0.00     0.149 C 
HETATM   15  N5  UNL     1      14.069  49.734  92.858  1.00  0.00    -0.357 N 
ATOM     16  H5  UNL     1      14.351  48.773  93.054  1.00  0.00     0.162 HD
HETATM   17  C22 UNL     1      14.321  50.658  93.872  1.00  0.00     0.240 C 
HETATM   18  O4  UNL     1      15.443  50.499  94.490  1.00  0.00    -0.271 OA
HETATM   19  C23 UNL     1      13.531  51.781  94.363  1.00  0.00     0.177 C 
HETATM   20  N6  UNL     1      12.336  52.114  93.640  1.00  0.00    -0.346 N 
ATOM     21  H6  UNL     1      11.804  51.303  93.325  1.00  0.00     0.163 HD
HETATM   22  C28 UNL     1      11.772  53.322  93.291  1.00  0.00     0.241 C 
HETATM   23  O5  UNL     1      10.581  53.571  93.738  1.00  0.00    -0.271 OA
ENDROOT
BRANCH   5  24
HETATM   24  C8  UNL     1       8.387  53.310  90.197  1.00  0.00     0.033 C 
BRANCH  24  25
HETATM   25  C9  UNL     1       7.756  53.150  91.529  1.00  0.00     0.004 C 
BRANCH  25  26
HETATM   26  C10 UNL     1       6.930  54.390  91.787  1.00  0.00     0.027 C 
BRANCH  26  27
HETATM   27  C11 UNL     1       6.574  55.119  90.505  1.00  0.00     0.229 C 
BRANCH  27  28
HETATM   28  N2  UNL     1       7.003  56.486  90.619  1.00  0.00    -0.079 N 
ATOM     29  H23 UNL     1       6.221  57.141  90.620  1.00  0.00     0.274 HD
ATOM     30  H22 UNL     1       7.370  56.704  91.545  1.00  0.00     0.274 HD
ATOM     31  H21 UNL     1       7.675  56.680  89.876  1.00  0.00     0.274 HD
ENDBRANCH  27  28
ENDBRANCH  26  27
ENDBRANCH  25  26
ENDBRANCH  24  25
ENDBRANCH   5  24
BRANCH   4  32
HETATM   32  O1  UNL     1       9.903  55.563  89.897  1.00  0.00    -0.348 OA
ATOM     33  H1  UNL     1       9.033  55.881  90.108  1.00  0.00     0.219 HD
ENDBRANCH   4  32
BRANCH   8  34
HETATM   34  N4  UNL     1      11.281  51.975  87.048  1.00  0.00    -0.370 N 
HETATM   35  C13 UNL     1      12.464  52.339  86.307  1.00  0.00     0.124 C 
HETATM   36  C14 UNL     1      12.277  51.813  84.875  1.00  0.00     0.020 C 
HETATM   37  C15 UNL     1      11.121  52.518  84.204  1.00  0.00     0.003 C 
HETATM   38  C16 UNL     1       9.887  52.285  85.037  1.00  0.00     0.020 C 
HETATM   39  C17 UNL     1      10.196  51.419  86.224  1.00  0.00     0.124 C 
ENDBRANCH   8  34
BRANCH   1  40
HETATM   40  C4  UNL     1      13.486  54.270  91.699  1.00  0.00     0.038 C 
BRANCH  40  41
HETATM   41  C2  UNL     1      13.819  55.304  90.667  1.00  0.00    -0.020 C 
HETATM   42  C1  UNL     1      13.916  54.854  89.259  1.00  0.00     0.009 C 
HETATM   43  C3  UNL     1      15.223  55.817  91.050  1.00  0.00     0.009 C 
ENDBRANCH  40  41
ENDBRANCH   1  40
BRANCH  19  44
HETATM   44  C24 UNL     1      13.184  51.669  95.829  1.00  0.00     0.038 C 
BRANCH  44  45
HETATM   45  C25 UNL     1      13.533  52.810  96.700  1.00  0.00    -0.020 C 
HETATM   46  C26 UNL     1      13.753  54.131  96.057  1.00  0.00     0.009 C 
HETATM   47  C27 UNL     1      14.888  52.431  97.335  1.00  0.00     0.009 C 
ENDBRANCH  44  45
ENDBRANCH  19  44
TORSDOF 11
ENDMDL
MODEL 4
REMARK VINA RESULT: -5.387250142      2.772      7.811
REMARK  11 active torsions:
REMARK  status: ('A' for Active; 'I' for Inactive)
REMARK    1  A    between atoms: C2_2  and  C4_4 
REMARK    2  A    between atoms: C4_4  and  C5_5 
REMARK    3  A    between atoms: C6_8  and  O1_9 
REMARK    4  A    between atoms: C7_11  and  C8_12 
REMARK    5  A    between atoms: C8_12  and  C9_13 
REMARK    6  A    between atoms: C9_13  and  C10_14 
REMARK    7  A    between atoms: C10_14  and  C11_15 
REMARK    8  A    between atoms: C11_15  and  N2_16 
REMARK    9  A    between atoms: C12_22  and  N4_23 
REMARK   10  A    between atoms: C23_39  and  C24_40 
REMARK   11  A    between atoms: C24_40  and  C25_41 
ROOT
HETATM    1  C5  UNL     1       9.786  53.719  91.438  1.00  0.00     0.175 C 
HETATM    2  N1  UNL     1       9.906  54.437  92.683  1.00  0.00    -0.359 N 
ATOM      3  H1  UNL     1       9.179  55.141  92.815  1.00  0.00     0.162 HD
HETATM    4  C6  UNL     1      10.796  54.370  93.728  1.00  0.00     0.135 C 
HETATM    5  C7  UNL     1      12.188  53.864  93.844  1.00  0.00     0.157 C 
HETATM    6  N3  UNL     1      12.359  52.810  94.785  1.00  0.00    -0.367 N 
ATOM      7  H3  UNL     1      12.276  53.116  95.754  1.00  0.00     0.161 HD
HETATM    8  C12 UNL     1      12.590  51.579  94.669  1.00  0.00     0.085 C 
HETATM    9  C18 UNL     1      12.729  50.963  93.352  1.00  0.00     0.187 C 
HETATM   10  C19 UNL     1      13.960  50.287  93.001  1.00  0.00     0.265 C 
HETATM   11  O2  UNL     1      15.058  50.770  93.412  1.00  0.00    -0.265 OA
HETATM   12  O3  UNL     1      13.999  49.143  92.240  1.00  0.00    -0.320 OA
HETATM   13  C20 UNL     1      13.394  48.928  90.972  1.00  0.00     0.198 C 
HETATM   14  C21 UNL     1      12.813  50.209  90.424  1.00  0.00     0.149 C 
HETATM   15  N5  UNL     1      12.569  50.238  89.021  1.00  0.00    -0.357 N 
ATOM     16  H5  UNL     1      13.179  49.650  88.453  1.00  0.00     0.162 HD
HETATM   17  C22 UNL     1      11.606  50.965  88.322  1.00  0.00     0.240 C 
HETATM   18  O4  UNL     1      11.051  50.334  87.340  1.00  0.00    -0.271 OA
HETATM   19  C23 UNL     1      11.111  52.325  88.503  1.00  0.00     0.177 C 
HETATM   20  N6  UNL     1      11.572  53.046  89.656  1.00  0.00    -0.346 N 
ATOM     21  H6  UNL     1      12.559  52.902  89.866  1.00  0.00     0.163 HD
HETATM   22  C28 UNL     1      10.931  53.895  90.532  1.00  0.00     0.241 C 
HETATM   23  O5  UNL     1      11.385  55.107  90.620  1.00  0.00    -0.271 OA
ENDROOT
BRANCH   5  24
HETATM   24  C8  UNL     1      13.083  54.995  94.430  1.00  0.00     0.033 C 
BRANCH  24  25
HETATM   25  C9  UNL     1      13.755  55.802  93.384  1.00  0.00     0.004 C 
BRANCH  25  26
HETATM   26  C10 UNL     1      14.450  54.837  92.449  1.00  0.00     0.027 C 
BRANCH  26  27
HETATM   27  C11 UNL     1      15.059  55.539  91.250  1.00  0.00     0.229 C 
BRANCH  27  28
HETATM   28  N2  UNL     1      14.460  55.011  90.055  1.00  0.00    -0.079 N 
ATOM     29  H23 UNL     1      14.398  53.993  90.065  1.00  0.00     0.274 HD
ATOM     30  H22 UNL     1      13.462  55.212  89.998  1.00  0.00     0.274 HD
ATOM     31  H21 UNL     1      14.976  55.363  89.248  1.00  0.00     0.274 HD
ENDBRANCH  27  28
ENDBRANCH  26  27
ENDBRANCH  25  26
ENDBRANCH  24  25
ENDBRANCH   5  24
BRANCH   4  32
HETATM   32  O1  UNL     1      10.393  54.829  94.877  1.00  0.00    -0.348 OA
ATOM     33  H1  UNL     1       9.463  54.767  95.063  1.00  0.00     0.219 HD
ENDBRANCH   4  32
BRANCH   8  34
HETATM   34  N4  UNL     1      12.712  50.753  95.822  1.00  0.00    -0.370 N 
HETATM   35  C13 UNL     1      13.694  50.937  96.863  1.00  0.00     0.124 C 
HETATM   36  C14 UNL     1      13.326  49.974  98.004  1.00  0.00     0.020 C 
HETATM   37  C15 UNL     1      13.458  48.541  97.544  1.00  0.00     0.003 C 
HETATM   38  C16 UNL     1      12.553  48.349  96.354  1.00  0.00     0.020 C 
HETATM   39  C17 UNL     1      11.807  49.614  96.038  1.00  0.00     0.124 C 
ENDBRANCH   8  34
BRANCH   1  40
HETATM   40  C4  UNL     1       9.276  52.356  91.654  1.00  0.00     0.038 C 
BRANCH  40  41
HETATM   41  C2  UNL     1       7.971  51.988  91.015  1.00  0.00    -0.020 C 
HETATM   42  C1  UNL     1       7.576  52.730  89.796  1.00  0.00     0.009 C 
HETATM   43  C3  UNL     1       6.899  52.306  92.077  1.00  0.00     0.009 C 
ENDBRANCH  40  41
ENDBRANCH   1  40
BRANCH  19  44
HETATM   44  C24 UNL     1      11.308  53.198  87.286  1.00  0.00     0.038 C 
BRANCH  44  45
HETATM   45  C25 UNL     1      12.613  53.123  86.598  1.00  0.00    -0.020 C 
HETATM   46  C26 UNL     1      13.456  54.347  86.577  1.00  0.00     0.009 C 
HETATM   47  C27 UNL     1      12.273  52.833  85.121  1.00  0.00     0.009 C 
ENDBRANCH  44  45
ENDBRANCH  19  44
TORSDOF 11
ENDMDL
MODEL 5
REMARK VINA RESULT: -5.333901287      2.607      6.988
REMARK  11 active torsions:
REMARK  status: ('A' for Active; 'I' for Inactive)
REMARK    1  A    between atoms: C2_2  and  C4_4 
REMARK    2  A    between atoms: C4_4  and  C5_5 
REMARK    3  A    between atoms: C6_8  and  O1_9 
REMARK    4  A    between atoms: C7_11  and  C8_12 
REMARK    5  A    between atoms: C8_12  and  C9_13 
REMARK    6  A    between atoms: C9_13  and  C10_14 
REMARK    7  A    between atoms: C10_14  and  C11_15 
REMARK    8  A    between atoms: C11_15  and  N2_16 
REMARK    9  A    between atoms: C12_22  and  N4_23 
REMARK   10  A    between atoms: C23_39  and  C24_40 
REMARK   11  A    between atoms: C24_40  and  C25_41 
ROOT
HETATM    1  C5  UNL     1      10.635  53.420  86.148  1.00  0.00     0.175 C 
HETATM    2  N1  UNL     1      10.357  54.145  87.362  1.00  0.00    -0.359 N 
ATOM      3  H1  UNL     1       9.965  55.073  87.198  1.00  0.00     0.162 HD
HETATM    4  C6  UNL     1      10.510  53.847  88.696  1.00  0.00     0.135 C 
HETATM    5  C7  UNL     1      11.373  52.883  89.426  1.00  0.00     0.157 C 
HETATM    6  N3  UNL     1      10.662  51.921  90.197  1.00  0.00    -0.367 N 
ATOM      7  H3  UNL     1      10.218  52.315  91.026  1.00  0.00     0.161 HD
HETATM    8  C12 UNL     1      10.470  50.684  90.069  1.00  0.00     0.085 C 
HETATM    9  C18 UNL     1      11.024  49.953  88.933  1.00  0.00     0.187 C 
HETATM   10  C19 UNL     1      11.935  48.851  89.162  1.00  0.00     0.265 C 
HETATM   11  O2  UNL     1      12.765  48.936  90.117  1.00  0.00    -0.265 OA
HETATM   12  O3  UNL     1      11.945  47.712  88.393  1.00  0.00    -0.320 OA
HETATM   13  C20 UNL     1      12.029  47.627  86.976  1.00  0.00     0.198 C 
HETATM   14  C21 UNL     1      12.297  48.981  86.367  1.00  0.00     0.149 C 
HETATM   15  N5  UNL     1      12.821  48.981  85.042  1.00  0.00    -0.357 N 
ATOM     16  H5  UNL     1      13.380  48.167  84.787  1.00  0.00     0.162 HD
HETATM   17  C22 UNL     1      12.668  49.947  84.047  1.00  0.00     0.240 C 
HETATM   18  O4  UNL     1      12.501  49.481  82.854  1.00  0.00    -0.271 OA
HETATM   19  C23 UNL     1      12.665  51.403  84.118  1.00  0.00     0.177 C 
HETATM   20  N6  UNL     1      12.703  52.001  85.422  1.00  0.00    -0.346 N 
ATOM     21  H6  UNL     1      13.326  51.528  86.076  1.00  0.00     0.163 HD
HETATM   22  C28 UNL     1      12.057  53.094  85.958  1.00  0.00     0.241 C 
HETATM   23  O5  UNL     1      12.797  54.063  86.399  1.00  0.00    -0.271 OA
ENDROOT
BRANCH   5  24
HETATM   24  C8  UNL     1      12.183  53.658  90.507  1.00  0.00     0.033 C 
BRANCH  24  25
HETATM   25  C9  UNL     1      13.251  54.508  89.930  1.00  0.00     0.004 C 
BRANCH  25  26
HETATM   26  C10 UNL     1      13.285  55.792  90.728  1.00  0.00     0.027 C 
BRANCH  26  27
HETATM   27  C11 UNL     1      14.701  56.292  90.949  1.00  0.00     0.229 C 
BRANCH  27  28
HETATM   28  N2  UNL     1      15.613  55.205  90.723  1.00  0.00    -0.079 N 
ATOM     29  H23 UNL     1      15.135  54.313  90.596  1.00  0.00     0.274 HD
ATOM     30  H22 UNL     1      16.060  55.255  89.807  1.00  0.00     0.274 HD
ATOM     31  H21 UNL     1      16.289  55.180  91.487  1.00  0.00     0.274 HD
ENDBRANCH  27  28
ENDBRANCH  26  27
ENDBRANCH  25  26
ENDBRANCH  24  25
ENDBRANCH   5  24
BRANCH   4  32
HETATM   32  O1  UNL     1       9.776  54.515  89.538  1.00  0.00    -0.348 OA
ATOM     33  H1  UNL     1       9.242  54.009  90.139  1.00  0.00     0.219 HD
ENDBRANCH   4  32
BRANCH   8  34
HETATM   34  N4  UNL     1       9.695  49.968  91.025  1.00  0.00    -0.370 N 
HETATM   35  C13 UNL     1      10.020  49.857  92.426  1.00  0.00     0.124 C 
HETATM   36  C14 UNL     1       8.815  49.196  93.116  1.00  0.00     0.020 C 
HETATM   37  C15 UNL     1       8.630  47.785  92.610  1.00  0.00     0.003 C 
HETATM   38  C16 UNL     1       8.438  47.847  91.117  1.00  0.00     0.020 C 
HETATM   39  C17 UNL     1       8.462  49.269  90.631  1.00  0.00     0.124 C 
ENDBRANCH   8  34
BRANCH   1  40
HETATM   40  C4  UNL     1       9.644  52.356  85.921  1.00  0.00     0.038 C 
BRANCH  40  41
HETATM   41  C2  UNL     1       8.928  52.335  84.604  1.00  0.00    -0.020 C 
HETATM   42  C1  UNL     1       9.214  53.437  83.657  1.00  0.00     0.009 C 
HETATM   43  C3  UNL     1       7.431  52.452  84.958  1.00  0.00     0.009 C 
ENDBRANCH  40  41
ENDBRANCH   1  40
BRANCH  19  44
HETATM   44  C24 UNL     1      13.740  52.042  83.270  1.00  0.00     0.038 C 
BRANCH  44  45
HETATM   45  C25 UNL     1      15.094  52.148  83.852  1.00  0.00    -0.020 C 
HETATM   46  C26 UNL     1      15.536  53.480  84.341  1.00  0.00     0.009 C 
HETATM   47  C27 UNL     1      16.056  51.793  82.699  1.00  0.00     0.009 C 
ENDBRANCH  44  45
ENDBRANCH  19  44
TORSDOF 11
ENDMDL
