MODEL 1
REMARK VINA RESULT: -7.395167072      0.000      0.000
REMARK  5 active torsions:
REMARK  status: ('A' for Active; 'I' for Inactive)
REMARK    1  A    between atoms: N1_5  and  C5_6 
REMARK    2  A    between atoms: C5_6  and  C6_7 
REMARK    3  A    between atoms: C6_7  and  O1_8 
REMARK    4  A    between atoms: O1_8  and  C7_9 
REMARK    5  A    between atoms: C14_17  and  O3_18 
ROOT
HETATM    1  C7  UNL     1      -4.009   5.896  11.316  1.00  0.00     0.131 C 
HETATM    2  C8  UNL     1      -2.677   5.913  12.069  1.00  0.00     0.035 C 
HETATM    3  C9  UNL     1      -1.859   4.787  11.458  1.00  0.00     0.044 C 
HETATM    4  C10 UNL     1      -2.903   3.738  11.284  1.00  0.00     0.095 C 
HETATM    5  O2  UNL     1      -3.607   3.508  12.442  1.00  0.00    -0.371 OA
HETATM    6  C11 UNL     1      -4.783   3.536  11.665  1.00  0.00     0.132 C 
HETATM    7  C12 UNL     1      -4.962   2.163  11.083  1.00  0.00     0.035 C 
HETATM    8  C13 UNL     1      -3.675   1.517  10.664  1.00  0.00     0.037 C 
HETATM    9  C14 UNL     1      -2.537   2.512  10.529  1.00  0.00     0.153 C 
HETATM   10  C15 UNL     1      -4.088   4.510  10.759  1.00  0.00     0.081 C 
ENDROOT
BRANCH   1  11
HETATM   11  O1  UNL     1      -5.010   6.066  12.232  1.00  0.00    -0.384 OA
BRANCH  11  12
HETATM   12  C6  UNL     1      -4.703   6.875  13.301  1.00  0.00     0.198 C 
BRANCH  12  13
HETATM   13  C5  UNL     1      -5.612   6.713  14.483  1.00  0.00     0.298 C 
BRANCH  13  14
HETATM   14  N1  UNL     1      -5.570   5.335  14.911  1.00  0.00     0.090 N 
HETATM   15  C4  UNL     1      -6.763   4.882  15.541  1.00  0.00     0.273 C 
HETATM   16  C3  UNL     1      -6.598   4.613  17.019  1.00  0.00     0.034 C 
HETATM   17  C2  UNL     1      -5.547   3.548  17.222  1.00  0.00    -0.015 C 
HETATM   18  C1  UNL     1      -6.224   2.177  17.192  1.00  0.00     0.010 C 
HETATM   19  C17 UNL     1      -4.506   3.581  16.137  1.00  0.00     0.034 C 
HETATM   20  C16 UNL     1      -4.353   4.960  15.556  1.00  0.00     0.273 C 
ENDBRANCH  13  14
ENDBRANCH  12  13
ENDBRANCH  11  12
ENDBRANCH   1  11
BRANCH   9  21
HETATM   21  O3  UNL     1      -1.422   1.938  11.136  1.00  0.00    -0.393 OA
ATOM     22  H3  UNL     1      -0.771   1.766  10.465  1.00  0.00     0.210 HD
ENDBRANCH   9  21
TORSDOF 5
ENDMDL
MODEL 2
REMARK VINA RESULT: -7.187281437      1.914      5.505
REMARK  5 active torsions:
REMARK  status: ('A' for Active; 'I' for Inactive)
REMARK    1  A    between atoms: N1_5  and  C5_6 
REMARK    2  A    between atoms: C5_6  and  C6_7 
REMARK    3  A    between atoms: C6_7  and  O1_8 
REMARK    4  A    between atoms: O1_8  and  C7_9 
REMARK    5  A    between atoms: C14_17  and  O3_18 
ROOT
HETATM    1  C7  UNL     1      -4.123   6.072  14.760  1.00  0.00     0.131 C 
HETATM    2  C8  UNL     1      -5.529   6.546  14.384  1.00  0.00     0.035 C 
HETATM    3  C9  UNL     1      -6.435   6.024  15.488  1.00  0.00     0.044 C 
HETATM    4  C10 UNL     1      -5.857   4.669  15.713  1.00  0.00     0.095 C 
HETATM    5  O2  UNL     1      -5.737   3.954  14.545  1.00  0.00    -0.371 OA
HETATM    6  C11 UNL     1      -4.441   3.593  14.967  1.00  0.00     0.132 C 
HETATM    7  C12 UNL     1      -4.586   2.406  15.877  1.00  0.00     0.035 C 
HETATM    8  C13 UNL     1      -5.788   2.481  16.772  1.00  0.00     0.037 C 
HETATM    9  C14 UNL     1      -6.358   3.883  16.870  1.00  0.00     0.153 C 
HETATM   10  C15 UNL     1      -4.369   4.914  15.675  1.00  0.00     0.081 C 
ENDROOT
BRANCH   1  11
HETATM   11  O1  UNL     1      -3.516   5.619  13.620  1.00  0.00    -0.384 OA
BRANCH  11  12
HETATM   12  C6  UNL     1      -3.911   6.234  12.455  1.00  0.00     0.198 C 
BRANCH  12  13
HETATM   13  C5  UNL     1      -3.615   5.451  11.211  1.00  0.00     0.298 C 
BRANCH  13  14
HETATM   14  N1  UNL     1      -3.751   4.045  11.506  1.00  0.00     0.090 N 
HETATM   15  C4  UNL     1      -2.537   3.309  11.420  1.00  0.00     0.273 C 
HETATM   16  C3  UNL     1      -2.500   2.342  10.259  1.00  0.00     0.034 C 
HETATM   17  C2  UNL     1      -3.624   1.345  10.400  1.00  0.00    -0.015 C 
HETATM   18  C1  UNL     1      -3.127   0.156  11.222  1.00  0.00     0.010 C 
HETATM   19  C17 UNL     1      -4.810   1.941  11.107  1.00  0.00     0.034 C 
HETATM   20  C16 UNL     1      -4.889   3.428  10.903  1.00  0.00     0.273 C 
ENDBRANCH  13  14
ENDBRANCH  12  13
ENDBRANCH  11  12
ENDBRANCH   1  11
BRANCH   9  21
HETATM   21  O3  UNL     1      -7.742   3.767  16.756  1.00  0.00    -0.393 OA
ATOM     22  H3  UNL     1      -8.144   4.457  17.272  1.00  0.00     0.210 HD
ENDBRANCH   9  21
TORSDOF 5
ENDMDL
MODEL 3
REMARK VINA RESULT: -6.877607015      1.243      1.462
REMARK  5 active torsions:
REMARK  status: ('A' for Active; 'I' for Inactive)
REMARK    1  A    between atoms: N1_5  and  C5_6 
REMARK    2  A    between atoms: C5_6  and  C6_7 
REMARK    3  A    between atoms: C6_7  and  O1_8 
REMARK    4  A    between atoms: O1_8  and  C7_9 
REMARK    5  A    between atoms: C14_17  and  O3_18 
ROOT
HETATM    1  C7  UNL     1      -4.446   6.180  11.256  1.00  0.00     0.131 C 
HETATM    2  C8  UNL     1      -3.280   7.125  11.552  1.00  0.00     0.035 C 
HETATM    3  C9  UNL     1      -2.121   6.604  10.718  1.00  0.00     0.044 C 
HETATM    4  C10 UNL     1      -2.290   5.132  10.885  1.00  0.00     0.095 C 
HETATM    5  O2  UNL     1      -2.389   4.766  12.206  1.00  0.00    -0.371 OA
HETATM    6  C11 UNL     1      -3.472   3.943  11.837  1.00  0.00     0.132 C 
HETATM    7  C12 UNL     1      -2.896   2.646  11.345  1.00  0.00     0.035 C 
HETATM    8  C13 UNL     1      -1.638   2.814  10.545  1.00  0.00     0.037 C 
HETATM    9  C14 UNL     1      -1.441   4.237  10.056  1.00  0.00     0.153 C 
HETATM   10  C15 UNL     1      -3.781   4.937  10.756  1.00  0.00     0.081 C 
ENDROOT
BRANCH   1  11
HETATM   11  O1  UNL     1      -5.073   5.904  12.440  1.00  0.00    -0.384 OA
BRANCH  11  12
HETATM   12  C6  UNL     1      -4.969   6.879  13.405  1.00  0.00     0.198 C 
BRANCH  12  13
HETATM   13  C5  UNL     1      -4.454   6.391  14.726  1.00  0.00     0.298 C 
BRANCH  13  14
HETATM   14  N1  UNL     1      -5.136   5.164  15.063  1.00  0.00     0.090 N 
HETATM   15  C4  UNL     1      -6.494   5.339  15.450  1.00  0.00     0.273 C 
HETATM   16  C3  UNL     1      -6.744   5.056  16.913  1.00  0.00     0.034 C 
HETATM   17  C2  UNL     1      -6.366   3.627  17.220  1.00  0.00    -0.015 C 
HETATM   18  C1  UNL     1      -7.585   2.734  16.986  1.00  0.00     0.010 C 
HETATM   19  C17 UNL     1      -5.253   3.144  16.333  1.00  0.00     0.034 C 
HETATM   20  C16 UNL     1      -4.373   4.276  15.879  1.00  0.00     0.273 C 
ENDBRANCH  13  14
ENDBRANCH  12  13
ENDBRANCH  11  12
ENDBRANCH   1  11
BRANCH   9  21
HETATM   21  O3  UNL     1      -0.106   4.563  10.284  1.00  0.00    -0.393 OA
ATOM     22  H3  UNL     1       0.299   4.770   9.449  1.00  0.00     0.210 HD
ENDBRANCH   9  21
TORSDOF 5
ENDMDL
MODEL 4
REMARK VINA RESULT: -6.752615185      1.265      1.428
REMARK  5 active torsions:
REMARK  status: ('A' for Active; 'I' for Inactive)
REMARK    1  A    between atoms: N1_5  and  C5_6 
REMARK    2  A    between atoms: C5_6  and  C6_7 
REMARK    3  A    between atoms: C6_7  and  O1_8 
REMARK    4  A    between atoms: O1_8  and  C7_9 
REMARK    5  A    between atoms: C14_17  and  O3_18 
ROOT
HETATM    1  C7  UNL     1      -3.423   5.131  12.106  1.00  0.00     0.131 C 
HETATM    2  C8  UNL     1      -2.227   5.054  11.154  1.00  0.00     0.035 C 
HETATM    3  C9  UNL     1      -2.628   4.045  10.090  1.00  0.00     0.044 C 
HETATM    4  C10 UNL     1      -3.322   3.018  10.917  1.00  0.00     0.095 C 
HETATM    5  O2  UNL     1      -2.558   2.607  11.983  1.00  0.00    -0.371 OA
HETATM    6  C11 UNL     1      -3.711   2.733  12.785  1.00  0.00     0.132 C 
HETATM    7  C12 UNL     1      -4.495   1.461  12.637  1.00  0.00     0.035 C 
HETATM    8  C13 UNL     1      -4.478   0.904  11.243  1.00  0.00     0.037 C 
HETATM    9  C14 UNL     1      -4.039   1.926  10.211  1.00  0.00     0.153 C 
HETATM   10  C15 UNL     1      -4.148   3.843  11.874  1.00  0.00     0.081 C 
ENDROOT
BRANCH   1  11
HETATM   11  O1  UNL     1      -2.940   5.145  13.386  1.00  0.00    -0.384 OA
BRANCH  11  12
HETATM   12  C6  UNL     1      -3.198   6.290  14.103  1.00  0.00     0.198 C 
BRANCH  12  13
HETATM   13  C5  UNL     1      -4.639   6.479  14.471  1.00  0.00     0.298 C 
BRANCH  13  14
HETATM   14  N1  UNL     1      -5.161   5.223  14.953  1.00  0.00     0.090 N 
HETATM   15  C4  UNL     1      -6.564   5.223  15.186  1.00  0.00     0.273 C 
HETATM   16  C3  UNL     1      -6.931   5.132  16.649  1.00  0.00     0.034 C 
HETATM   17  C2  UNL     1      -6.377   3.853  17.228  1.00  0.00    -0.015 C 
HETATM   18  C1  UNL     1      -7.412   2.742  17.046  1.00  0.00     0.010 C 
HETATM   19  C17 UNL     1      -5.110   3.433  16.536  1.00  0.00     0.034 C 
HETATM   20  C16 UNL     1      -4.368   4.613  15.972  1.00  0.00     0.273 C 
ENDBRANCH  13  14
ENDBRANCH  12  13
ENDBRANCH  11  12
ENDBRANCH   1  11
BRANCH   9  21
HETATM   21  O3  UNL     1      -3.138   1.284   9.364  1.00  0.00    -0.393 OA
ATOM     22  H3  UNL     1      -2.467   1.909   9.111  1.00  0.00     0.210 HD
ENDBRANCH   9  21
TORSDOF 5
ENDMDL
MODEL 5
REMARK VINA RESULT: -6.433284591      2.104      3.372
REMARK  5 active torsions:
REMARK  status: ('A' for Active; 'I' for Inactive)
REMARK    1  A    between atoms: N1_5  and  C5_6 
REMARK    2  A    between atoms: C5_6  and  C6_7 
REMARK    3  A    between atoms: C6_7  and  O1_8 
REMARK    4  A    between atoms: O1_8  and  C7_9 
REMARK    5  A    between atoms: C14_17  and  O3_18 
ROOT
HETATM    1  C7  UNL     1      -3.359   5.611  12.075  1.00  0.00     0.131 C 
HETATM    2  C8  UNL     1      -2.774   5.962  13.445  1.00  0.00     0.035 C 
HETATM    3  C9  UNL     1      -1.570   6.842  13.152  1.00  0.00     0.044 C 
HETATM    4  C10 UNL     1      -0.997   6.154  11.961  1.00  0.00     0.095 C 
HETATM    5  O2  UNL     1      -0.813   4.809  12.176  1.00  0.00    -0.371 OA
HETATM    6  C11 UNL     1      -1.389   4.586  10.908  1.00  0.00     0.132 C 
HETATM    7  C12 UNL     1      -0.296   4.746   9.890  1.00  0.00     0.035 C 
HETATM    8  C13 UNL     1       0.665   5.853  10.211  1.00  0.00     0.037 C 
HETATM    9  C14 UNL     1       0.116   6.823  11.240  1.00  0.00     0.153 C 
HETATM   10  C15 UNL     1      -2.214   5.819  11.134  1.00  0.00     0.081 C 
ENDROOT
BRANCH   1  11
HETATM   11  O1  UNL     1      -3.689   4.283  12.088  1.00  0.00    -0.384 OA
BRANCH  11  12
HETATM   12  C6  UNL     1      -4.846   3.968  12.763  1.00  0.00     0.198 C 
BRANCH  12  13
HETATM   13  C5  UNL     1      -4.664   2.980  13.875  1.00  0.00     0.298 C 
BRANCH  13  14
HETATM   14  N1  UNL     1      -4.995   3.624  15.124  1.00  0.00     0.090 N 
HETATM   15  C4  UNL     1      -4.941   2.765  16.257  1.00  0.00     0.273 C 
HETATM   16  C3  UNL     1      -6.297   2.474  16.857  1.00  0.00     0.034 C 
HETATM   17  C2  UNL     1      -6.939   3.767  17.299  1.00  0.00    -0.015 C 
HETATM   18  C1  UNL     1      -6.520   4.056  18.741  1.00  0.00     0.010 C 
HETATM   19  C17 UNL     1      -6.504   4.925  16.444  1.00  0.00     0.034 C 
HETATM   20  C16 UNL     1      -6.135   4.481  15.055  1.00  0.00     0.273 C 
ENDBRANCH  13  14
ENDBRANCH  12  13
ENDBRANCH  11  12
ENDBRANCH   1  11
BRANCH   9  21
HETATM   21  O3  UNL     1       1.142   7.073  12.150  1.00  0.00    -0.393 OA
ATOM     22  H3  UNL     1       1.925   6.628  11.847  1.00  0.00     0.210 HD
ENDBRANCH   9  21
TORSDOF 5
ENDMDL
