MODEL 1
REMARK VINA RESULT: -5.416197536      0.000      0.000
REMARK  1 active torsions:
REMARK  status: ('A' for Active; 'I' for Inactive)
REMARK    1  A    between atoms: C2_2  and  C4_4 
ROOT
HETATM    1  C4  UNL     1      -5.213   4.123  16.695  1.00  0.00     0.229 C 
HETATM    2  C5  UNL     1      -6.046   4.644  15.525  1.00  0.00     0.077 C 
HETATM    3  C6  UNL     1      -4.717   4.448  14.784  1.00  0.00     0.263 C 
HETATM    4  C7  UNL     1      -4.830   3.977  13.391  1.00  0.00     0.091 C 
HETATM    5  N1  UNL     1      -4.255   2.753  13.041  1.00  0.00    -0.398 N 
ATOM      6  H1  UNL     1      -3.927   2.586  12.090  1.00  0.00     0.158 HD
HETATM    7  C8  UNL     1      -4.135   1.748  14.033  1.00  0.00     0.149 C 
HETATM    8  C9  UNL     1      -4.726   2.117  15.370  1.00  0.00     0.293 C 
HETATM    9  N2  UNL     1      -4.388   3.453  15.764  1.00  0.00     0.104 N 
ENDROOT
BRANCH   1  10
HETATM   10  C2  UNL     1      -6.069   3.336  17.620  1.00  0.00     0.011 C 
HETATM   11  C1  UNL     1      -7.440   3.207  16.937  1.00  0.00     0.011 C 
HETATM   12  C3  UNL     1      -6.227   3.908  18.982  1.00  0.00     0.011 C 
ENDBRANCH   1  10
TORSDOF 1
ENDMDL
MODEL 2
REMARK VINA RESULT: -5.143159045      1.819      2.949
REMARK  1 active torsions:
REMARK  status: ('A' for Active; 'I' for Inactive)
REMARK    1  A    between atoms: C2_2  and  C4_4 
ROOT
HETATM    1  C4  UNL     1      -5.728   3.684  15.816  1.00  0.00     0.229 C 
HETATM    2  C5  UNL     1      -4.333   4.106  16.274  1.00  0.00     0.077 C 
HETATM    3  C6  UNL     1      -4.246   4.588  14.821  1.00  0.00     0.263 C 
HETATM    4  C7  UNL     1      -3.496   5.840  14.610  1.00  0.00     0.091 C 
HETATM    5  N1  UNL     1      -4.158   6.943  14.066  1.00  0.00    -0.398 N 
ATOM      6  H1  UNL     1      -3.650   7.638  13.520  1.00  0.00     0.158 HD
HETATM    7  C8  UNL     1      -5.552   7.079  14.288  1.00  0.00     0.149 C 
HETATM    8  C9  UNL     1      -6.150   6.012  15.171  1.00  0.00     0.293 C 
HETATM    9  N2  UNL     1      -5.676   4.701  14.837  1.00  0.00     0.104 N 
ENDROOT
BRANCH   1  10
HETATM   10  C2  UNL     1      -6.691   3.794  16.943  1.00  0.00     0.011 C 
HETATM   11  C1  UNL     1      -5.861   3.695  18.232  1.00  0.00     0.011 C 
HETATM   12  C3  UNL     1      -7.777   2.780  16.953  1.00  0.00     0.011 C 
ENDBRANCH   1  10
TORSDOF 1
ENDMDL
MODEL 3
REMARK VINA RESULT: -4.993664124      2.070      4.309
REMARK  1 active torsions:
REMARK  status: ('A' for Active; 'I' for Inactive)
REMARK    1  A    between atoms: C2_2  and  C4_4 
ROOT
HETATM    1  C4  UNL     1      -4.870   5.795  14.196  1.00  0.00     0.229 C 
HETATM    2  C5  UNL     1      -5.575   6.689  15.214  1.00  0.00     0.077 C 
HETATM    3  C6  UNL     1      -6.422   5.424  15.403  1.00  0.00     0.263 C 
HETATM    4  C7  UNL     1      -6.865   5.156  16.783  1.00  0.00     0.091 C 
HETATM    5  N1  UNL     1      -6.456   3.976  17.409  1.00  0.00    -0.398 N 
ATOM      6  H1  UNL     1      -7.033   3.542  18.129  1.00  0.00     0.158 HD
HETATM    7  C8  UNL     1      -5.223   3.392  17.023  1.00  0.00     0.149 C 
HETATM    8  C9  UNL     1      -4.452   4.184  15.997  1.00  0.00     0.293 C 
HETATM    9  N2  UNL     1      -5.291   4.672  14.943  1.00  0.00     0.104 N 
ENDROOT
BRANCH   1  10
HETATM   10  C2  UNL     1      -3.425   6.137  14.130  1.00  0.00     0.011 C 
HETATM   11  C1  UNL     1      -3.324   7.643  14.416  1.00  0.00     0.011 C 
HETATM   12  C3  UNL     1      -2.753   5.812  12.846  1.00  0.00     0.011 C 
ENDBRANCH   1  10
TORSDOF 1
ENDMDL
MODEL 4
REMARK VINA RESULT: -4.887243979      1.557      1.867
REMARK  1 active torsions:
REMARK  status: ('A' for Active; 'I' for Inactive)
REMARK    1  A    between atoms: C2_2  and  C4_4 
ROOT
HETATM    1  C4  UNL     1      -5.338   4.177  16.428  1.00  0.00     0.229 C 
HETATM    2  C5  UNL     1      -6.191   5.344  15.933  1.00  0.00     0.077 C 
HETATM    3  C6  UNL     1      -4.859   5.753  15.291  1.00  0.00     0.263 C 
HETATM    4  C7  UNL     1      -4.961   6.381  13.961  1.00  0.00     0.091 C 
HETATM    5  N1  UNL     1      -4.347   5.761  12.870  1.00  0.00    -0.398 N 
ATOM      6  H1  UNL     1      -4.017   6.311  12.077  1.00  0.00     0.158 HD
HETATM    7  C8  UNL     1      -4.191   4.352  12.886  1.00  0.00     0.149 C 
HETATM    8  C9  UNL     1      -4.790   3.672  14.092  1.00  0.00     0.293 C 
HETATM    9  N2  UNL     1      -4.494   4.365  15.311  1.00  0.00     0.104 N 
ENDROOT
BRANCH   1  10
HETATM   10  C2  UNL     1      -6.165   2.946  16.528  1.00  0.00     0.011 C 
HETATM   11  C1  UNL     1      -7.616   3.415  16.725  1.00  0.00     0.011 C 
HETATM   12  C3  UNL     1      -5.778   2.006  17.611  1.00  0.00     0.011 C 
ENDBRANCH   1  10
TORSDOF 1
ENDMDL
MODEL 5
REMARK VINA RESULT: -4.784650559      2.117      3.842
REMARK  1 active torsions:
REMARK  status: ('A' for Active; 'I' for Inactive)
REMARK    1  A    between atoms: C2_2  and  C4_4 
ROOT
HETATM    1  C4  UNL     1      -4.982   5.652  14.309  1.00  0.00     0.229 C 
HETATM    2  C5  UNL     1      -4.196   5.008  15.450  1.00  0.00     0.077 C 
HETATM    3  C6  UNL     1      -5.077   3.808  15.080  1.00  0.00     0.263 C 
HETATM    4  C7  UNL     1      -4.430   2.487  15.184  1.00  0.00     0.091 C 
HETATM    5  N1  UNL     1      -4.309   1.699  14.037  1.00  0.00    -0.398 N 
ATOM      6  H1  UNL     1      -4.284   0.682  14.105  1.00  0.00     0.158 HD
HETATM    7  C8  UNL     1      -4.223   2.341  12.775  1.00  0.00     0.149 C 
HETATM    8  C9  UNL     1      -4.204   3.848  12.842  1.00  0.00     0.293 C 
HETATM    9  N2  UNL     1      -5.175   4.364  13.761  1.00  0.00     0.104 N 
ENDROOT
BRANCH   1  10
HETATM   10  C2  UNL     1      -4.129   6.637  13.594  1.00  0.00     0.011 C 
HETATM   11  C1  UNL     1      -3.420   7.463  14.679  1.00  0.00     0.011 C 
HETATM   12  C3  UNL     1      -4.846   7.535  12.653  1.00  0.00     0.011 C 
ENDBRANCH   1  10
TORSDOF 1
ENDMDL
