MODEL 1
REMARK VINA RESULT: -9.690491751      0.000      0.000
REMARK  7 active torsions:
REMARK  status: ('A' for Active; 'I' for Inactive)
REMARK    1  A    between atoms: C2_2  and  C3_3 
REMARK    2  A    between atoms: C16_18  and  C17_19 
REMARK    3  A    between atoms: C17_19  and  S1_20 
REMARK    4  A    between atoms: S1_20  and  C18_23 
REMARK    5  A    between atoms: C18_23  and  C19_24 
REMARK    6  A    between atoms: C19_24  and  O5_25 
REMARK    7  A    between atoms: N1_27  and  O6_29 
ROOT
HETATM    1  C3  UNL     1       6.541  30.020  23.824  1.00  0.00    -0.023 C 
HETATM    2  C4  UNL     1       7.885  29.908  24.559  1.00  0.00     0.020 C 
HETATM    3  C5  UNL     1       5.680  28.810  24.124  1.00  0.00     0.014 C 
HETATM    4  C6  UNL     1       4.284  29.456  24.134  1.00  0.00     0.006 C 
HETATM    5  C7  UNL     1       4.548  30.631  25.033  1.00  0.00    -0.005 C 
HETATM    6  C8  UNL     1       3.507  31.731  24.925  1.00  0.00     0.001 C 
HETATM    7  C9  UNL     1       2.292  31.134  24.300  1.00  0.00     0.088 C 
HETATM    8  C10 UNL     1       1.195  32.148  24.322  1.00  0.00     0.153 C 
HETATM    9  O1  UNL     1       0.240  31.913  25.027  1.00  0.00    -0.293 OA
HETATM   10  C11 UNL     1       1.211  33.383  23.553  1.00  0.00    -0.017 C 
HETATM   11  C12 UNL     1      -0.112  34.026  23.250  1.00  0.00     0.051 C 
HETATM   12  C13 UNL     1       0.332  35.354  22.674  1.00  0.00     0.056 C 
HETATM   13  C14 UNL     1       0.216  35.367  21.142  1.00  0.00     0.018 C 
HETATM   14  C15 UNL     1       1.781  35.473  22.968  1.00  0.00     0.144 C 
HETATM   15  O2  UNL     1       2.520  36.305  22.509  1.00  0.00    -0.296 OA
HETATM   16  C16 UNL     1       2.197  34.402  23.925  1.00  0.00     0.061 C 
HETATM   17  C20 UNL     1       3.555  33.844  23.461  1.00  0.00     0.028 C 
HETATM   18  C21 UNL     1       4.180  32.838  24.285  1.00  0.00    -0.008 C 
HETATM   19  C22 UNL     1       5.265  32.153  23.427  1.00  0.00     0.011 C 
HETATM   20  C23 UNL     1       5.822  31.180  24.440  1.00  0.00     0.002 C 
ENDROOT
BRANCH  16  21
HETATM   21  C17 UNL     1       2.397  34.983  25.218  1.00  0.00     0.162 C 
BRANCH  21  22
HETATM   22  S1  UNL     1       3.744  35.958  25.675  1.00  0.00     0.153 S 
HETATM   23  O3  UNL     1       4.593  36.459  24.534  1.00  0.00    -0.227 OA
HETATM   24  O4  UNL     1       4.559  35.443  26.817  1.00  0.00    -0.227 OA
BRANCH  22  25
HETATM   25  C18 UNL     1       3.059  37.492  26.361  1.00  0.00     0.225 C 
BRANCH  25  26
HETATM   26  C19 UNL     1       4.106  38.432  26.720  1.00  0.00     0.149 C 
HETATM   27  N1  UNL     1       4.609  38.449  27.895  1.00  0.00    -0.250 N 
ATOM     28  H1  UNL     1       5.344  39.119  28.120  1.00  0.00     0.196 HD
BRANCH  26  29
HETATM   29  O5  UNL     1       4.584  39.330  25.792  1.00  0.00    -0.347 OA
ATOM     30  H5  UNL     1       5.479  39.269  25.481  1.00  0.00     0.219 HD
ENDBRANCH  26  29
BRANCH  27  31
HETATM   31  O6  UNL     1       4.164  37.565  28.866  1.00  0.00    -0.288 OA
ATOM     32  H6  UNL     1       3.478  36.937  28.670  1.00  0.00     0.244 HD
ENDBRANCH  27  31
ENDBRANCH  25  26
ENDBRANCH  22  25
ENDBRANCH  21  22
ENDBRANCH  16  21
BRANCH   1  33
HETATM   33  C2  UNL     1       6.750  30.155  22.379  1.00  0.00    -0.027 C 
HETATM   34  C1  UNL     1       7.950  30.431  21.905  1.00  0.00     0.007 C 
ENDBRANCH   1  33
TORSDOF 7
ENDMDL
MODEL 2
REMARK VINA RESULT: -9.523982791      1.119      1.411
REMARK  7 active torsions:
REMARK  status: ('A' for Active; 'I' for Inactive)
REMARK    1  A    between atoms: C2_2  and  C3_3 
REMARK    2  A    between atoms: C16_18  and  C17_19 
REMARK    3  A    between atoms: C17_19  and  S1_20 
REMARK    4  A    between atoms: S1_20  and  C18_23 
REMARK    5  A    between atoms: C18_23  and  C19_24 
REMARK    6  A    between atoms: C19_24  and  O5_25 
REMARK    7  A    between atoms: N1_27  and  O6_29 
ROOT
HETATM    1  C3  UNL     1       6.513  30.191  23.828  1.00  0.00    -0.023 C 
HETATM    2  C4  UNL     1       7.889  30.028  24.488  1.00  0.00     0.020 C 
HETATM    3  C5  UNL     1       5.609  29.037  24.212  1.00  0.00     0.014 C 
HETATM    4  C6  UNL     1       4.252  29.757  24.283  1.00  0.00     0.006 C 
HETATM    5  C7  UNL     1       4.628  30.940  25.130  1.00  0.00    -0.005 C 
HETATM    6  C8  UNL     1       3.641  32.090  25.048  1.00  0.00     0.001 C 
HETATM    7  C9  UNL     1       2.362  31.543  24.512  1.00  0.00     0.088 C 
HETATM    8  C10 UNL     1       1.322  32.614  24.566  1.00  0.00     0.153 C 
HETATM    9  O1  UNL     1       0.400  32.450  25.331  1.00  0.00    -0.293 OA
HETATM   10  C11 UNL     1       1.356  33.825  23.760  1.00  0.00    -0.017 C 
HETATM   11  C12 UNL     1       0.053  34.529  23.514  1.00  0.00     0.051 C 
HETATM   12  C13 UNL     1       0.530  35.816  22.875  1.00  0.00     0.056 C 
HETATM   13  C14 UNL     1       0.326  35.794  21.352  1.00  0.00     0.018 C 
HETATM   14  C15 UNL     1       1.998  35.866  23.082  1.00  0.00     0.144 C 
HETATM   15  O2  UNL     1       2.752  36.644  22.556  1.00  0.00    -0.296 OA
HETATM   16  C16 UNL     1       2.414  34.800  24.045  1.00  0.00     0.061 C 
HETATM   17  C20 UNL     1       3.712  34.158  23.521  1.00  0.00     0.028 C 
HETATM   18  C21 UNL     1       4.332  33.142  24.338  1.00  0.00    -0.008 C 
HETATM   19  C22 UNL     1       5.327  32.378  23.440  1.00  0.00     0.011 C 
HETATM   20  C23 UNL     1       5.892  31.404  24.449  1.00  0.00     0.002 C 
ENDROOT
BRANCH  16  21
HETATM   21  C17 UNL     1       2.720  35.404  25.306  1.00  0.00     0.162 C 
BRANCH  21  22
HETATM   22  S1  UNL     1       3.389  36.978  25.522  1.00  0.00     0.153 S 
HETATM   23  O3  UNL     1       2.381  38.092  25.659  1.00  0.00    -0.227 OA
HETATM   24  O4  UNL     1       4.519  37.333  24.612  1.00  0.00    -0.227 OA
BRANCH  22  25
HETATM   25  C18 UNL     1       4.197  36.976  27.147  1.00  0.00     0.225 C 
BRANCH  25  26
HETATM   26  C19 UNL     1       5.281  36.011  27.203  1.00  0.00     0.149 C 
HETATM   27  N1  UNL     1       5.626  35.463  28.305  1.00  0.00    -0.250 N 
ATOM     28  H1  UNL     1       6.390  34.788  28.317  1.00  0.00     0.196 HD
BRANCH  26  29
HETATM   29  O5  UNL     1       5.964  35.664  26.060  1.00  0.00    -0.347 OA
ATOM     30  H5  UNL     1       6.123  34.750  25.854  1.00  0.00     0.219 HD
ENDBRANCH  26  29
BRANCH  27  31
HETATM   31  O6  UNL     1       4.970  35.778  29.486  1.00  0.00    -0.288 OA
ATOM     32  H6  UNL     1       5.373  35.595  30.327  1.00  0.00     0.244 HD
ENDBRANCH  27  31
ENDBRANCH  25  26
ENDBRANCH  22  25
ENDBRANCH  21  22
ENDBRANCH  16  21
BRANCH   1  33
HETATM   33  C2  UNL     1       6.643  30.276  22.370  1.00  0.00    -0.027 C 
HETATM   34  C1  UNL     1       7.835  30.396  21.816  1.00  0.00     0.007 C 
ENDBRANCH   1  33
TORSDOF 7
ENDMDL
MODEL 3
REMARK VINA RESULT: -9.485537550      1.334      1.804
REMARK  7 active torsions:
REMARK  status: ('A' for Active; 'I' for Inactive)
REMARK    1  A    between atoms: C2_2  and  C3_3 
REMARK    2  A    between atoms: C16_18  and  C17_19 
REMARK    3  A    between atoms: C17_19  and  S1_20 
REMARK    4  A    between atoms: S1_20  and  C18_23 
REMARK    5  A    between atoms: C18_23  and  C19_24 
REMARK    6  A    between atoms: C19_24  and  O5_25 
REMARK    7  A    between atoms: N1_27  and  O6_29 
ROOT
HETATM    1  C3  UNL     1       6.528  29.954  23.768  1.00  0.00    -0.023 C 
HETATM    2  C4  UNL     1       7.880  29.790  24.478  1.00  0.00     0.020 C 
HETATM    3  C5  UNL     1       5.631  28.771  24.074  1.00  0.00     0.014 C 
HETATM    4  C6  UNL     1       4.259  29.465  24.114  1.00  0.00     0.006 C 
HETATM    5  C7  UNL     1       4.579  30.622  25.017  1.00  0.00    -0.005 C 
HETATM    6  C8  UNL     1       3.574  31.758  24.936  1.00  0.00     0.001 C 
HETATM    7  C9  UNL     1       2.328  31.208  24.329  1.00  0.00     0.088 C 
HETATM    8  C10 UNL     1       1.268  32.258  24.377  1.00  0.00     0.153 C 
HETATM    9  O1  UNL     1       0.318  32.051  25.098  1.00  0.00    -0.293 OA
HETATM   10  C11 UNL     1       1.312  33.499  23.617  1.00  0.00    -0.017 C 
HETATM   11  C12 UNL     1       0.007  34.189  23.343  1.00  0.00     0.051 C 
HETATM   12  C13 UNL     1       0.485  35.505  22.770  1.00  0.00     0.056 C 
HETATM   13  C14 UNL     1       0.343  35.535  21.240  1.00  0.00     0.018 C 
HETATM   14  C15 UNL     1       1.943  35.573  23.038  1.00  0.00     0.144 C 
HETATM   15  O2  UNL     1       2.703  36.383  22.572  1.00  0.00    -0.296 OA
HETATM   16  C16 UNL     1       2.339  34.480  23.979  1.00  0.00     0.061 C 
HETATM   17  C20 UNL     1       3.668  33.880  23.487  1.00  0.00     0.028 C 
HETATM   18  C21 UNL     1       4.274  32.846  24.292  1.00  0.00    -0.008 C 
HETATM   19  C22 UNL     1       5.319  32.132  23.410  1.00  0.00     0.011 C 
HETATM   20  C23 UNL     1       5.860  31.132  24.406  1.00  0.00     0.002 C 
ENDROOT
BRANCH  16  21
HETATM   21  C17 UNL     1       2.582  35.044  25.273  1.00  0.00     0.162 C 
BRANCH  21  22
HETATM   22  S1  UNL     1       4.026  35.854  25.752  1.00  0.00     0.153 S 
HETATM   23  O3  UNL     1       3.841  36.953  26.767  1.00  0.00    -0.227 OA
HETATM   24  O4  UNL     1       4.951  36.242  24.645  1.00  0.00    -0.227 OA
BRANCH  22  25
HETATM   25  C18 UNL     1       5.019  34.638  26.665  1.00  0.00     0.225 C 
BRANCH  25  26
HETATM   26  C19 UNL     1       5.887  35.278  27.636  1.00  0.00     0.149 C 
HETATM   27  N1  UNL     1       7.049  35.703  27.311  1.00  0.00    -0.250 N 
ATOM     28  H1  UNL     1       7.638  36.150  28.012  1.00  0.00     0.196 HD
BRANCH  26  29
HETATM   29  O5  UNL     1       5.474  35.443  28.939  1.00  0.00    -0.347 OA
ATOM     30  H5  UNL     1       4.572  35.271  29.182  1.00  0.00     0.219 HD
ENDBRANCH  26  29
BRANCH  27  31
HETATM   31  O6  UNL     1       7.513  35.562  26.012  1.00  0.00    -0.288 OA
ATOM     32  H6  UNL     1       7.855  36.310  25.537  1.00  0.00     0.244 HD
ENDBRANCH  27  31
ENDBRANCH  25  26
ENDBRANCH  22  25
ENDBRANCH  21  22
ENDBRANCH  16  21
BRANCH   1  33
HETATM   33  C2  UNL     1       6.716  30.093  22.321  1.00  0.00    -0.027 C 
HETATM   34  C1  UNL     1       7.899  30.412  21.832  1.00  0.00     0.007 C 
ENDBRANCH   1  33
TORSDOF 7
ENDMDL
MODEL 4
REMARK VINA RESULT: -9.230232054      2.943      7.124
REMARK  7 active torsions:
REMARK  status: ('A' for Active; 'I' for Inactive)
REMARK    1  A    between atoms: C2_2  and  C3_3 
REMARK    2  A    between atoms: C16_18  and  C17_19 
REMARK    3  A    between atoms: C17_19  and  S1_20 
REMARK    4  A    between atoms: S1_20  and  C18_23 
REMARK    5  A    between atoms: C18_23  and  C19_24 
REMARK    6  A    between atoms: C19_24  and  O5_25 
REMARK    7  A    between atoms: N1_27  and  O6_29 
ROOT
HETATM    1  C3  UNL     1       1.458  37.841  21.904  1.00  0.00    -0.023 C 
HETATM    2  C4  UNL     1      -0.001  38.100  21.504  1.00  0.00     0.020 C 
HETATM    3  C5  UNL     1       1.977  38.983  22.754  1.00  0.00     0.014 C 
HETATM    4  C6  UNL     1       2.909  38.218  23.710  1.00  0.00     0.006 C 
HETATM    5  C7  UNL     1       1.990  37.110  24.138  1.00  0.00    -0.005 C 
HETATM    6  C8  UNL     1       2.708  35.919  24.748  1.00  0.00     0.001 C 
HETATM    7  C9  UNL     1       4.065  36.382  25.160  1.00  0.00     0.088 C 
HETATM    8  C10 UNL     1       4.741  35.278  25.905  1.00  0.00     0.153 C 
HETATM    9  O1  UNL     1       4.956  35.457  27.082  1.00  0.00    -0.293 OA
HETATM   10  C11 UNL     1       5.151  34.018  25.302  1.00  0.00    -0.017 C 
HETATM   11  C12 UNL     1       6.247  33.250  25.982  1.00  0.00     0.051 C 
HETATM   12  C13 UNL     1       6.208  31.943  25.219  1.00  0.00     0.056 C 
HETATM   13  C14 UNL     1       7.352  31.857  24.196  1.00  0.00     0.018 C 
HETATM   14  C15 UNL     1       4.957  31.963  24.422  1.00  0.00     0.144 C 
HETATM   15  O2  UNL     1       4.671  31.181  23.552  1.00  0.00    -0.296 OA
HETATM   16  C16 UNL     1       4.094  33.105  24.854  1.00  0.00     0.061 C 
HETATM   17  C20 UNL     1       3.496  33.760  23.596  1.00  0.00     0.028 C 
HETATM   18  C21 UNL     1       2.569  34.850  23.786  1.00  0.00    -0.008 C 
HETATM   19  C22 UNL     1       2.451  35.590  22.437  1.00  0.00     0.011 C 
HETATM   20  C23 UNL     1       1.439  36.650  22.810  1.00  0.00     0.002 C 
ENDROOT
BRANCH  16  21
HETATM   21  C17 UNL     1       3.001  32.597  25.628  1.00  0.00     0.162 C 
BRANCH  21  22
HETATM   22  S1  UNL     1       1.876  31.403  25.100  1.00  0.00     0.153 S 
HETATM   23  O3  UNL     1       2.260  29.977  25.407  1.00  0.00    -0.227 OA
HETATM   24  O4  UNL     1       1.355  31.572  23.710  1.00  0.00    -0.227 OA
BRANCH  22  25
HETATM   25  C18 UNL     1       0.377  31.632  26.097  1.00  0.00     0.225 C 
BRANCH  25  26
HETATM   26  C19 UNL     1      -0.673  32.288  25.340  1.00  0.00     0.149 C 
HETATM   27  N1  UNL     1      -1.853  31.798  25.278  1.00  0.00    -0.250 N 
ATOM     28  H1  UNL     1      -2.573  32.280  24.740  1.00  0.00     0.196 HD
BRANCH  26  29
HETATM   29  O5  UNL     1      -0.418  33.462  24.668  1.00  0.00    -0.347 OA
ATOM     30  H5  UNL     1       0.179  34.104  25.033  1.00  0.00     0.219 HD
ENDBRANCH  26  29
BRANCH  27  31
HETATM   31  O6  UNL     1      -2.162  30.618  25.938  1.00  0.00    -0.288 OA
ATOM     32  H6  UNL     1      -1.763  29.798  25.673  1.00  0.00     0.244 HD
ENDBRANCH  27  31
ENDBRANCH  25  26
ENDBRANCH  22  25
ENDBRANCH  21  22
ENDBRANCH  16  21
BRANCH   1  33
HETATM   33  C2  UNL     1       2.298  37.665  20.715  1.00  0.00    -0.027 C 
HETATM   34  C1  UNL     1       2.594  38.700  19.952  1.00  0.00     0.007 C 
ENDBRANCH   1  33
TORSDOF 7
ENDMDL
MODEL 5
REMARK VINA RESULT: -9.177600137      4.578      7.192
REMARK  7 active torsions:
REMARK  status: ('A' for Active; 'I' for Inactive)
REMARK    1  A    between atoms: C2_2  and  C3_3 
REMARK    2  A    between atoms: C16_18  and  C17_19 
REMARK    3  A    between atoms: C17_19  and  S1_20 
REMARK    4  A    between atoms: S1_20  and  C18_23 
REMARK    5  A    between atoms: C18_23  and  C19_24 
REMARK    6  A    between atoms: C19_24  and  O5_25 
REMARK    7  A    between atoms: N1_27  and  O6_29 
ROOT
HETATM    1  C3  UNL     1       0.403  33.738  23.612  1.00  0.00    -0.023 C 
HETATM    2  C4  UNL     1      -0.659  33.208  24.587  1.00  0.00     0.020 C 
HETATM    3  C5  UNL     1      -0.005  33.438  22.184  1.00  0.00     0.014 C 
HETATM    4  C6  UNL     1       0.546  34.684  21.470  1.00  0.00     0.006 C 
HETATM    5  C7  UNL     1      -0.001  35.760  22.365  1.00  0.00    -0.005 C 
HETATM    6  C8  UNL     1       0.699  37.098  22.212  1.00  0.00     0.001 C 
HETATM    7  C9  UNL     1       1.415  37.079  20.905  1.00  0.00     0.088 C 
HETATM    8  C10 UNL     1       1.986  38.436  20.651  1.00  0.00     0.153 C 
HETATM    9  O1  UNL     1       1.520  39.067  19.729  1.00  0.00    -0.293 OA
HETATM   10  C11 UNL     1       3.054  39.033  21.438  1.00  0.00    -0.017 C 
HETATM   11  C12 UNL     1       3.872  40.113  20.789  1.00  0.00     0.051 C 
HETATM   12  C13 UNL     1       4.677  40.619  21.967  1.00  0.00     0.056 C 
HETATM   13  C14 UNL     1       6.118  40.086  21.930  1.00  0.00     0.018 C 
HETATM   14  C15 UNL     1       4.061  40.027  23.180  1.00  0.00     0.144 C 
HETATM   15  O2  UNL     1       4.535  40.052  24.287  1.00  0.00    -0.296 OA
HETATM   16  C16 UNL     1       2.755  39.389  22.829  1.00  0.00     0.061 C 
HETATM   17  C20 UNL     1       2.658  38.049  23.580  1.00  0.00     0.028 C 
HETATM   18  C21 UNL     1       1.438  37.291  23.439  1.00  0.00    -0.008 C 
HETATM   19  C22 UNL     1       1.737  35.851  23.910  1.00  0.00     0.011 C 
HETATM   20  C23 UNL     1       0.371  35.230  23.728  1.00  0.00     0.002 C 
ENDROOT
BRANCH  16  21
HETATM   21  C17 UNL     1       1.688  40.218  23.301  1.00  0.00     0.162 C 
BRANCH  21  22
HETATM   22  S1  UNL     1       0.573  41.073  22.302  1.00  0.00     0.153 S 
HETATM   23  O3  UNL     1      -0.576  40.253  21.772  1.00  0.00    -0.227 OA
HETATM   24  O4  UNL     1       1.180  41.956  21.261  1.00  0.00    -0.227 OA
BRANCH  22  25
HETATM   25  C18 UNL     1      -0.263  42.274  23.377  1.00  0.00     0.225 C 
BRANCH  25  26
HETATM   26  C19 UNL     1      -1.265  43.034  22.651  1.00  0.00     0.149 C 
HETATM   27  N1  UNL     1      -0.982  44.155  22.104  1.00  0.00    -0.250 N 
ATOM     28  H1  UNL     1      -1.705  44.668  21.600  1.00  0.00     0.196 HD
BRANCH  26  29
HETATM   29  O5  UNL     1      -2.550  42.557  22.534  1.00  0.00    -0.347 OA
ATOM     30  H5  UNL     1      -3.121  42.521  23.293  1.00  0.00     0.219 HD
ENDBRANCH  26  29
BRANCH  27  31
HETATM   31  O6  UNL     1       0.299  44.679  22.192  1.00  0.00    -0.288 OA
ATOM     32  H6  UNL     1       0.677  45.156  21.462  1.00  0.00     0.244 HD
ENDBRANCH  27  31
ENDBRANCH  25  26
ENDBRANCH  22  25
ENDBRANCH  21  22
ENDBRANCH  16  21
BRANCH   1  33
HETATM   33  C2  UNL     1       1.714  33.151  23.905  1.00  0.00    -0.027 C 
HETATM   34  C1  UNL     1       1.798  31.977  24.502  1.00  0.00     0.007 C 
ENDBRANCH   1  33
TORSDOF 7
ENDMDL
