MODEL 1
REMARK VINA RESULT: -6.869324353      0.000      0.000
REMARK  8 active torsions:
REMARK  status: ('A' for Active; 'I' for Inactive)
REMARK    1  A    between atoms: C2_2  and  C3_3 
REMARK    2  A    between atoms: C3_3  and  N1_4 
REMARK    3  A    between atoms: N1_4  and  C4_6 
REMARK    4  A    between atoms: C5_11  and  N4_12 
REMARK    5  A    between atoms: N4_12  and  C6_14 
REMARK    6  A    between atoms: C6_14  and  C7_15 
REMARK    7  A    between atoms: C7_15  and  C8_16 
REMARK    8  A    between atoms: C8_16  and  N5_17 
ROOT
HETATM    1  C4  UNL     1     -32.925 -53.284  20.295  1.00  0.00     0.708 A 
HETATM    2  N2  UNL     1     -32.486 -52.359  21.161  1.00  0.00    -0.117 N 
ATOM      3  H2  UNL     1     -32.631 -51.352  21.081  1.00  0.00     0.206 HD
HETATM    4  N3  UNL     1     -31.835 -52.967  22.132  1.00  0.00    -0.117 N 
ATOM      5  H3  UNL     1     -31.394 -52.503  22.926  1.00  0.00     0.206 HD
HETATM    6  C5  UNL     1     -31.841 -54.291  21.915  1.00  0.00     0.707 A 
HETATM    7  N6  UNL     1     -32.524 -54.470  20.766  1.00  0.00    -0.020 N 
ATOM      8  H6  UNL     1     -32.708 -55.372  20.325  1.00  0.00     0.203 HD
ENDROOT
BRANCH   6   9
HETATM    9  N4  UNL     1     -31.321 -55.213  22.621  1.00  0.00    -0.224 N 
ATOM     10  H4  UNL     1     -31.575 -55.311  23.604  1.00  0.00     0.177 HD
BRANCH   9  11
HETATM   11  C6  UNL     1     -30.364 -56.122  22.022  1.00  0.00     0.139 C 
BRANCH  11  12
HETATM   12  C7  UNL     1     -28.941 -55.662  22.325  1.00  0.00     0.040 C 
BRANCH  12  13
HETATM   13  C8  UNL     1     -28.121 -55.545  21.074  1.00  0.00     0.128 C 
BRANCH  13  14
HETATM   14  N5  UNL     1     -28.243 -54.288  20.402  1.00  0.00    -0.348 N 
HETATM   15  C9  UNL     1     -27.366 -53.176  20.673  1.00  0.00     0.220 C 
HETATM   16  O1  UNL     1     -26.649 -52.987  21.689  1.00  0.00    -0.273 OA
HETATM   17  C10 UNL     1     -27.416 -52.221  19.535  1.00  0.00     0.105 C 
HETATM   18  C11 UNL     1     -28.184 -53.020  18.493  1.00  0.00     0.034 C 
HETATM   19  C12 UNL     1     -29.145 -53.808  19.392  1.00  0.00     0.083 C 
HETATM   20  C13 UNL     1     -29.748 -54.911  18.556  1.00  0.00     0.032 C 
ENDBRANCH  13  14
ENDBRANCH  12  13
ENDBRANCH  11  12
ENDBRANCH   9  11
ENDBRANCH   6   9
BRANCH   1  21
HETATM   21  N1  UNL     1     -33.601 -53.117  19.215  1.00  0.00    -0.221 N 
ATOM     22  H1  UNL     1     -34.595 -52.896  19.273  1.00  0.00     0.178 HD
BRANCH  21  23
HETATM   23  C3  UNL     1     -32.974 -53.235  17.928  1.00  0.00     0.164 C 
BRANCH  23  24
HETATM   24  C2  UNL     1     -32.316 -51.972  17.510  1.00  0.00    -0.017 C 
HETATM   25  C1  UNL     1     -31.260 -51.978  16.698  1.00  0.00     0.008 C 
ENDBRANCH  23  24
ENDBRANCH  21  23
ENDBRANCH   1  21
TORSDOF 8
ENDMDL
MODEL 2
REMARK VINA RESULT: -6.849182597      1.162      1.573
REMARK  8 active torsions:
REMARK  status: ('A' for Active; 'I' for Inactive)
REMARK    1  A    between atoms: C2_2  and  C3_3 
REMARK    2  A    between atoms: C3_3  and  N1_4 
REMARK    3  A    between atoms: N1_4  and  C4_6 
REMARK    4  A    between atoms: C5_11  and  N4_12 
REMARK    5  A    between atoms: N4_12  and  C6_14 
REMARK    6  A    between atoms: C6_14  and  C7_15 
REMARK    7  A    between atoms: C7_15  and  C8_16 
REMARK    8  A    between atoms: C8_16  and  N5_17 
ROOT
HETATM    1  C4  UNL     1     -32.807 -53.017  20.279  1.00  0.00     0.708 A 
HETATM    2  N2  UNL     1     -32.373 -52.189  21.242  1.00  0.00    -0.117 N 
ATOM      3  H2  UNL     1     -32.425 -51.171  21.219  1.00  0.00     0.206 HD
HETATM    4  N3  UNL     1     -31.869 -52.912  22.222  1.00  0.00    -0.117 N 
ATOM      5  H3  UNL     1     -31.466 -52.538  23.081  1.00  0.00     0.206 HD
HETATM    6  C5  UNL     1     -31.966 -54.214  21.915  1.00  0.00     0.707 A 
HETATM    7  N6  UNL     1     -32.553 -54.260  20.701  1.00  0.00    -0.020 N 
ATOM      8  H6  UNL     1     -32.769 -55.113  20.185  1.00  0.00     0.203 HD
ENDROOT
BRANCH   6   9
HETATM    9  N4  UNL     1     -31.593 -55.220  22.599  1.00  0.00    -0.224 N 
ATOM     10  H4  UNL     1     -31.945 -55.355  23.546  1.00  0.00     0.177 HD
BRANCH   9  11
HETATM   11  C6  UNL     1     -30.664 -56.173  22.024  1.00  0.00     0.139 C 
BRANCH  11  12
HETATM   12  C7  UNL     1     -29.301 -55.519  21.818  1.00  0.00     0.040 C 
BRANCH  12  13
HETATM   13  C8  UNL     1     -28.945 -55.435  20.363  1.00  0.00     0.128 C 
BRANCH  13  14
HETATM   14  N5  UNL     1     -28.072 -54.352  20.028  1.00  0.00    -0.348 N 
HETATM   15  C9  UNL     1     -28.516 -52.981  19.993  1.00  0.00     0.220 C 
HETATM   16  O1  UNL     1     -29.695 -52.552  19.894  1.00  0.00    -0.273 OA
HETATM   17  C10 UNL     1     -27.338 -52.079  20.092  1.00  0.00     0.105 C 
HETATM   18  C11 UNL     1     -26.229 -53.055  20.454  1.00  0.00     0.034 C 
HETATM   19  C12 UNL     1     -26.681 -54.297  19.675  1.00  0.00     0.083 C 
HETATM   20  C13 UNL     1     -25.885 -55.471  20.193  1.00  0.00     0.032 C 
ENDBRANCH  13  14
ENDBRANCH  12  13
ENDBRANCH  11  12
ENDBRANCH   9  11
ENDBRANCH   6   9
BRANCH   1  21
HETATM   21  N1  UNL     1     -33.363 -52.724  19.159  1.00  0.00    -0.221 N 
ATOM     22  H1  UNL     1     -34.209 -52.155  19.151  1.00  0.00     0.178 HD
BRANCH  21  23
HETATM   23  C3  UNL     1     -32.808 -53.186  17.918  1.00  0.00     0.164 C 
BRANCH  23  24
HETATM   24  C2  UNL     1     -32.202 -52.083  17.132  1.00  0.00    -0.017 C 
HETATM   25  C1  UNL     1     -30.928 -52.127  16.745  1.00  0.00     0.008 C 
ENDBRANCH  23  24
ENDBRANCH  21  23
ENDBRANCH   1  21
TORSDOF 8
ENDMDL
MODEL 3
REMARK VINA RESULT: -6.834582538      1.081      1.318
REMARK  8 active torsions:
REMARK  status: ('A' for Active; 'I' for Inactive)
REMARK    1  A    between atoms: C2_2  and  C3_3 
REMARK    2  A    between atoms: C3_3  and  N1_4 
REMARK    3  A    between atoms: N1_4  and  C4_6 
REMARK    4  A    between atoms: C5_11  and  N4_12 
REMARK    5  A    between atoms: N4_12  and  C6_14 
REMARK    6  A    between atoms: C6_14  and  C7_15 
REMARK    7  A    between atoms: C7_15  and  C8_16 
REMARK    8  A    between atoms: C8_16  and  N5_17 
ROOT
HETATM    1  C4  UNL     1     -32.666 -52.970  20.283  1.00  0.00     0.708 A 
HETATM    2  N2  UNL     1     -32.309 -52.202  21.324  1.00  0.00    -0.117 N 
ATOM      3  H2  UNL     1     -32.357 -51.183  21.356  1.00  0.00     0.206 HD
HETATM    4  N3  UNL     1     -31.884 -52.983  22.296  1.00  0.00    -0.117 N 
ATOM      5  H3  UNL     1     -31.550 -52.662  23.205  1.00  0.00     0.206 HD
HETATM    6  C5  UNL     1     -31.958 -54.265  21.908  1.00  0.00     0.707 A 
HETATM    7  N6  UNL     1     -32.448 -54.237  20.651  1.00  0.00    -0.020 N 
ATOM      8  H6  UNL     1     -32.624 -55.057  20.070  1.00  0.00     0.203 HD
ENDROOT
BRANCH   6   9
HETATM    9  N4  UNL     1     -31.642 -55.310  22.559  1.00  0.00    -0.224 N 
ATOM     10  H4  UNL     1     -32.093 -55.515  23.450  1.00  0.00     0.177 HD
BRANCH   9  11
HETATM   11  C6  UNL     1     -30.636 -56.210  22.028  1.00  0.00     0.139 C 
BRANCH  11  12
HETATM   12  C7  UNL     1     -29.269 -55.533  22.040  1.00  0.00     0.040 C 
BRANCH  12  13
HETATM   13  C8  UNL     1     -28.678 -55.459  20.662  1.00  0.00     0.128 C 
BRANCH  13  14
HETATM   14  N5  UNL     1     -27.689 -54.439  20.497  1.00  0.00    -0.348 N 
HETATM   15  C9  UNL     1     -26.275 -54.716  20.538  1.00  0.00     0.220 C 
HETATM   16  O1  UNL     1     -25.697 -55.717  21.036  1.00  0.00    -0.273 OA
HETATM   17  C10 UNL     1     -25.536 -53.607  19.879  1.00  0.00     0.105 C 
HETATM   18  C11 UNL     1     -26.667 -52.821  19.234  1.00  0.00     0.034 C 
HETATM   19  C12 UNL     1     -27.780 -53.023  20.270  1.00  0.00     0.083 C 
HETATM   20  C13 UNL     1     -29.080 -52.602  19.628  1.00  0.00     0.032 C 
ENDBRANCH  13  14
ENDBRANCH  12  13
ENDBRANCH  11  12
ENDBRANCH   9  11
ENDBRANCH   6   9
BRANCH   1  21
HETATM   21  N1  UNL     1     -33.132 -52.609  19.142  1.00  0.00    -0.221 N 
ATOM     22  H1  UNL     1     -33.682 -51.753  19.071  1.00  0.00     0.178 HD
BRANCH  21  23
HETATM   23  C3  UNL     1     -32.888 -53.395  17.965  1.00  0.00     0.164 C 
BRANCH  23  24
HETATM   24  C2  UNL     1     -31.853 -52.787  17.092  1.00  0.00    -0.017 C 
HETATM   25  C1  UNL     1     -31.689 -51.466  17.030  1.00  0.00     0.008 C 
ENDBRANCH  23  24
ENDBRANCH  21  23
ENDBRANCH   1  21
TORSDOF 8
ENDMDL
MODEL 4
REMARK VINA RESULT: -6.830728335      1.244      1.839
REMARK  8 active torsions:
REMARK  status: ('A' for Active; 'I' for Inactive)
REMARK    1  A    between atoms: C2_2  and  C3_3 
REMARK    2  A    between atoms: C3_3  and  N1_4 
REMARK    3  A    between atoms: N1_4  and  C4_6 
REMARK    4  A    between atoms: C5_11  and  N4_12 
REMARK    5  A    between atoms: N4_12  and  C6_14 
REMARK    6  A    between atoms: C6_14  and  C7_15 
REMARK    7  A    between atoms: C7_15  and  C8_16 
REMARK    8  A    between atoms: C8_16  and  N5_17 
ROOT
HETATM    1  C4  UNL     1     -32.555 -52.952  20.282  1.00  0.00     0.708 A 
HETATM    2  N2  UNL     1     -32.297 -52.309  21.431  1.00  0.00    -0.117 N 
ATOM      3  H2  UNL     1     -32.484 -51.323  21.616  1.00  0.00     0.206 HD
HETATM    4  N3  UNL     1     -31.762 -53.163  22.280  1.00  0.00    -0.117 N 
ATOM      5  H3  UNL     1     -31.468 -52.940  23.231  1.00  0.00     0.206 HD
HETATM    6  C5  UNL     1     -31.664 -54.369  21.702  1.00  0.00     0.707 A 
HETATM    7  N6  UNL     1     -32.163 -54.219  20.457  1.00  0.00    -0.020 N 
ATOM      8  H6  UNL     1     -32.230 -54.958  19.757  1.00  0.00     0.203 HD
ENDROOT
BRANCH   6   9
HETATM    9  N4  UNL     1     -31.203 -55.449  22.192  1.00  0.00    -0.224 N 
ATOM     10  H4  UNL     1     -31.644 -55.871  23.009  1.00  0.00     0.177 HD
BRANCH   9  11
HETATM   11  C6  UNL     1     -30.046 -56.076  21.584  1.00  0.00     0.139 C 
BRANCH  11  12
HETATM   12  C7  UNL     1     -28.787 -55.272  21.898  1.00  0.00     0.040 C 
BRANCH  12  13
HETATM   13  C8  UNL     1     -27.811 -55.308  20.759  1.00  0.00     0.128 C 
BRANCH  13  14
HETATM   14  N5  UNL     1     -27.789 -54.122  19.961  1.00  0.00    -0.348 N 
HETATM   15  C9  UNL     1     -28.879 -53.748  19.095  1.00  0.00     0.220 C 
HETATM   16  O1  UNL     1     -29.792 -54.485  18.640  1.00  0.00    -0.273 OA
HETATM   17  C10 UNL     1     -28.789 -52.297  18.786  1.00  0.00     0.105 C 
HETATM   18  C11 UNL     1     -27.716 -51.838  19.762  1.00  0.00     0.034 C 
HETATM   19  C12 UNL     1     -26.815 -53.079  19.795  1.00  0.00     0.083 C 
HETATM   20  C13 UNL     1     -25.886 -52.934  20.977  1.00  0.00     0.032 C 
ENDBRANCH  13  14
ENDBRANCH  12  13
ENDBRANCH  11  12
ENDBRANCH   9  11
ENDBRANCH   6   9
BRANCH   1  21
HETATM   21  N1  UNL     1     -33.074 -52.490  19.202  1.00  0.00    -0.221 N 
ATOM     22  H1  UNL     1     -33.551 -51.588  19.219  1.00  0.00     0.178 HD
BRANCH  21  23
HETATM   23  C3  UNL     1     -32.992 -53.225  17.971  1.00  0.00     0.164 C 
BRANCH  23  24
HETATM   24  C2  UNL     1     -32.059 -52.593  17.005  1.00  0.00    -0.017 C 
HETATM   25  C1  UNL     1     -31.777 -51.293  17.066  1.00  0.00     0.008 C 
ENDBRANCH  23  24
ENDBRANCH  21  23
ENDBRANCH   1  21
TORSDOF 8
ENDMDL
MODEL 5
REMARK VINA RESULT: -6.735689482      1.723      4.514
REMARK  8 active torsions:
REMARK  status: ('A' for Active; 'I' for Inactive)
REMARK    1  A    between atoms: C2_2  and  C3_3 
REMARK    2  A    between atoms: C3_3  and  N1_4 
REMARK    3  A    between atoms: N1_4  and  C4_6 
REMARK    4  A    between atoms: C5_11  and  N4_12 
REMARK    5  A    between atoms: N4_12  and  C6_14 
REMARK    6  A    between atoms: C6_14  and  C7_15 
REMARK    7  A    between atoms: C7_15  and  C8_16 
REMARK    8  A    between atoms: C8_16  and  N5_17 
ROOT
HETATM    1  C4  UNL     1     -31.748 -54.346  21.700  1.00  0.00     0.708 A 
HETATM    2  N2  UNL     1     -31.891 -53.168  22.326  1.00  0.00    -0.117 N 
ATOM      3  H2  UNL     1     -31.579 -52.955  23.273  1.00  0.00     0.206 HD
HETATM    4  N3  UNL     1     -32.501 -52.331  21.511  1.00  0.00    -0.117 N 
ATOM      5  H3  UNL     1     -32.738 -51.364  21.732  1.00  0.00     0.206 HD
HETATM    6  C5  UNL     1     -32.764 -52.947  20.349  1.00  0.00     0.707 A 
HETATM    7  N6  UNL     1     -32.288 -54.202  20.485  1.00  0.00    -0.020 N 
ATOM      8  H6  UNL     1     -32.332 -54.929  19.770  1.00  0.00     0.203 HD
ENDROOT
BRANCH   6   9
HETATM    9  N4  UNL     1     -33.340 -52.479  19.316  1.00  0.00    -0.224 N 
ATOM     10  H4  UNL     1     -34.142 -51.857  19.414  1.00  0.00     0.177 HD
BRANCH   9  11
HETATM   11  C6  UNL     1     -32.851 -52.835  17.998  1.00  0.00     0.139 C 
BRANCH  11  12
HETATM   12  C7  UNL     1     -32.090 -51.663  17.387  1.00  0.00     0.040 C 
BRANCH  12  13
HETATM   13  C8  UNL     1     -30.660 -52.022  17.105  1.00  0.00     0.128 C 
BRANCH  13  14
HETATM   14  N5  UNL     1     -29.906 -52.400  18.259  1.00  0.00    -0.348 N 
HETATM   15  C9  UNL     1     -29.247 -53.678  18.372  1.00  0.00     0.220 C 
HETATM   16  O1  UNL     1     -29.483 -54.729  17.721  1.00  0.00    -0.273 OA
HETATM   17  C10 UNL     1     -28.191 -53.598  19.414  1.00  0.00     0.105 C 
HETATM   18  C11 UNL     1     -28.134 -52.102  19.685  1.00  0.00     0.034 C 
HETATM   19  C12 UNL     1     -29.608 -51.724  19.492  1.00  0.00     0.083 C 
HETATM   20  C13 UNL     1     -29.680 -50.220  19.381  1.00  0.00     0.032 C 
ENDBRANCH  13  14
ENDBRANCH  12  13
ENDBRANCH  11  12
ENDBRANCH   9  11
ENDBRANCH   6   9
BRANCH   1  21
HETATM   21  N1  UNL     1     -31.208 -55.427  22.137  1.00  0.00    -0.221 N 
ATOM     22  H1  UNL     1     -31.598 -55.887  22.960  1.00  0.00     0.178 HD
BRANCH  21  23
HETATM   23  C3  UNL     1     -30.063 -55.995  21.483  1.00  0.00     0.164 C 
BRANCH  23  24
HETATM   24  C2  UNL     1     -28.873 -56.027  22.369  1.00  0.00    -0.017 C 
HETATM   25  C1  UNL     1     -28.878 -56.715  23.510  1.00  0.00     0.008 C 
ENDBRANCH  23  24
ENDBRANCH  21  23
ENDBRANCH   1  21
TORSDOF 8
ENDMDL
