MODEL 1
REMARK VINA RESULT: -6.820317865      0.000      0.000
REMARK  7 active torsions:
REMARK  status: ('A' for Active; 'I' for Inactive)
REMARK    1  A    between atoms: N1_1  and  C1_5 
REMARK    2  A    between atoms: C1_5  and  C2_6 
REMARK    3  A    between atoms: C1_5  and  C6_15 
REMARK    4  A    between atoms: C2_6  and  C3_7 
REMARK    5  A    between atoms: C6_15  and  S1_16 
REMARK    6  A    between atoms: S1_16  and  C7_18 
REMARK    7  A    between atoms: C7_18  and  C8_19 
ROOT
HETATM    1  C1  UNL     1     -29.990 -50.801  19.666  1.00  0.00     0.200 C 
ENDROOT
BRANCH   1   2
HETATM    2  N1  UNL     1     -30.394 -49.449  19.424  1.00  0.00    -0.074 N 
ATOM      3  H13 UNL     1     -29.605 -48.817  19.284  1.00  0.00     0.274 HD
ATOM      4  H12 UNL     1     -30.830 -49.321  18.512  1.00  0.00     0.274 HD
ATOM      5  H11 UNL     1     -30.997 -49.167  20.197  1.00  0.00     0.274 HD
ENDBRANCH   1   2
BRANCH   1   6
HETATM    6  C2  UNL     1     -30.734 -51.680  18.684  1.00  0.00     0.092 C 
BRANCH   6   7
HETATM    7  C3  UNL     1     -31.808 -52.465  19.320  1.00  0.00     0.031 A 
HETATM    8  C4  UNL     1     -31.711 -52.986  20.598  1.00  0.00     0.118 A 
HETATM    9  N2  UNL     1     -32.848 -53.641  20.877  1.00  0.00    -0.317 N 
HETATM   10  C5  UNL     1     -33.627 -53.529  19.803  1.00  0.00     0.324 A 
ATOM     11  H2  UNL     1     -33.072 -54.131  21.743  1.00  0.00     0.170 HD
HETATM   12  O1  UNL     1     -34.796 -54.040  19.722  1.00  0.00    -0.247 OA
HETATM   13  N3  UNL     1     -32.994 -52.816  18.861  1.00  0.00    -0.311 N 
ATOM     14  H3  UNL     1     -33.368 -52.583  17.941  1.00  0.00     0.170 HD
ENDBRANCH   6   7
ENDBRANCH   1   6
BRANCH   1  15
HETATM   15  C6  UNL     1     -28.531 -51.048  19.510  1.00  0.00     0.142 C 
BRANCH  15  16
HETATM   16  S1  UNL     1     -28.175 -52.763  19.385  1.00  0.00     0.021 S 
HETATM   17  O2  UNL     1     -28.173 -53.553  20.835  1.00  0.00    -0.258 OA
BRANCH  16  18
HETATM   18  C7  UNL     1     -26.785 -53.114  18.369  1.00  0.00     0.147 C 
BRANCH  18  19
HETATM   19  C8  UNL     1     -27.033 -54.115  17.333  1.00  0.00    -0.047 A 
HETATM   20  C9  UNL     1     -26.988 -55.452  17.663  1.00  0.00     0.008 A 
HETATM   21  C10 UNL     1     -27.213 -56.436  16.734  1.00  0.00     0.001 A 
HETATM   22  C11 UNL     1     -27.494 -56.116  15.427  1.00  0.00     0.000 A 
HETATM   23  C12 UNL     1     -27.535 -54.776  15.111  1.00  0.00     0.001 A 
HETATM   24  C13 UNL     1     -27.313 -53.770  16.028  1.00  0.00     0.008 A 
ENDBRANCH  18  19
ENDBRANCH  16  18
ENDBRANCH  15  16
ENDBRANCH   1  15
TORSDOF 7
ENDMDL
MODEL 2
REMARK VINA RESULT: -6.815651427      0.034      1.081
REMARK  7 active torsions:
REMARK  status: ('A' for Active; 'I' for Inactive)
REMARK    1  A    between atoms: N1_1  and  C1_5 
REMARK    2  A    between atoms: C1_5  and  C2_6 
REMARK    3  A    between atoms: C1_5  and  C6_15 
REMARK    4  A    between atoms: C2_6  and  C3_7 
REMARK    5  A    between atoms: C6_15  and  S1_16 
REMARK    6  A    between atoms: S1_16  and  C7_18 
REMARK    7  A    between atoms: C7_18  and  C8_19 
ROOT
HETATM    1  C1  UNL     1     -29.996 -50.784  19.660  1.00  0.00     0.200 C 
ENDROOT
BRANCH   1   2
HETATM    2  N1  UNL     1     -30.400 -49.432  19.419  1.00  0.00    -0.074 N 
ATOM      3  H13 UNL     1     -30.608 -49.248  18.437  1.00  0.00     0.274 HD
ATOM      4  H12 UNL     1     -31.325 -49.221  19.792  1.00  0.00     0.274 HD
ATOM      5  H11 UNL     1     -29.671 -48.824  19.793  1.00  0.00     0.274 HD
ENDBRANCH   1   2
BRANCH   1   6
HETATM    6  C2  UNL     1     -30.741 -51.663  18.677  1.00  0.00     0.092 C 
BRANCH   6   7
HETATM    7  C3  UNL     1     -31.808 -52.455  19.315  1.00  0.00     0.031 A 
HETATM    8  C4  UNL     1     -31.705 -52.975  20.593  1.00  0.00     0.118 A 
HETATM    9  N2  UNL     1     -32.838 -53.638  20.874  1.00  0.00    -0.317 N 
HETATM   10  C5  UNL     1     -33.618 -53.533  19.801  1.00  0.00     0.324 A 
ATOM     11  H2  UNL     1     -33.057 -54.129  21.741  1.00  0.00     0.170 HD
HETATM   12  O1  UNL     1     -34.783 -54.053  19.721  1.00  0.00    -0.247 OA
HETATM   13  N3  UNL     1     -32.992 -52.816  18.858  1.00  0.00    -0.311 N 
ATOM     14  H3  UNL     1     -33.368 -52.587  17.938  1.00  0.00     0.170 HD
ENDBRANCH   6   7
ENDBRANCH   1   6
BRANCH   1  15
HETATM   15  C6  UNL     1     -28.537 -51.031  19.502  1.00  0.00     0.142 C 
BRANCH  15  16
HETATM   16  S1  UNL     1     -28.180 -52.747  19.390  1.00  0.00     0.021 S 
HETATM   17  O2  UNL     1     -28.177 -53.526  20.846  1.00  0.00    -0.258 OA
BRANCH  16  18
HETATM   18  C7  UNL     1     -26.790 -53.106  18.376  1.00  0.00     0.147 C 
BRANCH  18  19
HETATM   19  C8  UNL     1     -27.021 -54.154  17.385  1.00  0.00    -0.047 A 
HETATM   20  C9  UNL     1     -27.278 -53.802  16.078  1.00  0.00     0.008 A 
HETATM   21  C10 UNL     1     -27.503 -54.741  15.105  1.00  0.00     0.001 A 
HETATM   22  C11 UNL     1     -27.478 -56.083  15.405  1.00  0.00     0.000 A 
HETATM   23  C12 UNL     1     -27.221 -56.420  16.715  1.00  0.00     0.001 A 
HETATM   24  C13 UNL     1     -26.992 -55.494  17.710  1.00  0.00     0.008 A 
ENDBRANCH  18  19
ENDBRANCH  16  18
ENDBRANCH  15  16
ENDBRANCH   1  15
TORSDOF 7
ENDMDL
MODEL 3
REMARK VINA RESULT: -6.806749002      2.704      3.608
REMARK  7 active torsions:
REMARK  status: ('A' for Active; 'I' for Inactive)
REMARK    1  A    between atoms: N1_1  and  C1_5 
REMARK    2  A    between atoms: C1_5  and  C2_6 
REMARK    3  A    between atoms: C1_5  and  C6_15 
REMARK    4  A    between atoms: C2_6  and  C3_7 
REMARK    5  A    between atoms: C6_15  and  S1_16 
REMARK    6  A    between atoms: S1_16  and  C7_18 
REMARK    7  A    between atoms: C7_18  and  C8_19 
ROOT
HETATM    1  C1  UNL     1     -31.341 -52.169  18.207  1.00  0.00     0.200 C 
ENDROOT
BRANCH   1   2
HETATM    2  N1  UNL     1     -31.865 -50.844  18.063  1.00  0.00    -0.074 N 
ATOM      3  H13 UNL     1     -32.165 -50.636  17.110  1.00  0.00     0.274 HD
ATOM      4  H12 UNL     1     -32.770 -50.723  18.516  1.00  0.00     0.274 HD
ATOM      5  H11 UNL     1     -31.156 -50.196  18.407  1.00  0.00     0.274 HD
ENDBRANCH   1   2
BRANCH   1   6
HETATM    6  C2  UNL     1     -32.448 -53.036  18.770  1.00  0.00     0.092 C 
BRANCH   6   7
HETATM    7  C3  UNL     1     -32.197 -53.448  20.162  1.00  0.00     0.031 A 
HETATM    8  C4  UNL     1     -32.261 -52.576  21.235  1.00  0.00     0.118 A 
HETATM    9  N2  UNL     1     -31.984 -53.260  22.356  1.00  0.00    -0.317 N 
HETATM   10  C5  UNL     1     -31.756 -54.519  21.988  1.00  0.00     0.324 A 
ATOM     11  H2  UNL     1     -31.954 -52.887  23.305  1.00  0.00     0.170 HD
HETATM   12  O1  UNL     1     -31.459 -55.452  22.811  1.00  0.00    -0.247 OA
HETATM   13  N3  UNL     1     -31.885 -54.630  20.659  1.00  0.00    -0.311 N 
ATOM     14  H3  UNL     1     -31.762 -55.487  20.120  1.00  0.00     0.170 HD
ENDBRANCH   6   7
ENDBRANCH   1   6
BRANCH   1  15
HETATM   15  C6  UNL     1     -30.856 -52.783  16.942  1.00  0.00     0.142 C 
BRANCH  15  16
HETATM   16  S1  UNL     1     -29.236 -53.437  17.119  1.00  0.00     0.021 S 
HETATM   17  O2  UNL     1     -28.691 -54.245  15.786  1.00  0.00    -0.258 OA
BRANCH  16  18
HETATM   18  C7  UNL     1     -28.991 -54.293  18.633  1.00  0.00     0.147 C 
BRANCH  18  19
HETATM   19  C8  UNL     1     -27.863 -53.806  19.425  1.00  0.00    -0.047 A 
HETATM   20  C9  UNL     1     -26.708 -54.555  19.485  1.00  0.00     0.008 A 
HETATM   21  C10 UNL     1     -25.618 -54.149  20.211  1.00  0.00     0.001 A 
HETATM   22  C11 UNL     1     -25.643 -52.967  20.913  1.00  0.00     0.000 A 
HETATM   23  C12 UNL     1     -26.803 -52.229  20.845  1.00  0.00     0.001 A 
HETATM   24  C13 UNL     1     -27.911 -52.617  20.121  1.00  0.00     0.008 A 
ENDBRANCH  18  19
ENDBRANCH  16  18
ENDBRANCH  15  16
ENDBRANCH   1  15
TORSDOF 7
ENDMDL
MODEL 4
REMARK VINA RESULT: -6.607115946      2.934      4.245
REMARK  7 active torsions:
REMARK  status: ('A' for Active; 'I' for Inactive)
REMARK    1  A    between atoms: N1_1  and  C1_5 
REMARK    2  A    between atoms: C1_5  and  C2_6 
REMARK    3  A    between atoms: C1_5  and  C6_15 
REMARK    4  A    between atoms: C2_6  and  C3_7 
REMARK    5  A    between atoms: C6_15  and  S1_16 
REMARK    6  A    between atoms: S1_16  and  C7_18 
REMARK    7  A    between atoms: C7_18  and  C8_19 
ROOT
HETATM    1  C1  UNL     1     -33.050 -53.247  19.703  1.00  0.00     0.200 C 
ENDROOT
BRANCH   1   2
HETATM    2  N1  UNL     1     -33.992 -54.210  20.185  1.00  0.00    -0.074 N 
ATOM      3  H13 UNL     1     -33.651 -55.170  20.119  1.00  0.00     0.274 HD
ATOM      4  H12 UNL     1     -34.109 -54.181  21.198  1.00  0.00     0.274 HD
ATOM      5  H11 UNL     1     -34.866 -54.064  19.679  1.00  0.00     0.274 HD
ENDBRANCH   1   2
BRANCH   1   6
HETATM    6  C2  UNL     1     -32.016 -53.040  20.790  1.00  0.00     0.092 C 
BRANCH   6   7
HETATM    7  C3  UNL     1     -31.484 -54.308  21.320  1.00  0.00     0.031 A 
HETATM    8  C4  UNL     1     -30.467 -55.019  20.707  1.00  0.00     0.118 A 
HETATM    9  N2  UNL     1     -30.218 -56.118  21.437  1.00  0.00    -0.317 N 
HETATM   10  C5  UNL     1     -31.056 -56.088  22.471  1.00  0.00     0.324 A 
ATOM     11  H2  UNL     1     -29.523 -56.837  21.237  1.00  0.00     0.170 HD
HETATM   12  O1  UNL     1     -31.094 -56.990  23.376  1.00  0.00    -0.247 OA
HETATM   13  N3  UNL     1     -31.821 -54.990  22.398  1.00  0.00    -0.311 N 
ATOM     14  H3  UNL     1     -32.546 -54.726  23.065  1.00  0.00     0.170 HD
ENDBRANCH   6   7
ENDBRANCH   1   6
BRANCH   1  15
HETATM   15  C6  UNL     1     -32.347 -53.642  18.452  1.00  0.00     0.142 C 
BRANCH  15  16
HETATM   16  S1  UNL     1     -31.174 -52.432  17.960  1.00  0.00     0.021 S 
HETATM   17  O2  UNL     1     -31.786 -51.277  16.951  1.00  0.00    -0.258 OA
BRANCH  16  18
HETATM   18  C7  UNL     1     -29.645 -53.118  17.429  1.00  0.00     0.147 C 
BRANCH  18  19
HETATM   19  C8  UNL     1     -28.561 -52.998  18.401  1.00  0.00    -0.047 A 
HETATM   20  C9  UNL     1     -27.553 -53.937  18.406  1.00  0.00     0.008 A 
HETATM   21  C10 UNL     1     -26.510 -53.877  19.294  1.00  0.00     0.001 A 
HETATM   22  C11 UNL     1     -26.435 -52.865  20.221  1.00  0.00     0.000 A 
HETATM   23  C12 UNL     1     -27.449 -51.934  20.206  1.00  0.00     0.001 A 
HETATM   24  C13 UNL     1     -28.507 -51.974  19.322  1.00  0.00     0.008 A 
ENDBRANCH  18  19
ENDBRANCH  16  18
ENDBRANCH  15  16
ENDBRANCH   1  15
TORSDOF 7
ENDMDL
MODEL 5
REMARK VINA RESULT: -6.590081300      2.597      3.321
REMARK  7 active torsions:
REMARK  status: ('A' for Active; 'I' for Inactive)
REMARK    1  A    between atoms: N1_1  and  C1_5 
REMARK    2  A    between atoms: C1_5  and  C2_6 
REMARK    3  A    between atoms: C1_5  and  C6_15 
REMARK    4  A    between atoms: C2_6  and  C3_7 
REMARK    5  A    between atoms: C6_15  and  S1_16 
REMARK    6  A    between atoms: S1_16  and  C7_18 
REMARK    7  A    between atoms: C7_18  and  C8_19 
ROOT
HETATM    1  C1  UNL     1     -31.660 -52.393  18.474  1.00  0.00     0.200 C 
ENDROOT
BRANCH   1   2
HETATM    2  N1  UNL     1     -32.638 -52.308  17.431  1.00  0.00    -0.074 N 
ATOM      3  H13 UNL     1     -32.958 -53.222  17.110  1.00  0.00     0.274 HD
ATOM      4  H12 UNL     1     -33.539 -51.960  17.758  1.00  0.00     0.274 HD
ATOM      5  H11 UNL     1     -32.239 -51.740  16.683  1.00  0.00     0.274 HD
ENDBRANCH   1   2
BRANCH   1   6
HETATM    6  C2  UNL     1     -31.494 -53.858  18.822  1.00  0.00     0.092 C 
BRANCH   6   7
HETATM    7  C3  UNL     1     -31.562 -54.111  20.272  1.00  0.00     0.031 A 
HETATM    8  C4  UNL     1     -32.038 -53.183  21.182  1.00  0.00     0.118 A 
HETATM    9  N2  UNL     1     -31.967 -53.719  22.411  1.00  0.00    -0.317 N 
HETATM   10  C5  UNL     1     -31.462 -54.942  22.266  1.00  0.00     0.324 A 
ATOM     11  H2  UNL     1     -32.246 -53.275  23.286  1.00  0.00     0.170 HD
HETATM   12  O1  UNL     1     -31.256 -55.741  23.242  1.00  0.00    -0.247 OA
HETATM   13  N3  UNL     1     -31.217 -55.176  20.970  1.00  0.00    -0.311 N 
ATOM     14  H3  UNL     1     -30.828 -56.037  20.585  1.00  0.00     0.170 HD
ENDBRANCH   6   7
ENDBRANCH   1   6
BRANCH   1  15
HETATM   15  C6  UNL     1     -30.327 -51.838  18.118  1.00  0.00     0.142 C 
BRANCH  15  16
HETATM   16  S1  UNL     1     -29.615 -50.955  19.458  1.00  0.00     0.021 S 
HETATM   17  O2  UNL     1     -29.916 -49.332  19.426  1.00  0.00    -0.258 OA
BRANCH  16  18
HETATM   18  C7  UNL     1     -27.933 -51.372  19.754  1.00  0.00     0.147 C 
BRANCH  18  19
HETATM   19  C8  UNL     1     -27.648 -52.804  19.699  1.00  0.00    -0.047 A 
HETATM   20  C9  UNL     1     -27.910 -53.586  20.803  1.00  0.00     0.008 A 
HETATM   21  C10 UNL     1     -27.663 -54.935  20.811  1.00  0.00     0.001 A 
HETATM   22  C11 UNL     1     -27.141 -55.559  19.703  1.00  0.00     0.000 A 
HETATM   23  C12 UNL     1     -26.884 -54.766  18.608  1.00  0.00     0.001 A 
HETATM   24  C13 UNL     1     -27.124 -53.409  18.577  1.00  0.00     0.008 A 
ENDBRANCH  18  19
ENDBRANCH  16  18
ENDBRANCH  15  16
ENDBRANCH   1  15
TORSDOF 7
ENDMDL
