MODEL 1
REMARK VINA RESULT: -6.533366448      0.000      0.000
REMARK  6 active torsions:
REMARK  status: ('A' for Active; 'I' for Inactive)
REMARK    1  A    between atoms: N3_11  and  C6_12 
REMARK    2  A    between atoms: C6_12  and  C7_13 
REMARK    3  A    between atoms: C7_13  and  C8_17 
REMARK    4  A    between atoms: C8_17  and  O1_18 
REMARK    5  A    between atoms: O1_18  and  C9_19 
REMARK    6  A    between atoms: C9_19  and  C10_20 
ROOT
HETATM    1  C1  UNL     1      46.396  -2.160  23.858  1.00  0.00     0.018 C 
HETATM    2  C2  UNL     1      45.592  -1.257  23.852  1.00  0.00    -0.075 C 
HETATM    3  C3  UNL     1      44.655  -0.178  23.861  1.00  0.00     0.049 A 
HETATM    4  C4  UNL     1      44.048   0.187  25.034  1.00  0.00     0.128 A 
HETATM    5  N1  UNL     1      43.168   1.207  25.020  1.00  0.00    -0.201 N 
ATOM      6  H1  UNL     1      42.709   1.486  25.887  1.00  0.00     0.183 HD
HETATM    7  C5  UNL     1      42.879   1.874  23.862  1.00  0.00     0.678 A 
HETATM    8  N2  UNL     1      42.030   2.846  23.892  1.00  0.00    -0.234 N 
ATOM      9  H21 UNL     1      41.815   3.343  23.028  1.00  0.00     0.174 HD
ATOM     10  H22 UNL     1      41.586   3.105  24.773  1.00  0.00     0.174 HD
HETATM   11  N3  UNL     1      43.462   1.534  22.705  1.00  0.00    -0.187 N 
HETATM   12  C16 UNL     1      44.340   0.519  22.705  1.00  0.00     0.131 A 
ENDROOT
BRANCH  11  13
HETATM   13  C6  UNL     1      43.167   2.220  21.496  1.00  0.00     0.201 C 
BRANCH  13  14
HETATM   14  C7  UNL     1      42.242   1.483  20.602  1.00  0.00     0.023 C 
HETATM   15  N4  UNL     1      41.001   1.322  20.837  1.00  0.00    -0.403 N 
ATOM     16  H42 UNL     1      40.614   1.722  21.692  1.00  0.00     0.155 HD
ATOM     17  H41 UNL     1      40.366   0.815  20.221  1.00  0.00     0.155 HD
BRANCH  14  18
HETATM   18  C8  UNL     1      42.807   0.899  19.356  1.00  0.00     0.221 C 
BRANCH  18  19
HETATM   19  O1  UNL     1      42.902  -0.473  19.571  1.00  0.00    -0.381 OA
BRANCH  19  20
HETATM   20  C9  UNL     1      44.171  -0.982  19.413  1.00  0.00     0.206 C 
BRANCH  20  21
HETATM   21  C10 UNL     1      44.441  -2.225  20.140  1.00  0.00    -0.035 A 
HETATM   22  C11 UNL     1      45.578  -2.948  19.975  1.00  0.00     0.009 A 
HETATM   23  C12 UNL     1      45.789  -4.113  20.681  1.00  0.00     0.001 A 
HETATM   24  C13 UNL     1      44.855  -4.598  21.588  1.00  0.00     0.000 A 
HETATM   25  C14 UNL     1      43.699  -3.875  21.764  1.00  0.00     0.001 A 
HETATM   26  C15 UNL     1      43.501  -2.712  21.052  1.00  0.00     0.009 A 
ENDBRANCH  20  21
ENDBRANCH  19  20
ENDBRANCH  18  19
ENDBRANCH  14  18
ENDBRANCH  13  14
ENDBRANCH  11  13
TORSDOF 6
ENDMDL
MODEL 2
REMARK VINA RESULT: -6.360401154      2.686      5.770
REMARK  6 active torsions:
REMARK  status: ('A' for Active; 'I' for Inactive)
REMARK    1  A    between atoms: N3_11  and  C6_12 
REMARK    2  A    between atoms: C6_12  and  C7_13 
REMARK    3  A    between atoms: C7_13  and  C8_17 
REMARK    4  A    between atoms: C8_17  and  O1_18 
REMARK    5  A    between atoms: O1_18  and  C9_19 
REMARK    6  A    between atoms: C9_19  and  C10_20 
ROOT
HETATM    1  C1  UNL     1      42.610   2.645  21.703  1.00  0.00     0.018 C 
HETATM    2  C2  UNL     1      42.832   1.710  20.970  1.00  0.00    -0.075 C 
HETATM    3  C3  UNL     1      43.109   0.619  20.089  1.00  0.00     0.049 A 
HETATM    4  C4  UNL     1      42.757   0.705  18.767  1.00  0.00     0.128 A 
HETATM    5  N1  UNL     1      43.028  -0.336  17.955  1.00  0.00    -0.201 N 
ATOM      6  H1  UNL     1      42.769  -0.283  16.969  1.00  0.00     0.183 HD
HETATM    7  C5  UNL     1      43.642  -1.461  18.429  1.00  0.00     0.678 A 
HETATM    8  N2  UNL     1      43.884  -2.434  17.617  1.00  0.00    -0.234 N 
ATOM      9  H21 UNL     1      44.342  -3.274  17.971  1.00  0.00     0.174 HD
ATOM     10  H22 UNL     1      43.615  -2.355  16.636  1.00  0.00     0.174 HD
HETATM   11  N3  UNL     1      43.995  -1.565  19.717  1.00  0.00    -0.187 N 
HETATM   12  C16 UNL     1      43.731  -0.536  20.537  1.00  0.00     0.131 A 
ENDROOT
BRANCH  11  13
HETATM   13  C6  UNL     1      44.634  -2.730  20.219  1.00  0.00     0.201 C 
BRANCH  13  14
HETATM   14  C7  UNL     1      44.081  -3.203  21.512  1.00  0.00     0.023 C 
HETATM   15  N4  UNL     1      42.838  -3.362  21.739  1.00  0.00    -0.403 N 
ATOM     16  H42 UNL     1      42.177  -3.151  20.990  1.00  0.00     0.155 HD
ATOM     17  H41 UNL     1      42.458  -3.687  22.628  1.00  0.00     0.155 HD
BRANCH  14  18
HETATM   18  C8  UNL     1      45.043  -3.510  22.602  1.00  0.00     0.221 C 
BRANCH  18  19
HETATM   19  O1  UNL     1      44.621  -2.787  23.715  1.00  0.00    -0.381 OA
BRANCH  19  20
HETATM   20  C9  UNL     1      45.146  -1.518  23.794  1.00  0.00     0.206 C 
BRANCH  20  21
HETATM   21  C10 UNL     1      44.199  -0.472  24.189  1.00  0.00    -0.035 A 
HETATM   22  C11 UNL     1      42.854  -0.607  24.071  1.00  0.00     0.009 A 
HETATM   23  C12 UNL     1      42.000   0.405  24.455  1.00  0.00     0.001 A 
HETATM   24  C13 UNL     1      42.474   1.602  24.978  1.00  0.00     0.000 A 
HETATM   25  C14 UNL     1      43.835   1.752  25.102  1.00  0.00     0.001 A 
HETATM   26  C15 UNL     1      44.676   0.732  24.714  1.00  0.00     0.009 A 
ENDBRANCH  20  21
ENDBRANCH  19  20
ENDBRANCH  18  19
ENDBRANCH  14  18
ENDBRANCH  13  14
ENDBRANCH  11  13
TORSDOF 6
ENDMDL
MODEL 3
REMARK VINA RESULT: -6.346661979      2.684      5.725
REMARK  6 active torsions:
REMARK  status: ('A' for Active; 'I' for Inactive)
REMARK    1  A    between atoms: N3_11  and  C6_12 
REMARK    2  A    between atoms: C6_12  and  C7_13 
REMARK    3  A    between atoms: C7_13  and  C8_17 
REMARK    4  A    between atoms: C8_17  and  O1_18 
REMARK    5  A    between atoms: O1_18  and  C9_19 
REMARK    6  A    between atoms: C9_19  and  C10_20 
ROOT
HETATM    1  C1  UNL     1      42.531   2.615  21.703  1.00  0.00     0.018 C 
HETATM    2  C2  UNL     1      42.781   1.686  20.972  1.00  0.00    -0.075 C 
HETATM    3  C3  UNL     1      43.090   0.602  20.093  1.00  0.00     0.049 A 
HETATM    4  C4  UNL     1      42.764   0.689  18.764  1.00  0.00     0.128 A 
HETATM    5  N1  UNL     1      43.065  -0.345  17.953  1.00  0.00    -0.201 N 
ATOM      6  H1  UNL     1      42.826  -0.291  16.963  1.00  0.00     0.183 HD
HETATM    7  C5  UNL     1      43.684  -1.464  18.436  1.00  0.00     0.678 A 
HETATM    8  N2  UNL     1      43.954  -2.431  17.626  1.00  0.00    -0.234 N 
ATOM      9  H21 UNL     1      44.415  -3.266  17.986  1.00  0.00     0.174 HD
ATOM     10  H22 UNL     1      43.704  -2.352  16.640  1.00  0.00     0.174 HD
HETATM   11  N3  UNL     1      44.011  -1.569  19.731  1.00  0.00    -0.187 N 
HETATM   12  C16 UNL     1      43.717  -0.547  20.549  1.00  0.00     0.131 A 
ENDROOT
BRANCH  11  13
HETATM   13  C6  UNL     1      44.653  -2.728  20.242  1.00  0.00     0.201 C 
BRANCH  13  14
HETATM   14  C7  UNL     1      44.094  -3.200  21.532  1.00  0.00     0.023 C 
HETATM   15  N4  UNL     1      42.850  -3.362  21.752  1.00  0.00    -0.403 N 
ATOM     16  H42 UNL     1      42.194  -3.155  20.999  1.00  0.00     0.155 HD
ATOM     17  H41 UNL     1      42.466  -3.687  22.639  1.00  0.00     0.155 HD
BRANCH  14  18
HETATM   18  C8  UNL     1      45.051  -3.501  22.629  1.00  0.00     0.221 C 
BRANCH  18  19
HETATM   19  O1  UNL     1      44.646  -2.744  23.725  1.00  0.00    -0.381 OA
BRANCH  19  20
HETATM   20  C9  UNL     1      45.193  -1.482  23.770  1.00  0.00     0.206 C 
BRANCH  20  21
HETATM   21  C10 UNL     1      44.279  -0.419  24.196  1.00  0.00    -0.035 A 
HETATM   22  C11 UNL     1      44.705   0.765  24.705  1.00  0.00     0.009 A 
HETATM   23  C12 UNL     1      43.807   1.737  25.093  1.00  0.00     0.001 A 
HETATM   24  C13 UNL     1      42.434   1.551  24.980  1.00  0.00     0.000 A 
HETATM   25  C14 UNL     1      41.990   0.356  24.467  1.00  0.00     0.001 A 
HETATM   26  C15 UNL     1      42.899  -0.607  24.083  1.00  0.00     0.009 A 
ENDBRANCH  20  21
ENDBRANCH  19  20
ENDBRANCH  18  19
ENDBRANCH  14  18
ENDBRANCH  13  14
ENDBRANCH  11  13
TORSDOF 6
ENDMDL
MODEL 4
REMARK VINA RESULT: -6.247074443      2.364      4.808
REMARK  6 active torsions:
REMARK  status: ('A' for Active; 'I' for Inactive)
REMARK    1  A    between atoms: N3_11  and  C6_12 
REMARK    2  A    between atoms: C6_12  and  C7_13 
REMARK    3  A    between atoms: C7_13  and  C8_17 
REMARK    4  A    between atoms: C8_17  and  O1_18 
REMARK    5  A    between atoms: O1_18  and  C9_19 
REMARK    6  A    between atoms: C9_19  and  C10_20 
ROOT
HETATM    1  C1  UNL     1      43.110   2.022  25.388  1.00  0.00     0.018 C 
HETATM    2  C2  UNL     1      43.075   1.736  24.214  1.00  0.00    -0.075 C 
HETATM    3  C3  UNL     1      43.048   1.417  22.821  1.00  0.00     0.049 A 
HETATM    4  C4  UNL     1      42.622   2.354  21.916  1.00  0.00     0.128 A 
HETATM    5  N1  UNL     1      42.605   2.032  20.608  1.00  0.00    -0.201 N 
ATOM      6  H1  UNL     1      42.289   2.721  19.925  1.00  0.00     0.183 HD
HETATM    7  C5  UNL     1      43.003   0.796  20.180  1.00  0.00     0.678 A 
HETATM    8  N2  UNL     1      42.972   0.528  18.918  1.00  0.00    -0.234 N 
ATOM      9  H21 UNL     1      43.269  -0.394  18.599  1.00  0.00     0.174 HD
ATOM     10  H22 UNL     1      42.652   1.236  18.257  1.00  0.00     0.174 HD
HETATM   11  N3  UNL     1      43.423  -0.134  21.048  1.00  0.00    -0.187 N 
HETATM   12  C16 UNL     1      43.445   0.174  22.354  1.00  0.00     0.131 A 
ENDROOT
BRANCH  11  13
HETATM   13  C6  UNL     1      43.838  -1.421  20.613  1.00  0.00     0.201 C 
BRANCH  13  14
HETATM   14  C7  UNL     1      43.611  -2.491  21.614  1.00  0.00     0.023 C 
HETATM   15  N4  UNL     1      42.458  -2.902  21.968  1.00  0.00    -0.403 N 
ATOM     16  H42 UNL     1      41.638  -2.471  21.541  1.00  0.00     0.155 HD
ATOM     17  H41 UNL     1      42.302  -3.638  22.656  1.00  0.00     0.155 HD
BRANCH  14  18
HETATM   18  C8  UNL     1      44.806  -3.118  22.237  1.00  0.00     0.221 C 
BRANCH  18  19
HETATM   19  O1  UNL     1      44.723  -2.857  23.602  1.00  0.00    -0.381 OA
BRANCH  19  20
HETATM   20  C9  UNL     1      45.634  -1.931  24.055  1.00  0.00     0.206 C 
BRANCH  20  21
HETATM   21  C10 UNL     1      46.806  -2.488  24.736  1.00  0.00    -0.035 A 
HETATM   22  C11 UNL     1      46.719  -3.414  25.724  1.00  0.00     0.009 A 
HETATM   23  C12 UNL     1      47.850  -3.910  26.336  1.00  0.00     0.001 A 
HETATM   24  C13 UNL     1      49.124  -3.488  25.972  1.00  0.00     0.000 A 
HETATM   25  C14 UNL     1      49.226  -2.549  24.973  1.00  0.00     0.001 A 
HETATM   26  C15 UNL     1      48.086  -2.062  24.369  1.00  0.00     0.009 A 
ENDBRANCH  20  21
ENDBRANCH  19  20
ENDBRANCH  18  19
ENDBRANCH  14  18
ENDBRANCH  13  14
ENDBRANCH  11  13
TORSDOF 6
ENDMDL
MODEL 5
REMARK VINA RESULT: -6.212266137      1.874      3.967
REMARK  6 active torsions:
REMARK  status: ('A' for Active; 'I' for Inactive)
REMARK    1  A    between atoms: N3_11  and  C6_12 
REMARK    2  A    between atoms: C6_12  and  C7_13 
REMARK    3  A    between atoms: C7_13  and  C8_17 
REMARK    4  A    between atoms: C8_17  and  O1_18 
REMARK    5  A    between atoms: O1_18  and  C9_19 
REMARK    6  A    between atoms: C9_19  and  C10_20 
ROOT
HETATM    1  C1  UNL     1      44.200   1.294  25.339  1.00  0.00     0.018 C 
HETATM    2  C2  UNL     1      43.881   1.244  24.175  1.00  0.00    -0.075 C 
HETATM    3  C3  UNL     1      43.520   1.201  22.792  1.00  0.00     0.049 A 
HETATM    4  C4  UNL     1      43.126   2.349  22.155  1.00  0.00     0.128 A 
HETATM    5  N1  UNL     1      42.791   2.286  20.852  1.00  0.00    -0.201 N 
ATOM      6  H1  UNL     1      42.495   3.134  20.368  1.00  0.00     0.183 HD
HETATM    7  C5  UNL     1      42.840   1.104  20.167  1.00  0.00     0.678 A 
HETATM    8  N2  UNL     1      42.511   1.087  18.919  1.00  0.00    -0.234 N 
ATOM      9  H21 UNL     1      42.547   0.206  18.408  1.00  0.00     0.174 HD
ATOM     10  H22 UNL     1      42.218   1.950  18.460  1.00  0.00     0.174 HD
HETATM   11  N3  UNL     1      43.223  -0.029  20.770  1.00  0.00    -0.187 N 
HETATM   12  C16 UNL     1      43.559   0.020  22.068  1.00  0.00     0.131 A 
ENDROOT
BRANCH  11  13
HETATM   13  C6  UNL     1      43.276  -1.262  20.067  1.00  0.00     0.201 C 
BRANCH  13  14
HETATM   14  C7  UNL     1      44.650  -1.677  19.693  1.00  0.00     0.023 C 
HETATM   15  N4  UNL     1      45.525  -0.888  19.207  1.00  0.00    -0.403 N 
ATOM     16  H42 UNL     1      45.269   0.089  19.064  1.00  0.00     0.155 HD
ATOM     17  H41 UNL     1      46.469  -1.174  18.951  1.00  0.00     0.155 HD
BRANCH  14  18
HETATM   18  C8  UNL     1      45.021  -3.101  19.902  1.00  0.00     0.221 C 
BRANCH  18  19
HETATM   19  O1  UNL     1      44.190  -3.581  20.911  1.00  0.00    -0.381 OA
BRANCH  19  20
HETATM   20  C9  UNL     1      44.849  -4.277  21.899  1.00  0.00     0.206 C 
BRANCH  20  21
HETATM   21  C10 UNL     1      45.601  -3.453  22.849  1.00  0.00    -0.035 A 
HETATM   22  C11 UNL     1      45.015  -2.764  23.860  1.00  0.00     0.009 A 
HETATM   23  C12 UNL     1      45.764  -2.001  24.731  1.00  0.00     0.001 A 
HETATM   24  C13 UNL     1      47.145  -1.903  24.614  1.00  0.00     0.000 A 
HETATM   25  C14 UNL     1      47.752  -2.596  23.593  1.00  0.00     0.001 A 
HETATM   26  C15 UNL     1      46.990  -3.355  22.731  1.00  0.00     0.009 A 
ENDBRANCH  20  21
ENDBRANCH  19  20
ENDBRANCH  18  19
ENDBRANCH  14  18
ENDBRANCH  13  14
ENDBRANCH  11  13
TORSDOF 6
ENDMDL
