MODEL 1
REMARK VINA RESULT: -6.798491105      0.000      0.000
REMARK  7 active torsions:
REMARK  status: ('A' for Active; 'I' for Inactive)
REMARK    1  A    between atoms: C1_2  and  O1_3 
REMARK    2  A    between atoms: O1_3  and  C2_4 
REMARK    3  A    between atoms: C7_9  and  C8_10 
REMARK    4  A    between atoms: C9_11  and  C10_12 
REMARK    5  A    between atoms: C13_15  and  C14_16 
REMARK    6  A    between atoms: C14_16  and  N1_17 
REMARK    7  A    between atoms: N1_17  and  C15_19 
ROOT
HETATM    1  C10 UNL     1      91.216  96.349 -44.726  1.00  0.00     0.018 A 
HETATM    2  C11 UNL     1      91.002  96.419 -43.357  1.00  0.00     0.021 A 
HETATM    3  C12 UNL     1      91.176  97.606 -42.680  1.00  0.00     0.010 A 
HETATM    4  C13 UNL     1      91.568  98.761 -43.331  1.00  0.00    -0.041 A 
HETATM    5  C20 UNL     1      91.778  98.678 -44.692  1.00  0.00     0.010 A 
HETATM    6  C21 UNL     1      91.605  97.489 -45.388  1.00  0.00     0.021 A 
ENDROOT
BRANCH   1   7
HETATM    7  C9  UNL     1      91.034  95.110 -45.446  1.00  0.00    -0.061 C 
HETATM    8  C8  UNL     1      90.864  94.085 -46.058  1.00  0.00    -0.060 C 
BRANCH   8   9
HETATM    9  C7  UNL     1      90.640  92.876 -46.795  1.00  0.00     0.034 A 
HETATM   10  C6  UNL     1      90.064  92.846 -48.054  1.00  0.00     0.035 A 
HETATM   11  C5  UNL     1      89.857  91.677 -48.753  1.00  0.00    -0.008 A 
HETATM   12  C4  UNL     1      89.287  91.665 -49.998  1.00  0.00     0.016 A 
HETATM   13  C23 UNL     1      90.240  90.487 -48.173  1.00  0.00     0.045 A 
HETATM   14  C3  UNL     1      89.080  90.473 -50.703  1.00  0.00     0.038 A 
HETATM   15  C2  UNL     1      89.471  89.304 -50.103  1.00  0.00     0.078 A 
HETATM   16  C24 UNL     1      90.055  89.300 -48.829  1.00  0.00     0.067 A 
HETATM   17  N3  UNL     1      90.809  90.522 -46.929  1.00  0.00    -0.364 N 
HETATM   18  C22 UNL     1      91.005  91.670 -46.256  1.00  0.00     0.109 A 
ATOM     19  H3  UNL     1      91.095  89.644 -46.495  1.00  0.00     0.165 HD
BRANCH  15  20
HETATM   20  O1  UNL     1      89.303  88.100 -50.729  1.00  0.00    -0.311 OA
BRANCH  20  21
HETATM   21  C1  UNL     1      89.564  86.861 -50.173  1.00  0.00     0.226 C 
HETATM   22 CL1  UNL     1      88.277  86.202 -49.156  1.00  0.00    -0.070 Cl
ENDBRANCH  20  21
ENDBRANCH  15  20
ENDBRANCH   8   9
ENDBRANCH   1   7
BRANCH   4  23
HETATM   23  C14 UNL     1      91.746 100.028 -42.576  1.00  0.00     0.153 C 
BRANCH  23  24
HETATM   24  N1  UNL     1      91.431 101.122 -43.435  1.00  0.00    -0.412 N 
ATOM     25  H1  UNL     1      92.081 101.460 -44.146  1.00  0.00     0.153 HD
BRANCH  24  26
HETATM   26  C15 UNL     1      90.151 101.713 -43.239  1.00  0.00     0.102 C 
HETATM   27  C16 UNL     1      89.179 101.461 -44.355  1.00  0.00     0.028 C 
HETATM   28  C17 UNL     1      88.399 100.178 -44.158  1.00  0.00     0.029 C 
HETATM   29  C18 UNL     1      87.741 100.125 -42.799  1.00  0.00     0.232 C 
HETATM   30  N2  UNL     1      88.173 101.258 -41.969  1.00  0.00    -0.073 N 
HETATM   31  C19 UNL     1      89.604 101.206 -41.911  1.00  0.00     0.256 C 
ATOM     32  H22 UNL     1      87.816 102.156 -42.296  1.00  0.00     0.277 HD
ATOM     33  H21 UNL     1      87.734 101.273 -41.048  1.00  0.00     0.277 HD
ENDBRANCH  24  26
ENDBRANCH  23  24
ENDBRANCH   4  23
TORSDOF 7
ENDMDL
MODEL 2
REMARK VINA RESULT: -6.795152009      1.835      2.627
REMARK  7 active torsions:
REMARK  status: ('A' for Active; 'I' for Inactive)
REMARK    1  A    between atoms: C1_2  and  O1_3 
REMARK    2  A    between atoms: O1_3  and  C2_4 
REMARK    3  A    between atoms: C7_9  and  C8_10 
REMARK    4  A    between atoms: C9_11  and  C10_12 
REMARK    5  A    between atoms: C13_15  and  C14_16 
REMARK    6  A    between atoms: C14_16  and  N1_17 
REMARK    7  A    between atoms: N1_17  and  C15_19 
ROOT
HETATM    1  C10 UNL     1      91.283  96.822 -44.463  1.00  0.00     0.018 A 
HETATM    2  C11 UNL     1      91.056  96.918 -43.098  1.00  0.00     0.021 A 
HETATM    3  C12 UNL     1      91.222  98.119 -42.444  1.00  0.00     0.010 A 
HETATM    4  C13 UNL     1      91.617  99.262 -43.114  1.00  0.00    -0.041 A 
HETATM    5  C20 UNL     1      91.839  99.152 -44.472  1.00  0.00     0.010 A 
HETATM    6  C21 UNL     1      91.676  97.948 -45.144  1.00  0.00     0.021 A 
ENDROOT
BRANCH   1   7
HETATM    7  C9  UNL     1      91.111  95.567 -45.160  1.00  0.00    -0.061 C 
HETATM    8  C8  UNL     1      90.954  94.532 -45.756  1.00  0.00    -0.060 C 
BRANCH   8   9
HETATM    9  C7  UNL     1      90.751  93.312 -46.482  1.00  0.00     0.034 A 
HETATM   10  C6  UNL     1      90.076  93.246 -47.689  1.00  0.00     0.035 A 
HETATM   11  C5  UNL     1      89.890  92.068 -48.379  1.00  0.00    -0.008 A 
HETATM   12  C4  UNL     1      89.220  92.020 -49.572  1.00  0.00     0.016 A 
HETATM   13  C23 UNL     1      90.400  90.905 -47.843  1.00  0.00     0.045 A 
HETATM   14  C3  UNL     1      89.036  90.819 -50.267  1.00  0.00     0.038 A 
HETATM   15  C2  UNL     1      89.553  89.677 -49.712  1.00  0.00     0.078 A 
HETATM   16  C24 UNL     1      90.241  89.710 -48.490  1.00  0.00     0.067 A 
HETATM   17  N3  UNL     1      91.067  90.975 -46.649  1.00  0.00    -0.364 N 
HETATM   18  C22 UNL     1      91.240  92.132 -45.986  1.00  0.00     0.109 A 
ATOM     19  H3  UNL     1      91.446  90.117 -46.248  1.00  0.00     0.165 HD
BRANCH  15  20
HETATM   20  O1  UNL     1      89.415  88.466 -50.331  1.00  0.00    -0.311 OA
BRANCH  20  21
HETATM   21  C1  UNL     1      89.596  87.232 -49.735  1.00  0.00     0.226 C 
HETATM   22 CL1  UNL     1      88.189  86.595 -48.875  1.00  0.00    -0.070 Cl
ENDBRANCH  20  21
ENDBRANCH  15  20
ENDBRANCH   8   9
ENDBRANCH   1   7
BRANCH   4  23
HETATM   23  C14 UNL     1      91.785 100.545 -42.383  1.00  0.00     0.153 C 
BRANCH  23  24
HETATM   24  N1  UNL     1      92.182 100.260 -41.043  1.00  0.00    -0.412 N 
ATOM     25  H1  UNL     1      92.455  99.324 -40.745  1.00  0.00     0.153 HD
BRANCH  24  26
HETATM   26  C15 UNL     1      92.173 101.367 -40.149  1.00  0.00     0.102 C 
HETATM   27  C16 UNL     1      93.535 101.787 -39.675  1.00  0.00     0.028 C 
HETATM   28  C17 UNL     1      94.181 102.794 -40.604  1.00  0.00     0.029 C 
HETATM   29  C18 UNL     1      93.275 103.974 -40.868  1.00  0.00     0.232 C 
HETATM   30  N2  UNL     1      91.944 103.747 -40.287  1.00  0.00    -0.073 N 
HETATM   31  C19 UNL     1      91.456 102.519 -40.841  1.00  0.00     0.256 C 
ATOM     32  H22 UNL     1      91.943 103.757 -39.267  1.00  0.00     0.277 HD
ATOM     33  H21 UNL     1      91.307 104.531 -40.423  1.00  0.00     0.277 HD
ENDBRANCH  24  26
ENDBRANCH  23  24
ENDBRANCH   4  23
TORSDOF 7
ENDMDL
MODEL 3
REMARK VINA RESULT: -6.777108431      1.669      2.664
REMARK  7 active torsions:
REMARK  status: ('A' for Active; 'I' for Inactive)
REMARK    1  A    between atoms: C1_2  and  O1_3 
REMARK    2  A    between atoms: O1_3  and  C2_4 
REMARK    3  A    between atoms: C7_9  and  C8_10 
REMARK    4  A    between atoms: C9_11  and  C10_12 
REMARK    5  A    between atoms: C13_15  and  C14_16 
REMARK    6  A    between atoms: C14_16  and  N1_17 
REMARK    7  A    between atoms: N1_17  and  C15_19 
ROOT
HETATM    1  C10 UNL     1      91.099  96.276 -44.473  1.00  0.00     0.018 A 
HETATM    2  C11 UNL     1      91.243  96.205 -43.096  1.00  0.00     0.021 A 
HETATM    3  C12 UNL     1      91.371  97.353 -42.345  1.00  0.00     0.010 A 
HETATM    4  C13 UNL     1      91.361  98.607 -42.929  1.00  0.00    -0.041 A 
HETATM    5  C20 UNL     1      91.217  98.663 -44.300  1.00  0.00     0.010 A 
HETATM    6  C21 UNL     1      91.087  97.515 -45.069  1.00  0.00     0.021 A 
ENDROOT
BRANCH   1   7
HETATM    7  C9  UNL     1      90.963  95.079 -45.271  1.00  0.00    -0.061 C 
HETATM    8  C8  UNL     1      90.828  94.078 -45.928  1.00  0.00    -0.060 C 
BRANCH   8   9
HETATM    9  C7  UNL     1      90.643  92.884 -46.700  1.00  0.00     0.034 A 
HETATM   10  C6  UNL     1      90.005  92.860 -47.929  1.00  0.00     0.035 A 
HETATM   11  C5  UNL     1      89.836  91.706 -48.662  1.00  0.00    -0.008 A 
HETATM   12  C4  UNL     1      89.203  91.700 -49.875  1.00  0.00     0.016 A 
HETATM   13  C23 UNL     1      90.326  90.524 -48.149  1.00  0.00     0.045 A 
HETATM   14  C3  UNL     1      89.037  90.523 -50.615  1.00  0.00     0.038 A 
HETATM   15  C2  UNL     1      89.534  89.362 -50.082  1.00  0.00     0.078 A 
HETATM   16  C24 UNL     1      90.184  89.352 -48.840  1.00  0.00     0.067 A 
HETATM   17  N3  UNL     1      90.957  90.552 -46.934  1.00  0.00    -0.364 N 
HETATM   18  C22 UNL     1      91.113  91.686 -46.228  1.00  0.00     0.109 A 
ATOM     19  H3  UNL     1      91.321  89.680 -46.550  1.00  0.00     0.165 HD
BRANCH  15  20
HETATM   20  O1  UNL     1      89.411  88.172 -50.745  1.00  0.00    -0.311 OA
BRANCH  20  21
HETATM   21  C1  UNL     1      89.477  86.918 -50.166  1.00  0.00     0.226 C 
HETATM   22 CL1  UNL     1      88.057  86.444 -49.225  1.00  0.00    -0.070 Cl
ENDBRANCH  20  21
ENDBRANCH  15  20
ENDBRANCH   8   9
ENDBRANCH   1   7
BRANCH   4  23
HETATM   23  C14 UNL     1      91.498  99.828 -42.093  1.00  0.00     0.153 C 
BRANCH  23  24
HETATM   24  N1  UNL     1      92.466 100.688 -42.693  1.00  0.00    -0.412 N 
ATOM     25  H1  UNL     1      93.063 100.381 -43.461  1.00  0.00     0.153 HD
BRANCH  24  26
HETATM   26  C15 UNL     1      92.544 102.002 -42.151  1.00  0.00     0.102 C 
HETATM   27  C16 UNL     1      92.250 102.080 -40.680  1.00  0.00     0.028 C 
HETATM   28  C17 UNL     1      93.488 101.869 -39.835  1.00  0.00     0.029 C 
HETATM   29  C18 UNL     1      94.611 102.793 -40.247  1.00  0.00     0.232 C 
HETATM   30  N2  UNL     1      94.255 103.530 -41.467  1.00  0.00    -0.073 N 
HETATM   31  C19 UNL     1      93.930 102.551 -42.462  1.00  0.00     0.256 C 
ATOM     32  H22 UNL     1      93.515 104.217 -41.321  1.00  0.00     0.277 HD
ATOM     33  H21 UNL     1      94.979 104.184 -41.768  1.00  0.00     0.277 HD
ENDBRANCH  24  26
ENDBRANCH  23  24
ENDBRANCH   4  23
TORSDOF 7
ENDMDL
MODEL 4
REMARK VINA RESULT: -6.758682930      1.313      2.231
REMARK  7 active torsions:
REMARK  status: ('A' for Active; 'I' for Inactive)
REMARK    1  A    between atoms: C1_2  and  O1_3 
REMARK    2  A    between atoms: O1_3  and  C2_4 
REMARK    3  A    between atoms: C7_9  and  C8_10 
REMARK    4  A    between atoms: C9_11  and  C10_12 
REMARK    5  A    between atoms: C13_15  and  C14_16 
REMARK    6  A    between atoms: C14_16  and  N1_17 
REMARK    7  A    between atoms: N1_17  and  C15_19 
ROOT
HETATM    1  C10 UNL     1      91.130  95.774 -44.615  1.00  0.00     0.018 A 
HETATM    2  C11 UNL     1      91.189  97.054 -45.144  1.00  0.00     0.021 A 
HETATM    3  C12 UNL     1      91.370  98.144 -44.321  1.00  0.00     0.010 A 
HETATM    4  C13 UNL     1      91.497  98.006 -42.952  1.00  0.00    -0.041 A 
HETATM    5  C20 UNL     1      91.436  96.726 -42.439  1.00  0.00     0.010 A 
HETATM    6  C21 UNL     1      91.255  95.619 -43.255  1.00  0.00     0.021 A 
ENDROOT
BRANCH   1   7
HETATM    7  C9  UNL     1      90.943  94.623 -45.469  1.00  0.00    -0.061 C 
HETATM    8  C8  UNL     1      90.766  93.660 -46.173  1.00  0.00    -0.060 C 
BRANCH   8   9
HETATM    9  C7  UNL     1      90.534  92.511 -46.997  1.00  0.00     0.034 A 
HETATM   10  C6  UNL     1      89.894  92.568 -48.224  1.00  0.00     0.035 A 
HETATM   11  C5  UNL     1      89.679  91.456 -49.008  1.00  0.00    -0.008 A 
HETATM   12  C4  UNL     1      89.045  91.530 -50.219  1.00  0.00     0.016 A 
HETATM   13  C23 UNL     1      90.121  90.233 -48.550  1.00  0.00     0.045 A 
HETATM   14  C3  UNL     1      88.831  90.395 -51.011  1.00  0.00     0.038 A 
HETATM   15  C2  UNL     1      89.281  89.192 -50.532  1.00  0.00     0.078 A 
HETATM   16  C24 UNL     1      89.931  89.100 -49.293  1.00  0.00     0.067 A 
HETATM   17  N3  UNL     1      90.753  90.181 -47.337  1.00  0.00    -0.364 N 
HETATM   18  C22 UNL     1      90.956  91.275 -46.581  1.00  0.00     0.109 A 
ATOM     19  H3  UNL     1      91.083  89.279 -46.993  1.00  0.00     0.165 HD
BRANCH  15  20
HETATM   20  O1  UNL     1      89.110  88.040 -51.247  1.00  0.00    -0.311 OA
BRANCH  20  21
HETATM   21  C1  UNL     1      89.377  86.762 -50.791  1.00  0.00     0.226 C 
HETATM   22 CL1  UNL     1      88.087  86.015 -49.840  1.00  0.00    -0.070 Cl
ENDBRANCH  20  21
ENDBRANCH  15  20
ENDBRANCH   8   9
ENDBRANCH   1   7
BRANCH   4  23
HETATM   23  C14 UNL     1      91.694  99.199 -42.088  1.00  0.00     0.153 C 
BRANCH  23  24
HETATM   24  N1  UNL     1      90.514  99.999 -42.136  1.00  0.00    -0.412 N 
ATOM     25  H1  UNL     1      89.580  99.592 -42.110  1.00  0.00     0.153 HD
BRANCH  24  26
HETATM   26  C15 UNL     1      90.725 101.405 -42.223  1.00  0.00     0.102 C 
HETATM   27  C16 UNL     1      90.282 102.170 -41.010  1.00  0.00     0.028 C 
HETATM   28  C17 UNL     1      91.372 102.269 -39.964  1.00  0.00     0.029 C 
HETATM   29  C18 UNL     1      92.659 102.808 -40.545  1.00  0.00     0.232 C 
HETATM   30  N2  UNL     1      92.556 102.932 -42.006  1.00  0.00    -0.073 N 
HETATM   31  C19 UNL     1      92.203 101.637 -42.507  1.00  0.00     0.256 C 
ATOM     32  H22 UNL     1      91.914 103.667 -42.303  1.00  0.00     0.277 HD
ATOM     33  H21 UNL     1      93.397 103.315 -42.437  1.00  0.00     0.277 HD
ENDBRANCH  24  26
ENDBRANCH  23  24
ENDBRANCH   4  23
TORSDOF 7
ENDMDL
MODEL 5
REMARK VINA RESULT: -6.684249908      5.537     11.639
REMARK  7 active torsions:
REMARK  status: ('A' for Active; 'I' for Inactive)
REMARK    1  A    between atoms: C1_2  and  O1_3 
REMARK    2  A    between atoms: O1_3  and  C2_4 
REMARK    3  A    between atoms: C7_9  and  C8_10 
REMARK    4  A    between atoms: C9_11  and  C10_12 
REMARK    5  A    between atoms: C13_15  and  C14_16 
REMARK    6  A    between atoms: C14_16  and  N1_17 
REMARK    7  A    between atoms: N1_17  and  C15_19 
ROOT
HETATM    1  C10 UNL     1      91.057  94.607 -45.019  1.00  0.00     0.018 A 
HETATM    2  C11 UNL     1      91.588  93.467 -44.436  1.00  0.00     0.021 A 
HETATM    3  C12 UNL     1      91.594  92.269 -45.118  1.00  0.00     0.010 A 
HETATM    4  C13 UNL     1      91.076  92.160 -46.395  1.00  0.00    -0.041 A 
HETATM    5  C20 UNL     1      90.551  93.302 -46.963  1.00  0.00     0.010 A 
HETATM    6  C21 UNL     1      90.539  94.515 -46.289  1.00  0.00     0.021 A 
ENDROOT
BRANCH   1   7
HETATM    7  C9  UNL     1      91.048  95.869 -44.314  1.00  0.00    -0.061 C 
HETATM    8  C8  UNL     1      91.055  96.913 -43.712  1.00  0.00    -0.060 C 
BRANCH   8   9
HETATM    9  C7  UNL     1      91.081  98.144 -42.978  1.00  0.00     0.034 A 
HETATM   10  C6  UNL     1      90.199  99.187 -43.207  1.00  0.00     0.035 A 
HETATM   11  C5  UNL     1      90.232 100.365 -42.493  1.00  0.00    -0.008 A 
HETATM   12  C4  UNL     1      89.353 101.387 -42.731  1.00  0.00     0.016 A 
HETATM   13  C23 UNL     1      91.185 100.509 -41.507  1.00  0.00     0.045 A 
HETATM   14  C3  UNL     1      89.392 102.580 -42.000  1.00  0.00     0.038 A 
HETATM   15  C2  UNL     1      90.349 102.697 -41.026  1.00  0.00     0.078 A 
HETATM   16  C24 UNL     1      91.257 101.660 -40.770  1.00  0.00     0.067 A 
HETATM   17  N3  UNL     1      92.054  99.475 -41.284  1.00  0.00    -0.364 N 
HETATM   18  C22 UNL     1      92.011  98.331 -41.990  1.00  0.00     0.109 A 
ATOM     19  H3  UNL     1      92.761  99.577 -40.555  1.00  0.00     0.165 HD
BRANCH  15  20
HETATM   20  O1  UNL     1      90.450 103.832 -40.269  1.00  0.00    -0.311 OA
BRANCH  20  21
HETATM   21  C1  UNL     1      91.381 104.053 -39.271  1.00  0.00     0.226 C 
HETATM   22 CL1  UNL     1      90.835 103.681 -37.631  1.00  0.00    -0.070 Cl
ENDBRANCH  20  21
ENDBRANCH  15  20
ENDBRANCH   8   9
ENDBRANCH   1   7
BRANCH   4  23
HETATM   23  C14 UNL     1      91.098  90.856 -47.108  1.00  0.00     0.153 C 
BRANCH  23  24
HETATM   24  N1  UNL     1      91.693  91.045 -48.391  1.00  0.00    -0.412 N 
ATOM     25  H1  UNL     1      92.579  91.536 -48.512  1.00  0.00     0.153 HD
BRANCH  24  26
HETATM   26  C15 UNL     1      90.970  90.504 -49.492  1.00  0.00     0.102 C 
HETATM   27  C16 UNL     1      89.596  90.008 -49.142  1.00  0.00     0.028 C 
HETATM   28  C17 UNL     1      88.550  91.098 -49.243  1.00  0.00     0.029 C 
HETATM   29  C18 UNL     1      88.587  91.788 -50.586  1.00  0.00     0.232 C 
HETATM   30  N2  UNL     1      89.740  91.330 -51.373  1.00  0.00    -0.073 N 
HETATM   31  C19 UNL     1      90.907  91.572 -50.576  1.00  0.00     0.256 C 
ATOM     32  H22 UNL     1      89.658  90.362 -51.682  1.00  0.00     0.277 HD
ATOM     33  H21 UNL     1      89.791  91.756 -52.299  1.00  0.00     0.277 HD
ENDBRANCH  24  26
ENDBRANCH  23  24
ENDBRANCH   4  23
TORSDOF 7
ENDMDL
