MODEL 1
REMARK VINA RESULT: -8.337690184      0.000      0.000
REMARK  7 active torsions:
REMARK  status: ('A' for Active; 'I' for Inactive)
REMARK    1  A    between atoms: O1_2  and  C2_3 
REMARK    2  A    between atoms: C7_9  and  N1_10 
REMARK    3  A    between atoms: N1_10  and  C8_12 
REMARK    4  A    between atoms: C10_14  and  C11_15 
REMARK    5  A    between atoms: C14_18  and  O2_19 
REMARK    6  A    between atoms: C17_24  and  N3_25 
REMARK    7  A    between atoms: N3_25  and  C18_27 
ROOT
HETATM    1  C8  UNL     1      91.295  95.346 -44.971  1.00  0.00     0.123 A 
HETATM    2  C9  UNL     1      90.985  94.564 -46.060  1.00  0.00     0.079 A 
HETATM    3  C10 UNL     1      90.887  93.188 -45.975  1.00  0.00     0.059 A 
HETATM    4  N2  UNL     1      91.110  92.644 -44.766  1.00  0.00    -0.191 N 
ATOM      5  H2  UNL     1      91.048  91.631 -44.659  1.00  0.00     0.184 HD
HETATM    6  C17 UNL     1      91.419  93.410 -43.677  1.00  0.00     0.680 A 
HETATM    7  N4  UNL     1      91.512  94.744 -43.771  1.00  0.00    -0.177 N 
ATOM      8  H4  UNL     1      91.744  95.302 -42.949  1.00  0.00     0.186 HD
ENDROOT
BRANCH   1   9
HETATM    9  N1  UNL     1      91.389  96.638 -45.049  1.00  0.00    -0.340 N 
ATOM     10  H1  UNL     1      92.220  97.054 -45.470  1.00  0.00     0.167 HD
BRANCH   9  11
HETATM   11  C7  UNL     1      90.359  97.485 -44.560  1.00  0.00     0.069 A 
HETATM   12  C2  UNL     1      90.537  98.087 -43.332  1.00  0.00     0.095 A 
HETATM   13  C3  UNL     1      89.532  98.910 -42.862  1.00  0.00     0.041 A 
HETATM   14  C4  UNL     1      88.370  99.129 -43.601  1.00  0.00     0.026 A 
HETATM   15  C5  UNL     1      88.188  98.529 -44.830  1.00  0.00     0.036 A 
HETATM   16 CL1  UNL     1      86.726  98.814 -45.746  1.00  0.00    -0.084 Cl
HETATM   17  C6  UNL     1      89.198  97.710 -45.290  1.00  0.00     0.056 A 
BRANCH  12  18
HETATM   18  O1  UNL     1      91.699  97.872 -42.584  1.00  0.00    -0.354 OA
HETATM   19  C1  UNL     1      91.601  97.133 -41.384  1.00  0.00     0.210 C 
ENDBRANCH  12  18
ENDBRANCH   9  11
ENDBRANCH   1   9
BRANCH   3  20
HETATM   20  C11 UNL     1      90.554  92.373 -47.137  1.00  0.00    -0.032 C 
HETATM   21  C12 UNL     1      89.803  92.760 -48.154  1.00  0.00    -0.015 C 
HETATM   22  C13 UNL     1      89.683  91.664 -49.149  1.00  0.00     0.060 C 
HETATM   23  C14 UNL     1      90.085  90.457 -48.380  1.00  0.00     0.128 C 
HETATM   24  C16 UNL     1      91.021  90.978 -47.341  1.00  0.00     0.072 C 
BRANCH  23  25
HETATM   25  O2  UNL     1      90.615  89.442 -49.151  1.00  0.00    -0.390 OA
HETATM   26  C15 UNL     1      91.658  88.766 -48.584  1.00  0.00     0.202 C 
ENDBRANCH  23  25
ENDBRANCH   3  20
BRANCH   6  27
HETATM   27  N3  UNL     1      91.629  92.865 -42.536  1.00  0.00    -0.221 N 
ATOM     28  H3  UNL     1      90.978  93.089 -41.784  1.00  0.00     0.178 HD
BRANCH  27  29
HETATM   29  C18 UNL     1      92.695  91.972 -42.230  1.00  0.00     0.099 C 
HETATM   30  C19 UNL     1      93.580  91.632 -43.404  1.00  0.00     0.026 C 
HETATM   31  C20 UNL     1      95.012  91.846 -42.952  1.00  0.00     0.002 C 
HETATM   32  C21 UNL     1      94.947  91.970 -41.458  1.00  0.00     0.002 C 
HETATM   33  C22 UNL     1      93.631  92.669 -41.252  1.00  0.00     0.026 C 
ENDBRANCH  27  29
ENDBRANCH   6  27
TORSDOF 7
ENDMDL
MODEL 2
REMARK VINA RESULT: -8.317814241      0.824      1.125
REMARK  7 active torsions:
REMARK  status: ('A' for Active; 'I' for Inactive)
REMARK    1  A    between atoms: O1_2  and  C2_3 
REMARK    2  A    between atoms: C7_9  and  N1_10 
REMARK    3  A    between atoms: N1_10  and  C8_12 
REMARK    4  A    between atoms: C10_14  and  C11_15 
REMARK    5  A    between atoms: C14_18  and  O2_19 
REMARK    6  A    between atoms: C17_24  and  N3_25 
REMARK    7  A    between atoms: N3_25  and  C18_27 
ROOT
HETATM    1  C8  UNL     1      90.819  95.440 -45.697  1.00  0.00     0.123 A 
HETATM    2  C9  UNL     1      90.528  94.505 -46.664  1.00  0.00     0.079 A 
HETATM    3  C10 UNL     1      90.696  93.149 -46.452  1.00  0.00     0.059 A 
HETATM    4  N2  UNL     1      91.162  92.784 -45.245  1.00  0.00    -0.191 N 
ATOM      5  H2  UNL     1      91.301  91.793 -45.046  1.00  0.00     0.184 HD
HETATM    6  C17 UNL     1      91.455  93.703 -44.277  1.00  0.00     0.680 A 
HETATM    7  N4  UNL     1      91.288  95.015 -44.493  1.00  0.00    -0.177 N 
ATOM      8  H4  UNL     1      91.512  95.689 -43.761  1.00  0.00     0.186 HD
ENDROOT
BRANCH   1   9
HETATM    9  N1  UNL     1      90.663  96.713 -45.894  1.00  0.00    -0.340 N 
ATOM     10  H1  UNL     1      91.315  97.207 -46.504  1.00  0.00     0.167 HD
BRANCH   9  11
HETATM   11  C7  UNL     1      89.604  97.432 -45.278  1.00  0.00     0.069 A 
HETATM   12  C2  UNL     1      89.893  98.191 -44.164  1.00  0.00     0.095 A 
HETATM   13  C3  UNL     1      88.859  98.889 -43.570  1.00  0.00     0.041 A 
HETATM   14  C4  UNL     1      87.561  98.831 -44.076  1.00  0.00     0.026 A 
HETATM   15  C5  UNL     1      87.269  98.072 -45.191  1.00  0.00     0.036 A 
HETATM   16 CL1  UNL     1      85.636  98.010 -45.815  1.00  0.00    -0.084 Cl
HETATM   17  C6  UNL     1      88.308  97.380 -45.776  1.00  0.00     0.056 A 
BRANCH  12  18
HETATM   18  O1  UNL     1      91.192  98.255 -43.650  1.00  0.00    -0.354 OA
HETATM   19  C1  UNL     1      91.392  97.951 -42.285  1.00  0.00     0.210 C 
ENDBRANCH  12  18
ENDBRANCH   9  11
ENDBRANCH   1   9
BRANCH   3  20
HETATM   20  C11 UNL     1      90.380  92.170 -47.484  1.00  0.00    -0.032 C 
HETATM   21  C12 UNL     1      89.675  92.410 -48.577  1.00  0.00    -0.015 C 
HETATM   22  C13 UNL     1      89.558  91.174 -49.393  1.00  0.00     0.060 C 
HETATM   23  C14 UNL     1      89.900  90.094 -48.430  1.00  0.00     0.128 C 
HETATM   24  C16 UNL     1      90.814  90.750 -47.451  1.00  0.00     0.072 C 
BRANCH  23  25
HETATM   25  O2  UNL     1      90.427  88.958 -49.014  1.00  0.00    -0.390 OA
HETATM   26  C15 UNL     1      91.675  88.610 -48.581  1.00  0.00     0.202 C 
ENDBRANCH  23  25
ENDBRANCH   3  20
BRANCH   6  27
HETATM   27  N3  UNL     1      91.900  93.327 -43.135  1.00  0.00    -0.221 N 
ATOM     28  H3  UNL     1      91.212  93.053 -42.433  1.00  0.00     0.178 HD
BRANCH  27  29
HETATM   29  C18 UNL     1      93.273  93.258 -42.764  1.00  0.00     0.099 C 
HETATM   30  C19 UNL     1      93.518  93.284 -41.276  1.00  0.00     0.026 C 
HETATM   31  C20 UNL     1      94.450  92.128 -40.963  1.00  0.00     0.002 C 
HETATM   32  C21 UNL     1      94.987  91.676 -42.289  1.00  0.00     0.002 C 
HETATM   33  C22 UNL     1      93.815  91.905 -43.204  1.00  0.00     0.026 C 
ENDBRANCH  27  29
ENDBRANCH   6  27
TORSDOF 7
ENDMDL
MODEL 3
REMARK VINA RESULT: -8.203659798      1.978      6.876
REMARK  7 active torsions:
REMARK  status: ('A' for Active; 'I' for Inactive)
REMARK    1  A    between atoms: O1_2  and  C2_3 
REMARK    2  A    between atoms: C7_9  and  N1_10 
REMARK    3  A    between atoms: N1_10  and  C8_12 
REMARK    4  A    between atoms: C10_14  and  C11_15 
REMARK    5  A    between atoms: C14_18  and  O2_19 
REMARK    6  A    between atoms: C17_24  and  N3_25 
REMARK    7  A    between atoms: N3_25  and  C18_27 
ROOT
HETATM    1  C8  UNL     1      91.317  92.795 -46.836  1.00  0.00     0.123 A 
HETATM    2  C9  UNL     1      91.015  94.112 -46.574  1.00  0.00     0.079 A 
HETATM    3  C10 UNL     1      90.939  94.608 -45.286  1.00  0.00     0.059 A 
HETATM    4  N2  UNL     1      91.175  93.735 -44.292  1.00  0.00    -0.191 N 
ATOM      5  H2  UNL     1      91.130  94.059 -43.325  1.00  0.00     0.184 HD
HETATM    6  C17 UNL     1      91.476  92.425 -44.539  1.00  0.00     0.680 A 
HETATM    7  N4  UNL     1      91.547  91.954 -45.792  1.00  0.00    -0.177 N 
ATOM      8  H4  UNL     1      91.772  90.974 -45.961  1.00  0.00     0.186 HD
ENDROOT
BRANCH   1   9
HETATM    9  N1  UNL     1      91.387  92.327 -48.045  1.00  0.00    -0.340 N 
ATOM     10  H1  UNL     1      92.211  92.528 -48.611  1.00  0.00     0.167 HD
BRANCH   9  11
HETATM   11  C7  UNL     1      90.339  91.542 -48.594  1.00  0.00     0.069 A 
HETATM   12  C2  UNL     1      90.484  90.171 -48.599  1.00  0.00     0.095 A 
HETATM   13  C3  UNL     1      89.461  89.412 -49.134  1.00  0.00     0.041 A 
HETATM   14  C4  UNL     1      88.314  90.008 -49.655  1.00  0.00     0.026 A 
HETATM   15  C5  UNL     1      88.164  91.380 -49.652  1.00  0.00     0.036 A 
HETATM   16 CL1  UNL     1      86.719  92.114 -50.309  1.00  0.00    -0.084 Cl
HETATM   17  C6  UNL     1      89.191  92.128 -49.116  1.00  0.00     0.056 A 
BRANCH  12  18
HETATM   18  O1  UNL     1      91.632  89.564 -48.078  1.00  0.00    -0.354 OA
HETATM   19  C1  UNL     1      91.918  88.232 -48.450  1.00  0.00     0.210 C 
ENDBRANCH  12  18
ENDBRANCH   9  11
ENDBRANCH   1   9
BRANCH   3  20
HETATM   20  C11 UNL     1      90.622  96.007 -45.024  1.00  0.00    -0.032 C 
HETATM   21  C12 UNL     1      89.914  96.793 -45.817  1.00  0.00    -0.015 C 
HETATM   22  C13 UNL     1      89.798  98.149 -45.223  1.00  0.00     0.060 C 
HETATM   23  C14 UNL     1      90.890  98.176 -44.214  1.00  0.00     0.128 C 
HETATM   24  C16 UNL     1      91.055  96.749 -43.812  1.00  0.00     0.072 C 
BRANCH  23  25
HETATM   25  O2  UNL     1      90.665  99.033 -43.155  1.00  0.00    -0.390 OA
HETATM   26  C15 UNL     1      89.354  99.194 -42.808  1.00  0.00     0.202 C 
ENDBRANCH  23  25
ENDBRANCH   3  20
BRANCH   6  27
HETATM   27  N3  UNL     1      91.696  91.613 -43.572  1.00  0.00    -0.221 N 
ATOM     28  H3  UNL     1      91.192  90.726 -43.583  1.00  0.00     0.178 HD
BRANCH  27  29
HETATM   29  C18 UNL     1      92.584  91.844 -42.483  1.00  0.00     0.099 C 
HETATM   30  C19 UNL     1      92.970  90.602 -41.720  1.00  0.00     0.026 C 
HETATM   31  C20 UNL     1      94.483  90.611 -41.601  1.00  0.00     0.002 C 
HETATM   32  C21 UNL     1      94.907  91.998 -41.988  1.00  0.00     0.002 C 
HETATM   33  C22 UNL     1      93.902  92.356 -43.048  1.00  0.00     0.026 C 
ENDBRANCH  27  29
ENDBRANCH   6  27
TORSDOF 7
ENDMDL
MODEL 4
REMARK VINA RESULT: -8.191569234      1.617      2.119
REMARK  7 active torsions:
REMARK  status: ('A' for Active; 'I' for Inactive)
REMARK    1  A    between atoms: O1_2  and  C2_3 
REMARK    2  A    between atoms: C7_9  and  N1_10 
REMARK    3  A    between atoms: N1_10  and  C8_12 
REMARK    4  A    between atoms: C10_14  and  C11_15 
REMARK    5  A    between atoms: C14_18  and  O2_19 
REMARK    6  A    between atoms: C17_24  and  N3_25 
REMARK    7  A    between atoms: N3_25  and  C18_27 
ROOT
HETATM    1  C8  UNL     1      91.329  95.509 -45.282  1.00  0.00     0.123 A 
HETATM    2  C9  UNL     1      91.004  94.635 -46.294  1.00  0.00     0.079 A 
HETATM    3  C10 UNL     1      90.885  93.274 -46.083  1.00  0.00     0.059 A 
HETATM    4  N2  UNL     1      91.104  92.840 -44.829  1.00  0.00    -0.191 N 
ATOM      5  H2  UNL     1      91.027  91.843 -44.629  1.00  0.00     0.184 HD
HETATM    6  C17 UNL     1      91.427  93.698 -43.816  1.00  0.00     0.680 A 
HETATM    7  N4  UNL     1      91.540  95.016 -44.032  1.00  0.00    -0.177 N 
ATOM      8  H4  UNL     1      91.783  95.644 -43.265  1.00  0.00     0.186 HD
ENDROOT
BRANCH   1   9
HETATM    9  N1  UNL     1      91.443  96.786 -45.479  1.00  0.00    -0.340 N 
ATOM     10  H1  UNL     1      92.009  97.124 -46.257  1.00  0.00     0.167 HD
BRANCH   9  11
HETATM   11  C7  UNL     1      90.794  97.725 -44.632  1.00  0.00     0.069 A 
HETATM   12  C2  UNL     1      89.433  97.899 -44.773  1.00  0.00     0.095 A 
HETATM   13  C3  UNL     1      88.808  98.812 -43.946  1.00  0.00     0.041 A 
HETATM   14  C4  UNL     1      89.524  99.538 -42.996  1.00  0.00     0.026 A 
HETATM   15  C5  UNL     1      90.886  99.366 -42.852  1.00  0.00     0.036 A 
HETATM   16 CL1  UNL     1      91.771 100.284 -41.655  1.00  0.00    -0.084 Cl
HETATM   17  C6  UNL     1      91.500  98.453 -43.682  1.00  0.00     0.056 A 
BRANCH  12  18
HETATM   18  O1  UNL     1      88.707  97.174 -45.723  1.00  0.00    -0.354 OA
HETATM   19  C1  UNL     1      87.306  97.346 -45.775  1.00  0.00     0.210 C 
ENDBRANCH  12  18
ENDBRANCH   9  11
ENDBRANCH   1   9
BRANCH   3  20
HETATM   20  C11 UNL     1      90.537  92.361 -47.164  1.00  0.00    -0.032 C 
HETATM   21  C12 UNL     1      89.792  92.666 -48.214  1.00  0.00    -0.015 C 
HETATM   22  C13 UNL     1      89.652  91.484 -49.103  1.00  0.00     0.060 C 
HETATM   23  C14 UNL     1      90.032  90.347 -48.224  1.00  0.00     0.128 C 
HETATM   24  C16 UNL     1      90.977  90.944 -47.237  1.00  0.00     0.072 C 
BRANCH  23  25
HETATM   25  O2  UNL     1      90.543  89.254 -48.897  1.00  0.00    -0.390 OA
HETATM   26  C15 UNL     1      91.776  88.841 -48.481  1.00  0.00     0.202 C 
ENDBRANCH  23  25
ENDBRANCH   3  20
BRANCH   6  27
HETATM   27  N3  UNL     1      91.633  93.257 -42.630  1.00  0.00    -0.221 N 
ATOM     28  H3  UNL     1      91.071  93.658 -41.879  1.00  0.00     0.178 HD
BRANCH  27  29
HETATM   29  C18 UNL     1      92.578  92.254 -42.272  1.00  0.00     0.099 C 
HETATM   30  C19 UNL     1      93.439  91.775 -43.414  1.00  0.00     0.026 C 
HETATM   31  C20 UNL     1      94.878  91.831 -42.935  1.00  0.00     0.002 C 
HETATM   32  C21 UNL     1      94.798  92.010 -41.448  1.00  0.00     0.002 C 
HETATM   33  C22 UNL     1      93.570  92.867 -41.294  1.00  0.00     0.026 C 
ENDBRANCH  27  29
ENDBRANCH   6  27
TORSDOF 7
ENDMDL
MODEL 5
REMARK VINA RESULT: -8.160883642      1.085      1.418
REMARK  7 active torsions:
REMARK  status: ('A' for Active; 'I' for Inactive)
REMARK    1  A    between atoms: O1_2  and  C2_3 
REMARK    2  A    between atoms: C7_9  and  N1_10 
REMARK    3  A    between atoms: N1_10  and  C8_12 
REMARK    4  A    between atoms: C10_14  and  C11_15 
REMARK    5  A    between atoms: C14_18  and  O2_19 
REMARK    6  A    between atoms: C17_24  and  N3_25 
REMARK    7  A    between atoms: N3_25  and  C18_27 
ROOT
HETATM    1  C8  UNL     1      91.145  94.889 -45.604  1.00  0.00     0.123 A 
HETATM    2  C9  UNL     1      91.035  94.006 -46.655  1.00  0.00     0.079 A 
HETATM    3  C10 UNL     1      91.053  92.636 -46.471  1.00  0.00     0.059 A 
HETATM    4  N2  UNL     1      91.183  92.202 -45.206  1.00  0.00    -0.191 N 
ATOM      5  H2  UNL     1      91.201  91.198 -45.025  1.00  0.00     0.184 HD
HETATM    6  C17 UNL     1      91.293  93.068 -44.154  1.00  0.00     0.680 A 
HETATM    7  N4  UNL     1      91.276  94.395 -44.343  1.00  0.00    -0.177 N 
ATOM      8  H4  UNL     1      91.360  95.029 -43.549  1.00  0.00     0.186 HD
ENDROOT
BRANCH   1   9
HETATM    9  N1  UNL     1      91.131  96.175 -45.774  1.00  0.00    -0.340 N 
ATOM     10  H1  UNL     1      91.963  96.640 -46.137  1.00  0.00     0.167 HD
BRANCH   9  11
HETATM   11  C7  UNL     1      89.980  96.948 -45.465  1.00  0.00     0.069 A 
HETATM   12  C2  UNL     1      90.063  97.856 -44.430  1.00  0.00     0.095 A 
HETATM   13  C3  UNL     1      88.940  98.606 -44.135  1.00  0.00     0.041 A 
HETATM   14  C4  UNL     1      87.758  98.454 -44.856  1.00  0.00     0.026 A 
HETATM   15  C5  UNL     1      87.671  97.547 -45.893  1.00  0.00     0.036 A 
HETATM   16 CL1  UNL     1      86.180  97.368 -46.790  1.00  0.00    -0.084 Cl
HETATM   17  C6  UNL     1      88.797  96.804 -46.179  1.00  0.00     0.056 A 
BRANCH  12  18
HETATM   18  O1  UNL     1      91.246  98.014 -43.701  1.00  0.00    -0.354 OA
HETATM   19  C1  UNL     1      91.254  97.637 -42.340  1.00  0.00     0.210 C 
ENDBRANCH  12  18
ENDBRANCH   9  11
ENDBRANCH   1   9
BRANCH   3  20
HETATM   20  C11 UNL     1      90.931  91.714 -47.594  1.00  0.00    -0.032 C 
HETATM   21  C12 UNL     1      91.520  90.533 -47.682  1.00  0.00    -0.015 C 
HETATM   22  C13 UNL     1      91.165  89.879 -48.967  1.00  0.00     0.060 C 
HETATM   23  C14 UNL     1      90.662  91.004 -49.798  1.00  0.00     0.128 C 
HETATM   24  C16 UNL     1      90.117  91.977 -48.808  1.00  0.00     0.072 C 
BRANCH  23  25
HETATM   25  O2  UNL     1      89.758  90.631 -50.772  1.00  0.00    -0.390 OA
HETATM   26  C15 UNL     1      89.275  89.359 -50.659  1.00  0.00     0.202 C 
ENDBRANCH  23  25
ENDBRANCH   3  20
BRANCH   6  27
HETATM   27  N3  UNL     1      91.419  92.627 -42.957  1.00  0.00    -0.221 N 
ATOM     28  H3  UNL     1      90.669  92.839 -42.300  1.00  0.00     0.178 HD
BRANCH  27  29
HETATM   29  C18 UNL     1      92.518  91.865 -42.468  1.00  0.00     0.099 C 
HETATM   30  C19 UNL     1      93.585  91.580 -43.495  1.00  0.00     0.026 C 
HETATM   31  C20 UNL     1      94.913  91.962 -42.869  1.00  0.00     0.002 C 
HETATM   32  C21 UNL     1      94.631  92.133 -41.405  1.00  0.00     0.002 C 
HETATM   33  C22 UNL     1      93.235  92.694 -41.411  1.00  0.00     0.026 C 
ENDBRANCH  27  29
ENDBRANCH   6  27
TORSDOF 7
ENDMDL
