MODEL 1
REMARK VINA RESULT: -7.751031878      0.000      0.000
REMARK  10 active torsions:
REMARK  status: ('A' for Active; 'I' for Inactive)
REMARK    1  A    between atoms: C2_2  and  C3_3 
REMARK    2  A    between atoms: C3_3  and  C4_4 
REMARK    3  A    between atoms: C4_4  and  C5_5 
REMARK    4  A    between atoms: N3_11  and  C7_13 
REMARK    5  A    between atoms: C8_16  and  N5_17 
REMARK    6  A    between atoms: N5_17  and  C9_19 
REMARK    7  A    between atoms: C15_29  and  N8_30 
REMARK    8  A    between atoms: N8_30  and  C16_32 
REMARK    9  A    between atoms: C16_32  and  C17_33 
REMARK   10  A    between atoms: C17_33  and  C18_34 
ROOT
HETATM    1  C7  UNL     1     -57.344   2.063  -3.360  1.00  0.00     0.713 A 
HETATM    2  N4  UNL     1     -56.759   1.742  -4.537  1.00  0.00    -0.021 N 
ATOM      3  H4  UNL     1     -56.288   2.467  -5.077  1.00  0.00     0.203 HD
HETATM    4  C8  UNL     1     -56.790   0.499  -4.999  1.00  0.00     0.713 A 
HETATM    5  N7  UNL     1     -57.414  -0.461  -4.280  1.00  0.00    -0.021 N 
ATOM      6  H7  UNL     1     -57.435  -1.417  -4.637  1.00  0.00     0.203 HD
HETATM    7  C15 UNL     1     -58.008  -0.187  -3.106  1.00  0.00     0.707 A 
HETATM    8  N9  UNL     1     -57.957   1.083  -2.672  1.00  0.00    -0.021 N 
ATOM      9  H9  UNL     1     -58.403   1.314  -1.784  1.00  0.00     0.203 HD
ENDROOT
BRANCH   1  10
HETATM   10  N3  UNL     1     -57.268   3.405  -2.940  1.00  0.00    -0.168 N 
HETATM   11  C6  UNL     1     -56.218   3.872  -2.306  1.00  0.00     0.180 A 
HETATM   12  N2  UNL     1     -55.098   3.234  -1.955  1.00  0.00    -0.279 N 
HETATM   13  S1  UNL     1     -55.924   5.445  -1.715  1.00  0.00    -0.037 SA
HETATM   14  N1  UNL     1     -54.196   3.882  -1.339  1.00  0.00    -0.296 N 
ATOM     15  H2  UNL     1     -54.970   2.247  -2.177  1.00  0.00     0.189 HD
HETATM   16  C5  UNL     1     -54.370   5.164  -1.056  1.00  0.00     0.069 A 
ATOM     17  H1  UNL     1     -53.334   3.413  -1.061  1.00  0.00     0.187 HD
ATOM     18  H3  UNL     1     -58.051   4.030  -3.133  1.00  0.00     0.186 HD
BRANCH  16  19
HETATM   19  C4  UNL     1     -53.438   6.110  -0.341  1.00  0.00     0.066 C 
BRANCH  19  20
HETATM   20  C3  UNL     1     -52.149   6.101  -1.172  1.00  0.00     0.006 C 
BRANCH  20  21
HETATM   21  C2  UNL     1     -52.298   7.030  -2.358  1.00  0.00    -0.004 C 
HETATM   22  C1  UNL     1     -51.756   8.387  -1.969  1.00  0.00     0.005 C 
ENDBRANCH  20  21
ENDBRANCH  19  20
ENDBRANCH  16  19
ENDBRANCH   1  10
BRANCH   4  23
HETATM   23  N5  UNL     1     -56.161   0.211  -6.239  1.00  0.00    -0.175 N 
ATOM     24  H5  UNL     1     -56.231  -0.732  -6.619  1.00  0.00     0.186 HD
BRANCH  23  25
HETATM   25  C9  UNL     1     -55.515   1.090  -6.890  1.00  0.00     0.121 A 
HETATM   26  C10 UNL     1     -56.191   2.041  -7.617  1.00  0.00     0.049 A 
HETATM   27  C11 UNL     1     -55.524   3.008  -8.336  1.00  0.00     0.006 A 
HETATM   28  C12 UNL     1     -54.148   2.999  -8.309  1.00  0.00     0.025 A 
HETATM   29  C13 UNL     1     -53.461   2.047  -7.582  1.00  0.00     0.007 A 
HETATM   30  C14 UNL     1     -51.978   2.046  -7.559  1.00  0.00     0.068 C 
HETATM   31  N6  UNL     1     -54.173   1.126  -6.899  1.00  0.00    -0.346 N 
ATOM     32  H6  UNL     1     -53.666   0.422  -6.362  1.00  0.00     0.167 HD
ENDBRANCH  23  25
ENDBRANCH   4  23
BRANCH   7  33
HETATM   33  N8  UNL     1     -58.578  -1.137  -2.482  1.00  0.00    -0.225 N 
ATOM     34  H8  UNL     1     -57.994  -1.730  -1.892  1.00  0.00     0.177 HD
BRANCH  33  35
HETATM   35  C16 UNL     1     -59.994  -1.443  -2.546  1.00  0.00     0.142 C 
BRANCH  35  36
HETATM   36  C17 UNL     1     -60.407  -1.945  -1.185  1.00  0.00     0.058 C 
BRANCH  36  37
HETATM   37  C18 UNL     1     -60.458  -3.400  -1.074  1.00  0.00    -0.057 A 
HETATM   38  C19 UNL     1     -61.643  -4.092  -1.198  1.00  0.00     0.007 A 
HETATM   39  C20 UNL     1     -61.681  -5.479  -1.091  1.00  0.00     0.001 A 
HETATM   40  C21 UNL     1     -60.525  -6.195  -0.857  1.00  0.00     0.000 A 
HETATM   41  C22 UNL     1     -59.332  -5.501  -0.732  1.00  0.00     0.001 A 
HETATM   42  C23 UNL     1     -59.298  -4.110  -0.840  1.00  0.00     0.007 A 
ENDBRANCH  36  37
ENDBRANCH  35  36
ENDBRANCH  33  35
ENDBRANCH   7  33
TORSDOF 10
ENDMDL
MODEL 2
REMARK VINA RESULT: -7.688980382      9.115     14.252
REMARK  10 active torsions:
REMARK  status: ('A' for Active; 'I' for Inactive)
REMARK    1  A    between atoms: C2_2  and  C3_3 
REMARK    2  A    between atoms: C3_3  and  C4_4 
REMARK    3  A    between atoms: C4_4  and  C5_5 
REMARK    4  A    between atoms: N3_11  and  C7_13 
REMARK    5  A    between atoms: C8_16  and  N5_17 
REMARK    6  A    between atoms: N5_17  and  C9_19 
REMARK    7  A    between atoms: C15_29  and  N8_30 
REMARK    8  A    between atoms: N8_30  and  C16_32 
REMARK    9  A    between atoms: C16_32  and  C17_33 
REMARK   10  A    between atoms: C17_33  and  C18_34 
ROOT
HETATM    1  C7  UNL     1     -58.271   7.878   6.533  1.00  0.00     0.713 A 
HETATM    2  N4  UNL     1     -59.368   8.343   5.893  1.00  0.00    -0.021 N 
ATOM      3  H4  UNL     1     -59.673   7.894   5.029  1.00  0.00     0.203 HD
HETATM    4  C8  UNL     1     -60.054   9.373   6.371  1.00  0.00     0.713 A 
HETATM    5  N7  UNL     1     -59.648   9.965   7.517  1.00  0.00    -0.021 N 
ATOM      6  H7  UNL     1     -60.178  10.756   7.883  1.00  0.00     0.203 HD
HETATM    7  C15 UNL     1     -58.564   9.535   8.186  1.00  0.00     0.707 A 
HETATM    8  N9  UNL     1     -57.896   8.492   7.669  1.00  0.00    -0.021 N 
ATOM      9  H9  UNL     1     -57.069   8.150   8.159  1.00  0.00     0.203 HD
ENDROOT
BRANCH   1  10
HETATM   10  N3  UNL     1     -57.599   6.782   5.960  1.00  0.00    -0.168 N 
HETATM   11  C6  UNL     1     -56.904   6.899   4.852  1.00  0.00     0.180 A 
HETATM   12  N2  UNL     1     -56.704   7.985   4.099  1.00  0.00    -0.279 N 
HETATM   13  S1  UNL     1     -56.023   5.715   3.997  1.00  0.00    -0.037 SA
HETATM   14  N1  UNL     1     -55.990   7.878   3.055  1.00  0.00    -0.296 N 
ATOM     15  H2  UNL     1     -57.115   8.882   4.359  1.00  0.00     0.189 HD
HETATM   16  C5  UNL     1     -55.458   6.711   2.725  1.00  0.00     0.069 A 
ATOM     17  H1  UNL     1     -55.826   8.695   2.466  1.00  0.00     0.187 HD
ATOM     18  H3  UNL     1     -57.653   5.871   6.417  1.00  0.00     0.186 HD
BRANCH  16  19
HETATM   19  C4  UNL     1     -54.589   6.367   1.541  1.00  0.00     0.066 C 
BRANCH  19  20
HETATM   20  C3  UNL     1     -55.539   5.718   0.527  1.00  0.00     0.006 C 
BRANCH  20  21
HETATM   21  C2  UNL     1     -54.754   5.235  -0.674  1.00  0.00    -0.004 C 
HETATM   22  C1  UNL     1     -55.375   3.944  -1.159  1.00  0.00     0.005 C 
ENDBRANCH  20  21
ENDBRANCH  19  20
ENDBRANCH  16  19
ENDBRANCH   1  10
BRANCH   4  23
HETATM   23  N5  UNL     1     -61.198   9.824   5.664  1.00  0.00    -0.175 N 
ATOM     24  H5  UNL     1     -62.118   9.711   6.090  1.00  0.00     0.186 HD
BRANCH  23  25
HETATM   25  C9  UNL     1     -61.116  10.364   4.517  1.00  0.00     0.121 A 
HETATM   26  C10 UNL     1     -60.187  11.351   4.287  1.00  0.00     0.049 A 
HETATM   27  C11 UNL     1     -60.069  11.959   3.057  1.00  0.00     0.006 A 
HETATM   28  C12 UNL     1     -60.916  11.551   2.051  1.00  0.00     0.025 A 
HETATM   29  C13 UNL     1     -61.853  10.561   2.274  1.00  0.00     0.007 A 
HETATM   30  C14 UNL     1     -62.761  10.129   1.183  1.00  0.00     0.068 C 
HETATM   31  N6  UNL     1     -61.918  10.005   3.501  1.00  0.00    -0.346 N 
ATOM     32  H6  UNL     1     -62.611   9.274   3.666  1.00  0.00     0.167 HD
ENDBRANCH  23  25
ENDBRANCH   4  23
BRANCH   7  33
HETATM   33  N8  UNL     1     -58.239  10.139   9.257  1.00  0.00    -0.225 N 
ATOM     34  H8  UNL     1     -58.615   9.777  10.134  1.00  0.00     0.177 HD
BRANCH  33  35
HETATM   35  C16 UNL     1     -57.376  11.302   9.327  1.00  0.00     0.142 C 
BRANCH  35  36
HETATM   36  C17 UNL     1     -56.000  10.817   9.712  1.00  0.00     0.058 C 
BRANCH  36  37
HETATM   37  C18 UNL     1     -54.947  11.199   8.775  1.00  0.00    -0.057 A 
HETATM   38  C19 UNL     1     -54.866  10.647   7.515  1.00  0.00     0.007 A 
HETATM   39  C20 UNL     1     -53.859  11.018   6.629  1.00  0.00     0.001 A 
HETATM   40  C21 UNL     1     -52.915  11.955   6.997  1.00  0.00     0.000 A 
HETATM   41  C22 UNL     1     -52.994  12.512   8.263  1.00  0.00     0.001 A 
HETATM   42  C23 UNL     1     -54.006  12.136   9.148  1.00  0.00     0.007 A 
ENDBRANCH  36  37
ENDBRANCH  35  36
ENDBRANCH  33  35
ENDBRANCH   7  33
TORSDOF 10
ENDMDL
MODEL 3
REMARK VINA RESULT: -7.636820890      5.955     10.915
REMARK  10 active torsions:
REMARK  status: ('A' for Active; 'I' for Inactive)
REMARK    1  A    between atoms: C2_2  and  C3_3 
REMARK    2  A    between atoms: C3_3  and  C4_4 
REMARK    3  A    between atoms: C4_4  and  C5_5 
REMARK    4  A    between atoms: N3_11  and  C7_13 
REMARK    5  A    between atoms: C8_16  and  N5_17 
REMARK    6  A    between atoms: N5_17  and  C9_19 
REMARK    7  A    between atoms: C15_29  and  N8_30 
REMARK    8  A    between atoms: N8_30  and  C16_32 
REMARK    9  A    between atoms: C16_32  and  C17_33 
REMARK   10  A    between atoms: C17_33  and  C18_34 
ROOT
HETATM    1  C7  UNL     1     -54.665   6.384   1.973  1.00  0.00     0.713 A 
HETATM    2  N4  UNL     1     -55.842   6.126   1.358  1.00  0.00    -0.021 N 
ATOM      3  H4  UNL     1     -55.844   5.839   0.379  1.00  0.00     0.203 HD
HETATM    4  C8  UNL     1     -56.992   6.239   2.009  1.00  0.00     0.713 A 
HETATM    5  N7  UNL     1     -56.986   6.618   3.307  1.00  0.00    -0.021 N 
ATOM      6  H7  UNL     1     -57.872   6.703   3.805  1.00  0.00     0.203 HD
HETATM    7  C15 UNL     1     -55.840   6.884   3.957  1.00  0.00     0.707 A 
HETATM    8  N9  UNL     1     -54.697   6.760   3.264  1.00  0.00    -0.021 N 
ATOM      9  H9  UNL     1     -53.815   6.959   3.737  1.00  0.00     0.203 HD
ENDROOT
BRANCH   1  10
HETATM   10  N3  UNL     1     -53.489   6.242   1.213  1.00  0.00    -0.168 N 
HETATM   11  C6  UNL     1     -53.150   7.116   0.294  1.00  0.00     0.180 A 
HETATM   12  N2  UNL     1     -53.790   8.226  -0.084  1.00  0.00    -0.279 N 
HETATM   13  S1  UNL     1     -51.785   7.134  -0.730  1.00  0.00    -0.037 SA
HETATM   14  N1  UNL     1     -53.282   8.938  -1.005  1.00  0.00    -0.296 N 
ATOM     15  H2  UNL     1     -54.667   8.497   0.359  1.00  0.00     0.189 HD
HETATM   16  C5  UNL     1     -52.141   8.580  -1.573  1.00  0.00     0.069 A 
ATOM     17  H1  UNL     1     -53.755   9.789  -1.308  1.00  0.00     0.187 HD
ATOM     18  H3  UNL     1     -52.883   5.438   1.380  1.00  0.00     0.186 HD
BRANCH  16  19
HETATM   19  C4  UNL     1     -51.373   9.273  -2.672  1.00  0.00     0.066 C 
BRANCH  19  20
HETATM   20  C3  UNL     1     -50.234  10.009  -1.955  1.00  0.00     0.006 C 
BRANCH  20  21
HETATM   21  C2  UNL     1     -49.523  10.925  -2.929  1.00  0.00    -0.004 C 
HETATM   22  C1  UNL     1     -49.669  10.344  -4.318  1.00  0.00     0.005 C 
ENDBRANCH  20  21
ENDBRANCH  19  20
ENDBRANCH  16  19
ENDBRANCH   1  10
BRANCH   4  23
HETATM   23  N5  UNL     1     -58.201   5.956   1.321  1.00  0.00    -0.175 N 
ATOM     24  H5  UNL     1     -59.084   6.263   1.728  1.00  0.00     0.186 HD
BRANCH  23  25
HETATM   25  C9  UNL     1     -58.221   5.332   0.215  1.00  0.00     0.121 A 
HETATM   26  C10 UNL     1     -58.657   4.030   0.168  1.00  0.00     0.049 A 
HETATM   27  C11 UNL     1     -58.692   3.322  -1.013  1.00  0.00     0.006 A 
HETATM   28  C12 UNL     1     -58.274   3.958  -2.160  1.00  0.00     0.025 A 
HETATM   29  C13 UNL     1     -57.833   5.267  -2.122  1.00  0.00     0.007 A 
HETATM   30  C14 UNL     1     -57.385   5.944  -3.364  1.00  0.00     0.068 C 
HETATM   31  N6  UNL     1     -57.823   5.905  -0.933  1.00  0.00    -0.346 N 
ATOM     32  H6  UNL     1     -57.497   6.871  -0.905  1.00  0.00     0.167 HD
ENDBRANCH  23  25
ENDBRANCH   4  23
BRANCH   7  33
HETATM   33  N8  UNL     1     -55.907   7.236   5.177  1.00  0.00    -0.225 N 
ATOM     34  H8  UNL     1     -55.303   6.752   5.841  1.00  0.00     0.177 HD
BRANCH  33  35
HETATM   35  C16 UNL     1     -56.777   8.274   5.696  1.00  0.00     0.142 C 
BRANCH  35  36
HETATM   36  C17 UNL     1     -56.150   9.601   5.348  1.00  0.00     0.058 C 
BRANCH  36  37
HETATM   37  C18 UNL     1     -55.649  10.346   6.500  1.00  0.00    -0.057 A 
HETATM   38  C19 UNL     1     -54.341  10.777   6.567  1.00  0.00     0.007 A 
HETATM   39  C20 UNL     1     -53.873  11.486   7.669  1.00  0.00     0.001 A 
HETATM   40  C21 UNL     1     -54.714  11.775   8.725  1.00  0.00     0.000 A 
HETATM   41  C22 UNL     1     -56.029  11.342   8.659  1.00  0.00     0.001 A 
HETATM   42  C23 UNL     1     -56.495  10.632   7.552  1.00  0.00     0.007 A 
ENDBRANCH  36  37
ENDBRANCH  35  36
ENDBRANCH  33  35
ENDBRANCH   7  33
TORSDOF 10
ENDMDL
MODEL 4
REMARK VINA RESULT: -7.590498261      3.092      7.620
REMARK  10 active torsions:
REMARK  status: ('A' for Active; 'I' for Inactive)
REMARK    1  A    between atoms: C2_2  and  C3_3 
REMARK    2  A    between atoms: C3_3  and  C4_4 
REMARK    3  A    between atoms: C4_4  and  C5_5 
REMARK    4  A    between atoms: N3_11  and  C7_13 
REMARK    5  A    between atoms: C8_16  and  N5_17 
REMARK    6  A    between atoms: N5_17  and  C9_19 
REMARK    7  A    between atoms: C15_29  and  N8_30 
REMARK    8  A    between atoms: N8_30  and  C16_32 
REMARK    9  A    between atoms: C16_32  and  C17_33 
REMARK   10  A    between atoms: C17_33  and  C18_34 
ROOT
HETATM    1  C7  UNL     1     -59.531   1.132  -5.335  1.00  0.00     0.713 A 
HETATM    2  N4  UNL     1     -59.517  -0.220  -5.314  1.00  0.00    -0.021 N 
ATOM      3  H4  UNL     1     -59.115  -0.730  -6.101  1.00  0.00     0.203 HD
HETATM    4  C8  UNL     1     -60.020  -0.893  -4.287  1.00  0.00     0.713 A 
HETATM    5  N7  UNL     1     -60.552  -0.214  -3.246  1.00  0.00    -0.021 N 
ATOM      6  H7  UNL     1     -60.937  -0.734  -2.457  1.00  0.00     0.203 HD
HETATM    7  C15 UNL     1     -60.586   1.129  -3.225  1.00  0.00     0.707 A 
HETATM    8  N9  UNL     1     -60.069   1.774  -4.283  1.00  0.00    -0.021 N 
ATOM      9  H9  UNL     1     -60.086   2.794  -4.289  1.00  0.00     0.203 HD
ENDROOT
BRANCH   1  10
HETATM   10  N3  UNL     1     -58.979   1.771  -6.462  1.00  0.00    -0.168 N 
HETATM   11  C6  UNL     1     -57.682   1.832  -6.657  1.00  0.00     0.180 A 
HETATM   12  N2  UNL     1     -56.697   1.344  -5.896  1.00  0.00    -0.279 N 
HETATM   13  S1  UNL     1     -56.813   2.549  -7.937  1.00  0.00    -0.037 SA
HETATM   14  N1  UNL     1     -55.497   1.517  -6.273  1.00  0.00    -0.296 N 
ATOM     15  H2  UNL     1     -56.905   0.844  -5.032  1.00  0.00     0.189 HD
HETATM   16  C5  UNL     1     -55.235   2.166  -7.397  1.00  0.00     0.069 A 
ATOM     17  H1  UNL     1     -54.730   1.153  -5.706  1.00  0.00     0.187 HD
ATOM     18  H3  UNL     1     -59.604   2.199  -7.145  1.00  0.00     0.186 HD
BRANCH  16  19
HETATM   19  C4  UNL     1     -53.897   2.477  -8.021  1.00  0.00     0.066 C 
BRANCH  19  20
HETATM   20  C3  UNL     1     -52.880   1.675  -7.199  1.00  0.00     0.006 C 
BRANCH  20  21
HETATM   21  C2  UNL     1     -51.474   2.063  -7.606  1.00  0.00    -0.004 C 
HETATM   22  C1  UNL     1     -50.957   3.080  -6.613  1.00  0.00     0.005 C 
ENDBRANCH  20  21
ENDBRANCH  19  20
ENDBRANCH  16  19
ENDBRANCH   1  10
BRANCH   4  23
HETATM   23  N5  UNL     1     -59.982  -2.312  -4.311  1.00  0.00    -0.175 N 
ATOM     24  H5  UNL     1     -60.225  -2.797  -5.175  1.00  0.00     0.186 HD
BRANCH  23  25
HETATM   25  C9  UNL     1     -59.656  -2.998  -3.294  1.00  0.00     0.121 A 
HETATM   26  C10 UNL     1     -58.353  -3.001  -2.856  1.00  0.00     0.049 A 
HETATM   27  C11 UNL     1     -57.963  -3.733  -1.756  1.00  0.00     0.006 A 
HETATM   28  C12 UNL     1     -58.921  -4.471  -1.098  1.00  0.00     0.025 A 
HETATM   29  C13 UNL     1     -60.232  -4.474  -1.532  1.00  0.00     0.007 A 
HETATM   30  C14 UNL     1     -61.258  -5.273  -0.816  1.00  0.00     0.068 C 
HETATM   31  N6  UNL     1     -60.550  -3.736  -2.616  1.00  0.00    -0.346 N 
ATOM     32  H6  UNL     1     -61.519  -3.739  -2.937  1.00  0.00     0.167 HD
ENDBRANCH  23  25
ENDBRANCH   4  23
BRANCH   7  33
HETATM   33  N8  UNL     1     -61.102   1.703  -2.214  1.00  0.00    -0.225 N 
ATOM     34  H8  UNL     1     -62.079   1.988  -2.283  1.00  0.00     0.177 HD
BRANCH  33  35
HETATM   35  C16 UNL     1     -60.407   1.982  -0.972  1.00  0.00     0.142 C 
BRANCH  35  36
HETATM   36  C17 UNL     1     -58.962   2.247  -1.315  1.00  0.00     0.058 C 
BRANCH  36  37
HETATM   37  C18 UNL     1     -58.535   3.624  -1.084  1.00  0.00    -0.057 A 
HETATM   38  C19 UNL     1     -58.090   4.424  -2.115  1.00  0.00     0.007 A 
HETATM   39  C20 UNL     1     -57.686   5.736  -1.884  1.00  0.00     0.001 A 
HETATM   40  C21 UNL     1     -57.723   6.266  -0.611  1.00  0.00     0.000 A 
HETATM   41  C22 UNL     1     -58.170   5.463   0.426  1.00  0.00     0.001 A 
HETATM   42  C23 UNL     1     -58.575   4.149   0.191  1.00  0.00     0.007 A 
ENDBRANCH  36  37
ENDBRANCH  35  36
ENDBRANCH  33  35
ENDBRANCH   7  33
TORSDOF 10
ENDMDL
MODEL 5
REMARK VINA RESULT: -7.559106180      5.801      9.902
REMARK  10 active torsions:
REMARK  status: ('A' for Active; 'I' for Inactive)
REMARK    1  A    between atoms: C2_2  and  C3_3 
REMARK    2  A    between atoms: C3_3  and  C4_4 
REMARK    3  A    between atoms: C4_4  and  C5_5 
REMARK    4  A    between atoms: N3_11  and  C7_13 
REMARK    5  A    between atoms: C8_16  and  N5_17 
REMARK    6  A    between atoms: N5_17  and  C9_19 
REMARK    7  A    between atoms: C15_29  and  N8_30 
REMARK    8  A    between atoms: N8_30  and  C16_32 
REMARK    9  A    between atoms: C16_32  and  C17_33 
REMARK   10  A    between atoms: C17_33  and  C18_34 
ROOT
HETATM    1  C7  UNL     1     -54.406   6.163   1.387  1.00  0.00     0.713 A 
HETATM    2  N4  UNL     1     -54.463   6.564   2.677  1.00  0.00    -0.021 N 
ATOM      3  H4  UNL     1     -53.661   7.042   3.090  1.00  0.00     0.203 HD
HETATM    4  C8  UNL     1     -55.545   6.347   3.413  1.00  0.00     0.713 A 
HETATM    5  N7  UNL     1     -56.606   5.715   2.863  1.00  0.00    -0.021 N 
ATOM      6  H7  UNL     1     -57.437   5.550   3.432  1.00  0.00     0.203 HD
HETATM    7  C15 UNL     1     -56.592   5.299   1.585  1.00  0.00     0.707 A 
HETATM    8  N9  UNL     1     -55.479   5.536   0.873  1.00  0.00    -0.021 N 
ATOM      9  H9  UNL     1     -55.446   5.228  -0.099  1.00  0.00     0.203 HD
ENDROOT
BRANCH   1  10
HETATM   10  N3  UNL     1     -53.221   6.430   0.674  1.00  0.00    -0.168 N 
HETATM   11  C6  UNL     1     -53.100   7.489  -0.093  1.00  0.00     0.180 A 
HETATM   12  N2  UNL     1     -53.993   8.452  -0.339  1.00  0.00    -0.279 N 
HETATM   13  S1  UNL     1     -51.771   7.996  -1.034  1.00  0.00    -0.037 SA
HETATM   14  N1  UNL     1     -53.668   9.398  -1.122  1.00  0.00    -0.296 N 
ATOM     15  H2  UNL     1     -54.916   8.429   0.094  1.00  0.00     0.189 HD
HETATM   16  C5  UNL     1     -52.466   9.421  -1.678  1.00  0.00     0.069 A 
ATOM     17  H1  UNL     1     -54.335  10.142  -1.323  1.00  0.00     0.187 HD
ATOM     18  H3  UNL     1     -52.437   5.783   0.754  1.00  0.00     0.186 HD
BRANCH  16  19
HETATM   19  C4  UNL     1     -51.882  10.439  -2.626  1.00  0.00     0.066 C 
BRANCH  19  20
HETATM   20  C3  UNL     1     -50.623  10.960  -1.921  1.00  0.00     0.006 C 
BRANCH  20  21
HETATM   21  C2  UNL     1     -49.389  10.420  -2.611  1.00  0.00    -0.004 C 
HETATM   22  C1  UNL     1     -49.685  10.305  -4.090  1.00  0.00     0.005 C 
ENDBRANCH  20  21
ENDBRANCH  19  20
ENDBRANCH  16  19
ENDBRANCH   1  10
BRANCH   4  23
HETATM   23  N5  UNL     1     -55.557   6.788   4.763  1.00  0.00    -0.175 N 
ATOM     24  H5  UNL     1     -54.830   6.456   5.396  1.00  0.00     0.186 HD
BRANCH  23  25
HETATM   25  C9  UNL     1     -56.442   7.582   5.208  1.00  0.00     0.121 A 
HETATM   26  C10 UNL     1     -56.473   8.887   4.778  1.00  0.00     0.049 A 
HETATM   27  C11 UNL     1     -57.418   9.777   5.239  1.00  0.00     0.006 A 
HETATM   28  C12 UNL     1     -58.343   9.322   6.152  1.00  0.00     0.025 A 
HETATM   29  C13 UNL     1     -58.319   8.012   6.589  1.00  0.00     0.007 A 
HETATM   30  C14 UNL     1     -59.320   7.531   7.573  1.00  0.00     0.068 C 
HETATM   31  N6  UNL     1     -57.367   7.190   6.099  1.00  0.00    -0.346 N 
ATOM     32  H6  UNL     1     -57.349   6.223   6.423  1.00  0.00     0.167 HD
ENDBRANCH  23  25
ENDBRANCH   4  23
BRANCH   7  33
HETATM   33  N8  UNL     1     -57.625   4.711   1.132  1.00  0.00    -0.225 N 
ATOM     34  H8  UNL     1     -58.532   5.133   1.331  1.00  0.00     0.177 HD
BRANCH  33  35
HETATM   35  C16 UNL     1     -57.611   3.487   0.355  1.00  0.00     0.142 C 
BRANCH  35  36
HETATM   36  C17 UNL     1     -58.795   3.535  -0.579  1.00  0.00     0.058 C 
BRANCH  36  37
HETATM   37  C18 UNL     1     -58.466   3.946  -1.941  1.00  0.00    -0.057 A 
HETATM   38  C19 UNL     1     -57.864   5.158  -2.204  1.00  0.00     0.007 A 
HETATM   39  C20 UNL     1     -57.555   5.540  -3.505  1.00  0.00     0.001 A 
HETATM   40  C21 UNL     1     -57.844   4.708  -4.567  1.00  0.00     0.000 A 
HETATM   41  C22 UNL     1     -58.448   3.489  -4.305  1.00  0.00     0.001 A 
HETATM   42  C23 UNL     1     -58.757   3.109  -2.998  1.00  0.00     0.007 A 
ENDBRANCH  36  37
ENDBRANCH  35  36
ENDBRANCH  33  35
ENDBRANCH   7  33
TORSDOF 10
ENDMDL
