MODEL 1
REMARK VINA RESULT: -8.336456426      0.000      0.000
REMARK  4 active torsions:
REMARK  status: ('A' for Active; 'I' for Inactive)
REMARK    1  A    between atoms: C2_2  and  C3_3 
REMARK    2  A    between atoms: C2_2  and  C5_7 
REMARK    3  A    between atoms: C3_3  and  C4_4 
REMARK    4  A    between atoms: C14_16  and  O3_17 
ROOT
HETATM    1  C5  UNL     1      21.922 -19.103 -22.414  1.00  0.00    -0.002 C 
HETATM    2  C6  UNL     1      20.381 -19.104 -22.473  1.00  0.00     0.006 C 
HETATM    3  C7  UNL     1      20.100 -19.659 -23.886  1.00  0.00     0.006 C 
HETATM    4  C8  UNL     1      21.082 -20.763 -23.873  1.00  0.00    -0.002 C 
HETATM    5  C9  UNL     1      21.441 -21.447 -25.124  1.00  0.00    -0.005 C 
HETATM    6  C10 UNL     1      20.203 -21.944 -25.895  1.00  0.00     0.006 C 
HETATM    7  C11 UNL     1      20.810 -22.535 -27.177  1.00  0.00     0.006 C 
HETATM    8  C12 UNL     1      21.599 -23.770 -26.890  1.00  0.00    -0.001 C 
HETATM    9  C13 UNL     1      22.828 -23.978 -27.749  1.00  0.00     0.038 C 
HETATM   10  C14 UNL     1      23.672 -23.485 -26.561  1.00  0.00     0.127 C 
HETATM   11  C15 UNL     1      22.496 -23.687 -25.703  1.00  0.00    -0.010 C 
HETATM   12  C16 UNL     1      22.565 -25.097 -25.076  1.00  0.00     0.018 C 
HETATM   13  C17 UNL     1      22.121 -22.732 -24.642  1.00  0.00     0.001 C 
HETATM   14  C18 UNL     1      23.183 -22.504 -23.638  1.00  0.00     0.007 C 
HETATM   15  C19 UNL     1      23.341 -21.170 -23.010  1.00  0.00     0.010 C 
HETATM   16  C20 UNL     1      22.367 -20.112 -23.345  1.00  0.00    -0.036 C 
HETATM   17  C21 UNL     1      22.939 -19.384 -24.587  1.00  0.00     0.016 C 
ENDROOT
BRANCH   1  18
HETATM   18  C2  UNL     1      22.348 -18.979 -21.021  1.00  0.00    -0.004 C 
HETATM   19  C1  UNL     1      21.502 -19.864 -20.084  1.00  0.00     0.011 C 
BRANCH  18  20
HETATM   20  C3  UNL     1      22.513 -17.614 -20.424  1.00  0.00     0.117 C 
BRANCH  20  21
HETATM   21  C4  UNL     1      23.980 -17.268 -20.517  1.00  0.00     0.172 C 
HETATM   22  O1  UNL     1      24.422 -16.316 -21.196  1.00  0.00    -0.648 OA
HETATM   23  O2  UNL     1      24.927 -18.033 -19.817  1.00  0.00    -0.648 OA
ENDBRANCH  20  21
ENDBRANCH  18  20
ENDBRANCH   1  18
BRANCH  10  24
HETATM   24  O3  UNL     1      24.215 -22.245 -26.735  1.00  0.00    -0.395 OA
ATOM     25  H3  UNL     1      23.726 -21.543 -26.322  1.00  0.00     0.210 HD
ENDBRANCH  10  24
TORSDOF 4
ENDMDL
MODEL 2
REMARK VINA RESULT: -7.792784934      1.991      6.471
REMARK  4 active torsions:
REMARK  status: ('A' for Active; 'I' for Inactive)
REMARK    1  A    between atoms: C2_2  and  C3_3 
REMARK    2  A    between atoms: C2_2  and  C5_7 
REMARK    3  A    between atoms: C3_3  and  C4_4 
REMARK    4  A    between atoms: C14_16  and  O3_17 
ROOT
HETATM    1  C5  UNL     1      21.583 -22.391 -25.858  1.00  0.00    -0.002 C 
HETATM    2  C6  UNL     1      21.012 -21.170 -26.604  1.00  0.00     0.006 C 
HETATM    3  C7  UNL     1      20.357 -20.358 -25.466  1.00  0.00     0.006 C 
HETATM    4  C8  UNL     1      21.445 -20.481 -24.474  1.00  0.00    -0.002 C 
HETATM    5  C9  UNL     1      21.205 -20.125 -23.068  1.00  0.00    -0.005 C 
HETATM    6  C10 UNL     1      20.602 -18.716 -22.914  1.00  0.00     0.006 C 
HETATM    7  C11 UNL     1      20.366 -18.604 -21.400  1.00  0.00     0.006 C 
HETATM    8  C12 UNL     1      21.655 -18.550 -20.648  1.00  0.00    -0.001 C 
HETATM    9  C13 UNL     1      21.656 -19.232 -19.297  1.00  0.00     0.038 C 
HETATM   10  C14 UNL     1      22.399 -20.408 -19.954  1.00  0.00     0.127 C 
HETATM   11  C15 UNL     1      22.691 -19.524 -21.092  1.00  0.00    -0.010 C 
HETATM   12  C16 UNL     1      24.071 -18.865 -20.879  1.00  0.00     0.018 C 
HETATM   13  C17 UNL     1      22.618 -19.991 -22.491  1.00  0.00     0.001 C 
HETATM   14  C18 UNL     1      23.493 -21.148 -22.782  1.00  0.00     0.007 C 
HETATM   15  C19 UNL     1      23.068 -22.176 -23.762  1.00  0.00     0.010 C 
HETATM   16  C20 UNL     1      21.801 -21.972 -24.494  1.00  0.00    -0.036 C 
HETATM   17  C21 UNL     1      20.696 -22.619 -23.623  1.00  0.00     0.016 C 
ENDROOT
BRANCH   1  18
HETATM   18  C2  UNL     1      22.563 -23.060 -26.713  1.00  0.00    -0.004 C 
HETATM   19  C1  UNL     1      22.491 -22.553 -28.167  1.00  0.00     0.011 C 
BRANCH  18  20
HETATM   20  C3  UNL     1      22.649 -24.556 -26.698  1.00  0.00     0.117 C 
BRANCH  20  21
HETATM   21  C4  UNL     1      23.950 -24.914 -26.018  1.00  0.00     0.172 C 
HETATM   22  O1  UNL     1      25.070 -24.767 -26.553  1.00  0.00    -0.648 OA
HETATM   23  O2  UNL     1      23.940 -25.442 -24.717  1.00  0.00    -0.648 OA
ENDBRANCH  20  21
ENDBRANCH  18  20
ENDBRANCH   1  18
BRANCH  10  24
HETATM   24  O3  UNL     1      21.642 -21.533 -20.108  1.00  0.00    -0.395 OA
ATOM     25  H3  UNL     1      22.006 -22.168 -20.713  1.00  0.00     0.210 HD
ENDBRANCH  10  24
TORSDOF 4
ENDMDL
MODEL 3
REMARK VINA RESULT: -7.428268846      1.569      1.961
REMARK  4 active torsions:
REMARK  status: ('A' for Active; 'I' for Inactive)
REMARK    1  A    between atoms: C2_2  and  C3_3 
REMARK    2  A    between atoms: C2_2  and  C5_7 
REMARK    3  A    between atoms: C3_3  and  C4_4 
REMARK    4  A    between atoms: C14_16  and  O3_17 
ROOT
HETATM    1  C5  UNL     1      21.767 -19.003 -22.513  1.00  0.00    -0.002 C 
HETATM    2  C6  UNL     1      20.233 -19.000 -22.663  1.00  0.00     0.006 C 
HETATM    3  C7  UNL     1      20.034 -19.589 -24.075  1.00  0.00     0.006 C 
HETATM    4  C8  UNL     1      21.008 -20.695 -23.977  1.00  0.00    -0.002 C 
HETATM    5  C9  UNL     1      21.437 -21.411 -25.188  1.00  0.00    -0.005 C 
HETATM    6  C10 UNL     1      20.245 -21.923 -26.019  1.00  0.00     0.006 C 
HETATM    7  C11 UNL     1      20.924 -22.548 -27.247  1.00  0.00     0.006 C 
HETATM    8  C12 UNL     1      21.690 -23.777 -26.884  1.00  0.00    -0.001 C 
HETATM    9  C13 UNL     1      22.966 -24.010 -27.663  1.00  0.00     0.038 C 
HETATM   10  C14 UNL     1      23.741 -23.491 -26.440  1.00  0.00     0.127 C 
HETATM   11  C15 UNL     1      22.515 -23.668 -25.648  1.00  0.00    -0.010 C 
HETATM   12  C16 UNL     1      22.541 -25.062 -24.983  1.00  0.00     0.018 C 
HETATM   13  C17 UNL     1      22.082 -22.686 -24.635  1.00  0.00     0.001 C 
HETATM   14  C18 UNL     1      23.084 -22.436 -23.576  1.00  0.00     0.007 C 
HETATM   15  C19 UNL     1      23.211 -21.088 -22.973  1.00  0.00     0.010 C 
HETATM   16  C20 UNL     1      22.263 -20.035 -23.391  1.00  0.00    -0.036 C 
HETATM   17  C21 UNL     1      22.910 -19.340 -24.614  1.00  0.00     0.016 C 
ENDROOT
BRANCH   1  18
HETATM   18  C2  UNL     1      22.111 -18.845 -21.100  1.00  0.00    -0.004 C 
HETATM   19  C1  UNL     1      22.887 -17.537 -20.845  1.00  0.00     0.011 C 
BRANCH  18  20
HETATM   20  C3  UNL     1      22.769 -19.979 -20.375  1.00  0.00     0.117 C 
BRANCH  20  21
HETATM   21  C4  UNL     1      21.680 -20.721 -19.638  1.00  0.00     0.172 C 
HETATM   22  O1  UNL     1      20.796 -21.396 -20.211  1.00  0.00    -0.648 OA
HETATM   23  O2  UNL     1      21.623 -20.674 -18.236  1.00  0.00    -0.648 OA
ENDBRANCH  20  21
ENDBRANCH  18  20
ENDBRANCH   1  18
BRANCH  10  24
HETATM   24  O3  UNL     1      24.298 -22.257 -26.612  1.00  0.00    -0.395 OA
ATOM     25  H3  UNL     1      23.794 -21.675 -27.168  1.00  0.00     0.210 HD
ENDBRANCH  10  24
TORSDOF 4
ENDMDL
MODEL 4
REMARK VINA RESULT: -6.850967754      1.679      6.541
REMARK  4 active torsions:
REMARK  status: ('A' for Active; 'I' for Inactive)
REMARK    1  A    between atoms: C2_2  and  C3_3 
REMARK    2  A    between atoms: C2_2  and  C5_7 
REMARK    3  A    between atoms: C3_3  and  C4_4 
REMARK    4  A    between atoms: C14_16  and  O3_17 
ROOT
HETATM    1  C5  UNL     1      21.582 -23.133 -24.974  1.00  0.00    -0.002 C 
HETATM    2  C6  UNL     1      20.776 -22.261 -25.958  1.00  0.00     0.006 C 
HETATM    3  C7  UNL     1      20.093 -21.243 -25.020  1.00  0.00     0.006 C 
HETATM    4  C8  UNL     1      21.258 -20.936 -24.165  1.00  0.00    -0.002 C 
HETATM    5  C9  UNL     1      21.074 -20.222 -22.894  1.00  0.00    -0.005 C 
HETATM    6  C10 UNL     1      20.276 -18.915 -23.067  1.00  0.00     0.006 C 
HETATM    7  C11 UNL     1      20.141 -18.400 -21.625  1.00  0.00     0.006 C 
HETATM    8  C12 UNL     1      21.459 -17.969 -21.072  1.00  0.00    -0.001 C 
HETATM    9  C13 UNL     1      21.666 -18.225 -19.595  1.00  0.00     0.038 C 
HETATM   10  C14 UNL     1      22.528 -19.438 -19.983  1.00  0.00     0.127 C 
HETATM   11  C15 UNL     1      22.595 -18.894 -21.346  1.00  0.00    -0.010 C 
HETATM   12  C16 UNL     1      23.870 -18.033 -21.485  1.00  0.00     0.018 C 
HETATM   13  C17 UNL     1      22.489 -19.751 -22.544  1.00  0.00     0.001 C 
HETATM   14  C18 UNL     1      23.506 -20.823 -22.604  1.00  0.00     0.007 C 
HETATM   15  C19 UNL     1      23.169 -22.136 -23.206  1.00  0.00     0.010 C 
HETATM   16  C20 UNL     1      21.835 -22.313 -23.814  1.00  0.00    -0.036 C 
HETATM   17  C21 UNL     1      20.911 -22.812 -22.676  1.00  0.00     0.016 C 
ENDROOT
BRANCH   1  18
HETATM   18  C2  UNL     1      22.585 -23.893 -25.719  1.00  0.00    -0.004 C 
HETATM   19  C1  UNL     1      23.164 -25.049 -24.880  1.00  0.00     0.011 C 
BRANCH  18  20
HETATM   20  C3  UNL     1      23.693 -23.160 -26.413  1.00  0.00     0.117 C 
BRANCH  20  21
HETATM   21  C4  UNL     1      23.407 -23.231 -27.894  1.00  0.00     0.172 C 
HETATM   22  O1  UNL     1      23.973 -22.507 -28.741  1.00  0.00    -0.648 OA
HETATM   23  O2  UNL     1      22.462 -24.147 -28.383  1.00  0.00    -0.648 OA
ENDBRANCH  20  21
ENDBRANCH  18  20
ENDBRANCH   1  18
BRANCH  10  24
HETATM   24  O3  UNL     1      21.942 -20.646 -19.732  1.00  0.00    -0.395 OA
ATOM     25  H3  UNL     1      22.556 -21.355 -19.587  1.00  0.00     0.210 HD
ENDBRANCH  10  24
TORSDOF 4
ENDMDL
MODEL 5
REMARK VINA RESULT: -6.431050496      0.933      1.027
REMARK  4 active torsions:
REMARK  status: ('A' for Active; 'I' for Inactive)
REMARK    1  A    between atoms: C2_2  and  C3_3 
REMARK    2  A    between atoms: C2_2  and  C5_7 
REMARK    3  A    between atoms: C3_3  and  C4_4 
REMARK    4  A    between atoms: C14_16  and  O3_17 
ROOT
HETATM    1  C5  UNL     1      21.805 -20.068 -21.944  1.00  0.00    -0.002 C 
HETATM    2  C6  UNL     1      20.286 -19.884 -22.134  1.00  0.00     0.006 C 
HETATM    3  C7  UNL     1      20.131 -19.942 -23.668  1.00  0.00     0.006 C 
HETATM    4  C8  UNL     1      21.018 -21.095 -23.922  1.00  0.00    -0.002 C 
HETATM    5  C9  UNL     1      21.468 -21.394 -25.290  1.00  0.00    -0.005 C 
HETATM    6  C10 UNL     1      20.295 -21.492 -26.284  1.00  0.00     0.006 C 
HETATM    7  C11 UNL     1      21.001 -21.720 -27.629  1.00  0.00     0.006 C 
HETATM    8  C12 UNL     1      21.656 -23.061 -27.683  1.00  0.00    -0.001 C 
HETATM    9  C13 UNL     1      22.957 -23.125 -28.453  1.00  0.00     0.038 C 
HETATM   10  C14 UNL     1      23.692 -23.118 -27.102  1.00  0.00     0.127 C 
HETATM   11  C15 UNL     1      22.412 -23.447 -26.458  1.00  0.00    -0.010 C 
HETATM   12  C16 UNL     1      22.301 -24.980 -26.308  1.00  0.00     0.018 C 
HETATM   13  C17 UNL     1      21.989 -22.831 -25.185  1.00  0.00     0.001 C 
HETATM   14  C18 UNL     1      22.941 -23.040 -24.073  1.00  0.00     0.007 C 
HETATM   15  C19 UNL     1      23.125 -21.991 -23.041  1.00  0.00     0.010 C 
HETATM   16  C20 UNL     1      22.278 -20.782 -23.105  1.00  0.00    -0.036 C 
HETATM   17  C21 UNL     1      23.044 -19.772 -23.997  1.00  0.00     0.016 C 
ENDROOT
BRANCH   1  18
HETATM   18  C2  UNL     1      22.074 -20.427 -20.552  1.00  0.00    -0.004 C 
HETATM   19  C1  UNL     1      20.990 -21.364 -19.985  1.00  0.00     0.011 C 
BRANCH  18  20
HETATM   20  C3  UNL     1      22.383 -19.344 -19.563  1.00  0.00     0.117 C 
BRANCH  20  21
HETATM   21  C4  UNL     1      23.369 -18.411 -20.226  1.00  0.00     0.172 C 
HETATM   22  O1  UNL     1      23.032 -17.486 -20.996  1.00  0.00    -0.648 OA
HETATM   23  O2  UNL     1      24.745 -18.561 -19.988  1.00  0.00    -0.648 OA
ENDBRANCH  20  21
ENDBRANCH  18  20
ENDBRANCH   1  18
BRANCH  10  24
HETATM   24  O3  UNL     1      24.343 -21.950 -26.824  1.00  0.00    -0.395 OA
ATOM     25  H3  UNL     1      25.201 -22.065 -26.434  1.00  0.00     0.210 HD
ENDBRANCH  10  24
TORSDOF 4
ENDMDL
