MODEL 1
REMARK VINA RESULT: -6.752925156      0.000      0.000
REMARK  5 active torsions:
REMARK  status: ('A' for Active; 'I' for Inactive)
REMARK    1  A    between atoms: N1_2  and  O1_3 
REMARK    2  A    between atoms: C2_5  and  C3_6 
REMARK    3  A    between atoms: C5_10  and  C6_11 
REMARK    4  A    between atoms: C6_11  and  N3_12 
REMARK    5  A    between atoms: C8_18  and  N6_19 
ROOT
HETATM    1  C3  UNL     1      13.591  64.841  23.551  1.00  0.00     0.123 A 
HETATM    2  N2  UNL     1      12.799  65.674  24.244  1.00  0.00    -0.349 N 
ATOM      3  H2  UNL     1      11.807  65.518  24.419  1.00  0.00     0.167 HD
HETATM    4  C4  UNL     1      13.492  66.744  24.677  1.00  0.00     0.116 A 
HETATM    5  C5  UNL     1      14.785  66.564  24.228  1.00  0.00     0.045 A 
HETATM    6  N7  UNL     1      14.809  65.404  23.551  1.00  0.00    -0.342 N 
ATOM      7  H7  UNL     1      15.635  65.008  23.101  1.00  0.00     0.167 HD
ENDROOT
BRANCH   5   8
HETATM    8  C6  UNL     1      15.893  67.519  24.483  1.00  0.00     0.206 C 
BRANCH   8   9
HETATM    9  N3  UNL     1      16.297  68.149  23.239  1.00  0.00    -0.172 N 
HETATM   10  C7  UNL     1      15.794  69.262  22.676  1.00  0.00     0.218 A 
HETATM   11  N4  UNL     1      16.448  69.517  21.512  1.00  0.00    -0.281 N 
HETATM   12  N5  UNL     1      17.352  68.579  21.341  1.00  0.00    -0.131 N 
ATOM     13  H4  UNL     1      16.270  70.299  20.882  1.00  0.00     0.188 HD
HETATM   14  C8  UNL     1      17.263  67.734  22.403  1.00  0.00     0.694 A 
ATOM     15  H5  UNL     1      18.001  68.499  20.558  1.00  0.00     0.205 HD
BRANCH  14  16
HETATM   16  N6  UNL     1      17.997  66.683  22.586  1.00  0.00    -0.233 N 
ATOM     17  H62 UNL     1      18.755  66.379  21.975  1.00  0.00     0.174 HD
ATOM     18  H61 UNL     1      17.899  66.035  23.368  1.00  0.00     0.174 HD
ENDBRANCH  14  16
ENDBRANCH   8   9
ENDBRANCH   5   8
BRANCH   1  19
HETATM   19  C2  UNL     1      13.197  63.564  22.919  1.00  0.00     0.164 C 
HETATM   20  N1  UNL     1      12.754  62.610  23.656  1.00  0.00    -0.273 N 
HETATM   21  C1  UNL     1      12.356  61.341  23.075  1.00  0.00     0.184 C 
BRANCH  20  22
HETATM   22  O1  UNL     1      12.638  62.752  25.022  1.00  0.00    -0.288 OA
ATOM     23  H1  UNL     1      11.833  62.454  25.431  1.00  0.00     0.244 HD
ENDBRANCH  20  22
ENDBRANCH   1  19
TORSDOF 5
ENDMDL
MODEL 2
REMARK VINA RESULT: -6.700058040      1.748      2.225
REMARK  5 active torsions:
REMARK  status: ('A' for Active; 'I' for Inactive)
REMARK    1  A    between atoms: N1_2  and  O1_3 
REMARK    2  A    between atoms: C2_5  and  C3_6 
REMARK    3  A    between atoms: C5_10  and  C6_11 
REMARK    4  A    between atoms: C6_11  and  N3_12 
REMARK    5  A    between atoms: C8_18  and  N6_19 
ROOT
HETATM    1  C3  UNL     1      14.610  64.454  22.897  1.00  0.00     0.123 A 
HETATM    2  N2  UNL     1      15.737  64.366  22.172  1.00  0.00    -0.349 N 
ATOM      3  H2  UNL     1      15.950  63.608  21.523  1.00  0.00     0.167 HD
HETATM    4  C4  UNL     1      16.546  65.413  22.417  1.00  0.00     0.116 A 
HETATM    5  C5  UNL     1      15.885  66.193  23.344  1.00  0.00     0.045 A 
HETATM    6  N7  UNL     1      14.719  65.584  23.612  1.00  0.00    -0.342 N 
ATOM      7  H7  UNL     1      14.016  65.931  24.266  1.00  0.00     0.167 HD
ENDROOT
BRANCH   5   8
HETATM    8  C6  UNL     1      16.426  67.460  23.899  1.00  0.00     0.206 C 
BRANCH   8   9
HETATM    9  N3  UNL     1      15.848  68.592  23.196  1.00  0.00    -0.172 N 
HETATM   10  C7  UNL     1      14.740  69.284  23.516  1.00  0.00     0.218 A 
HETATM   11  N4  UNL     1      14.540  70.269  22.601  1.00  0.00    -0.281 N 
HETATM   12  N5  UNL     1      15.507  70.201  21.714  1.00  0.00    -0.131 N 
ATOM     13  H4  UNL     1      13.775  70.943  22.602  1.00  0.00     0.188 HD
HETATM   14  C8  UNL     1      16.315  69.169  22.077  1.00  0.00     0.694 A 
ATOM     15  H5  UNL     1      15.630  70.809  20.905  1.00  0.00     0.205 HD
BRANCH  14  16
HETATM   16  N6  UNL     1      17.379  68.793  21.441  1.00  0.00    -0.233 N 
ATOM     17  H62 UNL     1      18.272  69.287  21.443  1.00  0.00     0.174 HD
ATOM     18  H61 UNL     1      17.445  67.955  20.863  1.00  0.00     0.174 HD
ENDBRANCH  14  16
ENDBRANCH   8   9
ENDBRANCH   5   8
BRANCH   1  19
HETATM   19  C2  UNL     1      13.483  63.498  22.903  1.00  0.00     0.164 C 
HETATM   20  N1  UNL     1      13.573  62.417  22.214  1.00  0.00    -0.273 N 
HETATM   21  C1  UNL     1      12.489  61.453  22.192  1.00  0.00     0.184 C 
BRANCH  20  22
HETATM   22  O1  UNL     1      14.699  62.131  21.471  1.00  0.00    -0.288 OA
ATOM     23  H1  UNL     1      15.112  62.848  21.002  1.00  0.00     0.244 HD
ENDBRANCH  20  22
ENDBRANCH   1  19
TORSDOF 5
ENDMDL
MODEL 3
REMARK VINA RESULT: -6.680259214      0.750      1.485
REMARK  5 active torsions:
REMARK  status: ('A' for Active; 'I' for Inactive)
REMARK    1  A    between atoms: N1_2  and  O1_3 
REMARK    2  A    between atoms: C2_5  and  C3_6 
REMARK    3  A    between atoms: C5_10  and  C6_11 
REMARK    4  A    between atoms: C6_11  and  N3_12 
REMARK    5  A    between atoms: C8_18  and  N6_19 
ROOT
HETATM    1  C3  UNL     1      13.617  64.424  23.240  1.00  0.00     0.123 A 
HETATM    2  N2  UNL     1      12.758  65.167  23.958  1.00  0.00    -0.349 N 
ATOM      3  H2  UNL     1      11.766  64.958  24.070  1.00  0.00     0.167 HD
HETATM    4  C4  UNL     1      13.383  66.224  24.509  1.00  0.00     0.116 A 
HETATM    5  C5  UNL     1      14.702  66.132  24.111  1.00  0.00     0.045 A 
HETATM    6  N7  UNL     1      14.808  65.034  23.346  1.00  0.00    -0.342 N 
ATOM      7  H7  UNL     1      15.670  64.709  22.908  1.00  0.00     0.167 HD
ENDROOT
BRANCH   5   8
HETATM    8  C6  UNL     1      15.755  67.106  24.498  1.00  0.00     0.206 C 
BRANCH   8   9
HETATM    9  N3  UNL     1      16.359  67.675  23.307  1.00  0.00    -0.172 N 
HETATM   10  C7  UNL     1      17.408  67.205  22.607  1.00  0.00     0.218 A 
HETATM   11  N4  UNL     1      17.661  68.031  21.558  1.00  0.00    -0.281 N 
HETATM   12  N5  UNL     1      16.785  69.010  21.593  1.00  0.00    -0.131 N 
ATOM     13  H4  UNL     1      18.400  67.912  20.866  1.00  0.00     0.188 HD
HETATM   14  C8  UNL     1      15.982  68.795  22.668  1.00  0.00     0.694 A 
ATOM     15  H5  UNL     1      16.721  69.788  20.936  1.00  0.00     0.205 HD
BRANCH  14  16
HETATM   16  N6  UNL     1      14.996  69.554  23.030  1.00  0.00    -0.233 N 
ATOM     17  H62 UNL     1      14.541  70.250  22.439  1.00  0.00     0.174 HD
ATOM     18  H61 UNL     1      14.562  69.542  23.953  1.00  0.00     0.174 HD
ENDBRANCH  14  16
ENDBRANCH   8   9
ENDBRANCH   5   8
BRANCH   1  19
HETATM   19  C2  UNL     1      13.308  63.190  22.490  1.00  0.00     0.164 C 
HETATM   20  N1  UNL     1      12.915  62.147  23.130  1.00  0.00    -0.273 N 
HETATM   21  C1  UNL     1      12.602  60.916  22.431  1.00  0.00     0.184 C 
BRANCH  20  22
HETATM   22  O1  UNL     1      12.776  62.158  24.502  1.00  0.00    -0.288 OA
ATOM     23  H1  UNL     1      12.354  61.409  24.908  1.00  0.00     0.244 HD
ENDBRANCH  20  22
ENDBRANCH   1  19
TORSDOF 5
ENDMDL
MODEL 4
REMARK VINA RESULT: -6.654136319      1.319      1.658
REMARK  5 active torsions:
REMARK  status: ('A' for Active; 'I' for Inactive)
REMARK    1  A    between atoms: N1_2  and  O1_3 
REMARK    2  A    between atoms: C2_5  and  C3_6 
REMARK    3  A    between atoms: C5_10  and  C6_11 
REMARK    4  A    between atoms: C6_11  and  N3_12 
REMARK    5  A    between atoms: C8_18  and  N6_19 
ROOT
HETATM    1  C3  UNL     1      13.323  64.930  23.759  1.00  0.00     0.123 A 
HETATM    2  N2  UNL     1      14.230  64.356  22.952  1.00  0.00    -0.349 N 
ATOM      3  H2  UNL     1      14.081  63.487  22.440  1.00  0.00     0.167 HD
HETATM    4  C4  UNL     1      15.363  65.083  22.911  1.00  0.00     0.116 A 
HETATM    5  C5  UNL     1      15.146  66.167  23.737  1.00  0.00     0.045 A 
HETATM    6  N7  UNL     1      13.904  66.043  24.233  1.00  0.00    -0.342 N 
ATOM      7  H7  UNL     1      13.465  66.701  24.877  1.00  0.00     0.167 HD
ENDROOT
BRANCH   5   8
HETATM    8  C6  UNL     1      16.148  67.235  23.985  1.00  0.00     0.206 C 
BRANCH   8   9
HETATM    9  N3  UNL     1      15.887  68.366  23.113  1.00  0.00    -0.172 N 
HETATM   10  C7  UNL     1      14.961  69.331  23.268  1.00  0.00     0.218 A 
HETATM   11  N4  UNL     1      15.042  70.207  22.231  1.00  0.00    -0.281 N 
HETATM   12  N5  UNL     1      16.004  69.802  21.432  1.00  0.00    -0.131 N 
ATOM     13  H4  UNL     1      14.459  71.033  22.097  1.00  0.00     0.188 HD
HETATM   14  C8  UNL     1      16.527  68.669  21.972  1.00  0.00     0.694 A 
ATOM     15  H5  UNL     1      16.303  70.254  20.568  1.00  0.00     0.205 HD
BRANCH  14  16
HETATM   16  N6  UNL     1      17.499  67.979  21.465  1.00  0.00    -0.233 N 
ATOM     17  H62 UNL     1      17.834  67.084  21.821  1.00  0.00     0.174 HD
ATOM     18  H61 UNL     1      18.043  68.254  20.647  1.00  0.00     0.174 HD
ENDBRANCH  14  16
ENDBRANCH   8   9
ENDBRANCH   5   8
BRANCH   1  19
HETATM   19  C2  UNL     1      11.964  64.434  24.059  1.00  0.00     0.164 C 
HETATM   20  N1  UNL     1      11.813  63.225  24.466  1.00  0.00    -0.273 N 
HETATM   21  C1  UNL     1      10.496  62.699  24.772  1.00  0.00     0.184 C 
BRANCH  20  22
HETATM   22  O1  UNL     1      12.892  62.382  24.628  1.00  0.00    -0.288 OA
ATOM     23  H1  UNL     1      13.393  62.152  23.853  1.00  0.00     0.244 HD
ENDBRANCH  20  22
ENDBRANCH   1  19
TORSDOF 5
ENDMDL
MODEL 5
REMARK VINA RESULT: -6.567099742      2.988      3.567
REMARK  5 active torsions:
REMARK  status: ('A' for Active; 'I' for Inactive)
REMARK    1  A    between atoms: N1_2  and  O1_3 
REMARK    2  A    between atoms: C2_5  and  C3_6 
REMARK    3  A    between atoms: C5_10  and  C6_11 
REMARK    4  A    between atoms: C6_11  and  N3_12 
REMARK    5  A    between atoms: C8_18  and  N6_19 
ROOT
HETATM    1  C3  UNL     1      13.352  67.254  24.688  1.00  0.00     0.123 A 
HETATM    2  N2  UNL     1      13.800  67.559  25.916  1.00  0.00    -0.349 N 
ATOM      3  H2  UNL     1      13.210  67.639  26.745  1.00  0.00     0.167 HD
HETATM    4  C4  UNL     1      15.133  67.745  25.907  1.00  0.00     0.116 A 
HETATM    5  C5  UNL     1      15.534  67.544  24.601  1.00  0.00     0.045 A 
HETATM    6  N7  UNL     1      14.432  67.249  23.892  1.00  0.00    -0.342 N 
ATOM      7  H7  UNL     1      14.419  67.050  22.891  1.00  0.00     0.167 HD
ENDROOT
BRANCH   5   8
HETATM    8  C6  UNL     1      16.941  67.651  24.139  1.00  0.00     0.206 C 
BRANCH   8   9
HETATM    9  N3  UNL     1      17.037  67.228  22.753  1.00  0.00    -0.172 N 
HETATM   10  C7  UNL     1      17.135  65.973  22.278  1.00  0.00     0.218 A 
HETATM   11  N4  UNL     1      17.203  66.007  20.921  1.00  0.00    -0.281 N 
HETATM   12  N5  UNL     1      17.150  67.264  20.543  1.00  0.00    -0.131 N 
ATOM     13  H4  UNL     1      17.281  65.198  20.304  1.00  0.00     0.188 HD
HETATM   14  C8  UNL     1      17.048  68.020  21.668  1.00  0.00     0.694 A 
ATOM     15  H5  UNL     1      17.181  67.610  19.584  1.00  0.00     0.205 HD
BRANCH  14  16
HETATM   16  N6  UNL     1      16.972  69.313  21.697  1.00  0.00    -0.233 N 
ATOM     17  H62 UNL     1      17.689  69.953  21.355  1.00  0.00     0.174 HD
ATOM     18  H61 UNL     1      16.182  69.841  22.069  1.00  0.00     0.174 HD
ENDBRANCH  14  16
ENDBRANCH   8   9
ENDBRANCH   5   8
BRANCH   1  19
HETATM   19  C2  UNL     1      11.953  66.980  24.298  1.00  0.00     0.164 C 
HETATM   20  N1  UNL     1      11.085  67.924  24.370  1.00  0.00    -0.273 N 
HETATM   21  C1  UNL     1       9.702  67.696  23.996  1.00  0.00     0.184 C 
BRANCH  20  22
HETATM   22  O1  UNL     1      11.431  69.186  24.803  1.00  0.00    -0.288 OA
ATOM     23  H1  UNL     1      11.405  69.893  24.169  1.00  0.00     0.244 HD
ENDBRANCH  20  22
ENDBRANCH   1  19
TORSDOF 5
ENDMDL
