MODEL 1
REMARK VINA RESULT: -7.147292788      0.000      0.000
REMARK  7 active torsions:
REMARK  status: ('A' for Active; 'I' for Inactive)
REMARK    1  A    between atoms: C2_2  and  C4_4 
REMARK    2  A    between atoms: C2_2  and  C7_10 
REMARK    3  A    between atoms: C4_4  and  C5_5 
REMARK    4  A    between atoms: C5_5  and  S1_6 
REMARK    5  A    between atoms: C7_10  and  O4_12 
REMARK    6  A    between atoms: O4_12  and  C8_13 
REMARK    7  A    between atoms: C13_19  and  O6_20 
ROOT
HETATM    1  C8  UNL     1       8.730 -10.539   6.684  1.00  0.00     0.210 C 
HETATM    2  C9  UNL     1       9.845 -11.463   6.372  1.00  0.00     0.166 C 
HETATM    3  O5  UNL     1      10.106 -11.878   5.266  1.00  0.00    -0.294 OA
HETATM    4  C10 UNL     1      10.542 -11.763   7.612  1.00  0.00     0.031 C 
HETATM    5  C11 UNL     1      10.131 -13.020   8.336  1.00  0.00     0.020 C 
HETATM    6  C12 UNL     1      11.196 -14.070   8.040  1.00  0.00     0.033 C 
HETATM    7  C13 UNL     1      12.470 -13.735   8.812  1.00  0.00     0.118 C 
HETATM    8  C14 UNL     1      12.568 -12.250   8.915  1.00  0.00     0.037 C 
HETATM    9  C15 UNL     1      12.021 -11.600   7.655  1.00  0.00     0.005 C 
HETATM   10  C16 UNL     1      11.805 -10.114   7.937  1.00  0.00     0.012 C 
HETATM   11  C17 UNL     1      10.396 -10.491   8.412  1.00  0.00     0.013 C 
HETATM   12  C18 UNL     1       9.323  -9.672   7.769  1.00  0.00    -0.009 C 
HETATM   13  C19 UNL     1       9.936  -8.461   7.099  1.00  0.00     0.018 C 
HETATM   14  C20 UNL     1       8.313  -9.191   8.758  1.00  0.00     0.018 C 
ENDROOT
BRANCH   1  15
HETATM   15  O4  UNL     1       8.365  -9.737   5.566  1.00  0.00    -0.307 OA
BRANCH  15  16
HETATM   16  C7  UNL     1       7.035  -9.553   5.236  1.00  0.00     0.267 C 
HETATM   17  O3  UNL     1       6.316  -8.922   6.053  1.00  0.00    -0.264 OA
BRANCH  16  18
HETATM   18  C2  UNL     1       6.435 -10.062   3.982  1.00  0.00     0.042 C 
HETATM   19  C1  UNL     1       5.314 -11.029   4.296  1.00  0.00     0.025 C 
HETATM   20  C3  UNL     1       5.826  -8.931   3.161  1.00  0.00     0.025 C 
BRANCH  18  21
HETATM   21  C4  UNL     1       7.474 -10.812   3.190  1.00  0.00     0.034 C 
BRANCH  21  22
HETATM   22  C5  UNL     1       7.332 -12.295   3.339  1.00  0.00     0.141 C 
BRANCH  22  23
HETATM   23  S1  UNL     1       8.181 -13.102   2.005  1.00  0.00     0.140 S 
HETATM   24  C6  UNL     1       9.298 -14.342   2.566  1.00  0.00     0.161 C 
HETATM   25  O1  UNL     1       8.896 -12.042   1.211  1.00  0.00    -0.228 OA
HETATM   26  O2  UNL     1       7.182 -13.737   1.075  1.00  0.00    -0.228 OA
ENDBRANCH  22  23
ENDBRANCH  21  22
ENDBRANCH  18  21
ENDBRANCH  16  18
ENDBRANCH  15  16
ENDBRANCH   1  15
BRANCH   7  27
HETATM   27  O6  UNL     1      13.594 -14.230   8.194  1.00  0.00    -0.396 OA
ATOM     28  H6  UNL     1      13.944 -14.991   8.644  1.00  0.00     0.210 HD
ENDBRANCH   7  27
TORSDOF 7
ENDMDL
MODEL 2
REMARK VINA RESULT: -6.538613144      1.558      2.727
REMARK  7 active torsions:
REMARK  status: ('A' for Active; 'I' for Inactive)
REMARK    1  A    between atoms: C2_2  and  C4_4 
REMARK    2  A    between atoms: C2_2  and  C7_10 
REMARK    3  A    between atoms: C4_4  and  C5_5 
REMARK    4  A    between atoms: C5_5  and  S1_6 
REMARK    5  A    between atoms: C7_10  and  O4_12 
REMARK    6  A    between atoms: O4_12  and  C8_13 
REMARK    7  A    between atoms: C13_19  and  O6_20 
ROOT
HETATM    1  C8  UNL     1       9.235 -10.325   6.193  1.00  0.00     0.210 C 
HETATM    2  C9  UNL     1       9.591  -9.863   7.554  1.00  0.00     0.166 C 
HETATM    3  O5  UNL     1       8.824  -9.331   8.323  1.00  0.00    -0.294 OA
HETATM    4  C10 UNL     1      10.996 -10.163   7.778  1.00  0.00     0.031 C 
HETATM    5  C11 UNL     1      11.981  -9.056   7.495  1.00  0.00     0.020 C 
HETATM    6  C12 UNL     1      12.384  -8.466   8.841  1.00  0.00     0.033 C 
HETATM    7  C13 UNL     1      13.301  -9.443   9.573  1.00  0.00     0.118 C 
HETATM    8  C14 UNL     1      12.887 -10.828   9.200  1.00  0.00     0.037 C 
HETATM    9  C15 UNL     1      11.380 -10.892   9.017  1.00  0.00     0.005 C 
HETATM   10  C16 UNL     1      11.041 -12.198   8.299  1.00  0.00     0.012 C 
HETATM   11  C17 UNL     1      11.215 -11.428   6.984  1.00  0.00     0.013 C 
HETATM   12  C18 UNL     1      10.054 -11.586   6.055  1.00  0.00    -0.009 C 
HETATM   13  C19 UNL     1       9.189 -12.743   6.508  1.00  0.00     0.018 C 
HETATM   14  C20 UNL     1      10.489 -11.857   4.653  1.00  0.00     0.018 C 
ENDROOT
BRANCH   1  15
HETATM   15  O4  UNL     1       7.850 -10.631   6.073  1.00  0.00    -0.307 OA
BRANCH  15  16
HETATM   16  C7  UNL     1       7.011  -9.817   5.334  1.00  0.00     0.267 C 
HETATM   17  O3  UNL     1       6.752  -8.676   5.797  1.00  0.00    -0.264 OA
BRANCH  16  18
HETATM   18  C2  UNL     1       6.415 -10.229   4.042  1.00  0.00     0.042 C 
HETATM   19  C1  UNL     1       5.244 -11.156   4.280  1.00  0.00     0.025 C 
HETATM   20  C3  UNL     1       5.879  -9.026   3.273  1.00  0.00     0.025 C 
BRANCH  18  21
HETATM   21  C4  UNL     1       7.436 -10.983   3.231  1.00  0.00     0.034 C 
BRANCH  21  22
HETATM   22  C5  UNL     1       7.194 -12.461   3.257  1.00  0.00     0.141 C 
BRANCH  22  23
HETATM   23  S1  UNL     1       8.024 -13.215   1.882  1.00  0.00     0.140 S 
HETATM   24  C6  UNL     1       9.002 -14.599   2.359  1.00  0.00     0.161 C 
HETATM   25  O1  UNL     1       8.863 -12.156   1.218  1.00  0.00    -0.228 OA
HETATM   26  O2  UNL     1       7.014 -13.667   0.861  1.00  0.00    -0.228 OA
ENDBRANCH  22  23
ENDBRANCH  21  22
ENDBRANCH  18  21
ENDBRANCH  16  18
ENDBRANCH  15  16
ENDBRANCH   1  15
BRANCH   7  27
HETATM   27  O6  UNL     1      13.233  -9.293  10.937  1.00  0.00    -0.396 OA
ATOM     28  H6  UNL     1      13.565 -10.055  11.398  1.00  0.00     0.210 HD
ENDBRANCH   7  27
TORSDOF 7
ENDMDL
MODEL 3
REMARK VINA RESULT: -6.382663203      2.138      5.897
REMARK  7 active torsions:
REMARK  status: ('A' for Active; 'I' for Inactive)
REMARK    1  A    between atoms: C2_2  and  C4_4 
REMARK    2  A    between atoms: C2_2  and  C7_10 
REMARK    3  A    between atoms: C4_4  and  C5_5 
REMARK    4  A    between atoms: C5_5  and  S1_6 
REMARK    5  A    between atoms: C7_10  and  O4_12 
REMARK    6  A    between atoms: O4_12  and  C8_13 
REMARK    7  A    between atoms: C13_19  and  O6_20 
ROOT
HETATM    1  C8  UNL     1       7.617 -10.286   4.610  1.00  0.00     0.210 C 
HETATM    2  C9  UNL     1       8.106 -11.684   4.631  1.00  0.00     0.166 C 
HETATM    3  O5  UNL     1       8.477 -12.268   5.623  1.00  0.00    -0.294 OA
HETATM    4  C10 UNL     1       8.054 -12.200   3.273  1.00  0.00     0.031 C 
HETATM    5  C11 UNL     1       9.323 -12.110   2.463  1.00  0.00     0.020 C 
HETATM    6  C12 UNL     1       9.946 -13.501   2.459  1.00  0.00     0.033 C 
HETATM    7  C13 UNL     1       9.131 -14.424   1.556  1.00  0.00     0.118 C 
HETATM    8  C14 UNL     1       7.703 -13.995   1.631  1.00  0.00     0.037 C 
HETATM    9  C15 UNL     1       7.377 -13.504   3.032  1.00  0.00     0.005 C 
HETATM   10  C16 UNL     1       6.048 -12.752   2.978  1.00  0.00     0.012 C 
HETATM   11  C17 UNL     1       6.865 -11.490   2.673  1.00  0.00     0.013 C 
HETATM   12  C18 UNL     1       6.524 -10.342   3.569  1.00  0.00    -0.009 C 
HETATM   13  C19 UNL     1       5.223 -10.624   4.290  1.00  0.00     0.018 C 
HETATM   14  C20 UNL     1       6.364  -9.066   2.811  1.00  0.00     0.018 C 
ENDROOT
BRANCH   1  15
HETATM   15  O4  UNL     1       7.074  -9.885   5.863  1.00  0.00    -0.307 OA
BRANCH  15  16
HETATM   16  C7  UNL     1       7.480  -8.706   6.460  1.00  0.00     0.267 C 
HETATM   17  O3  UNL     1       7.136  -7.628   5.910  1.00  0.00    -0.264 OA
BRANCH  16  18
HETATM   18  C2  UNL     1       8.289  -8.663   7.699  1.00  0.00     0.042 C 
HETATM   19  C1  UNL     1       9.382  -7.624   7.573  1.00  0.00     0.025 C 
HETATM   20  C3  UNL     1       7.439  -8.267   8.901  1.00  0.00     0.025 C 
BRANCH  18  21
HETATM   21  C4  UNL     1       8.953  -9.998   7.917  1.00  0.00     0.034 C 
BRANCH  21  22
HETATM   22  C5  UNL     1      10.311  -9.856   8.533  1.00  0.00     0.141 C 
BRANCH  22  23
HETATM   23  S1  UNL     1      11.467 -10.865   7.641  1.00  0.00     0.140 S 
HETATM   24  C6  UNL     1      11.303 -12.577   8.019  1.00  0.00     0.161 C 
HETATM   25  O1  UNL     1      12.850 -10.365   7.959  1.00  0.00    -0.228 OA
HETATM   26  O2  UNL     1      11.271 -10.678   6.161  1.00  0.00    -0.228 OA
ENDBRANCH  22  23
ENDBRANCH  21  22
ENDBRANCH  18  21
ENDBRANCH  16  18
ENDBRANCH  15  16
ENDBRANCH   1  15
BRANCH   7  27
HETATM   27  O6  UNL     1       9.238 -15.741   1.931  1.00  0.00    -0.396 OA
ATOM     28  H6  UNL     1       8.990 -15.877   2.839  1.00  0.00     0.210 HD
ENDBRANCH   7  27
TORSDOF 7
ENDMDL
MODEL 4
REMARK VINA RESULT: -6.274801593      2.568      6.018
REMARK  7 active torsions:
REMARK  status: ('A' for Active; 'I' for Inactive)
REMARK    1  A    between atoms: C2_2  and  C4_4 
REMARK    2  A    between atoms: C2_2  and  C7_10 
REMARK    3  A    between atoms: C4_4  and  C5_5 
REMARK    4  A    between atoms: C5_5  and  S1_6 
REMARK    5  A    between atoms: C7_10  and  O4_12 
REMARK    6  A    between atoms: O4_12  and  C8_13 
REMARK    7  A    between atoms: C13_19  and  O6_20 
ROOT
HETATM    1  C8  UNL     1       7.526 -10.110   4.613  1.00  0.00     0.210 C 
HETATM    2  C9  UNL     1       8.029 -11.502   4.657  1.00  0.00     0.166 C 
HETATM    3  O5  UNL     1       8.411 -12.065   5.657  1.00  0.00    -0.294 OA
HETATM    4  C10 UNL     1       7.976 -12.043   3.308  1.00  0.00     0.031 C 
HETATM    5  C11 UNL     1       9.240 -11.955   2.490  1.00  0.00     0.020 C 
HETATM    6  C12 UNL     1       9.877 -13.340   2.508  1.00  0.00     0.033 C 
HETATM    7  C13 UNL     1       9.066 -14.286   1.625  1.00  0.00     0.118 C 
HETATM    8  C14 UNL     1       7.634 -13.870   1.700  1.00  0.00     0.037 C 
HETATM    9  C15 UNL     1       7.310 -13.357   3.093  1.00  0.00     0.005 C 
HETATM   10  C16 UNL     1       5.973 -12.619   3.033  1.00  0.00     0.012 C 
HETATM   11  C17 UNL     1       6.777 -11.355   2.702  1.00  0.00     0.013 C 
HETATM   12  C18 UNL     1       6.429 -10.195   3.579  1.00  0.00    -0.009 C 
HETATM   13  C19 UNL     1       5.134 -10.477   4.312  1.00  0.00     0.018 C 
HETATM   14  C20 UNL     1       6.253  -8.933   2.800  1.00  0.00     0.018 C 
ENDROOT
BRANCH   1  15
HETATM   15  O4  UNL     1       6.986  -9.692   5.862  1.00  0.00    -0.307 OA
BRANCH  15  16
HETATM   16  C7  UNL     1       7.393  -8.506   6.443  1.00  0.00     0.267 C 
HETATM   17  O3  UNL     1       7.196  -7.444   5.798  1.00  0.00    -0.264 OA
BRANCH  16  18
HETATM   18  C2  UNL     1       8.043  -8.438   7.772  1.00  0.00     0.042 C 
HETATM   19  C1  UNL     1       8.890  -7.188   7.875  1.00  0.00     0.025 C 
HETATM   20  C3  UNL     1       7.009  -8.364   8.890  1.00  0.00     0.025 C 
BRANCH  18  21
HETATM   21  C4  UNL     1       8.957  -9.623   7.951  1.00  0.00     0.034 C 
BRANCH  21  22
HETATM   22  C5  UNL     1      10.256  -9.445   7.229  1.00  0.00     0.141 C 
BRANCH  22  23
HETATM   23  S1  UNL     1      11.466 -10.542   7.921  1.00  0.00     0.140 S 
HETATM   24  C6  UNL     1      13.081  -9.839   7.949  1.00  0.00     0.161 C 
HETATM   25  O1  UNL     1      11.440 -11.817   7.120  1.00  0.00    -0.228 OA
HETATM   26  O2  UNL     1      11.076 -10.910   9.328  1.00  0.00    -0.228 OA
ENDBRANCH  22  23
ENDBRANCH  21  22
ENDBRANCH  18  21
ENDBRANCH  16  18
ENDBRANCH  15  16
ENDBRANCH   1  15
BRANCH   7  27
HETATM   27  O6  UNL     1       9.188 -15.596   2.023  1.00  0.00    -0.396 OA
ATOM     28  H6  UNL     1      10.014 -15.978   1.749  1.00  0.00     0.210 HD
ENDBRANCH   7  27
TORSDOF 7
ENDMDL
MODEL 5
REMARK VINA RESULT: -6.257510681      1.699      2.050
REMARK  7 active torsions:
REMARK  status: ('A' for Active; 'I' for Inactive)
REMARK    1  A    between atoms: C2_2  and  C4_4 
REMARK    2  A    between atoms: C2_2  and  C7_10 
REMARK    3  A    between atoms: C4_4  and  C5_5 
REMARK    4  A    between atoms: C5_5  and  S1_6 
REMARK    5  A    between atoms: C7_10  and  O4_12 
REMARK    6  A    between atoms: O4_12  and  C8_13 
REMARK    7  A    between atoms: C13_19  and  O6_20 
ROOT
HETATM    1  C8  UNL     1       8.863 -10.304   6.953  1.00  0.00     0.210 C 
HETATM    2  C9  UNL     1      10.324 -10.548   6.946  1.00  0.00     0.166 C 
HETATM    3  O5  UNL     1      10.942 -10.995   6.007  1.00  0.00    -0.294 OA
HETATM    4  C10 UNL     1      10.852 -10.160   8.243  1.00  0.00     0.031 C 
HETATM    5  C11 UNL     1      11.001 -11.254   9.271  1.00  0.00     0.020 C 
HETATM    6  C12 UNL     1      12.479 -11.625   9.313  1.00  0.00     0.033 C 
HETATM    7  C13 UNL     1      13.265 -10.514  10.005  1.00  0.00     0.118 C 
HETATM    8  C14 UNL     1      12.593  -9.216   9.699  1.00  0.00     0.037 C 
HETATM    9  C15 UNL     1      12.023  -9.243   8.290  1.00  0.00     0.005 C 
HETATM   10  C16 UNL     1      11.053  -8.070   8.145  1.00  0.00     0.012 C 
HETATM   11  C17 UNL     1       9.959  -9.016   8.657  1.00  0.00     0.013 C 
HETATM   12  C18 UNL     1       8.750  -9.043   7.776  1.00  0.00    -0.009 C 
HETATM   13  C19 UNL     1       8.787  -7.870   6.820  1.00  0.00     0.018 C 
HETATM   14  C20 UNL     1       7.482  -8.961   8.560  1.00  0.00     0.018 C 
ENDROOT
BRANCH   1  15
HETATM   15  O4  UNL     1       8.347 -10.078   5.646  1.00  0.00    -0.307 OA
BRANCH  15  16
HETATM   16  C7  UNL     1       7.216 -10.743   5.211  1.00  0.00     0.267 C 
HETATM   17  O3  UNL     1       6.592 -11.440   6.052  1.00  0.00    -0.264 OA
BRANCH  16  18
HETATM   18  C2  UNL     1       6.721 -10.671   3.817  1.00  0.00     0.042 C 
HETATM   19  C1  UNL     1       5.583 -11.648   3.617  1.00  0.00     0.025 C 
HETATM   20  C3  UNL     1       6.175  -9.284   3.496  1.00  0.00     0.025 C 
BRANCH  18  21
HETATM   21  C4  UNL     1       7.824 -11.057   2.866  1.00  0.00     0.034 C 
BRANCH  21  22
HETATM   22  C5  UNL     1       7.722 -12.489   2.439  1.00  0.00     0.141 C 
BRANCH  22  23
HETATM   23  S1  UNL     1       9.262 -13.308   2.764  1.00  0.00     0.140 S 
HETATM   24  C6  UNL     1       9.276 -14.974   2.193  1.00  0.00     0.161 C 
HETATM   25  O1  UNL     1       9.514 -13.237   4.247  1.00  0.00    -0.228 OA
HETATM   26  O2  UNL     1      10.387 -12.561   2.100  1.00  0.00    -0.228 OA
ENDBRANCH  22  23
ENDBRANCH  21  22
ENDBRANCH  18  21
ENDBRANCH  16  18
ENDBRANCH  15  16
ENDBRANCH   1  15
BRANCH   7  27
HETATM   27  O6  UNL     1      14.573 -10.467   9.586  1.00  0.00    -0.396 OA
ATOM     28  H6  UNL     1      14.741  -9.722   9.020  1.00  0.00     0.210 HD
ENDBRANCH   7  27
TORSDOF 7
ENDMDL
