MODEL 1
REMARK VINA RESULT: -7.865472258      0.000      0.000
REMARK  7 active torsions:
REMARK  status: ('A' for Active; 'I' for Inactive)
REMARK    1  A    between atoms: C6_6  and  N1_7 
REMARK    2  A    between atoms: N1_7  and  C7_9 
REMARK    3  A    between atoms: C7_9  and  N2_11 
REMARK    4  A    between atoms: N2_11  and  C8_13 
REMARK    5  A    between atoms: C8_13  and  C9_14 
REMARK    6  A    between atoms: C9_14  and  C10_15 
REMARK    7  A    between atoms: C10_15  and  N3_16 
ROOT
HETATM    1  C1  UNL     1       3.489  38.931  21.179  1.00  0.00     0.046 C 
HETATM    2  C2  UNL     1       2.613  38.711  22.441  1.00  0.00    -0.052 C 
HETATM    3  C3  UNL     1       2.045  37.372  22.416  1.00  0.00     0.005 C 
HETATM    4  C4  UNL     1       2.715  36.174  22.875  1.00  0.00     0.006 C 
HETATM    5  C5  UNL     1       2.841  35.818  24.290  1.00  0.00    -0.039 C 
HETATM    6  C6  UNL     1       1.637  36.000  25.173  1.00  0.00     0.115 C 
HETATM    7  C13 UNL     1       1.316  37.389  25.551  1.00  0.00     0.040 C 
HETATM    8  C14 UNL     1       2.367  38.349  25.804  1.00  0.00     0.053 C 
HETATM    9  C15 UNL     1       2.908  38.126  27.233  1.00  0.00     0.186 C 
HETATM   10  O1  UNL     1       3.763  37.049  27.345  1.00  0.00    -0.320 OA
HETATM   11  C16 UNL     1       4.041  36.058  26.418  1.00  0.00     0.272 C 
HETATM   12  O2  UNL     1       4.232  34.873  26.834  1.00  0.00    -0.264 OA
HETATM   13  C17 UNL     1       4.137  36.248  24.970  1.00  0.00     0.076 C 
HETATM   14  C18 UNL     1       5.272  35.379  24.397  1.00  0.00     0.031 C 
HETATM   15  C19 UNL     1       4.449  37.640  24.528  1.00  0.00     0.049 C 
HETATM   16  C20 UNL     1       5.892  38.051  24.885  1.00  0.00     0.015 C 
HETATM   17  C21 UNL     1       6.199  39.212  23.957  1.00  0.00     0.071 C 
HETATM   18  C22 UNL     1       5.208  40.315  23.978  1.00  0.00     0.194 C 
HETATM   19  C23 UNL     1       5.972  41.592  23.579  1.00  0.00     0.082 C 
HETATM   20  O3  UNL     1       4.678  40.588  25.228  1.00  0.00    -0.200 OA
HETATM   21  O4  UNL     1       4.162  39.572  25.714  1.00  0.00    -0.223 OA
HETATM   22  C24 UNL     1       3.460  38.669  24.860  1.00  0.00     0.137 C 
HETATM   23  C25 UNL     1       3.071  39.419  23.628  1.00  0.00     0.192 C 
HETATM   24  O5  UNL     1       4.148  40.218  23.143  1.00  0.00    -0.340 OA
ENDROOT
BRANCH   6  25
HETATM   25  N1  UNL     1       0.550  35.254  24.624  1.00  0.00    -0.359 N 
ATOM     26  H1  UNL     1      -0.090  35.776  24.025  1.00  0.00     0.162 HD
BRANCH  25  27
HETATM   27  C7  UNL     1       0.246  33.887  24.803  1.00  0.00     0.168 C 
HETATM   28  S1  UNL     1      -1.160  33.185  24.419  1.00  0.00    -0.041 SA
BRANCH  27  29
HETATM   29  N2  UNL     1       1.251  33.052  25.369  1.00  0.00    -0.367 N 
ATOM     30  H2  UNL     1       1.638  33.323  26.273  1.00  0.00     0.161 HD
BRANCH  29  31
HETATM   31  C8  UNL     1       1.760  31.855  24.759  1.00  0.00     0.123 C 
BRANCH  31  32
HETATM   32  C9  UNL     1       3.246  31.727  24.811  1.00  0.00     0.050 C 
BRANCH  32  33
HETATM   33  C10 UNL     1       3.649  30.327  24.346  1.00  0.00     0.273 C 
BRANCH  33  34
HETATM   34  N3  UNL     1       5.042  30.406  23.932  1.00  0.00     0.080 N 
HETATM   35  C11 UNL     1       5.740  31.265  24.886  1.00  0.00     0.309 C 
HETATM   36  C12 UNL     1       5.655  29.087  23.941  1.00  0.00     0.309 C 
ENDBRANCH  33  34
ENDBRANCH  32  33
ENDBRANCH  31  32
ENDBRANCH  29  31
ENDBRANCH  27  29
ENDBRANCH  25  27
ENDBRANCH   6  25
TORSDOF 7
ENDMDL
MODEL 2
REMARK VINA RESULT: -7.823764506      2.352      3.528
REMARK  7 active torsions:
REMARK  status: ('A' for Active; 'I' for Inactive)
REMARK    1  A    between atoms: C6_6  and  N1_7 
REMARK    2  A    between atoms: N1_7  and  C7_9 
REMARK    3  A    between atoms: C7_9  and  N2_11 
REMARK    4  A    between atoms: N2_11  and  C8_13 
REMARK    5  A    between atoms: C8_13  and  C9_14 
REMARK    6  A    between atoms: C9_14  and  C10_15 
REMARK    7  A    between atoms: C10_15  and  N3_16 
ROOT
HETATM    1  C1  UNL     1       1.746  38.477  24.920  1.00  0.00     0.046 C 
HETATM    2  C2  UNL     1       2.262  37.160  25.557  1.00  0.00    -0.052 C 
HETATM    3  C3  UNL     1       2.675  36.237  24.512  1.00  0.00     0.005 C 
HETATM    4  C4  UNL     1       3.971  36.237  23.865  1.00  0.00     0.006 C 
HETATM    5  C5  UNL     1       5.174  35.676  24.482  1.00  0.00    -0.039 C 
HETATM    6  C6  UNL     1       5.052  34.359  25.198  1.00  0.00     0.115 C 
HETATM    7  C13 UNL     1       4.394  34.397  26.516  1.00  0.00     0.040 C 
HETATM    8  C14 UNL     1       4.584  35.520  27.406  1.00  0.00     0.053 C 
HETATM    9  C15 UNL     1       5.938  35.354  28.130  1.00  0.00     0.186 C 
HETATM   10  O1  UNL     1       7.030  35.688  27.355  1.00  0.00    -0.320 OA
HETATM   11  C16 UNL     1       7.085  35.959  25.998  1.00  0.00     0.272 C 
HETATM   12  O2  UNL     1       8.099  35.568  25.341  1.00  0.00    -0.264 OA
HETATM   13  C17 UNL     1       6.061  36.668  25.229  1.00  0.00     0.076 C 
HETATM   14  C18 UNL     1       6.725  37.577  24.178  1.00  0.00     0.031 C 
HETATM   15  C19 UNL     1       5.176  37.570  26.024  1.00  0.00     0.049 C 
HETATM   16  C20 UNL     1       5.932  38.808  26.550  1.00  0.00     0.015 C 
HETATM   17  C21 UNL     1       4.841  39.818  26.858  1.00  0.00     0.071 C 
HETATM   18  C22 UNL     1       3.755  39.325  27.738  1.00  0.00     0.194 C 
HETATM   19  C23 UNL     1       3.191  40.560  28.466  1.00  0.00     0.082 C 
HETATM   20  O3  UNL     1       4.174  38.473  28.747  1.00  0.00    -0.200 OA
HETATM   21  O4  UNL     1       4.783  37.503  28.274  1.00  0.00    -0.223 OA
HETATM   22  C24 UNL     1       4.338  36.933  27.043  1.00  0.00     0.137 C 
HETATM   23  C25 UNL     1       2.910  37.327  26.851  1.00  0.00     0.192 C 
HETATM   24  O5  UNL     1       2.706  38.706  27.149  1.00  0.00    -0.340 OA
ENDROOT
BRANCH   6  25
HETATM   25  N1  UNL     1       4.530  33.390  24.286  1.00  0.00    -0.359 N 
ATOM     26  H1  UNL     1       4.749  33.543  23.302  1.00  0.00     0.162 HD
BRANCH  25  27
HETATM   27  C7  UNL     1       3.749  32.249  24.572  1.00  0.00     0.168 C 
HETATM   28  S1  UNL     1       2.132  32.211  24.616  1.00  0.00    -0.041 SA
BRANCH  27  29
HETATM   29  N2  UNL     1       4.430  31.030  24.847  1.00  0.00    -0.367 N 
ATOM     30  H2  UNL     1       5.081  31.018  25.633  1.00  0.00     0.161 HD
BRANCH  29  31
HETATM   31  C8  UNL     1       4.269  29.815  24.098  1.00  0.00     0.123 C 
BRANCH  31  32
HETATM   32  C9  UNL     1       5.553  29.150  23.727  1.00  0.00     0.050 C 
BRANCH  32  33
HETATM   33  C10 UNL     1       6.723  30.004  24.213  1.00  0.00     0.273 C 
BRANCH  33  34
HETATM   34  N3  UNL     1       7.599  30.211  23.068  1.00  0.00     0.080 N 
HETATM   35  C11 UNL     1       7.028  31.289  22.263  1.00  0.00     0.309 C 
HETATM   36  C12 UNL     1       8.932  30.597  23.504  1.00  0.00     0.309 C 
ENDBRANCH  33  34
ENDBRANCH  32  33
ENDBRANCH  31  32
ENDBRANCH  29  31
ENDBRANCH  27  29
ENDBRANCH  25  27
ENDBRANCH   6  25
TORSDOF 7
ENDMDL
MODEL 3
REMARK VINA RESULT: -7.693557822      0.884      1.073
REMARK  7 active torsions:
REMARK  status: ('A' for Active; 'I' for Inactive)
REMARK    1  A    between atoms: C6_6  and  N1_7 
REMARK    2  A    between atoms: N1_7  and  C7_9 
REMARK    3  A    between atoms: C7_9  and  N2_11 
REMARK    4  A    between atoms: N2_11  and  C8_13 
REMARK    5  A    between atoms: C8_13  and  C9_14 
REMARK    6  A    between atoms: C9_14  and  C10_15 
REMARK    7  A    between atoms: C10_15  and  N3_16 
ROOT
HETATM    1  C1  UNL     1       3.117  38.138  20.670  1.00  0.00     0.046 C 
HETATM    2  C2  UNL     1       2.211  37.925  21.911  1.00  0.00    -0.052 C 
HETATM    3  C3  UNL     1       1.926  36.508  22.073  1.00  0.00     0.005 C 
HETATM    4  C4  UNL     1       2.786  35.557  22.745  1.00  0.00     0.006 C 
HETATM    5  C5  UNL     1       2.874  35.445  24.202  1.00  0.00    -0.039 C 
HETATM    6  C6  UNL     1       1.595  35.498  24.992  1.00  0.00     0.115 C 
HETATM    7  C13 UNL     1       0.976  36.829  25.131  1.00  0.00     0.040 C 
HETATM    8  C14 UNL     1       1.791  38.014  25.275  1.00  0.00     0.053 C 
HETATM    9  C15 UNL     1       2.256  38.119  26.743  1.00  0.00     0.186 C 
HETATM   10  O1  UNL     1       3.299  37.274  27.061  1.00  0.00    -0.320 OA
HETATM   11  C16 UNL     1       3.839  36.238  26.315  1.00  0.00     0.272 C 
HETATM   12  O2  UNL     1       4.231  35.194  26.921  1.00  0.00    -0.264 OA
HETATM   13  C17 UNL     1       4.003  36.232  24.861  1.00  0.00     0.076 C 
HETATM   14  C18 UNL     1       5.329  35.545  24.482  1.00  0.00     0.031 C 
HETATM   15  C19 UNL     1       4.063  37.578  24.219  1.00  0.00     0.049 C 
HETATM   16  C20 UNL     1       5.363  38.330  24.569  1.00  0.00     0.015 C 
HETATM   17  C21 UNL     1       5.500  39.382  23.482  1.00  0.00     0.071 C 
HETATM   18  C22 UNL     1       4.310  40.244  23.286  1.00  0.00     0.194 C 
HETATM   19  C23 UNL     1       4.829  41.580  22.724  1.00  0.00     0.082 C 
HETATM   20  O3  UNL     1       3.643  40.579  24.453  1.00  0.00    -0.200 OA
HETATM   21  O4  UNL     1       3.306  39.559  25.070  1.00  0.00    -0.223 OA
HETATM   22  C24 UNL     1       2.865  38.415  24.340  1.00  0.00     0.137 C 
HETATM   23  C25 UNL     1       2.427  38.879  22.990  1.00  0.00     0.192 C 
HETATM   24  O5  UNL     1       3.356  39.807  22.432  1.00  0.00    -0.340 OA
ENDROOT
BRANCH   6  25
HETATM   25  N1  UNL     1       0.724  34.469  24.521  1.00  0.00    -0.359 N 
ATOM     26  H1  UNL     1       0.245  34.660  23.641  1.00  0.00     0.162 HD
BRANCH  25  27
HETATM   27  C7  UNL     1       0.440  33.220  25.116  1.00  0.00     0.168 C 
HETATM   28  S1  UNL     1      -1.029  32.554  25.232  1.00  0.00    -0.041 SA
BRANCH  27  29
HETATM   29  N2  UNL     1       1.528  32.483  25.663  1.00  0.00    -0.367 N 
ATOM     30  H2  UNL     1       1.631  32.472  26.678  1.00  0.00     0.161 HD
BRANCH  29  31
HETATM   31  C8  UNL     1       2.492  31.752  24.888  1.00  0.00     0.123 C 
BRANCH  31  32
HETATM   32  C9  UNL     1       3.912  32.050  25.239  1.00  0.00     0.050 C 
BRANCH  32  33
HETATM   33  C10 UNL     1       4.832  31.451  24.176  1.00  0.00     0.273 C 
BRANCH  33  34
HETATM   34  N3  UNL     1       5.919  30.789  24.884  1.00  0.00     0.080 N 
HETATM   35  C11 UNL     1       6.292  29.605  24.113  1.00  0.00     0.309 C 
HETATM   36  C12 UNL     1       7.071  31.669  24.994  1.00  0.00     0.309 C 
ENDBRANCH  33  34
ENDBRANCH  32  33
ENDBRANCH  31  32
ENDBRANCH  29  31
ENDBRANCH  27  29
ENDBRANCH  25  27
ENDBRANCH   6  25
TORSDOF 7
ENDMDL
MODEL 4
REMARK VINA RESULT: -7.653119682      2.497      4.144
REMARK  7 active torsions:
REMARK  status: ('A' for Active; 'I' for Inactive)
REMARK    1  A    between atoms: C6_6  and  N1_7 
REMARK    2  A    between atoms: N1_7  and  C7_9 
REMARK    3  A    between atoms: C7_9  and  N2_11 
REMARK    4  A    between atoms: N2_11  and  C8_13 
REMARK    5  A    between atoms: C8_13  and  C9_14 
REMARK    6  A    between atoms: C9_14  and  C10_15 
REMARK    7  A    between atoms: C10_15  and  N3_16 
ROOT
HETATM    1  C1  UNL     1       1.761  38.447  24.915  1.00  0.00     0.046 C 
HETATM    2  C2  UNL     1       2.283  37.134  25.556  1.00  0.00    -0.052 C 
HETATM    3  C3  UNL     1       2.708  36.214  24.512  1.00  0.00     0.005 C 
HETATM    4  C4  UNL     1       4.007  36.223  23.872  1.00  0.00     0.006 C 
HETATM    5  C5  UNL     1       5.211  35.670  24.496  1.00  0.00    -0.039 C 
HETATM    6  C6  UNL     1       5.094  34.351  25.210  1.00  0.00     0.115 C 
HETATM    7  C13 UNL     1       4.428  34.385  26.525  1.00  0.00     0.040 C 
HETATM    8  C14 UNL     1       4.605  35.508  27.417  1.00  0.00     0.053 C 
HETATM    9  C15 UNL     1       5.956  35.352  28.148  1.00  0.00     0.186 C 
HETATM   10  O1  UNL     1       7.050  35.693  27.379  1.00  0.00    -0.320 OA
HETATM   11  C16 UNL     1       7.111  35.965  26.022  1.00  0.00     0.272 C 
HETATM   12  O2  UNL     1       8.131  35.581  25.371  1.00  0.00    -0.264 OA
HETATM   13  C17 UNL     1       6.087  36.668  25.248  1.00  0.00     0.076 C 
HETATM   14  C18 UNL     1       6.751  37.582  24.202  1.00  0.00     0.031 C 
HETATM   15  C19 UNL     1       5.191  37.563  26.038  1.00  0.00     0.049 C 
HETATM   16  C20 UNL     1       5.936  38.806  26.569  1.00  0.00     0.015 C 
HETATM   17  C21 UNL     1       4.837  39.809  26.872  1.00  0.00     0.071 C 
HETATM   18  C22 UNL     1       3.749  39.308  27.745  1.00  0.00     0.194 C 
HETATM   19  C23 UNL     1       3.173  40.538  28.470  1.00  0.00     0.082 C 
HETATM   20  O3  UNL     1       4.169  38.458  28.756  1.00  0.00    -0.200 OA
HETATM   21  O4  UNL     1       4.786  37.493  28.286  1.00  0.00    -0.223 OA
HETATM   22  C24 UNL     1       4.352  36.920  27.053  1.00  0.00     0.137 C 
HETATM   23  C25 UNL     1       2.923  37.304  26.853  1.00  0.00     0.192 C 
HETATM   24  O5  UNL     1       2.708  38.682  27.151  1.00  0.00    -0.340 OA
ENDROOT
BRANCH   6  25
HETATM   25  N1  UNL     1       4.583  33.380  24.296  1.00  0.00    -0.359 N 
ATOM     26  H1  UNL     1       4.228  33.745  23.412  1.00  0.00     0.162 HD
BRANCH  25  27
HETATM   27  C7  UNL     1       4.506  31.979  24.457  1.00  0.00     0.168 C 
HETATM   28  S1  UNL     1       5.768  30.996  24.694  1.00  0.00    -0.041 SA
BRANCH  27  29
HETATM   29  N2  UNL     1       3.218  31.375  24.407  1.00  0.00    -0.367 N 
ATOM     30  H2  UNL     1       2.866  31.085  23.494  1.00  0.00     0.161 HD
BRANCH  29  31
HETATM   31  C8  UNL     1       2.377  31.144  25.548  1.00  0.00     0.123 C 
BRANCH  31  32
HETATM   32  C9  UNL     1       1.470  32.282  25.880  1.00  0.00     0.050 C 
BRANCH  32  33
HETATM   33  C10 UNL     1       0.682  32.681  24.633  1.00  0.00     0.273 C 
BRANCH  33  34
HETATM   34  N3  UNL     1      -0.641  33.091  25.083  1.00  0.00     0.080 N 
HETATM   35  C11 UNL     1      -1.474  33.274  23.896  1.00  0.00     0.309 C 
HETATM   36  C12 UNL     1      -1.235  32.070  25.930  1.00  0.00     0.309 C 
ENDBRANCH  33  34
ENDBRANCH  32  33
ENDBRANCH  31  32
ENDBRANCH  29  31
ENDBRANCH  27  29
ENDBRANCH  25  27
ENDBRANCH   6  25
TORSDOF 7
ENDMDL
MODEL 5
REMARK VINA RESULT: -7.609751707      2.524      4.882
REMARK  7 active torsions:
REMARK  status: ('A' for Active; 'I' for Inactive)
REMARK    1  A    between atoms: C6_6  and  N1_7 
REMARK    2  A    between atoms: N1_7  and  C7_9 
REMARK    3  A    between atoms: C7_9  and  N2_11 
REMARK    4  A    between atoms: N2_11  and  C8_13 
REMARK    5  A    between atoms: C8_13  and  C9_14 
REMARK    6  A    between atoms: C9_14  and  C10_15 
REMARK    7  A    between atoms: C10_15  and  N3_16 
ROOT
HETATM    1  C1  UNL     1       5.871  32.120  25.208  1.00  0.00     0.046 C 
HETATM    2  C2  UNL     1       5.320  33.445  24.617  1.00  0.00    -0.052 C 
HETATM    3  C3  UNL     1       3.953  33.651  25.066  1.00  0.00     0.005 C 
HETATM    4  C4  UNL     1       3.572  34.251  26.328  1.00  0.00     0.006 C 
HETATM    5  C5  UNL     1       3.600  35.694  26.571  1.00  0.00    -0.039 C 
HETATM    6  C6  UNL     1       3.077  36.601  25.491  1.00  0.00     0.115 C 
HETATM    7  C13 UNL     1       3.951  36.782  24.318  1.00  0.00     0.040 C 
HETATM    8  C14 UNL     1       5.388  36.832  24.466  1.00  0.00     0.053 C 
HETATM    9  C15 UNL     1       5.789  38.248  24.933  1.00  0.00     0.186 C 
HETATM   10  O1  UNL     1       5.568  38.476  26.276  1.00  0.00    -0.320 OA
HETATM   11  C16 UNL     1       4.878  37.696  27.190  1.00  0.00     0.272 C 
HETATM   12  O2  UNL     1       4.187  38.276  28.085  1.00  0.00    -0.264 OA
HETATM   13  C17 UNL     1       4.869  36.233  27.225  1.00  0.00     0.076 C 
HETATM   14  C18 UNL     1       4.883  35.739  28.684  1.00  0.00     0.031 C 
HETATM   15  C19 UNL     1       6.039  35.571  26.576  1.00  0.00     0.049 C 
HETATM   16  C20 UNL     1       7.342  35.786  27.373  1.00  0.00     0.015 C 
HETATM   17  C21 UNL     1       8.266  34.678  26.900  1.00  0.00     0.071 C 
HETATM   18  C22 UNL     1       8.437  34.584  25.431  1.00  0.00     0.194 C 
HETATM   19  C23 UNL     1       9.824  33.958  25.194  1.00  0.00     0.082 C 
HETATM   20  O3  UNL     1       8.476  35.805  24.777  1.00  0.00    -0.200 OA
HETATM   21  O4  UNL     1       7.457  36.465  25.023  1.00  0.00    -0.223 OA
HETATM   22  C24 UNL     1       6.202  35.795  25.137  1.00  0.00     0.137 C 
HETATM   23  C25 UNL     1       6.321  34.486  24.427  1.00  0.00     0.192 C 
HETATM   24  O5  UNL     1       7.547  33.830  24.745  1.00  0.00    -0.340 OA
ENDROOT
BRANCH   6  25
HETATM   25  N1  UNL     1       1.731  36.229  25.193  1.00  0.00    -0.359 N 
ATOM     26  H1  UNL     1       1.171  35.913  25.985  1.00  0.00     0.162 HD
BRANCH  25  27
HETATM   27  C7  UNL     1       1.074  36.241  23.943  1.00  0.00     0.168 C 
HETATM   28  S1  UNL     1       0.209  37.476  23.355  1.00  0.00    -0.041 SA
BRANCH  27  29
HETATM   29  N2  UNL     1       1.173  35.078  23.129  1.00  0.00    -0.367 N 
ATOM     30  H2  UNL     1       2.098  34.667  23.001  1.00  0.00     0.161 HD
BRANCH  29  31
HETATM   31  C8  UNL     1       0.064  34.440  22.475  1.00  0.00     0.123 C 
BRANCH  31  32
HETATM   32  C9  UNL     1      -0.277  33.094  23.022  1.00  0.00     0.050 C 
BRANCH  32  33
HETATM   33  C10 UNL     1      -1.140  33.259  24.272  1.00  0.00     0.273 C 
BRANCH  33  34
HETATM   34  N3  UNL     1      -0.378  32.714  25.387  1.00  0.00     0.080 N 
HETATM   35  C11 UNL     1      -1.297  31.926  26.206  1.00  0.00     0.309 C 
HETATM   36  C12 UNL     1       0.689  31.852  24.905  1.00  0.00     0.309 C 
ENDBRANCH  33  34
ENDBRANCH  32  33
ENDBRANCH  31  32
ENDBRANCH  29  31
ENDBRANCH  27  29
ENDBRANCH  25  27
ENDBRANCH   6  25
TORSDOF 7
ENDMDL
