MODEL 1
REMARK VINA RESULT: -4.068637584      0.000      0.000
REMARK  2 active torsions:
REMARK  status: ('A' for Active; 'I' for Inactive)
REMARK    1  A    between atoms: C2_2  and  N3_8 
REMARK    2  A    between atoms: N1_3  and  N2_5 
ROOT
HETATM    1  C1  UNL     1      23.268  18.196  -7.119  1.00  0.00     0.090 C 
HETATM    2  C2  UNL     1      24.538  17.864  -7.803  1.00  0.00     0.088 C 
HETATM    3  N1  UNL     1      24.727  16.804  -8.484  1.00  0.00    -0.296 N 
ATOM      4  H1  UNL     1      23.944  16.154  -8.552  1.00  0.00     0.187 HD
ENDROOT
BRANCH   2   5
HETATM    5  N3  UNL     1      25.602  18.798  -7.680  1.00  0.00    -0.379 N 
HETATM    6  C3  UNL     1      26.397  18.806  -6.477  1.00  0.00     0.150 C 
HETATM    7  C4  UNL     1      25.924  19.752  -8.719  1.00  0.00     0.150 C 
ENDBRANCH   2   5
BRANCH   3   8
HETATM    8  N2  UNL     1      25.884  16.453  -9.136  1.00  0.00    -0.344 N 
ATOM      9  H22 UNL     1      26.688  17.059  -8.969  1.00  0.00     0.176 HD
ATOM     10  H21 UNL     1      26.007  15.655  -9.759  1.00  0.00     0.176 HD
ENDBRANCH   3   8
TORSDOF 2
ENDMDL
MODEL 2
REMARK VINA RESULT: -4.050302246      0.049      1.326
REMARK  2 active torsions:
REMARK  status: ('A' for Active; 'I' for Inactive)
REMARK    1  A    between atoms: C2_2  and  N3_8 
REMARK    2  A    between atoms: N1_3  and  N2_5 
ROOT
HETATM    1  C1  UNL     1      23.266  18.227  -7.095  1.00  0.00     0.090 C 
HETATM    2  C2  UNL     1      24.537  17.884  -7.772  1.00  0.00     0.088 C 
HETATM    3  N1  UNL     1      24.714  16.834  -8.472  1.00  0.00    -0.296 N 
ATOM      4  H1  UNL     1      23.920  16.200  -8.560  1.00  0.00     0.187 HD
ENDROOT
BRANCH   2   5
HETATM    5  N3  UNL     1      25.617  18.796  -7.621  1.00  0.00    -0.379 N 
HETATM    6  C3  UNL     1      25.894  19.741  -8.674  1.00  0.00     0.150 C 
HETATM    7  C4  UNL     1      26.458  18.818  -6.444  1.00  0.00     0.150 C 
ENDBRANCH   2   5
BRANCH   3   8
HETATM    8  N2  UNL     1      25.871  16.474  -9.118  1.00  0.00    -0.344 N 
ATOM      9  H22 UNL     1      25.767  16.200 -10.095  1.00  0.00     0.176 HD
ATOM     10  H21 UNL     1      26.808  16.458  -8.713  1.00  0.00     0.176 HD
ENDBRANCH   3   8
TORSDOF 2
ENDMDL
MODEL 3
REMARK VINA RESULT: -3.681210842      1.308      1.336
REMARK  2 active torsions:
REMARK  status: ('A' for Active; 'I' for Inactive)
REMARK    1  A    between atoms: C2_2  and  N3_8 
REMARK    2  A    between atoms: N1_3  and  N2_5 
ROOT
HETATM    1  C1  UNL     1      23.405  18.217  -7.080  1.00  0.00     0.090 C 
HETATM    2  C2  UNL     1      24.597  18.619  -7.862  1.00  0.00     0.088 C 
HETATM    3  N1  UNL     1      24.798  18.294  -9.077  1.00  0.00    -0.296 N 
ATOM      4  H1  UNL     1      24.083  17.720  -9.525  1.00  0.00     0.187 HD
ENDROOT
BRANCH   2   5
HETATM    5  N3  UNL     1      25.567  19.417  -7.196  1.00  0.00    -0.379 N 
HETATM    6  C3  UNL     1      26.575  18.773  -6.389  1.00  0.00     0.150 C 
HETATM    7  C4  UNL     1      25.587  20.860  -7.293  1.00  0.00     0.150 C 
ENDBRANCH   2   5
BRANCH   3   8
HETATM    8  N2  UNL     1      25.885  18.642  -9.841  1.00  0.00    -0.344 N 
ATOM      9  H22 UNL     1      26.793  18.553  -9.385  1.00  0.00     0.176 HD
ATOM     10  H21 UNL     1      25.862  18.974 -10.806  1.00  0.00     0.176 HD
ENDBRANCH   3   8
TORSDOF 2
ENDMDL
MODEL 4
REMARK VINA RESULT: -3.658043483      1.296      1.735
REMARK  2 active torsions:
REMARK  status: ('A' for Active; 'I' for Inactive)
REMARK    1  A    between atoms: C2_2  and  N3_8 
REMARK    2  A    between atoms: N1_3  and  N2_5 
ROOT
HETATM    1  C1  UNL     1      23.393  18.233  -7.076  1.00  0.00     0.090 C 
HETATM    2  C2  UNL     1      24.598  18.604  -7.854  1.00  0.00     0.088 C 
HETATM    3  N1  UNL     1      24.793  18.276  -9.068  1.00  0.00    -0.296 N 
ATOM      4  H1  UNL     1      24.065  17.722  -9.519  1.00  0.00     0.187 HD
ENDROOT
BRANCH   2   5
HETATM    5  N3  UNL     1      25.586  19.376  -7.184  1.00  0.00    -0.379 N 
HETATM    6  C3  UNL     1      25.555  20.814  -7.300  1.00  0.00     0.150 C 
HETATM    7  C4  UNL     1      26.631  18.777  -6.384  1.00  0.00     0.150 C 
ENDBRANCH   2   5
BRANCH   3   8
HETATM    8  N2  UNL     1      25.891  18.596  -9.829  1.00  0.00    -0.344 N 
ATOM      9  H22 UNL     1      26.520  19.292  -9.429  1.00  0.00     0.176 HD
ATOM     10  H21 UNL     1      26.126  18.206 -10.742  1.00  0.00     0.176 HD
ENDBRANCH   3   8
TORSDOF 2
ENDMDL
MODEL 5
REMARK VINA RESULT: -3.598793969      1.638      2.524
REMARK  2 active torsions:
REMARK  status: ('A' for Active; 'I' for Inactive)
REMARK    1  A    between atoms: C2_2  and  N3_8 
REMARK    2  A    between atoms: N1_3  and  N2_5 
ROOT
HETATM    1  C1  UNL     1      25.353  19.504  -7.035  1.00  0.00     0.090 C 
HETATM    2  C2  UNL     1      24.755  18.395  -7.814  1.00  0.00     0.088 C 
HETATM    3  N1  UNL     1      23.637  17.851  -7.541  1.00  0.00    -0.296 N 
ATOM      4  H1  UNL     1      23.134  18.213  -6.731  1.00  0.00     0.187 HD
ENDROOT
BRANCH   2   5
HETATM    5  N3  UNL     1      25.492  17.924  -8.935  1.00  0.00    -0.379 N 
HETATM    6  C3  UNL     1      25.596  18.754 -10.110  1.00  0.00     0.150 C 
HETATM    7  C4  UNL     1      26.148  16.634  -8.948  1.00  0.00     0.150 C 
ENDBRANCH   2   5
BRANCH   3   8
HETATM    8  N2  UNL     1      23.043  16.824  -8.233  1.00  0.00    -0.344 N 
ATOM      9  H22 UNL     1      23.048  16.913  -9.249  1.00  0.00     0.176 HD
ATOM     10  H21 UNL     1      22.606  15.996  -7.827  1.00  0.00     0.176 HD
ENDBRANCH   3   8
TORSDOF 2
ENDMDL
