MODEL 1
REMARK VINA RESULT: -5.453106548      0.000      0.000
REMARK  3 active torsions:
REMARK  status: ('A' for Active; 'I' for Inactive)
REMARK    1  A    between atoms: O1_1  and  C1_3 
REMARK    2  A    between atoms: C4_6  and  C5_7 
REMARK    3  A    between atoms: N1_9  and  C8_11 
ROOT
HETATM    1  C1  UNL     1      24.360  17.325  -8.671  1.00  0.00     0.174 A 
HETATM    2  C2  UNL     1      23.217  16.658  -8.051  1.00  0.00     0.003 A 
HETATM    3  C3  UNL     1      22.796  17.327  -6.987  1.00  0.00    -0.021 A 
HETATM    4  C4  UNL     1      23.584  18.531  -6.733  1.00  0.00     0.051 A 
HETATM    5  C8  UNL     1      24.592  18.554  -7.868  1.00  0.00     0.263 A 
ENDROOT
BRANCH   1   6
HETATM    6  O1  UNL     1      24.125  17.669 -10.014  1.00  0.00    -0.390 OA
ATOM      7  H1  UNL     1      23.736  18.530 -10.110  1.00  0.00     0.210 HD
ENDBRANCH   1   6
BRANCH   5   8
HETATM    8  N1  UNL     1      25.850  18.516  -7.102  1.00  0.00     0.097 N 
HETATM    9  C6  UNL     1      26.123  19.938  -6.814  1.00  0.00     0.280 C 
HETATM   10  C5  UNL     1      26.232  20.100  -8.289  1.00  0.00     0.052 C 
HETATM   11  C7  UNL     1      26.845  18.695  -8.181  1.00  0.00     0.280 C 
ENDBRANCH   5   8
TORSDOF 3
ENDMDL
MODEL 2
REMARK VINA RESULT: -4.876488323      1.579      2.242
REMARK  3 active torsions:
REMARK  status: ('A' for Active; 'I' for Inactive)
REMARK    1  A    between atoms: O1_1  and  C1_3 
REMARK    2  A    between atoms: C4_6  and  C5_7 
REMARK    3  A    between atoms: N1_9  and  C8_11 
ROOT
HETATM    1  C1  UNL     1      24.012  18.257  -7.723  1.00  0.00     0.174 A 
HETATM    2  C2  UNL     1      23.944  16.964  -8.402  1.00  0.00     0.003 A 
HETATM    3  C3  UNL     1      25.149  16.428  -8.524  1.00  0.00    -0.021 A 
HETATM    4  C4  UNL     1      26.199  17.269  -7.954  1.00  0.00     0.051 A 
HETATM    5  C8  UNL     1      25.446  18.460  -7.387  1.00  0.00     0.263 A 
ENDROOT
BRANCH   1   6
HETATM    6  O1  UNL     1      23.237  18.297  -6.551  1.00  0.00    -0.390 OA
ATOM      7  H1  UNL     1      23.335  17.516  -6.019  1.00  0.00     0.210 HD
ENDBRANCH   1   6
BRANCH   5   8
HETATM    8  N1  UNL     1      26.070  19.553  -8.151  1.00  0.00     0.097 N 
HETATM    9  C6  UNL     1      27.440  19.617  -7.605  1.00  0.00     0.280 C 
HETATM   10  C5  UNL     1      26.790  19.978  -6.317  1.00  0.00     0.052 C 
HETATM   11  C7  UNL     1      25.818  20.704  -7.258  1.00  0.00     0.280 C 
ENDBRANCH   5   8
TORSDOF 3
ENDMDL
MODEL 3
REMARK VINA RESULT: -4.787805969      1.137      1.229
REMARK  3 active torsions:
REMARK  status: ('A' for Active; 'I' for Inactive)
REMARK    1  A    between atoms: O1_1  and  C1_3 
REMARK    2  A    between atoms: C4_6  and  C5_7 
REMARK    3  A    between atoms: N1_9  and  C8_11 
ROOT
HETATM    1  C1  UNL     1      25.384  18.185  -9.057  1.00  0.00     0.174 A 
HETATM    2  C2  UNL     1      24.195  17.414  -8.697  1.00  0.00     0.003 A 
HETATM    3  C3  UNL     1      23.629  17.899  -7.601  1.00  0.00    -0.021 A 
HETATM    4  C4  UNL     1      24.343  19.054  -7.063  1.00  0.00     0.051 A 
HETATM    5  C8  UNL     1      25.480  19.271  -8.047  1.00  0.00     0.263 A 
ENDROOT
BRANCH   1   6
HETATM    6  O1  UNL     1      25.302  18.738 -10.347  1.00  0.00    -0.390 OA
ATOM      7  H1  UNL     1      26.118  19.136 -10.628  1.00  0.00     0.210 HD
ENDBRANCH   1   6
BRANCH   5   8
HETATM    8  N1  UNL     1      26.636  19.123  -7.147  1.00  0.00     0.097 N 
HETATM    9  C6  UNL     1      26.761  20.455  -6.523  1.00  0.00     0.280 C 
HETATM   10  C5  UNL     1      27.033  20.951  -7.898  1.00  0.00     0.052 C 
HETATM   11  C7  UNL     1      27.736  19.591  -8.018  1.00  0.00     0.280 C 
ENDBRANCH   5   8
TORSDOF 3
ENDMDL
MODEL 4
REMARK VINA RESULT: -4.772371330      1.973      3.855
REMARK  3 active torsions:
REMARK  status: ('A' for Active; 'I' for Inactive)
REMARK    1  A    between atoms: O1_1  and  C1_3 
REMARK    2  A    between atoms: C4_6  and  C5_7 
REMARK    3  A    between atoms: N1_9  and  C8_11 
ROOT
HETATM    1  C1  UNL     1      26.540  19.932  -7.968  1.00  0.00     0.174 A 
HETATM    2  C2  UNL     1      27.437  20.230  -9.083  1.00  0.00     0.003 A 
HETATM    3  C3  UNL     1      27.044  19.611 -10.187  1.00  0.00    -0.021 A 
HETATM    4  C4  UNL     1      25.838  18.812  -9.984  1.00  0.00     0.051 A 
HETATM    5  C8  UNL     1      25.479  19.055  -8.528  1.00  0.00     0.263 A 
ENDROOT
BRANCH   1   6
HETATM    6  O1  UNL     1      25.962  21.087  -7.413  1.00  0.00    -0.390 OA
ATOM      7  H1  UNL     1      25.228  20.892  -6.842  1.00  0.00     0.210 HD
ENDBRANCH   1   6
BRANCH   5   8
HETATM    8  N1  UNL     1      25.535  17.677  -8.011  1.00  0.00     0.097 N 
HETATM    9  C6  UNL     1      24.178  17.156  -8.271  1.00  0.00     0.280 C 
HETATM   10  C5  UNL     1      23.713  18.213  -7.333  1.00  0.00     0.052 C 
HETATM   11  C7  UNL     1      25.037  17.871  -6.632  1.00  0.00     0.280 C 
ENDBRANCH   5   8
TORSDOF 3
ENDMDL
MODEL 5
REMARK VINA RESULT: -4.572654662      2.306      3.111
REMARK  3 active torsions:
REMARK  status: ('A' for Active; 'I' for Inactive)
REMARK    1  A    between atoms: O1_1  and  C1_3 
REMARK    2  A    between atoms: C4_6  and  C5_7 
REMARK    3  A    between atoms: N1_9  and  C8_11 
ROOT
HETATM    1  C1  UNL     1      25.444  19.716  -7.557  1.00  0.00     0.174 A 
HETATM    2  C2  UNL     1      24.346  18.752  -7.566  1.00  0.00     0.003 A 
HETATM    3  C3  UNL     1      24.519  17.843  -8.514  1.00  0.00    -0.021 A 
HETATM    4  C4  UNL     1      25.746  18.056  -9.279  1.00  0.00     0.051 A 
HETATM    5  C8  UNL     1      26.380  19.269  -8.622  1.00  0.00     0.263 A 
ENDROOT
BRANCH   1   6
HETATM    6  O1  UNL     1      26.114  19.765  -6.322  1.00  0.00    -0.390 OA
ATOM      7  H1  UNL     1      26.847  20.370  -6.325  1.00  0.00     0.210 HD
ENDBRANCH   1   6
BRANCH   5   8
HETATM    8  N1  UNL     1      26.433  20.191  -9.770  1.00  0.00     0.097 N 
HETATM    9  C6  UNL     1      27.666  19.790 -10.477  1.00  0.00     0.280 C 
HETATM   10  C5  UNL     1      28.378  20.208  -9.241  1.00  0.00     0.052 C 
HETATM   11  C7  UNL     1      27.275  21.276  -9.223  1.00  0.00     0.280 C 
ENDBRANCH   5   8
TORSDOF 3
ENDMDL
