MODEL 1
REMARK VINA RESULT: -3.798492888      0.000      0.000
REMARK  1 active torsions:
REMARK  status: ('A' for Active; 'I' for Inactive)
REMARK    1  A    between atoms: N1_3  and  C3_5 
ROOT
HETATM    1  C1  UNL     1      22.768  16.739  -6.677  1.00  0.00     0.037 C 
HETATM    2  C2  UNL     1      23.902  16.846  -7.077  1.00  0.00     0.001 C 
HETATM    3  N1  UNL     1      25.209  16.977  -7.548  1.00  0.00    -0.295 N 
ATOM      4  H1  UNL     1      25.710  16.154  -7.882  1.00  0.00     0.178 HD
ENDROOT
BRANCH   3   5
HETATM    5  C3  UNL     1      25.848  18.242  -7.566  1.00  0.00     0.192 C 
HETATM    6  N2  UNL     1      25.610  19.126  -6.479  1.00  0.00    -0.069 NA
HETATM    7  S1  UNL     1      26.835  18.705  -8.786  1.00  0.00    -0.044 SA
ENDBRANCH   3   5
TORSDOF 1
ENDMDL
MODEL 2
REMARK VINA RESULT: -3.657421954      2.432      2.612
REMARK  1 active torsions:
REMARK  status: ('A' for Active; 'I' for Inactive)
REMARK    1  A    between atoms: N1_3  and  C3_5 
ROOT
HETATM    1  C1  UNL     1      22.354  16.777  -6.384  1.00  0.00     0.037 C 
HETATM    2  C2  UNL     1      22.978  16.249  -7.273  1.00  0.00     0.001 C 
HETATM    3  N1  UNL     1      23.703  15.651  -8.304  1.00  0.00    -0.295 N 
ATOM      4  H1  UNL     1      23.222  15.057  -8.979  1.00  0.00     0.178 HD
ENDROOT
BRANCH   3   5
HETATM    5  C3  UNL     1      25.100  15.860  -8.422  1.00  0.00     0.192 C 
HETATM    6  N2  UNL     1      25.915  14.747  -8.763  1.00  0.00    -0.069 NA
HETATM    7  S1  UNL     1      25.788  17.324  -8.179  1.00  0.00    -0.044 SA
ENDBRANCH   3   5
TORSDOF 1
ENDMDL
MODEL 3
REMARK VINA RESULT: -3.655936078      1.522      1.550
REMARK  1 active torsions:
REMARK  status: ('A' for Active; 'I' for Inactive)
REMARK    1  A    between atoms: N1_3  and  C3_5 
ROOT
HETATM    1  C1  UNL     1      22.887  16.765  -6.713  1.00  0.00     0.037 C 
HETATM    2  C2  UNL     1      23.951  16.747  -7.284  1.00  0.00     0.001 C 
HETATM    3  N1  UNL     1      25.176  16.735  -7.951  1.00  0.00    -0.295 N 
ATOM      4  H1  UNL     1      25.465  15.901  -8.461  1.00  0.00     0.178 HD
ENDROOT
BRANCH   3   5
HETATM    5  C3  UNL     1      26.023  17.871  -7.927  1.00  0.00     0.192 C 
HETATM    6  N2  UNL     1      26.508  18.370  -9.165  1.00  0.00    -0.069 NA
HETATM    7  S1  UNL     1      26.452  18.612  -6.531  1.00  0.00    -0.044 SA
ENDBRANCH   3   5
TORSDOF 1
ENDMDL
MODEL 4
REMARK VINA RESULT: -3.634333530      0.896      1.557
REMARK  1 active torsions:
REMARK  status: ('A' for Active; 'I' for Inactive)
REMARK    1  A    between atoms: N1_3  and  C3_5 
ROOT
HETATM    1  C1  UNL     1      22.710  16.666  -6.766  1.00  0.00     0.037 C 
HETATM    2  C2  UNL     1      23.858  17.039  -6.813  1.00  0.00     0.001 C 
HETATM    3  N1  UNL     1      25.186  17.461  -6.873  1.00  0.00    -0.295 N 
ATOM      4  H1  UNL     1      25.698  17.642  -6.010  1.00  0.00     0.178 HD
ENDROOT
BRANCH   3   5
HETATM    5  C3  UNL     1      25.832  17.640  -8.122  1.00  0.00     0.192 C 
HETATM    6  N2  UNL     1      25.445  16.801  -9.201  1.00  0.00    -0.069 NA
HETATM    7  S1  UNL     1      26.994  18.769  -8.351  1.00  0.00    -0.044 SA
ENDBRANCH   3   5
TORSDOF 1
ENDMDL
MODEL 5
REMARK VINA RESULT: -3.598397846      1.479      1.479
REMARK  1 active torsions:
REMARK  status: ('A' for Active; 'I' for Inactive)
REMARK    1  A    between atoms: N1_3  and  C3_5 
ROOT
HETATM    1  C1  UNL     1      23.158  16.857  -6.748  1.00  0.00     0.037 C 
HETATM    2  C2  UNL     1      24.192  17.359  -7.119  1.00  0.00     0.001 C 
HETATM    3  N1  UNL     1      25.381  17.950  -7.546  1.00  0.00    -0.295 N 
ATOM      4  H1  UNL     1      25.702  17.805  -8.503  1.00  0.00     0.178 HD
ENDROOT
BRANCH   3   5
HETATM    5  C3  UNL     1      26.148  18.751  -6.662  1.00  0.00     0.192 C 
HETATM    6  N2  UNL     1      26.866  18.099  -5.624  1.00  0.00    -0.069 NA
HETATM    7  S1  UNL     1      26.227  20.379  -6.804  1.00  0.00    -0.044 SA
ENDBRANCH   3   5
TORSDOF 1
ENDMDL
