MODEL 1
REMARK VINA RESULT: -4.368596609      0.000      0.000
REMARK  1 active torsions:
REMARK  status: ('A' for Active; 'I' for Inactive)
REMARK    1  A    between atoms: C4_5  and  N2_6 
ROOT
HETATM    1  C1  UNL     1      26.498  20.684  -8.801  1.00  0.00     0.156 C 
HETATM    2  N1  UNL     1      25.676  19.535  -8.473  1.00  0.00    -0.358 N 
HETATM    3  C2  UNL     1      24.757  19.538  -7.374  1.00  0.00     0.091 A 
HETATM    4  C3  UNL     1      24.011  18.501  -7.073  1.00  0.00     0.044 A 
HETATM    5  C4  UNL     1      24.078  17.259  -7.858  1.00  0.00     0.307 A 
HETATM    6  N3  UNL     1      24.997  17.324  -8.918  1.00  0.00    -0.356 N 
ATOM      7  H3  UNL     1      25.093  16.493  -9.503  1.00  0.00     0.162 HD
HETATM    8  C5  UNL     1      25.715  18.317  -9.211  1.00  0.00     0.179 A 
ENDROOT
BRANCH   5   9
HETATM    9  N2  UNL     1      22.745  16.826  -8.279  1.00  0.00    -0.055 N 
ATOM     10  H23 UNL     1      22.301  16.239  -7.573  1.00  0.00     0.277 HD
ATOM     11  H22 UNL     1      22.082  17.601  -8.279  1.00  0.00     0.277 HD
ATOM     12  H21 UNL     1      22.778  16.362  -9.187  1.00  0.00     0.277 HD
ENDBRANCH   5   9
TORSDOF 1
ENDMDL
MODEL 2
REMARK VINA RESULT: -4.100724128      1.339      3.458
REMARK  1 active torsions:
REMARK  status: ('A' for Active; 'I' for Inactive)
REMARK    1  A    between atoms: C4_5  and  N2_6 
ROOT
HETATM    1  C1  UNL     1      22.716  17.987  -6.799  1.00  0.00     0.156 C 
HETATM    2  N1  UNL     1      23.950  18.362  -7.463  1.00  0.00    -0.358 N 
HETATM    3  C2  UNL     1      24.578  17.525  -8.442  1.00  0.00     0.091 A 
HETATM    4  C3  UNL     1      25.694  17.860  -9.046  1.00  0.00     0.044 A 
HETATM    5  C4  UNL     1      26.373  19.130  -8.747  1.00  0.00     0.307 A 
HETATM    6  N3  UNL     1      25.705  19.900  -7.780  1.00  0.00    -0.356 N 
ATOM      7  H3  UNL     1      26.124  20.795  -7.527  1.00  0.00     0.162 HD
HETATM    8  C5  UNL     1      24.633  19.583  -7.199  1.00  0.00     0.179 A 
ENDROOT
BRANCH   5   9
HETATM    9  N2  UNL     1      26.666  19.875  -9.972  1.00  0.00    -0.055 N 
ATOM     10  H23 UNL     1      26.431  20.864  -9.875  1.00  0.00     0.277 HD
ATOM     11  H22 UNL     1      27.670  19.967 -10.124  1.00  0.00     0.277 HD
ATOM     12  H21 UNL     1      26.201  19.457 -10.778  1.00  0.00     0.277 HD
ENDBRANCH   5   9
TORSDOF 1
ENDMDL
MODEL 3
REMARK VINA RESULT: -4.092596583      1.120      1.164
REMARK  1 active torsions:
REMARK  status: ('A' for Active; 'I' for Inactive)
REMARK    1  A    between atoms: C4_5  and  N2_6 
ROOT
HETATM    1  C1  UNL     1      26.632  19.912 -10.104  1.00  0.00     0.156 C 
HETATM    2  N1  UNL     1      25.768  19.235  -9.156  1.00  0.00    -0.358 N 
HETATM    3  C2  UNL     1      25.705  19.609  -7.774  1.00  0.00     0.091 A 
HETATM    4  C3  UNL     1      24.925  18.999  -6.912  1.00  0.00     0.044 A 
HETATM    5  C4  UNL     1      24.059  17.883  -7.321  1.00  0.00     0.307 A 
HETATM    6  N3  UNL     1      24.170  17.569  -8.686  1.00  0.00    -0.356 N 
ATOM      7  H3  UNL     1      23.595  16.802  -9.035  1.00  0.00     0.162 HD
HETATM    8  C5  UNL     1      24.917  18.151  -9.517  1.00  0.00     0.179 A 
ENDROOT
BRANCH   5   9
HETATM    9  N2  UNL     1      22.677  18.100  -6.893  1.00  0.00    -0.055 N 
ATOM     10  H23 UNL     1      22.063  18.283  -7.687  1.00  0.00     0.277 HD
ATOM     11  H22 UNL     1      22.248  17.237  -6.559  1.00  0.00     0.277 HD
ATOM     12  H21 UNL     1      22.619  18.841  -6.195  1.00  0.00     0.277 HD
ENDBRANCH   5   9
TORSDOF 1
ENDMDL
MODEL 4
REMARK VINA RESULT: -3.930978518      1.151      3.267
REMARK  1 active torsions:
REMARK  status: ('A' for Active; 'I' for Inactive)
REMARK    1  A    between atoms: C4_5  and  N2_6 
ROOT
HETATM    1  C1  UNL     1      23.123  17.086  -7.906  1.00  0.00     0.156 C 
HETATM    2  N1  UNL     1      24.169  18.066  -8.125  1.00  0.00    -0.358 N 
HETATM    3  C2  UNL     1      24.474  19.088  -7.168  1.00  0.00     0.091 A 
HETATM    4  C3  UNL     1      25.420  19.977  -7.362  1.00  0.00     0.044 A 
HETATM    5  C4  UNL     1      26.231  19.975  -8.588  1.00  0.00     0.307 A 
HETATM    6  N3  UNL     1      25.880  18.949  -9.481  1.00  0.00    -0.356 N 
ATOM      7  H3  UNL     1      26.406  18.892 -10.354  1.00  0.00     0.162 HD
HETATM    8  C5  UNL     1      24.974  18.094  -9.300  1.00  0.00     0.179 A 
ENDROOT
BRANCH   5   9
HETATM    9  N2  UNL     1      27.661  20.001  -8.278  1.00  0.00    -0.055 N 
ATOM     10  H23 UNL     1      27.828  19.940  -7.273  1.00  0.00     0.277 HD
ATOM     11  H22 UNL     1      28.124  19.139  -8.566  1.00  0.00     0.277 HD
ATOM     12  H21 UNL     1      28.112  20.822  -8.682  1.00  0.00     0.277 HD
ENDBRANCH   5   9
TORSDOF 1
ENDMDL
MODEL 5
REMARK VINA RESULT: -3.815366307      1.316      1.983
REMARK  1 active torsions:
REMARK  status: ('A' for Active; 'I' for Inactive)
REMARK    1  A    between atoms: C4_5  and  N2_6 
ROOT
HETATM    1  C1  UNL     1      27.874  20.406  -7.655  1.00  0.00     0.156 C 
HETATM    2  N1  UNL     1      26.661  19.652  -7.909  1.00  0.00    -0.358 N 
HETATM    3  C2  UNL     1      26.272  19.246  -9.227  1.00  0.00     0.091 A 
HETATM    4  C3  UNL     1      25.176  18.563  -9.461  1.00  0.00     0.044 A 
HETATM    5  C4  UNL     1      24.272  18.171  -8.370  1.00  0.00     0.307 A 
HETATM    6  N3  UNL     1      24.712  18.600  -7.106  1.00  0.00    -0.356 N 
ATOM      7  H3  UNL     1      24.129  18.361  -6.305  1.00  0.00     0.162 HD
HETATM    8  C5  UNL     1      25.763  19.255  -6.876  1.00  0.00     0.179 A 
ENDROOT
BRANCH   5   9
HETATM    9  N2  UNL     1      23.974  16.739  -8.417  1.00  0.00    -0.055 N 
ATOM     10  H23 UNL     1      23.670  16.389  -7.508  1.00  0.00     0.277 HD
ATOM     11  H22 UNL     1      23.124  16.550  -8.950  1.00  0.00     0.277 HD
ATOM     12  H21 UNL     1      24.767  16.209  -8.777  1.00  0.00     0.277 HD
ENDBRANCH   5   9
TORSDOF 1
ENDMDL
