MODEL 1
REMARK VINA RESULT: -4.781559673      0.000      0.000
REMARK  2 active torsions:
REMARK  status: ('A' for Active; 'I' for Inactive)
REMARK    1  A    between atoms: C4_4  and  N1_5 
REMARK    2  A    between atoms: N2_10  and  N3_11 
ROOT
HETATM    1  C1  UNL     1      26.304  19.422  -9.694  1.00  0.00     0.028 C 
HETATM    2  C2  UNL     1      26.043  18.683  -8.381  1.00  0.00     0.077 C 
HETATM    3  C3  UNL     1      25.405  17.334  -8.725  1.00  0.00     0.055 C 
HETATM    4  C4  UNL     1      23.929  17.654  -8.529  1.00  0.00     0.199 C 
HETATM    5  C5  UNL     1      24.013  18.513  -7.259  1.00  0.00     0.146 C 
HETATM    6  N2  UNL     1      25.056  19.425  -7.665  1.00  0.00    -0.232 NA
ENDROOT
BRANCH   4   7
HETATM    7  N1  UNL     1      23.120  16.498  -8.354  1.00  0.00    -0.074 N 
ATOM      8  H13 UNL     1      22.339  16.499  -9.010  1.00  0.00     0.274 HD
ATOM      9  H12 UNL     1      23.608  15.663  -8.675  1.00  0.00     0.274 HD
ATOM     10  H11 UNL     1      22.788  16.378  -7.397  1.00  0.00     0.274 HD
ENDBRANCH   4   7
BRANCH   6  11
HETATM   11  N3  UNL     1      25.524  20.240  -6.673  1.00  0.00    -0.363 NA
ATOM     12  H32 UNL     1      24.874  20.965  -6.371  1.00  0.00     0.171 HD
ATOM     13  H31 UNL     1      25.886  19.770  -5.843  1.00  0.00     0.171 HD
ENDBRANCH   6  11
TORSDOF 2
ENDMDL
MODEL 2
REMARK VINA RESULT: -4.713785001      1.491      2.116
REMARK  2 active torsions:
REMARK  status: ('A' for Active; 'I' for Inactive)
REMARK    1  A    between atoms: C4_4  and  N1_5 
REMARK    2  A    between atoms: N2_10  and  N3_11 
ROOT
HETATM    1  C1  UNL     1      26.212  19.071  -6.517  1.00  0.00     0.028 C 
HETATM    2  C2  UNL     1      25.171  19.347  -7.602  1.00  0.00     0.077 C 
HETATM    3  C3  UNL     1      23.897  18.585  -7.229  1.00  0.00     0.055 C 
HETATM    4  C4  UNL     1      24.055  17.327  -8.074  1.00  0.00     0.199 C 
HETATM    5  C5  UNL     1      24.598  17.948  -9.369  1.00  0.00     0.146 C 
HETATM    6  N2  UNL     1      25.653  18.761  -8.811  1.00  0.00    -0.232 NA
ENDROOT
BRANCH   4   7
HETATM    7  N1  UNL     1      22.834  16.625  -8.275  1.00  0.00    -0.074 N 
ATOM      8  H13 UNL     1      22.034  17.230  -8.088  1.00  0.00     0.274 HD
ATOM      9  H12 UNL     1      22.680  16.444  -9.266  1.00  0.00     0.274 HD
ATOM     10  H11 UNL     1      22.770  15.763  -7.734  1.00  0.00     0.274 HD
ENDBRANCH   4   7
BRANCH   6  11
HETATM   11  N3  UNL     1      26.246  19.617  -9.695  1.00  0.00    -0.363 NA
ATOM     12  H32 UNL     1      26.228  19.309 -10.668  1.00  0.00     0.171 HD
ATOM     13  H31 UNL     1      25.926  20.585  -9.662  1.00  0.00     0.171 HD
ENDBRANCH   6  11
TORSDOF 2
ENDMDL
MODEL 3
REMARK VINA RESULT: -4.518974618      0.858      2.976
REMARK  2 active torsions:
REMARK  status: ('A' for Active; 'I' for Inactive)
REMARK    1  A    between atoms: C4_4  and  N1_5 
REMARK    2  A    between atoms: N2_10  and  N3_11 
ROOT
HETATM    1  C1  UNL     1      25.916  16.512  -9.083  1.00  0.00     0.028 C 
HETATM    2  C2  UNL     1      24.864  17.621  -9.109  1.00  0.00     0.077 C 
HETATM    3  C3  UNL     1      25.581  18.949  -8.853  1.00  0.00     0.055 C 
HETATM    4  C4  UNL     1      25.342  19.123  -7.358  1.00  0.00     0.199 C 
HETATM    5  C5  UNL     1      23.883  18.653  -7.270  1.00  0.00     0.146 C 
HETATM    6  N2  UNL     1      23.996  17.410  -7.995  1.00  0.00    -0.232 NA
ENDROOT
BRANCH   4   7
HETATM    7  N1  UNL     1      25.512  20.463  -6.913  1.00  0.00    -0.074 N 
ATOM      8  H13 UNL     1      25.697  20.491  -5.910  1.00  0.00     0.274 HD
ATOM      9  H12 UNL     1      26.391  20.850  -7.257  1.00  0.00     0.274 HD
ATOM     10  H11 UNL     1      24.730  21.071  -7.154  1.00  0.00     0.274 HD
ENDBRANCH   4   7
BRANCH   6  11
HETATM   11  N3  UNL     1      22.807  16.796  -8.272  1.00  0.00    -0.363 NA
ATOM     12  H32 UNL     1      22.889  15.843  -8.626  1.00  0.00     0.171 HD
ATOM     13  H31 UNL     1      22.118  16.799  -7.520  1.00  0.00     0.171 HD
ENDBRANCH   6  11
TORSDOF 2
ENDMDL
MODEL 4
REMARK VINA RESULT: -4.140175972      1.492      3.072
REMARK  2 active torsions:
REMARK  status: ('A' for Active; 'I' for Inactive)
REMARK    1  A    between atoms: C4_4  and  N1_5 
REMARK    2  A    between atoms: N2_10  and  N3_11 
ROOT
HETATM    1  C1  UNL     1      25.627  16.831  -8.868  1.00  0.00     0.028 C 
HETATM    2  C2  UNL     1      24.993  18.221  -8.892  1.00  0.00     0.077 C 
HETATM    3  C3  UNL     1      26.004  19.184  -9.521  1.00  0.00     0.055 C 
HETATM    4  C4  UNL     1      26.642  19.787  -8.275  1.00  0.00     0.199 C 
HETATM    5  C5  UNL     1      25.392  19.960  -7.399  1.00  0.00     0.146 C 
HETATM    6  N2  UNL     1      24.829  18.637  -7.536  1.00  0.00    -0.232 NA
ENDROOT
BRANCH   4   7
HETATM    7  N1  UNL     1      27.308  21.019  -8.524  1.00  0.00    -0.074 N 
ATOM      8  H13 UNL     1      26.637  21.760  -8.726  1.00  0.00     0.274 HD
ATOM      9  H12 UNL     1      27.716  21.389  -7.666  1.00  0.00     0.274 HD
ATOM     10  H11 UNL     1      28.011  20.956  -9.261  1.00  0.00     0.274 HD
ENDBRANCH   4   7
BRANCH   6  11
HETATM   11  N3  UNL     1      23.576  18.490  -7.013  1.00  0.00    -0.363 NA
ATOM     12  H32 UNL     1      23.550  18.291  -6.013  1.00  0.00     0.171 HD
ATOM     13  H31 UNL     1      22.921  19.248  -7.204  1.00  0.00     0.171 HD
ENDBRANCH   6  11
TORSDOF 2
ENDMDL
MODEL 5
REMARK VINA RESULT: -4.032078902      1.384      1.460
REMARK  2 active torsions:
REMARK  status: ('A' for Active; 'I' for Inactive)
REMARK    1  A    between atoms: C4_4  and  N1_5 
REMARK    2  A    between atoms: N2_10  and  N3_11 
ROOT
HETATM    1  C1  UNL     1      26.223  19.563 -10.103  1.00  0.00     0.028 C 
HETATM    2  C2  UNL     1      26.373  18.697  -8.852  1.00  0.00     0.077 C 
HETATM    3  C3  UNL     1      25.086  17.884  -8.691  1.00  0.00     0.055 C 
HETATM    4  C4  UNL     1      24.327  18.740  -7.684  1.00  0.00     0.199 C 
HETATM    5  C5  UNL     1      25.481  19.126  -6.747  1.00  0.00     0.146 C 
HETATM    6  N2  UNL     1      26.436  19.579  -7.730  1.00  0.00    -0.232 NA
ENDROOT
BRANCH   4   7
HETATM    7  N1  UNL     1      23.291  18.035  -7.013  1.00  0.00    -0.074 N 
ATOM      8  H13 UNL     1      22.796  17.417  -7.657  1.00  0.00     0.274 HD
ATOM      9  H12 UNL     1      23.680  17.338  -6.378  1.00  0.00     0.274 HD
ATOM     10  H11 UNL     1      22.637  18.646  -6.524  1.00  0.00     0.274 HD
ENDBRANCH   4   7
BRANCH   6  11
HETATM   11  N3  UNL     1      27.686  19.835  -7.241  1.00  0.00    -0.363 NA
ATOM     12  H32 UNL     1      28.079  19.093  -6.661  1.00  0.00     0.171 HD
ATOM     13  H31 UNL     1      28.387  20.107  -7.930  1.00  0.00     0.171 HD
ENDBRANCH   6  11
TORSDOF 2
ENDMDL
