MODEL 1
REMARK VINA RESULT: -6.647965752      0.000      0.000
REMARK  10 active torsions:
REMARK  status: ('A' for Active; 'I' for Inactive)
REMARK    1  A    between atoms: O1_2  and  C2_3 
REMARK    2  A    between atoms: C2_3  and  C3_5 
REMARK    3  A    between atoms: C5_7  and  O3_8 
REMARK    4  A    between atoms: C7_10  and  O4_11 
REMARK    5  A    between atoms: O4_11  and  C8_12 
REMARK    6  A    between atoms: C8_12  and  C9_14 
REMARK    7  A    between atoms: C12_18  and  C13_19 
REMARK    8  A    between atoms: C17_23  and  N2_24 
REMARK       I    between atoms: N2_24  and  C18_26 
REMARK    9  A    between atoms: C18_26  and  O7_28 
REMARK   10  A    between atoms: O7_28  and  C19_29 
ROOT
HETATM    1  C9  UNL     1      16.893 -36.960  -9.166  1.00  0.00     0.019 C 
HETATM    2  C10 UNL     1      15.824 -37.411  -9.491  1.00  0.00     0.024 C 
HETATM    3  C11 UNL     1      14.554 -37.925  -9.860  1.00  0.00     0.152 C 
HETATM    4  N1  UNL     1      13.512 -38.329 -10.166  1.00  0.00    -0.182 NA
ENDROOT
BRANCH   1   5
HETATM    5  C8  UNL     1      18.175 -36.401  -8.757  1.00  0.00     0.345 C 
HETATM    6  O5  UNL     1      18.453 -35.204  -9.005  1.00  0.00    -0.249 OA
BRANCH   5   7
HETATM    7  O4  UNL     1      19.102 -37.189  -8.088  1.00  0.00    -0.265 OA
BRANCH   7   8
HETATM    8  C7  UNL     1      20.034 -36.735  -7.207  1.00  0.00     0.122 A 
HETATM    9  C5  UNL     1      19.539 -36.368  -5.949  1.00  0.00     0.103 A 
HETATM   10  C4  UNL     1      20.392 -35.901  -5.010  1.00  0.00     0.059 A 
HETATM   11  C3  UNL     1      21.729 -35.791  -5.303  1.00  0.00     0.069 A 
HETATM   12  C17 UNL     1      22.200 -36.161  -6.570  1.00  0.00     0.063 A 
HETATM   13  C12 UNL     1      21.372 -36.639  -7.540  1.00  0.00     0.014 A 
BRANCH   9  14
HETATM   14  O3  UNL     1      18.190 -36.473  -5.653  1.00  0.00    -0.353 OA
HETATM   15  C6  UNL     1      17.745 -37.531  -4.847  1.00  0.00     0.210 C 
ENDBRANCH   9  14
BRANCH  11  16
HETATM   16  C2  UNL     1      22.608 -35.349  -4.266  1.00  0.00     0.295 C 
HETATM   17  O2  UNL     1      22.408 -34.322  -3.611  1.00  0.00    -0.259 OA
BRANCH  16  18
HETATM   18  O1  UNL     1      23.772 -36.066  -3.923  1.00  0.00    -0.322 OA
HETATM   19  C1  UNL     1      23.689 -37.340  -3.297  1.00  0.00     0.213 C 
ENDBRANCH  16  18
ENDBRANCH  11  16
BRANCH  12  20
HETATM   20  N2  UNL     1      23.564 -35.954  -6.771  1.00  0.00    -0.301 N 
HETATM   21  C18 UNL     1      24.156 -34.679  -7.128  1.00  0.00     0.365 C 
HETATM   22  O6  UNL     1      23.397 -33.687  -7.266  1.00  0.00    -0.238 OA
ATOM     23  H2  UNL     1      24.188 -36.754  -6.660  1.00  0.00     0.171 HD
BRANCH  21  24
HETATM   24  O7  UNL     1      25.499 -34.516  -7.316  1.00  0.00    -0.298 OA
BRANCH  24  25
HETATM   25  C19 UNL     1      26.256 -35.122  -8.335  1.00  0.00     0.133 C 
HETATM   26  C20 UNL     1      27.648 -34.569  -8.273  1.00  0.00     0.032 C 
HETATM   27  C21 UNL     1      28.017 -33.777  -9.505  1.00  0.00     0.002 C 
HETATM   28  C22 UNL     1      28.047 -34.591 -10.755  1.00  0.00     0.000 C 
HETATM   29  C23 UNL     1      27.635 -36.015 -10.585  1.00  0.00     0.000 C 
HETATM   30  C24 UNL     1      26.131 -36.093 -10.565  1.00  0.00     0.002 C 
HETATM   31  C25 UNL     1      25.624 -34.968  -9.694  1.00  0.00     0.032 C 
ENDBRANCH  24  25
ENDBRANCH  21  24
ENDBRANCH  12  20
BRANCH  13  32
HETATM   32  C13 UNL     1      21.764 -37.085  -8.839  1.00  0.00    -0.019 C 
HETATM   33  C14 UNL     1      23.120 -37.593  -9.130  1.00  0.00     0.019 C 
HETATM   34  C15 UNL     1      20.816 -38.182  -9.388  1.00  0.00     0.019 C 
HETATM   35  C16 UNL     1      21.546 -35.903  -9.804  1.00  0.00     0.019 C 
ENDBRANCH  13  32
ENDBRANCH   7   8
ENDBRANCH   5   7
ENDBRANCH   1   5
TORSDOF 10
ENDMDL
MODEL 2
REMARK VINA RESULT: -6.640888061      2.569      4.730
REMARK  10 active torsions:
REMARK  status: ('A' for Active; 'I' for Inactive)
REMARK    1  A    between atoms: O1_2  and  C2_3 
REMARK    2  A    between atoms: C2_3  and  C3_5 
REMARK    3  A    between atoms: C5_7  and  O3_8 
REMARK    4  A    between atoms: C7_10  and  O4_11 
REMARK    5  A    between atoms: O4_11  and  C8_12 
REMARK    6  A    between atoms: C8_12  and  C9_14 
REMARK    7  A    between atoms: C12_18  and  C13_19 
REMARK    8  A    between atoms: C17_23  and  N2_24 
REMARK       I    between atoms: N2_24  and  C18_26 
REMARK    9  A    between atoms: C18_26  and  O7_28 
REMARK   10  A    between atoms: O7_28  and  C19_29 
ROOT
HETATM    1  C9  UNL     1      19.027 -34.802  -3.409  1.00  0.00     0.019 C 
HETATM    2  C10 UNL     1      19.002 -33.605  -3.543  1.00  0.00     0.024 C 
HETATM    3  C11 UNL     1      18.954 -32.194  -3.687  1.00  0.00     0.152 C 
HETATM    4  N1  UNL     1      18.915 -31.041  -3.786  1.00  0.00    -0.182 NA
ENDROOT
BRANCH   1   5
HETATM    5  C8  UNL     1      19.036 -36.249  -3.235  1.00  0.00     0.345 C 
HETATM    6  O5  UNL     1      18.117 -36.817  -2.598  1.00  0.00    -0.249 OA
BRANCH   5   7
HETATM    7  O4  UNL     1      20.062 -37.013  -3.773  1.00  0.00    -0.265 OA
BRANCH   7   8
HETATM    8  C7  UNL     1      20.595 -36.856  -5.015  1.00  0.00     0.122 A 
HETATM    9  C5  UNL     1      19.743 -37.181  -6.077  1.00  0.00     0.103 A 
HETATM   10  C4  UNL     1      20.187 -37.059  -7.348  1.00  0.00     0.059 A 
HETATM   11  C3  UNL     1      21.469 -36.621  -7.578  1.00  0.00     0.069 A 
HETATM   12  C17 UNL     1      22.304 -36.306  -6.499  1.00  0.00     0.063 A 
HETATM   13  C12 UNL     1      21.891 -36.412  -5.206  1.00  0.00     0.014 A 
BRANCH   9  14
HETATM   14  O3  UNL     1      18.452 -37.627  -5.847  1.00  0.00    -0.353 OA
HETATM   15  C6  UNL     1      17.381 -36.996  -6.496  1.00  0.00     0.210 C 
ENDBRANCH   9  14
BRANCH  11  16
HETATM   16  C2  UNL     1      21.884 -36.449  -8.935  1.00  0.00     0.295 C 
HETATM   17  O2  UNL     1      22.809 -37.093  -9.440  1.00  0.00    -0.259 OA
BRANCH  16  18
HETATM   18  O1  UNL     1      21.258 -35.523  -9.792  1.00  0.00    -0.322 OA
HETATM   19  C1  UNL     1      20.157 -35.908 -10.607  1.00  0.00     0.213 C 
ENDBRANCH  16  18
ENDBRANCH  11  16
BRANCH  12  20
HETATM   20  N2  UNL     1      23.599 -35.926  -6.852  1.00  0.00    -0.301 N 
HETATM   21  C18 UNL     1      24.008 -34.561  -7.122  1.00  0.00     0.365 C 
HETATM   22  O6  UNL     1      23.145 -33.651  -7.035  1.00  0.00    -0.238 OA
ATOM     23  H2  UNL     1      24.306 -36.658  -6.924  1.00  0.00     0.171 HD
BRANCH  21  24
HETATM   24  O7  UNL     1      25.288 -34.229  -7.465  1.00  0.00    -0.298 OA
BRANCH  24  25
HETATM   25  C19 UNL     1      26.103 -34.949  -8.356  1.00  0.00     0.133 C 
HETATM   26  C20 UNL     1      27.489 -34.382  -8.281  1.00  0.00     0.032 C 
HETATM   27  C21 UNL     1      27.930 -33.744  -9.578  1.00  0.00     0.002 C 
HETATM   28  C22 UNL     1      28.034 -34.704 -10.714  1.00  0.00     0.000 C 
HETATM   29  C23 UNL     1      27.613 -36.100 -10.396  1.00  0.00     0.000 C 
HETATM   30  C24 UNL     1      26.110 -36.186 -10.454  1.00  0.00     0.002 C 
HETATM   31  C25 UNL     1      25.552 -34.967  -9.759  1.00  0.00     0.032 C 
ENDBRANCH  24  25
ENDBRANCH  21  24
ENDBRANCH  12  20
BRANCH  13  32
HETATM   32  C13 UNL     1      22.650 -36.069  -4.046  1.00  0.00    -0.019 C 
HETATM   33  C14 UNL     1      22.391 -36.664  -2.720  1.00  0.00     0.019 C 
HETATM   34  C15 UNL     1      24.172 -36.272  -4.267  1.00  0.00     0.019 C 
HETATM   35  C16 UNL     1      22.514 -34.546  -3.854  1.00  0.00     0.019 C 
ENDBRANCH  13  32
ENDBRANCH   7   8
ENDBRANCH   5   7
ENDBRANCH   1   5
TORSDOF 10
ENDMDL
MODEL 3
REMARK VINA RESULT: -6.572528589      3.305      7.683
REMARK  10 active torsions:
REMARK  status: ('A' for Active; 'I' for Inactive)
REMARK    1  A    between atoms: O1_2  and  C2_3 
REMARK    2  A    between atoms: C2_3  and  C3_5 
REMARK    3  A    between atoms: C5_7  and  O3_8 
REMARK    4  A    between atoms: C7_10  and  O4_11 
REMARK    5  A    between atoms: O4_11  and  C8_12 
REMARK    6  A    between atoms: C8_12  and  C9_14 
REMARK    7  A    between atoms: C12_18  and  C13_19 
REMARK    8  A    between atoms: C17_23  and  N2_24 
REMARK       I    between atoms: N2_24  and  C18_26 
REMARK    9  A    between atoms: C18_26  and  O7_28 
REMARK   10  A    between atoms: O7_28  and  C19_29 
ROOT
HETATM    1  C9  UNL     1      26.826 -36.749  -9.235  1.00  0.00     0.019 C 
HETATM    2  C10 UNL     1      27.730 -37.208  -8.584  1.00  0.00     0.024 C 
HETATM    3  C11 UNL     1      28.810 -37.742  -7.834  1.00  0.00     0.152 C 
HETATM    4  N1  UNL     1      29.700 -38.163  -7.224  1.00  0.00    -0.182 NA
ENDROOT
BRANCH   1   5
HETATM    5  C8  UNL     1      25.748 -36.191 -10.042  1.00  0.00     0.345 C 
HETATM    6  O5  UNL     1      25.829 -36.189 -11.293  1.00  0.00    -0.249 OA
BRANCH   5   7
HETATM    7  O4  UNL     1      24.622 -35.656  -9.432  1.00  0.00    -0.265 OA
BRANCH   7   8
HETATM    8  C7  UNL     1      23.734 -36.350  -8.669  1.00  0.00     0.122 A 
HETATM    9  C5  UNL     1      23.113 -37.431  -9.308  1.00  0.00     0.103 A 
HETATM   10  C4  UNL     1      22.213 -38.177  -8.628  1.00  0.00     0.059 A 
HETATM   11  C3  UNL     1      21.918 -37.861  -7.324  1.00  0.00     0.069 A 
HETATM   12  C17 UNL     1      22.550 -36.773  -6.708  1.00  0.00     0.063 A 
HETATM   13  C12 UNL     1      23.464 -36.002  -7.359  1.00  0.00     0.014 A 
BRANCH   9  14
HETATM   14  O3  UNL     1      23.405 -37.748 -10.624  1.00  0.00    -0.353 OA
HETATM   15  C6  UNL     1      23.119 -39.035 -11.100  1.00  0.00     0.210 C 
ENDBRANCH   9  14
BRANCH  11  16
HETATM   16  C2  UNL     1      21.006 -38.707  -6.620  1.00  0.00     0.295 C 
HETATM   17  O2  UNL     1      19.781 -38.624  -6.749  1.00  0.00    -0.259 OA
BRANCH  16  18
HETATM   18  O1  UNL     1      21.452 -39.699  -5.725  1.00  0.00    -0.322 OA
HETATM   19  C1  UNL     1      21.236 -41.079  -5.995  1.00  0.00     0.213 C 
ENDBRANCH  16  18
ENDBRANCH  11  16
BRANCH  12  20
HETATM   20  N2  UNL     1      22.131 -36.515  -5.404  1.00  0.00    -0.301 N 
HETATM   21  C18 UNL     1      20.956 -35.740  -5.058  1.00  0.00     0.365 C 
HETATM   22  O6  UNL     1      20.259 -35.264  -5.990  1.00  0.00    -0.238 OA
ATOM     23  H2  UNL     1      22.690 -36.897  -4.640  1.00  0.00     0.171 HD
BRANCH  21  24
HETATM   24  O7  UNL     1      20.578 -35.509  -3.765  1.00  0.00    -0.298 OA
BRANCH  24  25
HETATM   25  C19 UNL     1      20.654 -34.269  -3.105  1.00  0.00     0.133 C 
HETATM   26  C20 UNL     1      19.394 -33.510  -3.391  1.00  0.00     0.032 C 
HETATM   27  C21 UNL     1      19.639 -32.250  -4.188  1.00  0.00     0.002 C 
HETATM   28  C22 UNL     1      20.470 -31.240  -3.472  1.00  0.00     0.000 C 
HETATM   29  C23 UNL     1      20.975 -31.676  -2.137  1.00  0.00     0.000 C 
HETATM   30  C24 UNL     1      22.191 -32.545  -2.332  1.00  0.00     0.002 C 
HETATM   31  C25 UNL     1      21.898 -33.498  -3.466  1.00  0.00     0.032 C 
ENDBRANCH  24  25
ENDBRANCH  21  24
ENDBRANCH  12  20
BRANCH  13  32
HETATM   32  C13 UNL     1      24.192 -34.907  -6.802  1.00  0.00    -0.019 C 
HETATM   33  C14 UNL     1      25.419 -34.369  -7.423  1.00  0.00     0.019 C 
HETATM   34  C15 UNL     1      23.294 -33.661  -6.585  1.00  0.00     0.019 C 
HETATM   35  C16 UNL     1      24.594 -35.315  -5.371  1.00  0.00     0.019 C 
ENDBRANCH  13  32
ENDBRANCH   7   8
ENDBRANCH   5   7
ENDBRANCH   1   5
TORSDOF 10
ENDMDL
MODEL 4
REMARK VINA RESULT: -6.562474422      2.955      8.069
REMARK  10 active torsions:
REMARK  status: ('A' for Active; 'I' for Inactive)
REMARK    1  A    between atoms: O1_2  and  C2_3 
REMARK    2  A    between atoms: C2_3  and  C3_5 
REMARK    3  A    between atoms: C5_7  and  O3_8 
REMARK    4  A    between atoms: C7_10  and  O4_11 
REMARK    5  A    between atoms: O4_11  and  C8_12 
REMARK    6  A    between atoms: C8_12  and  C9_14 
REMARK    7  A    between atoms: C12_18  and  C13_19 
REMARK    8  A    between atoms: C17_23  and  N2_24 
REMARK       I    between atoms: N2_24  and  C18_26 
REMARK    9  A    between atoms: C18_26  and  O7_28 
REMARK   10  A    between atoms: O7_28  and  C19_29 
ROOT
HETATM    1  C9  UNL     1      26.233 -36.563 -10.052  1.00  0.00     0.019 C 
HETATM    2  C10 UNL     1      26.975 -37.209 -10.748  1.00  0.00     0.024 C 
HETATM    3  C11 UNL     1      27.840 -37.988 -11.559  1.00  0.00     0.152 C 
HETATM    4  N1  UNL     1      28.531 -38.634 -12.228  1.00  0.00    -0.182 NA
ENDROOT
BRANCH   1   5
HETATM    5  C8  UNL     1      25.328 -35.803  -9.199  1.00  0.00     0.345 C 
HETATM    6  O5  UNL     1      25.292 -34.552  -9.268  1.00  0.00    -0.249 OA
BRANCH   5   7
HETATM    7  O4  UNL     1      24.498 -36.458  -8.300  1.00  0.00    -0.265 OA
BRANCH   7   8
HETATM    8  C7  UNL     1      23.138 -36.492  -8.363  1.00  0.00     0.122 A 
HETATM    9  C5  UNL     1      22.608 -37.209  -9.442  1.00  0.00     0.103 A 
HETATM   10  C4  UNL     1      21.266 -37.294  -9.588  1.00  0.00     0.059 A 
HETATM   11  C3  UNL     1      20.445 -36.675  -8.678  1.00  0.00     0.069 A 
HETATM   12  C17 UNL     1      21.000 -35.960  -7.609  1.00  0.00     0.063 A 
HETATM   13  C12 UNL     1      22.346 -35.855  -7.426  1.00  0.00     0.014 A 
BRANCH   9  14
HETATM   14  O3  UNL     1      23.434 -37.831 -10.363  1.00  0.00    -0.353 OA
HETATM   15  C6  UNL     1      22.977 -38.974 -11.035  1.00  0.00     0.210 C 
ENDBRANCH   9  14
BRANCH  11  16
HETATM   16  C2  UNL     1      19.033 -36.836  -8.832  1.00  0.00     0.295 C 
HETATM   17  O2  UNL     1      18.365 -37.599  -8.129  1.00  0.00    -0.259 OA
BRANCH  16  18
HETATM   18  O1  UNL     1      18.307 -36.125  -9.808  1.00  0.00    -0.322 OA
HETATM   19  C1  UNL     1      17.852 -36.766 -10.993  1.00  0.00     0.213 C 
ENDBRANCH  16  18
ENDBRANCH  11  16
BRANCH  12  20
HETATM   20  N2  UNL     1      20.072 -35.328  -6.782  1.00  0.00    -0.301 N 
HETATM   21  C18 UNL     1      19.425 -34.067  -7.091  1.00  0.00     0.365 C 
HETATM   22  O6  UNL     1      19.712 -33.498  -8.174  1.00  0.00    -0.238 OA
ATOM     23  H2  UNL     1      19.832 -35.783  -5.901  1.00  0.00     0.171 HD
BRANCH  21  24
HETATM   24  O7  UNL     1      18.518 -33.479  -6.254  1.00  0.00    -0.298 OA
BRANCH  24  25
HETATM   25  C19 UNL     1      18.657 -33.361  -4.860  1.00  0.00     0.133 C 
HETATM   26  C20 UNL     1      17.363 -32.848  -4.304  1.00  0.00     0.032 C 
HETATM   27  C21 UNL     1      17.499 -31.480  -3.677  1.00  0.00     0.002 C 
HETATM   28  C22 UNL     1      18.395 -31.454  -2.485  1.00  0.00     0.000 C 
HETATM   29  C23 UNL     1      19.058 -32.753  -2.170  1.00  0.00     0.000 C 
HETATM   30  C24 UNL     1      20.253 -32.927  -3.072  1.00  0.00     0.002 C 
HETATM   31  C25 UNL     1      19.841 -32.516  -4.465  1.00  0.00     0.032 C 
ENDBRANCH  24  25
ENDBRANCH  21  24
ENDBRANCH  12  20
BRANCH  13  32
HETATM   32  C13 UNL     1      23.001 -35.192  -6.345  1.00  0.00    -0.019 C 
HETATM   33  C14 UNL     1      24.391 -35.495  -5.951  1.00  0.00     0.019 C 
HETATM   34  C15 UNL     1      22.975 -33.650  -6.507  1.00  0.00     0.019 C 
HETATM   35  C16 UNL     1      22.148 -35.436  -5.085  1.00  0.00     0.019 C 
ENDBRANCH  13  32
ENDBRANCH   7   8
ENDBRANCH   5   7
ENDBRANCH   1   5
TORSDOF 10
ENDMDL
MODEL 5
REMARK VINA RESULT: -6.560763455      2.897      6.331
REMARK  10 active torsions:
REMARK  status: ('A' for Active; 'I' for Inactive)
REMARK    1  A    between atoms: O1_2  and  C2_3 
REMARK    2  A    between atoms: C2_3  and  C3_5 
REMARK    3  A    between atoms: C5_7  and  O3_8 
REMARK    4  A    between atoms: C7_10  and  O4_11 
REMARK    5  A    between atoms: O4_11  and  C8_12 
REMARK    6  A    between atoms: C8_12  and  C9_14 
REMARK    7  A    between atoms: C12_18  and  C13_19 
REMARK    8  A    between atoms: C17_23  and  N2_24 
REMARK       I    between atoms: N2_24  and  C18_26 
REMARK    9  A    between atoms: C18_26  and  O7_28 
REMARK   10  A    between atoms: O7_28  and  C19_29 
ROOT
HETATM    1  C9  UNL     1      21.342 -39.544  -9.433  1.00  0.00     0.019 C 
HETATM    2  C10 UNL     1      21.257 -40.206  -8.429  1.00  0.00     0.024 C 
HETATM    3  C11 UNL     1      21.180 -40.980  -7.242  1.00  0.00     0.152 C 
HETATM    4  N1  UNL     1      21.122 -41.597  -6.264  1.00  0.00    -0.182 NA
ENDROOT
BRANCH   1   5
HETATM    5  C8  UNL     1      21.468 -38.741 -10.642  1.00  0.00     0.345 C 
HETATM    6  O5  UNL     1      21.457 -39.288 -11.771  1.00  0.00    -0.249 OA
BRANCH   5   7
HETATM    7  O4  UNL     1      21.603 -37.362 -10.557  1.00  0.00    -0.265 OA
BRANCH   7   8
HETATM    8  C7  UNL     1      22.177 -36.688  -9.523  1.00  0.00     0.122 A 
HETATM    9  C5  UNL     1      23.547 -36.919  -9.347  1.00  0.00     0.103 A 
HETATM   10  C4  UNL     1      24.202 -36.296  -8.342  1.00  0.00     0.059 A 
HETATM   11  C3  UNL     1      23.514 -35.447  -7.508  1.00  0.00     0.069 A 
HETATM   12  C17 UNL     1      22.143 -35.236  -7.703  1.00  0.00     0.063 A 
HETATM   13  C12 UNL     1      21.451 -35.843  -8.706  1.00  0.00     0.014 A 
BRANCH   9  14
HETATM   14  O3  UNL     1      24.241 -37.777 -10.183  1.00  0.00    -0.353 OA
HETATM   15  C6  UNL     1      25.519 -37.414 -10.633  1.00  0.00     0.210 C 
ENDBRANCH   9  14
BRANCH  11  16
HETATM   16  C2  UNL     1      24.252 -34.762  -6.494  1.00  0.00     0.295 C 
HETATM   17  O2  UNL     1      24.304 -35.152  -5.324  1.00  0.00    -0.259 OA
BRANCH  16  18
HETATM   18  O1  UNL     1      24.973 -33.583  -6.769  1.00  0.00    -0.322 OA
HETATM   19  C1  UNL     1      26.134 -33.610  -7.590  1.00  0.00     0.213 C 
ENDBRANCH  16  18
ENDBRANCH  11  16
BRANCH  12  20
HETATM   20  N2  UNL     1      21.541 -34.400  -6.764  1.00  0.00    -0.301 N 
HETATM   21  C18 UNL     1      20.907 -34.861  -5.543  1.00  0.00     0.365 C 
HETATM   22  O6  UNL     1      20.895 -36.095  -5.306  1.00  0.00    -0.238 OA
ATOM     23  H2  UNL     1      21.546 -33.396  -6.947  1.00  0.00     0.171 HD
BRANCH  21  24
HETATM   24  O7  UNL     1      20.327 -34.010  -4.646  1.00  0.00    -0.298 OA
BRANCH  24  25
HETATM   25  C19 UNL     1      20.995 -32.990  -3.945  1.00  0.00     0.133 C 
HETATM   26  C20 UNL     1      21.983 -33.632  -3.018  1.00  0.00     0.032 C 
HETATM   27  C21 UNL     1      21.661 -33.388  -1.561  1.00  0.00     0.002 C 
HETATM   28  C22 UNL     1      21.731 -31.952  -1.165  1.00  0.00     0.000 C 
HETATM   29  C23 UNL     1      22.027 -31.007  -2.281  1.00  0.00     0.000 C 
HETATM   30  C24 UNL     1      20.757 -30.738  -3.047  1.00  0.00     0.002 C 
HETATM   31  C25 UNL     1      20.047 -32.058  -3.236  1.00  0.00     0.032 C 
ENDBRANCH  24  25
ENDBRANCH  21  24
ENDBRANCH  12  20
BRANCH  13  32
HETATM   32  C13 UNL     1      20.069 -35.653  -9.012  1.00  0.00    -0.019 C 
HETATM   33  C14 UNL     1      19.335 -34.424  -8.649  1.00  0.00     0.019 C 
HETATM   34  C15 UNL     1      19.776 -35.843 -10.523  1.00  0.00     0.019 C 
HETATM   35  C16 UNL     1      19.298 -36.810  -8.347  1.00  0.00     0.019 C 
ENDBRANCH  13  32
ENDBRANCH   7   8
ENDBRANCH   5   7
ENDBRANCH   1   5
TORSDOF 10
ENDMDL
