MODEL 1
REMARK VINA RESULT: -6.148130002      0.000      0.000
REMARK  4 active torsions:
REMARK  status: ('A' for Active; 'I' for Inactive)
REMARK    1  A    between atoms: O1_2  and  C2_3 
REMARK    2  A    between atoms: C5_6  and  C6_7 
REMARK    3  A    between atoms: C6_7  and  N1_8 
REMARK    4  A    between atoms: N1_8  and  C7_10 
ROOT
HETATM    1  C2  UNL     1      56.105 358.915  85.281  1.00  0.00     0.141 A 
HETATM    2  C3  UNL     1      56.839 357.770  85.515  1.00  0.00     0.058 A 
HETATM    3  C4  UNL     1      57.583 357.970  86.655  1.00  0.00     0.031 A 
HETATM    4  C5  UNL     1      57.277 359.239  87.084  1.00  0.00     0.029 A 
HETATM    5  N3  UNL     1      56.386 359.805  86.253  1.00  0.00    -0.339 N 
ATOM      6  H3  UNL     1      55.992 360.742  86.342  1.00  0.00     0.168 HD
ENDROOT
BRANCH   4   7
HETATM    7  C6  UNL     1      57.866 359.875  88.304  1.00  0.00     0.177 C 
BRANCH   7   8
HETATM    8  N1  UNL     1      56.901 359.938  89.385  1.00  0.00    -0.381 N 
ATOM      9  H1  UNL     1      56.854 359.160  90.043  1.00  0.00     0.160 HD
BRANCH   8  10
HETATM   10  C7  UNL     1      56.027 361.028  89.568  1.00  0.00     0.169 C 
HETATM   11  N2  UNL     1      56.384 362.145  90.117  1.00  0.00    -0.396 N 
ATOM     12  H22 UNL     1      57.352 362.225  90.427  1.00  0.00     0.156 HD
ATOM     13  H21 UNL     1      55.750 362.934  90.250  1.00  0.00     0.156 HD
ENDBRANCH   8  10
ENDBRANCH   7   8
ENDBRANCH   4   7
BRANCH   1  14
HETATM   14  O1  UNL     1      55.217 359.101  84.203  1.00  0.00    -0.341 OA
HETATM   15  C1  UNL     1      53.846 358.921  84.381  1.00  0.00     0.211 C 
ENDBRANCH   1  14
TORSDOF 4
ENDMDL
MODEL 2
REMARK VINA RESULT: -6.102703826      2.330      3.163
REMARK  4 active torsions:
REMARK  status: ('A' for Active; 'I' for Inactive)
REMARK    1  A    between atoms: O1_2  and  C2_3 
REMARK    2  A    between atoms: C5_6  and  C6_7 
REMARK    3  A    between atoms: C6_7  and  N1_8 
REMARK    4  A    between atoms: N1_8  and  C7_10 
ROOT
HETATM    1  C2  UNL     1      54.689 358.300  84.503  1.00  0.00     0.141 A 
HETATM    2  C3  UNL     1      54.676 359.579  85.020  1.00  0.00     0.058 A 
HETATM    3  C4  UNL     1      55.769 359.713  85.845  1.00  0.00     0.031 A 
HETATM    4  C5  UNL     1      56.419 358.504  85.804  1.00  0.00     0.029 A 
HETATM    5  N3  UNL     1      55.765 357.655  84.995  1.00  0.00    -0.339 N 
ATOM      6  H3  UNL     1      56.035 356.693  84.789  1.00  0.00     0.168 HD
ENDROOT
BRANCH   4   7
HETATM    7  C6  UNL     1      57.674 358.202  86.564  1.00  0.00     0.177 C 
BRANCH   7   8
HETATM    8  N1  UNL     1      58.219 359.397  87.178  1.00  0.00    -0.381 N 
ATOM      9  H1  UNL     1      57.767 359.765  88.015  1.00  0.00     0.160 HD
BRANCH   8  10
HETATM   10  C7  UNL     1      59.348 360.072  86.671  1.00  0.00     0.169 C 
HETATM   11  N2  UNL     1      59.751 359.967  85.445  1.00  0.00    -0.396 N 
ATOM     12  H22 UNL     1      59.213 359.360  84.827  1.00  0.00     0.156 HD
ATOM     13  H21 UNL     1      60.568 360.456  85.079  1.00  0.00     0.156 HD
ENDBRANCH   8  10
ENDBRANCH   7   8
ENDBRANCH   4   7
BRANCH   1  14
HETATM   14  O1  UNL     1      53.730 357.776  83.613  1.00  0.00    -0.341 OA
HETATM   15  C1  UNL     1      53.454 356.410  83.601  1.00  0.00     0.211 C 
ENDBRANCH   1  14
TORSDOF 4
ENDMDL
MODEL 3
REMARK VINA RESULT: -6.100274165      1.586      2.037
REMARK  4 active torsions:
REMARK  status: ('A' for Active; 'I' for Inactive)
REMARK    1  A    between atoms: O1_2  and  C2_3 
REMARK    2  A    between atoms: C5_6  and  C6_7 
REMARK    3  A    between atoms: C6_7  and  N1_8 
REMARK    4  A    between atoms: N1_8  and  C7_10 
ROOT
HETATM    1  C2  UNL     1      55.641 357.803  84.684  1.00  0.00     0.141 A 
HETATM    2  C3  UNL     1      54.934 358.977  84.846  1.00  0.00     0.058 A 
HETATM    3  C4  UNL     1      55.676 359.810  85.652  1.00  0.00     0.031 A 
HETATM    4  C5  UNL     1      56.819 359.113  85.958  1.00  0.00     0.029 A 
HETATM    5  N3  UNL     1      56.794 357.904  85.373  1.00  0.00    -0.339 N 
ATOM      6  H3  UNL     1      57.519 357.189  85.439  1.00  0.00     0.168 HD
ENDROOT
BRANCH   4   7
HETATM    7  C6  UNL     1      57.919 359.647  86.822  1.00  0.00     0.177 C 
BRANCH   7   8
HETATM    8  N1  UNL     1      57.688 359.343  88.221  1.00  0.00    -0.381 N 
ATOM      9  H1  UNL     1      58.077 358.481  88.603  1.00  0.00     0.160 HD
BRANCH   8  10
HETATM   10  C7  UNL     1      56.948 360.184  89.076  1.00  0.00     0.169 C 
HETATM   11  N2  UNL     1      56.408 359.782  90.181  1.00  0.00    -0.396 N 
ATOM     12  H22 UNL     1      56.533 358.801  90.432  1.00  0.00     0.156 HD
ATOM     13  H21 UNL     1      55.873 360.391  90.800  1.00  0.00     0.156 HD
ENDBRANCH   8  10
ENDBRANCH   7   8
ENDBRANCH   4   7
BRANCH   1  14
HETATM   14  O1  UNL     1      55.211 356.697  83.923  1.00  0.00    -0.341 OA
HETATM   15  C1  UNL     1      53.853 356.494  83.684  1.00  0.00     0.211 C 
ENDBRANCH   1  14
TORSDOF 4
ENDMDL
MODEL 4
REMARK VINA RESULT: -5.914833261      3.141      3.960
REMARK  4 active torsions:
REMARK  status: ('A' for Active; 'I' for Inactive)
REMARK    1  A    between atoms: O1_2  and  C2_3 
REMARK    2  A    between atoms: C5_6  and  C6_7 
REMARK    3  A    between atoms: C6_7  and  N1_8 
REMARK    4  A    between atoms: N1_8  and  C7_10 
ROOT
HETATM    1  C2  UNL     1      54.499 356.947  84.195  1.00  0.00     0.141 A 
HETATM    2  C3  UNL     1      53.599 357.991  84.128  1.00  0.00     0.058 A 
HETATM    3  C4  UNL     1      54.218 359.115  84.625  1.00  0.00     0.031 A 
HETATM    4  C5  UNL     1      55.484 358.719  84.981  1.00  0.00     0.029 A 
HETATM    5  N3  UNL     1      55.649 357.411  84.721  1.00  0.00    -0.339 N 
ATOM      6  H3  UNL     1      56.495 356.867  84.891  1.00  0.00     0.168 HD
ENDROOT
BRANCH   4   7
HETATM    7  C6  UNL     1      56.512 359.633  85.573  1.00  0.00     0.177 C 
BRANCH   7   8
HETATM    8  N1  UNL     1      57.835 359.346  85.054  1.00  0.00    -0.381 N 
ATOM      9  H1  UNL     1      57.959 359.278  84.044  1.00  0.00     0.160 HD
BRANCH   8  10
HETATM   10  C7  UNL     1      58.959 359.157  85.884  1.00  0.00     0.169 C 
HETATM   11  N2  UNL     1      59.964 359.972  85.922  1.00  0.00    -0.396 N 
ATOM     12  H22 UNL     1      59.925 360.789  85.312  1.00  0.00     0.156 HD
ATOM     13  H21 UNL     1      60.777 359.834  86.522  1.00  0.00     0.156 HD
ENDBRANCH   8  10
ENDBRANCH   7   8
ENDBRANCH   4   7
BRANCH   1  14
HETATM   14  O1  UNL     1      54.239 355.626  83.779  1.00  0.00    -0.341 OA
HETATM   15  C1  UNL     1      52.971 355.072  83.948  1.00  0.00     0.211 C 
ENDBRANCH   1  14
TORSDOF 4
ENDMDL
MODEL 5
REMARK VINA RESULT: -5.836138380      2.546      4.995
REMARK  4 active torsions:
REMARK  status: ('A' for Active; 'I' for Inactive)
REMARK    1  A    between atoms: O1_2  and  C2_3 
REMARK    2  A    between atoms: C5_6  and  C6_7 
REMARK    3  A    between atoms: C6_7  and  N1_8 
REMARK    4  A    between atoms: N1_8  and  C7_10 
ROOT
HETATM    1  C2  UNL     1      57.164 359.643  87.485  1.00  0.00     0.141 A 
HETATM    2  C3  UNL     1      57.785 358.474  87.094  1.00  0.00     0.058 A 
HETATM    3  C4  UNL     1      57.190 358.049  85.927  1.00  0.00     0.031 A 
HETATM    4  C5  UNL     1      56.219 358.979  85.642  1.00  0.00     0.029 A 
HETATM    5  N3  UNL     1      56.207 359.938  86.584  1.00  0.00    -0.339 N 
ATOM      6  H3  UNL     1      55.584 360.744  86.611  1.00  0.00     0.168 HD
ENDROOT
BRANCH   4   7
HETATM    7  C6  UNL     1      55.319 358.909  84.449  1.00  0.00     0.177 C 
BRANCH   7   8
HETATM    8  N1  UNL     1      55.782 357.920  83.495  1.00  0.00    -0.381 N 
ATOM      9  H1  UNL     1      56.589 358.143  82.914  1.00  0.00     0.160 HD
BRANCH   8  10
HETATM   10  C7  UNL     1      55.165 356.662  83.336  1.00  0.00     0.169 C 
HETATM   11  N2  UNL     1      54.168 356.260  84.058  1.00  0.00    -0.396 N 
ATOM     12  H22 UNL     1      53.824 356.898  84.775  1.00  0.00     0.156 HD
ATOM     13  H21 UNL     1      53.723 355.350  83.943  1.00  0.00     0.156 HD
ENDBRANCH   8  10
ENDBRANCH   7   8
ENDBRANCH   4   7
BRANCH   1  14
HETATM   14  O1  UNL     1      57.491 360.387  88.636  1.00  0.00    -0.341 OA
HETATM   15  C1  UNL     1      56.494 361.043  89.356  1.00  0.00     0.211 C 
ENDBRANCH   1  14
TORSDOF 4
ENDMDL
