MODEL 1
REMARK VINA RESULT: -7.039129137      0.000      0.000
REMARK  3 active torsions:
REMARK  status: ('A' for Active; 'I' for Inactive)
REMARK    1  A    between atoms: C2_2  and  C3_3 
REMARK    2  A    between atoms: C6_8  and  C7_9 
REMARK    3  A    between atoms: C20_39  and  C21_40 
ROOT
HETATM    1  C7  UNL     1       6.000 -14.909 -15.159  1.00  0.00    -0.027 C 
HETATM    2  C8  UNL     1       6.662 -14.072 -14.085  1.00  0.00     0.066 C 
HETATM    3  C9  UNL     1       8.062 -13.647 -14.525  1.00  0.00     0.236 C 
HETATM    4  N2  UNL     1       8.147 -12.209 -14.661  1.00  0.00    -0.073 N 
ATOM      5  H21 UNL     1       7.282 -11.824 -15.040  1.00  0.00     0.277 HD
ATOM      6  H22 UNL     1       8.785 -11.948 -15.414  1.00  0.00     0.277 HD
HETATM    7  C10 UNL     1       8.509 -11.557 -13.424  1.00  0.00     0.259 C 
HETATM    8  C11 UNL     1       9.435 -10.402 -13.742  1.00  0.00     0.259 C 
HETATM    9  N3  UNL     1      10.617 -10.900 -14.424  1.00  0.00    -0.072 N 
ATOM     10  H31 UNL     1      10.472 -11.838 -14.795  1.00  0.00     0.277 HD
ATOM     11  H32 UNL     1      11.371 -11.109 -13.769  1.00  0.00     0.277 HD
HETATM   12  C12 UNL     1      11.049  -9.960 -15.470  1.00  0.00     0.259 C 
HETATM   13  C13 UNL     1      10.529 -10.463 -16.789  1.00  0.00     0.259 C 
HETATM   14  N4  UNL     1      11.078  -9.696 -17.879  1.00  0.00    -0.072 N 
ATOM     15  H41 UNL     1      12.012 -10.021 -18.130  1.00  0.00     0.277 HD
ATOM     16  H42 UNL     1      11.313  -8.748 -17.587  1.00  0.00     0.277 HD
HETATM   17  C14 UNL     1      10.188  -9.693 -19.033  1.00  0.00     0.259 C 
HETATM   18  C15 UNL     1      10.589 -10.710 -20.051  1.00  0.00     0.259 C 
HETATM   19  N5  UNL     1       9.471 -11.474 -20.573  1.00  0.00    -0.072 N 
ATOM     20  H51 UNL     1       9.719 -11.957 -21.437  1.00  0.00     0.277 HD
ATOM     21  H52 UNL     1       8.740 -10.864 -20.938  1.00  0.00     0.277 HD
HETATM   22  C16 UNL     1       8.948 -12.399 -19.575  1.00  0.00     0.259 C 
HETATM   23  C17 UNL     1       7.895 -13.246 -20.256  1.00  0.00     0.259 C 
HETATM   24  N6  UNL     1       7.195 -13.989 -19.226  1.00  0.00    -0.072 N 
ATOM     25  H61 UNL     1       7.824 -14.594 -18.699  1.00  0.00     0.277 HD
ATOM     26  H62 UNL     1       6.590 -14.709 -19.621  1.00  0.00     0.277 HD
HETATM   27  C18 UNL     1       6.470 -13.089 -18.369  1.00  0.00     0.251 C 
HETATM   28  C19 UNL     1       5.044 -13.467 -18.146  1.00  0.00     0.142 C 
HETATM   29  N7  UNL     1       4.831 -14.589 -17.296  1.00  0.00    -0.411 N 
ATOM     30  H7  UNL     1       4.651 -15.523 -17.663  1.00  0.00     0.153 HD
HETATM   31  C20 UNL     1       4.886 -14.315 -15.881  1.00  0.00     0.115 C 
ENDROOT
BRANCH   1  32
HETATM   32  C6  UNL     1       6.504 -16.122 -15.342  1.00  0.00     0.053 A 
HETATM   33  C5  UNL     1       7.697 -16.495 -15.920  1.00  0.00     0.119 A 
HETATM   34  N1  UNL     1       7.824 -17.833 -15.909  1.00  0.00    -0.350 N 
HETATM   35  C4  UNL     1       6.732 -18.329 -15.334  1.00  0.00     0.101 A 
ATOM     36  H1  UNL     1       8.611 -18.369 -16.275  1.00  0.00     0.166 HD
HETATM   37  C3  UNL     1       6.492 -19.608 -15.144  1.00  0.00     0.021 C 
HETATM   38  N8  UNL     1       5.939 -17.295 -14.994  1.00  0.00    -0.341 N 
ATOM     39  H8  UNL     1       5.033 -17.387 -14.534  1.00  0.00     0.167 HD
BRANCH  37  40
HETATM   40  C2  UNL     1       7.471 -20.613 -15.580  1.00  0.00     0.026 C 
HETATM   41  C1  UNL     1       6.835 -21.984 -15.522  1.00  0.00     0.009 C 
ENDBRANCH  37  40
ENDBRANCH   1  32
BRANCH  31  42
HETATM   42  C21 UNL     1       3.545 -14.520 -15.209  1.00  0.00    -0.027 C 
HETATM   43  C22 UNL     1       3.619 -14.895 -13.769  1.00  0.00     0.016 C 
HETATM   44  C23 UNL     1       2.781 -15.619 -15.920  1.00  0.00     0.016 C 
HETATM   45  C24 UNL     1       2.697 -13.273 -15.323  1.00  0.00     0.016 C 
ENDBRANCH  31  42
TORSDOF 3
ENDMDL
MODEL 2
REMARK VINA RESULT: -6.979589104      1.761      2.616
REMARK  3 active torsions:
REMARK  status: ('A' for Active; 'I' for Inactive)
REMARK    1  A    between atoms: C2_2  and  C3_3 
REMARK    2  A    between atoms: C6_8  and  C7_9 
REMARK    3  A    between atoms: C20_39  and  C21_40 
ROOT
HETATM    1  C7  UNL     1       3.789 -14.902 -15.346  1.00  0.00    -0.027 C 
HETATM    2  C8  UNL     1       3.789 -14.067 -14.083  1.00  0.00     0.066 C 
HETATM    3  C9  UNL     1       5.219 -13.736 -13.661  1.00  0.00     0.236 C 
HETATM    4  N2  UNL     1       5.460 -12.310 -13.721  1.00  0.00    -0.073 N 
ATOM      5  H21 UNL     1       4.982 -11.891 -14.518  1.00  0.00     0.277 HD
ATOM      6  H22 UNL     1       6.425 -12.112 -13.985  1.00  0.00     0.277 HD
HETATM    7  C10 UNL     1       5.109 -11.638 -12.491  1.00  0.00     0.259 C 
HETATM    8  C11 UNL     1       6.128 -10.548 -12.231  1.00  0.00     0.259 C 
HETATM    9  N3  UNL     1       7.454 -11.135 -12.134  1.00  0.00    -0.072 N 
ATOM     10  H31 UNL     1       7.480 -12.075 -12.527  1.00  0.00     0.277 HD
ATOM     11  H32 UNL     1       7.696 -11.364 -11.171  1.00  0.00     0.277 HD
HETATM   12  C12 UNL     1       8.457 -10.257 -12.755  1.00  0.00     0.259 C 
HETATM   13  C13 UNL     1       8.733 -10.774 -14.141  1.00  0.00     0.259 C 
HETATM   14  N4  UNL     1       9.847 -10.077 -14.733  1.00  0.00    -0.072 N 
ATOM     15  H41 UNL     1      10.737 -10.462 -14.418  1.00  0.00     0.277 HD
ATOM     16  H42 UNL     1       9.939  -9.134 -14.356  1.00  0.00     0.277 HD
HETATM   17  C14 UNL     1       9.758 -10.063 -16.188  1.00  0.00     0.259 C 
HETATM   18  C15 UNL     1      10.593 -11.136 -16.809  1.00  0.00     0.259 C 
HETATM   19  N5  UNL     1       9.912 -11.853 -17.871  1.00  0.00    -0.072 N 
ATOM     20  H51 UNL     1      10.568 -12.378 -18.448  1.00  0.00     0.277 HD
ATOM     21  H52 UNL     1       9.552 -11.216 -18.581  1.00  0.00     0.277 HD
HETATM   22  C16 UNL     1       8.860 -12.712 -17.341  1.00  0.00     0.259 C 
HETATM   23  C17 UNL     1       8.316 -13.522 -18.498  1.00  0.00     0.259 C 
HETATM   24  N6  UNL     1       7.113 -14.189 -18.040  1.00  0.00    -0.072 N 
ATOM     25  H61 UNL     1       7.298 -14.810 -17.252  1.00  0.00     0.277 HD
ATOM     26  H62 UNL     1       6.787 -14.887 -18.709  1.00  0.00     0.277 HD
HETATM   27  C18 UNL     1       6.093 -13.222 -17.734  1.00  0.00     0.251 C 
HETATM   28  C19 UNL     1       4.765 -13.511 -18.351  1.00  0.00     0.142 C 
HETATM   29  N7  UNL     1       4.040 -14.589 -17.769  1.00  0.00    -0.411 N 
ATOM     30  H7  UNL     1       4.036 -15.524 -18.177  1.00  0.00     0.153 HD
HETATM   31  C20 UNL     1       3.311 -14.271 -16.567  1.00  0.00     0.115 C 
ENDROOT
BRANCH   1  32
HETATM   32  C6  UNL     1       4.228 -16.146 -15.218  1.00  0.00     0.053 A 
HETATM   33  C5  UNL     1       3.583 -17.253 -14.712  1.00  0.00     0.119 A 
HETATM   34  N1  UNL     1       4.391 -18.327 -14.760  1.00  0.00    -0.350 N 
HETATM   35  C4  UNL     1       5.545 -17.930 -15.289  1.00  0.00     0.101 A 
ATOM     36  H1  UNL     1       4.161 -19.270 -14.448  1.00  0.00     0.166 HD
HETATM   37  C3  UNL     1       6.587 -18.705 -15.496  1.00  0.00     0.021 C 
HETATM   38  N8  UNL     1       5.443 -16.616 -15.564  1.00  0.00    -0.341 N 
ATOM     39  H8  UNL     1       6.185 -16.052 -15.979  1.00  0.00     0.167 HD
BRANCH  37  40
HETATM   40  C2  UNL     1       6.530 -20.129 -15.135  1.00  0.00     0.026 C 
HETATM   41  C1  UNL     1       6.873 -20.964 -16.348  1.00  0.00     0.009 C 
ENDBRANCH  37  40
ENDBRANCH   1  32
BRANCH  31  42
HETATM   42  C21 UNL     1       1.814 -14.378 -16.762  1.00  0.00    -0.027 C 
HETATM   43  C22 UNL     1       1.033 -14.577 -15.510  1.00  0.00     0.016 C 
HETATM   44  C23 UNL     1       1.501 -15.546 -17.677  1.00  0.00     0.016 C 
HETATM   45  C24 UNL     1       1.279 -13.144 -17.455  1.00  0.00     0.016 C 
ENDBRANCH  31  42
TORSDOF 3
ENDMDL
MODEL 3
REMARK VINA RESULT: -6.908708765      2.193      4.223
REMARK  3 active torsions:
REMARK  status: ('A' for Active; 'I' for Inactive)
REMARK    1  A    between atoms: C2_2  and  C3_3 
REMARK    2  A    between atoms: C6_8  and  C7_9 
REMARK    3  A    between atoms: C20_39  and  C21_40 
ROOT
HETATM    1  C7  UNL     1       8.015 -13.561 -15.445  1.00  0.00    -0.027 C 
HETATM    2  C8  UNL     1       9.293 -12.993 -16.025  1.00  0.00     0.066 C 
HETATM    3  C9  UNL     1       9.369 -13.269 -17.526  1.00  0.00     0.236 C 
HETATM    4  N2  UNL     1       9.349 -12.036 -18.282  1.00  0.00    -0.073 N 
ATOM      5  H21 UNL     1       8.725 -11.352 -17.852  1.00  0.00     0.277 HD
ATOM      6  H22 UNL     1       8.867 -12.159 -19.172  1.00  0.00     0.277 HD
HETATM    7  C10 UNL     1      10.670 -11.485 -18.476  1.00  0.00     0.259 C 
HETATM    8  C11 UNL     1      10.743 -10.890 -19.867  1.00  0.00     0.259 C 
HETATM    9  N3  UNL     1      10.468 -11.922 -20.852  1.00  0.00    -0.072 N 
ATOM     10  H31 UNL     1      10.017 -12.735 -20.431  1.00  0.00     0.277 HD
ATOM     11  H32 UNL     1      11.323 -12.372 -21.178  1.00  0.00     0.277 HD
HETATM   12  C12 UNL     1       9.679 -11.379 -21.968  1.00  0.00     0.259 C 
HETATM   13  C13 UNL     1       8.236 -11.736 -21.734  1.00  0.00     0.259 C 
HETATM   14  N4  UNL     1       7.435 -11.403 -22.885  1.00  0.00    -0.072 N 
ATOM     15  H41 UNL     1       7.492 -12.127 -23.601  1.00  0.00     0.277 HD
ATOM     16  H42 UNL     1       7.841 -10.628 -23.410  1.00  0.00     0.277 HD
HETATM   17  C14 UNL     1       6.053 -11.129 -22.515  1.00  0.00     0.259 C 
HETATM   18  C15 UNL     1       5.172 -12.318 -22.724  1.00  0.00     0.259 C 
HETATM   19  N5  UNL     1       4.266 -12.565 -21.618  1.00  0.00    -0.072 N 
ATOM     20  H51 UNL     1       3.509 -13.194 -21.888  1.00  0.00     0.277 HD
ATOM     21  H52 UNL     1       3.712 -11.738 -21.397  1.00  0.00     0.277 HD
HETATM   22  C16 UNL     1       4.980 -13.060 -20.448  1.00  0.00     0.259 C 
HETATM   23  C17 UNL     1       3.942 -13.426 -19.409  1.00  0.00     0.259 C 
HETATM   24  N6  UNL     1       4.636 -13.679 -18.162  1.00  0.00    -0.072 N 
ATOM     25  H61 UNL     1       5.310 -14.441 -18.248  1.00  0.00     0.277 HD
ATOM     26  H62 UNL     1       4.024 -14.098 -17.463  1.00  0.00     0.277 HD
HETATM   27  C18 UNL     1       5.251 -12.470 -17.682  1.00  0.00     0.251 C 
HETATM   28  C19 UNL     1       4.965 -12.161 -16.250  1.00  0.00     0.142 C 
HETATM   29  N7  UNL     1       5.633 -12.983 -15.299  1.00  0.00    -0.411 N 
ATOM     30  H7  UNL     1       5.176 -13.777 -14.850  1.00  0.00     0.153 HD
HETATM   31  C20 UNL     1       6.997 -12.617 -15.011  1.00  0.00     0.115 C 
ENDROOT
BRANCH   1  32
HETATM   32  C6  UNL     1       7.945 -14.883 -15.384  1.00  0.00     0.053 A 
HETATM   33  C5  UNL     1       8.961 -15.814 -15.381  1.00  0.00     0.119 A 
HETATM   34  N1  UNL     1       8.456 -17.058 -15.312  1.00  0.00    -0.350 N 
HETATM   35  C4  UNL     1       7.130 -16.945 -15.269  1.00  0.00     0.101 A 
ATOM     36  H1  UNL     1       8.989 -17.927 -15.295  1.00  0.00     0.166 HD
HETATM   37  C3  UNL     1       6.288 -17.952 -15.198  1.00  0.00     0.021 C 
HETATM   38  N8  UNL     1       6.827 -15.633 -15.313  1.00  0.00    -0.341 N 
ATOM     39  H8  UNL     1       5.879 -15.258 -15.294  1.00  0.00     0.167 HD
BRANCH  37  40
HETATM   40  C2  UNL     1       6.792 -19.332 -15.159  1.00  0.00     0.026 C 
HETATM   41  C1  UNL     1       5.632 -20.278 -14.942  1.00  0.00     0.009 C 
ENDBRANCH  37  40
ENDBRANCH   1  32
BRANCH  31  42
HETATM   42  C21 UNL     1       7.172 -12.145 -13.583  1.00  0.00    -0.027 C 
HETATM   43  C22 UNL     1       8.400 -12.647 -12.905  1.00  0.00     0.016 C 
HETATM   44  C23 UNL     1       5.986 -12.590 -12.751  1.00  0.00     0.016 C 
HETATM   45  C24 UNL     1       7.189 -10.634 -13.522  1.00  0.00     0.016 C 
ENDBRANCH  31  42
TORSDOF 3
ENDMDL
MODEL 4
REMARK VINA RESULT: -6.841279350      2.391      7.533
REMARK  3 active torsions:
REMARK  status: ('A' for Active; 'I' for Inactive)
REMARK    1  A    between atoms: C2_2  and  C3_3 
REMARK    2  A    between atoms: C6_8  and  C7_9 
REMARK    3  A    between atoms: C20_39  and  C21_40 
ROOT
HETATM    1  C7  UNL     1       7.784 -11.632 -17.192  1.00  0.00    -0.027 C 
HETATM    2  C8  UNL     1       9.094 -12.390 -17.166  1.00  0.00     0.066 C 
HETATM    3  C9  UNL     1       9.046 -13.506 -16.124  1.00  0.00     0.236 C 
HETATM    4  N2  UNL     1       9.157 -14.805 -16.751  1.00  0.00    -0.073 N 
ATOM      5  H21 UNL     1       8.661 -14.826 -17.642  1.00  0.00     0.277 HD
ATOM      6  H22 UNL     1       8.614 -15.505 -16.244  1.00  0.00     0.277 HD
HETATM    7  C10 UNL     1      10.529 -15.227 -16.909  1.00  0.00     0.259 C 
HETATM    8  C11 UNL     1      10.607 -16.717 -16.652  1.00  0.00     0.259 C 
HETATM    9  N3  UNL     1      10.135 -17.004 -15.308  1.00  0.00    -0.072 N 
ATOM     10  H31 UNL     1       9.599 -16.226 -14.922  1.00  0.00     0.277 HD
ATOM     11  H32 UNL     1      10.899 -17.014 -14.633  1.00  0.00     0.277 HD
HETATM   12  C12 UNL     1       9.369 -18.259 -15.282  1.00  0.00     0.259 C 
HETATM   13  C13 UNL     1       7.905 -17.911 -15.324  1.00  0.00     0.259 C 
HETATM   14  N4  UNL     1       7.096 -19.084 -15.107  1.00  0.00    -0.072 N 
ATOM     15  H41 UNL     1       7.011 -19.299 -14.113  1.00  0.00     0.277 HD
ATOM     16  H42 UNL     1       7.576 -19.930 -15.411  1.00  0.00     0.277 HD
HETATM   17  C14 UNL     1       5.788 -18.957 -15.737  1.00  0.00     0.259 C 
HETATM   18  C15 UNL     1       4.739 -18.521 -14.767  1.00  0.00     0.259 C 
HETATM   19  N5  UNL     1       3.871 -17.481 -15.286  1.00  0.00    -0.072 N 
ATOM     20  H51 UNL     1       3.020 -17.394 -14.731  1.00  0.00     0.277 HD
ATOM     21  H52 UNL     1       3.452 -17.753 -16.175  1.00  0.00     0.277 HD
HETATM   22  C16 UNL     1       4.573 -16.208 -15.392  1.00  0.00     0.259 C 
HETATM   23  C17 UNL     1       3.554 -15.165 -15.795  1.00  0.00     0.259 C 
HETATM   24  N6  UNL     1       4.275 -13.958 -16.147  1.00  0.00    -0.072 N 
ATOM     25  H61 UNL     1       4.828 -13.603 -15.367  1.00  0.00     0.277 HD
ATOM     26  H62 UNL     1       3.649 -13.160 -16.262  1.00  0.00     0.277 HD
HETATM   27  C18 UNL     1       5.079 -14.182 -17.318  1.00  0.00     0.251 C 
HETATM   28  C19 UNL     1       4.920 -13.147 -18.382  1.00  0.00     0.142 C 
HETATM   29  N7  UNL     1       5.518 -11.885 -18.106  1.00  0.00    -0.411 N 
ATOM     30  H7  UNL     1       4.980 -11.094 -17.752  1.00  0.00     0.153 HD
HETATM   31  C20 UNL     1       6.934 -11.800 -18.361  1.00  0.00     0.115 C 
ENDROOT
BRANCH   1  32
HETATM   32  C6  UNL     1       7.532 -10.874 -16.134  1.00  0.00     0.053 A 
HETATM   33  C5  UNL     1       7.930  -9.583 -15.868  1.00  0.00     0.119 A 
HETATM   34  N1  UNL     1       7.460  -9.184 -14.673  1.00  0.00    -0.350 N 
HETATM   35  C4  UNL     1       6.763 -10.198 -14.165  1.00  0.00     0.101 A 
ATOM     36  H1  UNL     1       7.609  -8.275 -14.238  1.00  0.00     0.166 HD
HETATM   37  C3  UNL     1       6.149 -10.184 -13.002  1.00  0.00     0.021 C 
HETATM   38  N8  UNL     1       6.810 -11.214 -15.048  1.00  0.00    -0.341 N 
ATOM     39  H8  UNL     1       6.358 -12.119 -14.912  1.00  0.00     0.167 HD
BRANCH  37  40
HETATM   40  C2  UNL     1       6.200  -8.984 -12.156  1.00  0.00     0.026 C 
HETATM   41  C1  UNL     1       7.368  -9.099 -11.202  1.00  0.00     0.009 C 
ENDBRANCH  37  40
ENDBRANCH   1  32
BRANCH  31  42
HETATM   42  C21 UNL     1       7.254 -10.843 -19.489  1.00  0.00    -0.027 C 
HETATM   43  C22 UNL     1       8.627 -10.267 -19.450  1.00  0.00     0.016 C 
HETATM   44  C23 UNL     1       6.279  -9.683 -19.465  1.00  0.00     0.016 C 
HETATM   45  C24 UNL     1       7.070 -11.521 -20.829  1.00  0.00     0.016 C 
ENDBRANCH  31  42
TORSDOF 3
ENDMDL
MODEL 5
REMARK VINA RESULT: -6.636376819      2.503      4.291
REMARK  3 active torsions:
REMARK  status: ('A' for Active; 'I' for Inactive)
REMARK    1  A    between atoms: C2_2  and  C3_3 
REMARK    2  A    between atoms: C6_8  and  C7_9 
REMARK    3  A    between atoms: C20_39  and  C21_40 
ROOT
HETATM    1  C7  UNL     1       7.530 -12.997 -15.178  1.00  0.00    -0.027 C 
HETATM    2  C8  UNL     1       8.944 -12.934 -15.714  1.00  0.00     0.066 C 
HETATM    3  C9  UNL     1       8.938 -12.954 -17.242  1.00  0.00     0.236 C 
HETATM    4  N2  UNL     1       9.468 -11.719 -17.779  1.00  0.00    -0.073 N 
ATOM      5  H21 UNL     1       9.183 -10.921 -17.211  1.00  0.00     0.277 HD
ATOM      6  H22 UNL     1       9.006 -11.470 -18.653  1.00  0.00     0.277 HD
HETATM    7  C10 UNL     1      10.903 -11.757 -17.941  1.00  0.00     0.259 C 
HETATM    8  C11 UNL     1      11.263 -11.020 -19.213  1.00  0.00     0.259 C 
HETATM    9  N3  UNL     1      10.602 -11.650 -20.344  1.00  0.00    -0.072 N 
ATOM     10  H31 UNL     1       9.836 -12.254 -20.045  1.00  0.00     0.277 HD
ATOM     11  H32 UNL     1      11.193 -12.357 -20.781  1.00  0.00     0.277 HD
HETATM   12  C12 UNL     1      10.153 -10.640 -21.314  1.00  0.00     0.259 C 
HETATM   13  C13 UNL     1       8.690 -10.385 -21.074  1.00  0.00     0.259 C 
HETATM   14  N4  UNL     1       8.141  -9.550 -22.113  1.00  0.00    -0.072 N 
ATOM     15  H41 UNL     1       7.905 -10.094 -22.943  1.00  0.00     0.277 HD
ATOM     16  H42 UNL     1       8.854  -8.944 -22.520  1.00  0.00     0.277 HD
HETATM   17  C14 UNL     1       6.998  -8.783 -21.637  1.00  0.00     0.259 C 
HETATM   18  C15 UNL     1       5.700  -9.430 -22.000  1.00  0.00     0.259 C 
HETATM   19  N5  UNL     1       4.744  -9.455 -20.910  1.00  0.00    -0.072 N 
ATOM     20  H51 UNL     1       3.800  -9.645 -21.245  1.00  0.00     0.277 HD
ATOM     21  H52 UNL     1       4.590  -8.523 -20.527  1.00  0.00     0.277 HD
HETATM   22  C16 UNL     1       5.144 -10.400 -19.875  1.00  0.00     0.259 C 
HETATM   23  C17 UNL     1       4.020 -10.463 -18.864  1.00  0.00     0.259 C 
HETATM   24  N6  UNL     1       4.504 -11.197 -17.712  1.00  0.00    -0.072 N 
ATOM     25  H61 UNL     1       4.790 -12.146 -17.957  1.00  0.00     0.277 HD
ATOM     26  H62 UNL     1       3.750 -11.430 -17.065  1.00  0.00     0.277 HD
HETATM   27  C18 UNL     1       5.561 -10.467 -17.065  1.00  0.00     0.251 C 
HETATM   28  C19 UNL     1       5.392 -10.318 -15.590  1.00  0.00     0.142 C 
HETATM   29  N7  UNL     1       5.618 -11.496 -14.823  1.00  0.00    -0.411 N 
ATOM     30  H7  UNL     1       4.854 -12.085 -14.493  1.00  0.00     0.153 HD
HETATM   31  C20 UNL     1       6.999 -11.800 -14.544  1.00  0.00     0.115 C 
ENDROOT
BRANCH   1  32
HETATM   32  C6  UNL     1       6.900 -14.152 -15.337  1.00  0.00     0.053 A 
HETATM   33  C5  UNL     1       5.662 -14.406 -15.885  1.00  0.00     0.119 A 
HETATM   34  N1  UNL     1       5.397 -15.723 -15.851  1.00  0.00    -0.350 N 
HETATM   35  C4  UNL     1       6.444 -16.324 -15.291  1.00  0.00     0.101 A 
ATOM     36  H1  UNL     1       4.550 -16.178 -16.192  1.00  0.00     0.166 HD
HETATM   37  C3  UNL     1       6.552 -17.618 -15.085  1.00  0.00     0.021 C 
HETATM   38  N8  UNL     1       7.347 -15.374 -14.983  1.00  0.00    -0.341 N 
ATOM     39  H8  UNL     1       8.248 -15.555 -14.540  1.00  0.00     0.167 HD
BRANCH  37  40
HETATM   40  C2  UNL     1       5.463 -18.520 -15.485  1.00  0.00     0.026 C 
HETATM   41  C1  UNL     1       5.797 -19.928 -15.044  1.00  0.00     0.009 C 
ENDBRANCH  37  40
ENDBRANCH   1  32
BRANCH  31  42
HETATM   42  C21 UNL     1       7.317 -11.701 -13.067  1.00  0.00    -0.027 C 
HETATM   43  C22 UNL     1       8.317 -12.690 -12.575  1.00  0.00     0.016 C 
HETATM   44  C23 UNL     1       6.051 -11.903 -12.259  1.00  0.00     0.016 C 
HETATM   45  C24 UNL     1       7.822 -10.317 -12.724  1.00  0.00     0.016 C 
ENDBRANCH  31  42
TORSDOF 3
ENDMDL
