MODEL 1
REMARK VINA RESULT: -6.753986605      0.000      0.000
REMARK  2 active torsions:
REMARK  status: ('A' for Active; 'I' for Inactive)
REMARK       I    between atoms: C1_4  and  N2_5 
REMARK       I    between atoms: C1_4  and  N3_10 
REMARK    1  A    between atoms: N2_5  and  C2_7 
REMARK    2  A    between atoms: N3_10  and  C4_12 
ROOT
HETATM    1  C4  UNL     1      -6.509  12.276 -14.022  1.00  0.00     0.217 C 
HETATM    2  C5  UNL     1      -5.418  12.771 -13.110  1.00  0.00     0.267 C 
HETATM    3  N4  UNL     1      -4.635  13.828 -13.711  1.00  0.00    -0.071 N 
ATOM      4  H41 UNL     1      -4.119  14.354 -13.006  1.00  0.00     0.277 HD
ATOM      5  H42 UNL     1      -5.231  14.576 -14.064  1.00  0.00     0.277 HD
HETATM    6  C6  UNL     1      -3.751  13.329 -14.745  1.00  0.00     0.259 C 
HETATM    7  C7  UNL     1      -2.469  14.094 -14.690  1.00  0.00     0.259 C 
HETATM    8  N5  UNL     1      -1.510  13.317 -13.902  1.00  0.00    -0.073 N 
ATOM      9  H51 UNL     1      -1.902  12.955 -13.032  1.00  0.00     0.277 HD
ATOM     10  H52 UNL     1      -0.776  13.888 -13.482  1.00  0.00     0.277 HD
HETATM   11  C8  UNL     1      -1.002  12.285 -14.772  1.00  0.00     0.241 C 
HETATM   12  C9  UNL     1       0.310  11.719 -14.280  1.00  0.00     0.130 C 
HETATM   13  C10 UNL     1       0.453  11.758 -12.821  1.00  0.00     0.219 C 
HETATM   14  O2  UNL     1       0.898  12.797 -12.256  1.00  0.00    -0.274 OA
HETATM   15  N6  UNL     1       0.112  10.667 -11.975  1.00  0.00    -0.361 N 
ATOM     16  H6  UNL     1       0.660  10.527 -11.126  1.00  0.00     0.162 HD
HETATM   17  C11 UNL     1      -0.966   9.747 -12.251  1.00  0.00     0.123 C 
HETATM   18  C12 UNL     1      -0.461   8.498 -12.955  1.00  0.00     0.030 C 
HETATM   19  C13 UNL     1      -1.162   7.298 -12.401  1.00  0.00     0.075 C 
HETATM   20  S1  UNL     1      -2.826   7.100 -13.115  1.00  0.00    -0.167 SA
HETATM   21  C14 UNL     1      -4.014   7.672 -11.878  1.00  0.00     0.100 C 
HETATM   22  C15 UNL     1      -5.383   7.065 -12.075  1.00  0.00     0.177 C 
HETATM   23  O3  UNL     1      -6.013   7.479 -13.221  1.00  0.00    -0.389 OA
HETATM   24  C16 UNL     1      -6.006   8.845 -13.418  1.00  0.00     0.187 C 
HETATM   25  C17 UNL     1      -6.713   9.610 -12.326  1.00  0.00     0.148 C 
HETATM   26  N7  UNL     1      -7.800  10.420 -12.824  1.00  0.00    -0.357 N 
ATOM     27  H7  UNL     1      -8.723   9.988 -12.881  1.00  0.00     0.162 HD
HETATM   28  C18 UNL     1      -7.681  11.760 -13.238  1.00  0.00     0.242 C 
HETATM   29  O4  UNL     1      -8.585  12.590 -12.953  1.00  0.00    -0.271 OA
ENDROOT
BRANCH   1  30
HETATM   30  N3  UNL     1      -6.903  13.289 -14.951  1.00  0.00    -0.212 N 
HETATM   31  C1  UNL     1      -7.864  13.112 -15.976  1.00  0.00     0.670 C 
HETATM   32  N1  UNL     1      -7.570  12.337 -16.956  1.00  0.00    -0.235 N 
HETATM   33  N2  UNL     1      -9.126  13.756 -15.950  1.00  0.00    -0.198 N 
ATOM     34  H12 UNL     1      -8.262  12.209 -17.694  1.00  0.00     0.174 HD
ATOM     35  H11 UNL     1      -6.661  11.874 -16.975  1.00  0.00     0.174 HD
ATOM     36  H2  UNL     1      -9.921  13.254 -15.556  1.00  0.00     0.180 HD
ATOM     37  H3  UNL     1      -6.460  14.205 -14.870  1.00  0.00     0.178 HD
BRANCH  33  38
HETATM   38  C2  UNL     1      -9.336  15.099 -16.459  1.00  0.00     0.261 A 
HETATM   39  C3  UNL     1      -9.368  16.236 -15.601  1.00  0.00     0.224 A 
HETATM   40  O1  UNL     1     -10.604  15.610 -15.857  1.00  0.00    -0.360 OA
ENDBRANCH  33  38
ENDBRANCH   1  30
TORSDOF 2
ENDMDL
MODEL 2
REMARK VINA RESULT: -6.466504830      3.673      6.102
REMARK  2 active torsions:
REMARK  status: ('A' for Active; 'I' for Inactive)
REMARK       I    between atoms: C1_4  and  N2_5 
REMARK       I    between atoms: C1_4  and  N3_10 
REMARK    1  A    between atoms: N2_5  and  C2_7 
REMARK    2  A    between atoms: N3_10  and  C4_12 
ROOT
HETATM    1  C4  UNL     1      -7.958  16.137 -15.468  1.00  0.00     0.217 C 
HETATM    2  C5  UNL     1      -7.721  15.109 -14.393  1.00  0.00     0.267 C 
HETATM    3  N4  UNL     1      -6.432  15.268 -13.755  1.00  0.00    -0.071 N 
ATOM      4  H41 UNL     1      -6.404  14.788 -12.855  1.00  0.00     0.277 HD
ATOM      5  H42 UNL     1      -6.295  16.225 -13.431  1.00  0.00     0.277 HD
HETATM    6  C6  UNL     1      -5.345  14.842 -14.611  1.00  0.00     0.259 C 
HETATM    7  C7  UNL     1      -4.300  14.185 -13.769  1.00  0.00     0.259 C 
HETATM    8  N5  UNL     1      -4.520  12.738 -13.820  1.00  0.00    -0.073 N 
ATOM      9  H51 UNL     1      -5.496  12.473 -13.685  1.00  0.00     0.277 HD
ATOM     10  H52 UNL     1      -4.141  12.244 -13.012  1.00  0.00     0.277 HD
HETATM   11  C8  UNL     1      -3.974  12.282 -15.075  1.00  0.00     0.241 C 
HETATM   12  C9  UNL     1      -3.691  10.797 -15.067  1.00  0.00     0.130 C 
HETATM   13  C10 UNL     1      -4.592  10.035 -14.196  1.00  0.00     0.219 C 
HETATM   14  O2  UNL     1      -4.325   9.907 -12.967  1.00  0.00    -0.274 OA
HETATM   15  N6  UNL     1      -5.782   9.411 -14.659  1.00  0.00    -0.361 N 
ATOM     16  H6  UNL     1      -6.072   8.539 -14.217  1.00  0.00     0.162 HD
HETATM   17  C11 UNL     1      -6.603   9.944 -15.722  1.00  0.00     0.123 C 
HETATM   18  C12 UNL     1      -6.251   9.314 -17.060  1.00  0.00     0.030 C 
HETATM   19  C13 UNL     1      -7.506   9.050 -17.830  1.00  0.00     0.075 C 
HETATM   20  S1  UNL     1      -8.134  10.559 -18.636  1.00  0.00    -0.167 SA
HETATM   21  C14 UNL     1      -9.527  11.157 -17.650  1.00  0.00     0.100 C 
HETATM   22  C15 UNL     1     -10.471  12.017 -18.455  1.00  0.00     0.177 C 
HETATM   23  O3  UNL     1      -9.929  13.212 -18.854  1.00  0.00    -0.389 OA
HETATM   24  C16 UNL     1      -9.296  13.918 -17.850  1.00  0.00     0.187 C 
HETATM   25  C17 UNL     1     -10.216  14.303 -16.718  1.00  0.00     0.148 C 
HETATM   26  N7  UNL     1     -10.265  15.729 -16.497  1.00  0.00    -0.357 N 
ATOM     27  H7  UNL     1     -10.963  16.264 -17.016  1.00  0.00     0.162 HD
HETATM   28  C18 UNL     1      -9.422  16.436 -15.620  1.00  0.00     0.242 C 
HETATM   29  O4  UNL     1      -9.886  17.372 -14.916  1.00  0.00    -0.271 OA
ENDROOT
BRANCH   1  30
HETATM   30  N3  UNL     1      -7.201  17.325 -15.222  1.00  0.00    -0.212 N 
HETATM   31  C1  UNL     1      -6.481  18.039 -16.209  1.00  0.00     0.670 C 
HETATM   32  N1  UNL     1      -5.438  17.488 -16.717  1.00  0.00    -0.235 N 
HETATM   33  N2  UNL     1      -6.873  19.327 -16.648  1.00  0.00    -0.198 N 
ATOM     34  H12 UNL     1      -4.919  18.002 -17.429  1.00  0.00     0.174 HD
ATOM     35  H11 UNL     1      -5.156  16.560 -16.401  1.00  0.00     0.174 HD
ATOM     36  H2  UNL     1      -7.460  19.402 -17.478  1.00  0.00     0.180 HD
ATOM     37  H3  UNL     1      -7.178  17.683 -14.267  1.00  0.00     0.178 HD
BRANCH  33  38
HETATM   38  C2  UNL     1      -6.475  20.547 -15.968  1.00  0.00     0.261 A 
HETATM   39  C3  UNL     1      -7.313  21.184 -15.007  1.00  0.00     0.224 A 
HETATM   40  O1  UNL     1      -7.459  21.606 -16.342  1.00  0.00    -0.360 OA
ENDBRANCH  33  38
ENDBRANCH   1  30
TORSDOF 2
ENDMDL
MODEL 3
REMARK VINA RESULT: -6.203293686      3.987      6.908
REMARK  2 active torsions:
REMARK  status: ('A' for Active; 'I' for Inactive)
REMARK       I    between atoms: C1_4  and  N2_5 
REMARK       I    between atoms: C1_4  and  N3_10 
REMARK    1  A    between atoms: N2_5  and  C2_7 
REMARK    2  A    between atoms: N3_10  and  C4_12 
ROOT
HETATM    1  C4  UNL     1      -7.443  16.391 -15.657  1.00  0.00     0.217 C 
HETATM    2  C5  UNL     1      -7.314  15.488 -14.459  1.00  0.00     0.267 C 
HETATM    3  N4  UNL     1      -5.934  15.262 -14.087  1.00  0.00    -0.071 N 
ATOM      4  H41 UNL     1      -5.860  14.919 -13.129  1.00  0.00     0.277 HD
ATOM      5  H42 UNL     1      -5.430  16.142 -13.981  1.00  0.00     0.277 HD
HETATM    6  C6  UNL     1      -5.258  14.378 -15.014  1.00  0.00     0.259 C 
HETATM    7  C7  UNL     1      -4.318  13.506 -14.247  1.00  0.00     0.259 C 
HETATM    8  N5  UNL     1      -4.993  12.234 -13.981  1.00  0.00    -0.073 N 
ATOM      9  H51 UNL     1      -5.947  12.348 -13.636  1.00  0.00     0.277 HD
ATOM     10  H52 UNL     1      -4.622  11.743 -13.167  1.00  0.00     0.277 HD
HETATM   11  C8  UNL     1      -4.915  11.463 -15.197  1.00  0.00     0.241 C 
HETATM   12  C9  UNL     1      -5.126   9.987 -14.950  1.00  0.00     0.130 C 
HETATM   13  C10 UNL     1      -6.005   9.705 -13.811  1.00  0.00     0.219 C 
HETATM   14  O2  UNL     1      -5.527   9.645 -12.643  1.00  0.00    -0.274 OA
HETATM   15  N6  UNL     1      -7.404   9.486 -13.940  1.00  0.00    -0.361 N 
ATOM     16  H6  UNL     1      -7.851   8.834 -13.296  1.00  0.00     0.162 HD
HETATM   17  C11 UNL     1      -8.226  10.136 -14.934  1.00  0.00     0.123 C 
HETATM   18  C12 UNL     1      -8.400   9.262 -16.165  1.00  0.00     0.030 C 
HETATM   19  C13 UNL     1      -9.812   9.362 -16.649  1.00  0.00     0.075 C 
HETATM   20  S1  UNL     1     -10.089  10.882 -17.615  1.00  0.00    -0.167 SA
HETATM   21  C14 UNL     1     -10.962  12.049 -16.545  1.00  0.00     0.100 C 
HETATM   22  C15 UNL     1     -11.737  13.079 -17.333  1.00  0.00     0.177 C 
HETATM   23  O3  UNL     1     -10.945  13.948 -18.038  1.00  0.00    -0.389 OA
HETATM   24  C16 UNL     1      -9.913  14.505 -17.310  1.00  0.00     0.187 C 
HETATM   25  C17 UNL     1     -10.386  15.327 -16.136  1.00  0.00     0.148 C 
HETATM   26  N7  UNL     1      -9.927  16.694 -16.190  1.00  0.00    -0.357 N 
ATOM     27  H7  UNL     1     -10.515  17.371 -16.678  1.00  0.00     0.162 HD
HETATM   28  C18 UNL     1      -8.730  17.164 -15.618  1.00  0.00     0.242 C 
HETATM   29  O4  UNL     1      -8.702  18.284 -15.041  1.00  0.00    -0.271 OA
ENDROOT
BRANCH   1  30
HETATM   30  N3  UNL     1      -6.311  17.258 -15.774  1.00  0.00    -0.212 N 
HETATM   31  C1  UNL     1      -6.387  18.659 -15.963  1.00  0.00     0.670 C 
HETATM   32  N1  UNL     1      -6.830  19.096 -17.086  1.00  0.00    -0.235 N 
HETATM   33  N2  UNL     1      -5.995  19.579 -14.961  1.00  0.00    -0.198 N 
ATOM     34  H12 UNL     1      -6.885  20.105 -17.222  1.00  0.00     0.174 HD
ATOM     35  H11 UNL     1      -7.113  18.433 -17.807  1.00  0.00     0.174 HD
ATOM     36  H2  UNL     1      -6.707  19.947 -14.331  1.00  0.00     0.180 HD
ATOM     37  H3  UNL     1      -5.384  16.836 -15.718  1.00  0.00     0.178 HD
BRANCH  33  38
HETATM   38  C2  UNL     1      -4.623  20.023 -14.792  1.00  0.00     0.261 A 
HETATM   39  C3  UNL     1      -4.186  20.698 -13.615  1.00  0.00     0.224 A 
HETATM   40  O1  UNL     1      -4.648  21.511 -14.668  1.00  0.00    -0.360 OA
ENDBRANCH  33  38
ENDBRANCH   1  30
TORSDOF 2
ENDMDL
MODEL 4
REMARK VINA RESULT: -6.167103853      3.672      6.021
REMARK  2 active torsions:
REMARK  status: ('A' for Active; 'I' for Inactive)
REMARK       I    between atoms: C1_4  and  N2_5 
REMARK       I    between atoms: C1_4  and  N3_10 
REMARK    1  A    between atoms: N2_5  and  C2_7 
REMARK    2  A    between atoms: N3_10  and  C4_12 
ROOT
HETATM    1  C4  UNL     1      -8.373  14.790 -15.696  1.00  0.00     0.217 C 
HETATM    2  C5  UNL     1      -8.541  13.659 -14.716  1.00  0.00     0.267 C 
HETATM    3  N4  UNL     1      -7.645  13.772 -13.585  1.00  0.00    -0.071 N 
ATOM      4  H41 UNL     1      -7.963  13.201 -12.802  1.00  0.00     0.277 HD
ATOM      5  H42 UNL     1      -7.713  14.692 -13.150  1.00  0.00     0.277 HD
HETATM    6  C6  UNL     1      -6.277  13.459 -13.943  1.00  0.00     0.259 C 
HETATM    7  C7  UNL     1      -5.637  12.736 -12.802  1.00  0.00     0.259 C 
HETATM    8  N5  UNL     1      -5.728  11.298 -13.068  1.00  0.00    -0.073 N 
ATOM      9  H51 UNL     1      -6.654  11.003 -13.377  1.00  0.00     0.277 HD
ATOM     10  H52 UNL     1      -5.689  10.729 -12.223  1.00  0.00     0.277 HD
HETATM   11  C8  UNL     1      -4.685  10.988 -14.014  1.00  0.00     0.241 C 
HETATM   12  C9  UNL     1      -4.340   9.516 -14.019  1.00  0.00     0.130 C 
HETATM   13  C10 UNL     1      -5.473   8.650 -13.677  1.00  0.00     0.219 C 
HETATM   14  O2  UNL     1      -5.733   8.398 -12.466  1.00  0.00    -0.274 OA
HETATM   15  N6  UNL     1      -6.324   8.057 -14.649  1.00  0.00    -0.361 N 
ATOM     16  H6  UNL     1      -6.718   7.138 -14.448  1.00  0.00     0.162 HD
HETATM   17  C11 UNL     1      -6.661   8.684 -15.906  1.00  0.00     0.123 C 
HETATM   18  C12 UNL     1      -5.749   8.206 -17.024  1.00  0.00     0.030 C 
HETATM   19  C13 UNL     1      -6.554   8.002 -18.268  1.00  0.00     0.075 C 
HETATM   20  S1  UNL     1      -6.881   9.575 -19.126  1.00  0.00    -0.167 SA
HETATM   21  C14 UNL     1      -8.590  10.041 -18.765  1.00  0.00     0.100 C 
HETATM   22  C15 UNL     1      -9.166  10.964 -19.812  1.00  0.00     0.177 C 
HETATM   23  O3  UNL     1      -8.582  12.204 -19.840  1.00  0.00    -0.389 OA
HETATM   24  C16 UNL     1      -8.466  12.811 -18.605  1.00  0.00     0.187 C 
HETATM   25  C17 UNL     1      -9.794  13.058 -17.933  1.00  0.00     0.148 C 
HETATM   26  N7  UNL     1     -10.016  14.451 -17.628  1.00  0.00    -0.357 N 
ATOM     27  H7  UNL     1     -10.467  15.025 -18.341  1.00  0.00     0.162 HD
HETATM   28  C18 UNL     1      -9.657  15.077 -16.420  1.00  0.00     0.242 C 
HETATM   29  O4  UNL     1     -10.427  15.925 -15.895  1.00  0.00    -0.271 OA
ENDROOT
BRANCH   1  30
HETATM   30  N3  UNL     1      -7.859  15.959 -15.051  1.00  0.00    -0.212 N 
HETATM   31  C1  UNL     1      -6.845  16.791 -15.583  1.00  0.00     0.670 C 
HETATM   32  N1  UNL     1      -5.653  16.319 -15.662  1.00  0.00    -0.235 N 
HETATM   33  N2  UNL     1      -7.104  18.111 -16.025  1.00  0.00    -0.198 N 
ATOM     34  H12 UNL     1      -4.922  16.918 -16.045  1.00  0.00     0.174 HD
ATOM     35  H11 UNL     1      -5.467  15.368 -15.344  1.00  0.00     0.174 HD
ATOM     36  H2  UNL     1      -7.303  18.264 -17.013  1.00  0.00     0.180 HD
ATOM     37  H3  UNL     1      -8.252  16.210 -14.144  1.00  0.00     0.178 HD
BRANCH  33  38
HETATM   38  C2  UNL     1      -7.097  19.257 -15.133  1.00  0.00     0.261 A 
HETATM   39  C3  UNL     1      -7.231  20.591 -15.616  1.00  0.00     0.224 A 
HETATM   40  O1  UNL     1      -5.917  20.097 -15.496  1.00  0.00    -0.360 OA
ENDBRANCH  33  38
ENDBRANCH   1  30
TORSDOF 2
ENDMDL
MODEL 5
REMARK VINA RESULT: -5.949609645      2.207      2.770
REMARK  2 active torsions:
REMARK  status: ('A' for Active; 'I' for Inactive)
REMARK       I    between atoms: C1_4  and  N2_5 
REMARK       I    between atoms: C1_4  and  N3_10 
REMARK    1  A    between atoms: N2_5  and  C2_7 
REMARK    2  A    between atoms: N3_10  and  C4_12 
ROOT
HETATM    1  C4  UNL     1      -5.424  13.768 -14.460  1.00  0.00     0.217 C 
HETATM    2  C5  UNL     1      -4.294  14.612 -13.932  1.00  0.00     0.267 C 
HETATM    3  N4  UNL     1      -3.924  15.671 -14.847  1.00  0.00    -0.071 N 
ATOM      4  H41 UNL     1      -3.393  16.401 -14.372  1.00  0.00     0.277 HD
ATOM      5  H42 UNL     1      -4.737  16.219 -15.126  1.00  0.00     0.277 HD
HETATM    6  C6  UNL     1      -3.209  15.167 -16.001  1.00  0.00     0.259 C 
HETATM    7  C7  UNL     1      -2.152  16.154 -16.378  1.00  0.00     0.259 C 
HETATM    8  N5  UNL     1      -0.890  15.722 -15.772  1.00  0.00    -0.073 N 
ATOM      9  H51 UNL     1      -0.984  15.455 -14.792  1.00  0.00     0.277 HD
ATOM     10  H52 UNL     1      -0.228  16.485 -15.634  1.00  0.00     0.277 HD
HETATM   11  C8  UNL     1      -0.375  14.662 -16.604  1.00  0.00     0.241 C 
HETATM   12  C9  UNL     1       1.107  14.448 -16.400  1.00  0.00     0.130 C 
HETATM   13  C10 UNL     1       1.564  14.773 -15.045  1.00  0.00     0.219 C 
HETATM   14  O2  UNL     1       1.881  15.961 -14.753  1.00  0.00    -0.274 OA
HETATM   15  N6  UNL     1       1.676  13.809 -14.007  1.00  0.00    -0.361 N 
ATOM     16  H6  UNL     1       2.419  13.927 -13.318  1.00  0.00     0.162 HD
HETATM   17  C11 UNL     1       0.798  12.671 -13.875  1.00  0.00     0.123 C 
HETATM   18  C12 UNL     1       1.397  11.431 -14.519  1.00  0.00     0.030 C 
HETATM   19  C13 UNL     1       1.127  10.241 -13.653  1.00  0.00     0.075 C 
HETATM   20  S1  UNL     1      -0.568   9.613 -13.880  1.00  0.00    -0.167 SA
HETATM   21  C14 UNL     1      -1.543  10.167 -12.462  1.00  0.00     0.100 C 
HETATM   22  C15 UNL     1      -2.749   9.292 -12.219  1.00  0.00     0.177 C 
HETATM   23  O3  UNL     1      -3.698   9.369 -13.206  1.00  0.00    -0.389 OA
HETATM   24  C16 UNL     1      -4.042  10.655 -13.572  1.00  0.00     0.187 C 
HETATM   25  C17 UNL     1      -4.637  11.459 -12.442  1.00  0.00     0.148 C 
HETATM   26  N7  UNL     1      -5.961  11.950 -12.741  1.00  0.00    -0.357 N 
ATOM     27  H7  UNL     1      -6.752  11.352 -12.501  1.00  0.00     0.162 HD
HETATM   28  C18 UNL     1      -6.242  13.193 -13.340  1.00  0.00     0.242 C 
HETATM   29  O4  UNL     1      -7.220  13.879 -12.940  1.00  0.00    -0.271 OA
ENDROOT
BRANCH   1  30
HETATM   30  N3  UNL     1      -6.235  14.507 -15.378  1.00  0.00    -0.212 N 
HETATM   31  C1  UNL     1      -7.332  13.971 -16.094  1.00  0.00     0.670 C 
HETATM   32  N1  UNL     1      -7.092  13.106 -17.013  1.00  0.00    -0.235 N 
HETATM   33  N2  UNL     1      -8.669  14.356 -15.830  1.00  0.00    -0.198 N 
ATOM     34  H12 UNL     1      -7.882  12.720 -17.530  1.00  0.00     0.174 HD
ATOM     35  H11 UNL     1      -6.129  12.830 -17.204  1.00  0.00     0.174 HD
ATOM     36  H2  UNL     1      -9.221  13.788 -15.188  1.00  0.00     0.180 HD
ATOM     37  H3  UNL     1      -6.006  15.490 -15.526  1.00  0.00     0.178 HD
BRANCH  33  38
HETATM   38  C2  UNL     1      -9.288  15.522 -16.432  1.00  0.00     0.261 A 
HETATM   39  C3  UNL     1      -9.568  16.701 -15.683  1.00  0.00     0.224 A 
HETATM   40  O1  UNL     1     -10.595  15.739 -15.743  1.00  0.00    -0.360 OA
ENDBRANCH  33  38
ENDBRANCH   1  30
TORSDOF 2
ENDMDL
