MODEL 1
REMARK VINA RESULT: -7.398892547      0.000      0.000
REMARK  6 active torsions:
REMARK  status: ('A' for Active; 'I' for Inactive)
REMARK    1  A    between atoms: C2_2  and  C3_3 
REMARK    2  A    between atoms: C3_3  and  C4_4 
REMARK    3  A    between atoms: C6_9  and  C7_10 
REMARK    4  A    between atoms: C17_27  and  C18_28 
REMARK    5  A    between atoms: C18_28  and  C19_29 
REMARK    6  A    between atoms: C26_41  and  C27_42 
ROOT
HETATM    1  C4  UNL     1       4.770  -9.342  15.041  1.00  0.00     0.101 C 
HETATM    2  N1  UNL     1       4.659  -9.272  13.624  1.00  0.00    -0.354 N 
ATOM      3  H1  UNL     1       5.530  -9.078  13.129  1.00  0.00     0.163 HD
HETATM    4  C5  UNL     1       3.525  -9.432  12.806  1.00  0.00     0.241 C 
HETATM    5  O1  UNL     1       3.573  -8.770  11.706  1.00  0.00    -0.271 OA
HETATM    6  C6  UNL     1       2.326 -10.260  13.080  1.00  0.00     0.178 C 
HETATM    7  N2  UNL     1       1.463  -9.519  13.967  1.00  0.00    -0.341 N 
HETATM    8  C9  UNL     1       1.370  -8.059  13.765  1.00  0.00     0.153 C 
HETATM    9  C10 UNL     1       0.699 -10.044  15.040  1.00  0.00     0.242 C 
HETATM   10  O2  UNL     1       0.766  -9.432  16.177  1.00  0.00    -0.271 OA
HETATM   11  C11 UNL     1      -0.175 -11.212  15.046  1.00  0.00     0.174 C 
HETATM   12  C12 UNL     1       0.705 -12.395  15.471  1.00  0.00     0.042 C 
HETATM   13  N3  UNL     1      -1.319 -11.095  15.930  1.00  0.00    -0.342 N 
HETATM   14  C13 UNL     1      -1.785 -12.374  16.436  1.00  0.00     0.153 C 
HETATM   15  C14 UNL     1      -1.988  -9.925  16.325  1.00  0.00     0.237 C 
HETATM   16  O3  UNL     1      -2.423  -9.846  17.529  1.00  0.00    -0.272 OA
HETATM   17  C15 UNL     1      -2.272  -8.719  15.511  1.00  0.00     0.225 C 
HETATM   18  N4  UNL     1      -2.724  -7.587  16.262  1.00  0.00    -0.351 N 
ATOM     19  H4  UNL     1      -3.737  -7.502  16.344  1.00  0.00     0.163 HD
HETATM   20  C16 UNL     1      -1.993  -6.578  16.903  1.00  0.00     0.240 C 
HETATM   21  O4  UNL     1      -2.110  -5.360  16.503  1.00  0.00    -0.271 OA
HETATM   22  C17 UNL     1      -1.041  -6.736  18.059  1.00  0.00     0.177 C 
HETATM   23  N5  UNL     1       0.020  -5.771  17.833  1.00  0.00    -0.346 N 
ATOM     24  H5  UNL     1      -0.254  -4.799  17.979  1.00  0.00     0.163 HD
HETATM   25  C22 UNL     1       1.338  -5.943  17.454  1.00  0.00     0.247 C 
HETATM   26  O5  UNL     1       1.775  -5.296  16.464  1.00  0.00    -0.271 OA
HETATM   27  C23 UNL     1       2.363  -6.835  18.091  1.00  0.00     0.219 C 
HETATM   28  C24 UNL     1       2.954  -5.966  19.217  1.00  0.00     0.050 C 
HETATM   29  O6  UNL     1       3.275  -7.417  17.298  1.00  0.00    -0.306 OA
HETATM   30  C25 UNL     1       4.382  -8.109  17.150  1.00  0.00     0.266 C 
HETATM   31  O7  UNL     1       5.056  -8.835  17.957  1.00  0.00    -0.265 OA
HETATM   32  C26 UNL     1       5.064  -8.107  15.799  1.00  0.00     0.112 C 
ENDROOT
BRANCH  22  33
HETATM   33  C18 UNL     1      -1.775  -6.480  19.353  1.00  0.00     0.038 C 
BRANCH  33  34
HETATM   34  C19 UNL     1      -0.961  -6.491  20.585  1.00  0.00    -0.020 C 
HETATM   35  C20 UNL     1      -1.468  -7.339  21.692  1.00  0.00     0.009 C 
HETATM   36  C21 UNL     1      -0.661  -5.099  21.113  1.00  0.00     0.009 C 
ENDBRANCH  33  34
ENDBRANCH  22  33
BRANCH  32  37
HETATM   37  C27 UNL     1       4.903  -6.787  15.133  1.00  0.00    -0.007 C 
HETATM   38  C28 UNL     1       5.715  -6.554  13.925  1.00  0.00     0.010 C 
HETATM   39  C29 UNL     1       5.365  -5.724  16.155  1.00  0.00     0.010 C 
ENDBRANCH  32  37
BRANCH   1  40
HETATM   40  C3  UNL     1       5.851 -10.403  15.363  1.00  0.00     0.052 C 
BRANCH  40  41
HETATM   41  C2  UNL     1       7.184 -10.009  14.883  1.00  0.00    -0.035 C 
HETATM   42  C1  UNL     1       8.132  -9.717  15.737  1.00  0.00     0.007 C 
ENDBRANCH  40  41
ENDBRANCH   1  40
BRANCH   6  43
HETATM   43  C7  UNL     1       1.656 -10.810  11.865  1.00  0.00     0.030 C 
HETATM   44  C8  UNL     1       1.480 -12.278  11.773  1.00  0.00     0.007 C 
ENDBRANCH   6  43
TORSDOF 6
ENDMDL
MODEL 2
REMARK VINA RESULT: -7.083953144      1.054      1.194
REMARK  6 active torsions:
REMARK  status: ('A' for Active; 'I' for Inactive)
REMARK    1  A    between atoms: C2_2  and  C3_3 
REMARK    2  A    between atoms: C3_3  and  C4_4 
REMARK    3  A    between atoms: C6_9  and  C7_10 
REMARK    4  A    between atoms: C17_27  and  C18_28 
REMARK    5  A    between atoms: C18_28  and  C19_29 
REMARK    6  A    between atoms: C26_41  and  C27_42 
ROOT
HETATM    1  C4  UNL     1       5.041  -9.876  14.426  1.00  0.00     0.101 C 
HETATM    2  N1  UNL     1       4.961  -9.669  13.020  1.00  0.00    -0.354 N 
ATOM      3  H1  UNL     1       5.848  -9.475  12.557  1.00  0.00     0.163 HD
HETATM    4  C5  UNL     1       3.835  -9.695  12.175  1.00  0.00     0.241 C 
HETATM    5  O1  UNL     1       3.937  -8.938  11.142  1.00  0.00    -0.271 OA
HETATM    6  C6  UNL     1       2.592 -10.483  12.353  1.00  0.00     0.178 C 
HETATM    7  N2  UNL     1       1.750  -9.784  13.294  1.00  0.00    -0.341 N 
HETATM    8  C9  UNL     1       1.733  -8.308  13.227  1.00  0.00     0.153 C 
HETATM    9  C10 UNL     1       0.941 -10.367  14.302  1.00  0.00     0.242 C 
HETATM   10  O2  UNL     1       1.017  -9.867  15.492  1.00  0.00    -0.271 OA
HETATM   11  C11 UNL     1       0.010 -11.484  14.186  1.00  0.00     0.174 C 
HETATM   12  C12 UNL     1       0.822 -12.744  14.511  1.00  0.00     0.042 C 
HETATM   13  N3  UNL     1      -1.143 -11.391  15.061  1.00  0.00    -0.342 N 
HETATM   14  C13 UNL     1      -1.681 -12.686  15.439  1.00  0.00     0.153 C 
HETATM   15  C14 UNL     1      -1.760 -10.230  15.554  1.00  0.00     0.237 C 
HETATM   16  O3  UNL     1      -2.214 -10.241  16.753  1.00  0.00    -0.272 OA
HETATM   17  C15 UNL     1      -1.970  -8.941  14.853  1.00  0.00     0.225 C 
HETATM   18  N4  UNL     1      -2.379  -7.862  15.700  1.00  0.00    -0.351 N 
ATOM     19  H4  UNL     1      -3.388  -7.733  15.775  1.00  0.00     0.163 HD
HETATM   20  C16 UNL     1      -1.611  -6.955  16.442  1.00  0.00     0.240 C 
HETATM   21  O4  UNL     1      -1.660  -5.700  16.156  1.00  0.00    -0.271 OA
HETATM   22  C17 UNL     1      -0.690  -7.267  17.591  1.00  0.00     0.177 C 
HETATM   23  N5  UNL     1       0.422  -6.341  17.472  1.00  0.00    -0.346 N 
ATOM     24  H5  UNL     1       0.194  -5.375  17.704  1.00  0.00     0.163 HD
HETATM   25  C22 UNL     1       1.737  -6.545  17.097  1.00  0.00     0.247 C 
HETATM   26  O5  UNL     1       2.224  -5.832  16.178  1.00  0.00    -0.271 OA
HETATM   27  C23 UNL     1       2.704  -7.543  17.662  1.00  0.00     0.219 C 
HETATM   28  C24 UNL     1       3.316  -6.813  18.872  1.00  0.00     0.050 C 
HETATM   29  O6  UNL     1       3.601  -8.095  16.831  1.00  0.00    -0.306 OA
HETATM   30  C25 UNL     1       4.675  -8.825  16.635  1.00  0.00     0.266 C 
HETATM   31  O7  UNL     1       5.297  -9.656  17.380  1.00  0.00    -0.265 OA
HETATM   32  C26 UNL     1       5.381  -8.733  15.300  1.00  0.00     0.112 C 
ENDROOT
BRANCH  22  33
HETATM   33  C18 UNL     1      -1.434  -7.096  18.893  1.00  0.00     0.038 C 
BRANCH  33  34
HETATM   34  C19 UNL     1      -1.192  -5.839  19.631  1.00  0.00    -0.020 C 
HETATM   35  C20 UNL     1      -0.408  -5.963  20.885  1.00  0.00     0.009 C 
HETATM   36  C21 UNL     1      -2.461  -5.054  19.905  1.00  0.00     0.009 C 
ENDBRANCH  33  34
ENDBRANCH  22  33
BRANCH  32  37
HETATM   37  C27 UNL     1       5.299  -7.350  14.758  1.00  0.00    -0.007 C 
HETATM   38  C28 UNL     1       6.152  -7.045  13.596  1.00  0.00     0.010 C 
HETATM   39  C29 UNL     1       5.780  -6.410  15.886  1.00  0.00     0.010 C 
ENDBRANCH  32  37
BRANCH   1  40
HETATM   40  C3  UNL     1       6.062 -11.016  14.662  1.00  0.00     0.052 C 
BRANCH  40  41
HETATM   41  C2  UNL     1       6.687 -11.477  13.414  1.00  0.00    -0.035 C 
HETATM   42  C1  UNL     1       6.641 -12.742  13.081  1.00  0.00     0.007 C 
ENDBRANCH  40  41
ENDBRANCH   1  40
BRANCH   6  43
HETATM   43  C7  UNL     1       1.919 -10.883  11.082  1.00  0.00     0.030 C 
HETATM   44  C8  UNL     1       1.636 -12.321  10.869  1.00  0.00     0.007 C 
ENDBRANCH   6  43
TORSDOF 6
ENDMDL
MODEL 3
REMARK VINA RESULT: -7.007988857      1.640      2.004
REMARK  6 active torsions:
REMARK  status: ('A' for Active; 'I' for Inactive)
REMARK    1  A    between atoms: C2_2  and  C3_3 
REMARK    2  A    between atoms: C3_3  and  C4_4 
REMARK    3  A    between atoms: C6_9  and  C7_10 
REMARK    4  A    between atoms: C17_27  and  C18_28 
REMARK    5  A    between atoms: C18_28  and  C19_29 
REMARK    6  A    between atoms: C26_41  and  C27_42 
ROOT
HETATM    1  C4  UNL     1       4.969  -9.552  15.463  1.00  0.00     0.101 C 
HETATM    2  N1  UNL     1       5.310  -9.748  14.095  1.00  0.00    -0.354 N 
ATOM      3  H1  UNL     1       6.235  -9.413  13.825  1.00  0.00     0.163 HD
HETATM    4  C5  UNL     1       4.559 -10.336  13.061  1.00  0.00     0.241 C 
HETATM    5  O1  UNL     1       4.824  -9.876  11.892  1.00  0.00    -0.271 OA
HETATM    6  C6  UNL     1       3.531 -11.398  13.186  1.00  0.00     0.178 C 
HETATM    7  N2  UNL     1       2.296 -10.779  13.601  1.00  0.00    -0.341 N 
HETATM    8  C9  UNL     1       1.977  -9.450  13.039  1.00  0.00     0.153 C 
HETATM    9  C10 UNL     1       1.351 -11.305  14.517  1.00  0.00     0.242 C 
HETATM   10  O2  UNL     1       0.920 -10.519  15.450  1.00  0.00    -0.271 OA
HETATM   11  C11 UNL     1       0.779 -12.646  14.561  1.00  0.00     0.174 C 
HETATM   12  C12 UNL     1       1.696 -13.466  15.479  1.00  0.00     0.042 C 
HETATM   13  N3  UNL     1      -0.588 -12.695  15.045  1.00  0.00    -0.342 N 
HETATM   14  C13 UNL     1      -0.921 -13.952  15.694  1.00  0.00     0.153 C 
HETATM   15  C14 UNL     1      -1.572 -11.698  14.952  1.00  0.00     0.237 C 
HETATM   16  O3  UNL     1      -2.379 -11.542  15.936  1.00  0.00    -0.272 OA
HETATM   17  C15 UNL     1      -1.818 -10.762  13.829  1.00  0.00     0.225 C 
HETATM   18  N4  UNL     1      -2.709  -9.685  14.136  1.00  0.00    -0.351 N 
ATOM     19  H4  UNL     1      -3.689  -9.861  13.916  1.00  0.00     0.163 HD
HETATM   20  C16 UNL     1      -2.446  -8.426  14.694  1.00  0.00     0.240 C 
HETATM   21  O4  UNL     1      -2.673  -7.366  13.999  1.00  0.00    -0.271 OA
HETATM   22  C17 UNL     1      -1.907  -8.132  16.068  1.00  0.00     0.177 C 
HETATM   23  N5  UNL     1      -1.050  -6.970  15.918  1.00  0.00    -0.346 N 
ATOM     24  H5  UNL     1      -1.549  -6.096  15.748  1.00  0.00     0.163 HD
HETATM   25  C22 UNL     1       0.326  -6.844  15.966  1.00  0.00     0.247 C 
HETATM   26  O5  UNL     1       0.917  -6.275  15.009  1.00  0.00    -0.271 OA
HETATM   27  C23 UNL     1       1.249  -7.313  17.052  1.00  0.00     0.219 C 
HETATM   28  C24 UNL     1       1.254  -6.145  18.056  1.00  0.00     0.050 C 
HETATM   29  O6  UNL     1       2.467  -7.752  16.701  1.00  0.00    -0.306 OA
HETATM   30  C25 UNL     1       3.678  -8.138  17.030  1.00  0.00     0.266 C 
HETATM   31  O7  UNL     1       4.189  -8.515  18.138  1.00  0.00    -0.265 OA
HETATM   32  C26 UNL     1       4.744  -8.177  15.956  1.00  0.00     0.112 C 
ENDROOT
BRANCH  22  33
HETATM   33  C18 UNL     1      -3.055  -7.873  17.013  1.00  0.00     0.038 C 
BRANCH  33  34
HETATM   34  C19 UNL     1      -2.746  -7.093  18.228  1.00  0.00    -0.020 C 
HETATM   35  C20 UNL     1      -2.204  -7.864  19.375  1.00  0.00     0.009 C 
HETATM   36  C21 UNL     1      -3.907  -6.237  18.699  1.00  0.00     0.009 C 
ENDBRANCH  33  34
ENDBRANCH  22  33
BRANCH  32  37
HETATM   37  C27 UNL     1       4.542  -7.075  14.977  1.00  0.00    -0.007 C 
HETATM   38  C28 UNL     1       5.621  -6.855  13.999  1.00  0.00     0.010 C 
HETATM   39  C29 UNL     1       4.456  -5.770  15.801  1.00  0.00     0.010 C 
ENDBRANCH  32  37
BRANCH   1  40
HETATM   40  C3  UNL     1       6.081 -10.218  16.311  1.00  0.00     0.052 C 
BRANCH  40  41
HETATM   41  C2  UNL     1       7.388 -10.198  15.638  1.00  0.00    -0.035 C 
HETATM   42  C1  UNL     1       8.352  -9.438  16.091  1.00  0.00     0.007 C 
ENDBRANCH  40  41
ENDBRANCH   1  40
BRANCH   6  43
HETATM   43  C7  UNL     1       3.417 -12.298  12.001  1.00  0.00     0.030 C 
HETATM   44  C8  UNL     1       3.651 -13.747  12.204  1.00  0.00     0.007 C 
ENDBRANCH   6  43
TORSDOF 6
ENDMDL
MODEL 4
REMARK VINA RESULT: -6.717425428      2.422      7.228
REMARK  6 active torsions:
REMARK  status: ('A' for Active; 'I' for Inactive)
REMARK    1  A    between atoms: C2_2  and  C3_3 
REMARK    2  A    between atoms: C3_3  and  C4_4 
REMARK    3  A    between atoms: C6_9  and  C7_10 
REMARK    4  A    between atoms: C17_27  and  C18_28 
REMARK    5  A    between atoms: C18_28  and  C19_29 
REMARK    6  A    between atoms: C26_41  and  C27_42 
ROOT
HETATM    1  C4  UNL     1      -1.813 -10.188  14.565  1.00  0.00     0.101 C 
HETATM    2  N1  UNL     1      -1.944 -11.510  15.076  1.00  0.00    -0.354 N 
ATOM      3  H1  UNL     1      -2.774 -11.676  15.646  1.00  0.00     0.163 HD
HETATM    4  C5  UNL     1      -1.097 -12.621  14.911  1.00  0.00     0.241 C 
HETATM    5  O1  UNL     1      -1.119 -13.450  15.892  1.00  0.00    -0.271 OA
HETATM    6  C6  UNL     1      -0.216 -12.918  13.756  1.00  0.00     0.178 C 
HETATM    7  N2  UNL     1       0.992 -12.142  13.901  1.00  0.00    -0.341 N 
HETATM    8  C9  UNL     1       1.530 -11.969  15.267  1.00  0.00     0.153 C 
HETATM    9  C10 UNL     1       1.716 -11.500  12.866  1.00  0.00     0.242 C 
HETATM   10  O2  UNL     1       2.065 -10.269  13.054  1.00  0.00    -0.271 OA
HETATM   11  C11 UNL     1       2.135 -12.044  11.579  1.00  0.00     0.174 C 
HETATM   12  C12 UNL     1       1.003 -11.721  10.596  1.00  0.00     0.042 C 
HETATM   13  N3  UNL     1       3.393 -11.513  11.088  1.00  0.00    -0.342 N 
HETATM   14  C13 UNL     1       3.487 -11.512   9.639  1.00  0.00     0.153 C 
HETATM   15  C14 UNL     1       4.473 -11.024  11.839  1.00  0.00     0.237 C 
HETATM   16  O3  UNL     1       5.121 -10.012  11.391  1.00  0.00    -0.272 OA
HETATM   17  C15 UNL     1       4.993 -11.537  13.129  1.00  0.00     0.225 C 
HETATM   18  N4  UNL     1       5.926 -10.669  13.782  1.00  0.00    -0.351 N 
ATOM     19  H4  UNL     1       6.906 -10.851  13.567  1.00  0.00     0.163 HD
HETATM   20  C16 UNL     1       5.703  -9.608  14.671  1.00  0.00     0.240 C 
HETATM   21  O4  UNL     1       6.147  -9.688  15.877  1.00  0.00    -0.271 OA
HETATM   22  C17 UNL     1       4.980  -8.319  14.388  1.00  0.00     0.177 C 
HETATM   23  N5  UNL     1       4.280  -7.979  15.614  1.00  0.00    -0.346 N 
ATOM     24  H5  UNL     1       4.885  -7.663  16.372  1.00  0.00     0.163 HD
HETATM   25  C22 UNL     1       2.935  -8.010  15.930  1.00  0.00     0.247 C 
HETATM   26  O5  UNL     1       2.568  -8.634  16.963  1.00  0.00    -0.271 OA
HETATM   27  C23 UNL     1       1.804  -7.374  15.177  1.00  0.00     0.219 C 
HETATM   28  C24 UNL     1       1.752  -5.941  15.739  1.00  0.00     0.050 C 
HETATM   29  O6  UNL     1       0.622  -8.008  15.156  1.00  0.00    -0.306 OA
HETATM   30  C25 UNL     1      -0.660  -8.021  14.869  1.00  0.00     0.266 C 
HETATM   31  O7  UNL     1      -1.380  -7.281  14.117  1.00  0.00    -0.265 OA
HETATM   32  C26 UNL     1      -1.534  -9.081  15.504  1.00  0.00     0.112 C 
ENDROOT
BRANCH  22  33
HETATM   33  C18 UNL     1       5.978  -7.259  13.991  1.00  0.00     0.038 C 
BRANCH  33  34
HETATM   34  C19 UNL     1       5.798  -5.924  14.599  1.00  0.00    -0.020 C 
HETATM   35  C20 UNL     1       5.039  -4.938  13.790  1.00  0.00     0.009 C 
HETATM   36  C21 UNL     1       7.102  -5.299  15.061  1.00  0.00     0.009 C 
ENDBRANCH  33  34
ENDBRANCH  22  33
BRANCH  32  37
HETATM   37  C27 UNL     1      -1.065  -9.392  16.880  1.00  0.00    -0.007 C 
HETATM   38  C28 UNL     1      -1.922 -10.281  17.684  1.00  0.00     0.010 C 
HETATM   39  C29 UNL     1      -1.028  -8.049  17.643  1.00  0.00     0.010 C 
ENDBRANCH  32  37
BRANCH   1  40
HETATM   40  C3  UNL     1      -3.110  -9.872  13.780  1.00  0.00     0.052 C 
BRANCH  40  41
HETATM   41  C2  UNL     1      -4.224  -9.499  14.663  1.00  0.00    -0.035 C 
HETATM   42  C1  UNL     1      -5.319 -10.216  14.683  1.00  0.00     0.007 C 
ENDBRANCH  40  41
ENDBRANCH   1  40
BRANCH   6  43
HETATM   43  C7  UNL     1      -0.000 -14.372  13.493  1.00  0.00     0.030 C 
HETATM   44  C8  UNL     1      -0.355 -14.895  12.152  1.00  0.00     0.007 C 
ENDBRANCH   6  43
TORSDOF 6
ENDMDL
MODEL 5
REMARK VINA RESULT: -6.696636646      3.043      5.365
REMARK  6 active torsions:
REMARK  status: ('A' for Active; 'I' for Inactive)
REMARK    1  A    between atoms: C2_2  and  C3_3 
REMARK    2  A    between atoms: C3_3  and  C4_4 
REMARK    3  A    between atoms: C6_9  and  C7_10 
REMARK    4  A    between atoms: C17_27  and  C18_28 
REMARK    5  A    between atoms: C18_28  and  C19_29 
REMARK    6  A    between atoms: C26_41  and  C27_42 
ROOT
HETATM    1  C4  UNL     1       5.288 -12.947  11.543  1.00  0.00     0.101 C 
HETATM    2  N1  UNL     1       4.603 -12.658  10.329  1.00  0.00    -0.354 N 
ATOM      3  H1  UNL     1       5.044 -13.020   9.484  1.00  0.00     0.163 HD
HETATM    4  C5  UNL     1       3.406 -11.947  10.126  1.00  0.00     0.241 C 
HETATM    5  O1  UNL     1       3.334 -11.353   8.989  1.00  0.00    -0.271 OA
HETATM    6  C6  UNL     1       2.261 -11.823  11.060  1.00  0.00     0.178 C 
HETATM    7  N2  UNL     1       2.585 -10.808  12.034  1.00  0.00    -0.341 N 
HETATM    8  C9  UNL     1       3.336  -9.627  11.562  1.00  0.00     0.153 C 
HETATM    9  C10 UNL     1       2.275 -10.832  13.417  1.00  0.00     0.242 C 
HETATM   10  O2  UNL     1       3.225 -10.547  14.247  1.00  0.00    -0.271 OA
HETATM   11  C11 UNL     1       1.002 -11.142  14.057  1.00  0.00     0.174 C 
HETATM   12  C12 UNL     1       1.024 -12.652  14.329  1.00  0.00     0.042 C 
HETATM   13  N3  UNL     1       0.761 -10.414  15.288  1.00  0.00    -0.342 N 
HETATM   14  C13 UNL     1      -0.091 -11.132  16.221  1.00  0.00     0.153 C 
HETATM   15  C14 UNL     1       1.245  -9.147  15.649  1.00  0.00     0.237 C 
HETATM   16  O3  UNL     1       1.578  -8.944  16.871  1.00  0.00    -0.272 OA
HETATM   17  C15 UNL     1       1.433  -7.961  14.779  1.00  0.00     0.225 C 
HETATM   18  N4  UNL     1       2.196  -6.904  15.370  1.00  0.00    -0.351 N 
ATOM     19  H4  UNL     1       1.645  -6.192  15.849  1.00  0.00     0.163 HD
HETATM   20  C16 UNL     1       3.582  -6.694  15.394  1.00  0.00     0.240 C 
HETATM   21  O4  UNL     1       4.076  -5.657  14.814  1.00  0.00    -0.271 OA
HETATM   22  C17 UNL     1       4.624  -7.565  16.044  1.00  0.00     0.177 C 
HETATM   23  N5  UNL     1       5.788  -7.503  15.178  1.00  0.00    -0.346 N 
ATOM     24  H5  UNL     1       6.284  -6.612  15.200  1.00  0.00     0.163 HD
HETATM   25  C22 UNL     1       6.340  -8.444  14.330  1.00  0.00     0.247 C 
HETATM   26  O5  UNL     1       6.557  -8.127  13.129  1.00  0.00    -0.271 OA
HETATM   27  C23 UNL     1       6.733  -9.854  14.661  1.00  0.00     0.219 C 
HETATM   28  C24 UNL     1       8.168  -9.715  15.202  1.00  0.00     0.050 C 
HETATM   29  O6  UNL     1       6.582 -10.792  13.714  1.00  0.00    -0.306 OA
HETATM   30  C25 UNL     1       6.786 -12.013  13.276  1.00  0.00     0.266 C 
HETATM   31  O7  UNL     1       7.138 -13.090  13.865  1.00  0.00    -0.265 OA
HETATM   32  C26 UNL     1       6.590 -12.298  11.802  1.00  0.00     0.112 C 
ENDROOT
BRANCH  22  33
HETATM   33  C18 UNL     1       4.919  -7.047  17.430  1.00  0.00     0.038 C 
BRANCH  33  34
HETATM   34  C19 UNL     1       5.044  -5.582  17.574  1.00  0.00    -0.020 C 
HETATM   35  C20 UNL     1       6.429  -5.053  17.653  1.00  0.00     0.009 C 
HETATM   36  C21 UNL     1       4.224  -5.023  18.722  1.00  0.00     0.009 C 
ENDBRANCH  33  34
ENDBRANCH  22  33
BRANCH  32  37
HETATM   37  C27 UNL     1       6.997 -11.124  10.984  1.00  0.00    -0.007 C 
HETATM   38  C28 UNL     1       6.841 -11.252   9.524  1.00  0.00     0.010 C 
HETATM   39  C29 UNL     1       8.510 -10.927  11.225  1.00  0.00     0.010 C 
ENDBRANCH  32  37
BRANCH   1  40
HETATM   40  C3  UNL     1       5.466 -14.484  11.612  1.00  0.00     0.052 C 
BRANCH  40  41
HETATM   41  C2  UNL     1       6.749 -14.927  11.049  1.00  0.00    -0.035 C 
HETATM   42  C1  UNL     1       6.788 -15.521   9.883  1.00  0.00     0.007 C 
ENDBRANCH  40  41
ENDBRANCH   1  40
BRANCH   6  43
HETATM   43  C7  UNL     1       0.932 -11.660  10.401  1.00  0.00     0.030 C 
HETATM   44  C8  UNL     1      -0.080 -12.723  10.606  1.00  0.00     0.007 C 
ENDBRANCH   6  43
TORSDOF 6
ENDMDL
