MODEL 1
REMARK VINA RESULT: -8.418069791      0.000      0.000
REMARK  8 active torsions:
REMARK  status: ('A' for Active; 'I' for Inactive)
REMARK    1  A    between atoms: O1_1  and  C1_3 
REMARK    2  A    between atoms: C1_3  and  C2_4 
REMARK    3  A    between atoms: C1_3  and  C5_12 
REMARK    4  A    between atoms: C1_3  and  C11_19 
REMARK    5  A    between atoms: C2_4  and  N1_5 
REMARK    6  A    between atoms: C13_21  and  C14_22 
REMARK    7  A    between atoms: C17_25  and  O2_26 
REMARK    8  A    between atoms: O2_26  and  C18_27 
ROOT
HETATM    1  C1  UNL     1      -0.215  -5.427  17.322  1.00  0.00     0.122 C 
ENDROOT
BRANCH   1   2
HETATM    2  O1  UNL     1      -1.286  -4.857  16.523  1.00  0.00    -0.381 OA
ATOM      3  H1  UNL     1      -0.775  -4.502  15.805  1.00  0.00     0.211 HD
ENDBRANCH   1   2
BRANCH   1   4
HETATM    4  C2  UNL     1      -0.654  -6.896  17.324  1.00  0.00     0.194 C 
BRANCH   4   5
HETATM    5  N1  UNL     1      -1.660  -7.275  16.399  1.00  0.00    -0.284 N 
HETATM    6  C3  UNL     1      -2.916  -7.768  16.661  1.00  0.00     0.201 A 
HETATM    7  N2  UNL     1      -3.567  -8.002  15.536  1.00  0.00    -0.346 N 
HETATM    8  C4  UNL     1      -2.765  -7.675  14.532  1.00  0.00     0.198 A 
ATOM      9  H2  UNL     1      -4.515  -8.369  15.455  1.00  0.00     0.167 HD
HETATM   10  N3  UNL     1      -1.619  -7.239  15.054  1.00  0.00    -0.293 N 
ATOM     11  H3  UNL     1      -0.818  -6.920  14.508  1.00  0.00     0.188 HD
ENDBRANCH   4   5
ENDBRANCH   1   4
BRANCH   1  12
HETATM   12  C5  UNL     1      -0.294  -4.841  18.639  1.00  0.00    -0.021 A 
HETATM   13  C6  UNL     1       0.571  -3.809  19.055  1.00  0.00     0.012 A 
HETATM   14  C7  UNL     1       0.508  -3.244  20.298  1.00  0.00     0.024 A 
HETATM   15  C8  UNL     1      -0.413  -3.659  21.211  1.00  0.00     0.034 A 
HETATM   16 CL1  UNL     1      -0.525  -2.956  22.800  1.00  0.00    -0.084 Cl
HETATM   17  C9  UNL     1      -1.281  -4.674  20.829  1.00  0.00     0.024 A 
HETATM   18  C10 UNL     1      -1.222  -5.258  19.562  1.00  0.00     0.012 A 
ENDBRANCH   1  12
BRANCH   1  19
HETATM   19  C11 UNL     1       1.004  -5.286  16.553  1.00  0.00     0.145 C 
HETATM   20  C12 UNL     1       2.331  -5.653  17.099  1.00  0.00     0.085 C 
HETATM   21  C13 UNL     1       3.164  -5.530  15.840  1.00  0.00     0.034 C 
HETATM   22  N4  UNL     1       2.377  -5.652  14.792  1.00  0.00    -0.307 N 
HETATM   23  N5  UNL     1       1.045  -5.853  15.205  1.00  0.00    -0.132 NA
ATOM     24  H4  UNL     1       2.687  -5.608  13.822  1.00  0.00     0.182 HD
BRANCH  21  25
HETATM   25  C14 UNL     1       4.600  -5.299  15.721  1.00  0.00    -0.012 A 
HETATM   26  C15 UNL     1       5.204  -5.196  14.483  1.00  0.00     0.016 A 
HETATM   27  C16 UNL     1       6.577  -4.983  14.381  1.00  0.00     0.038 A 
HETATM   28  C17 UNL     1       7.387  -4.868  15.489  1.00  0.00     0.078 A 
HETATM   29  C19 UNL     1       6.768  -4.976  16.739  1.00  0.00     0.038 A 
HETATM   30  C20 UNL     1       5.417  -5.185  16.823  1.00  0.00     0.016 A 
BRANCH  28  31
HETATM   31  O2  UNL     1       8.761  -4.657  15.420  1.00  0.00    -0.255 OA
BRANCH  31  32
HETATM   32  C18 UNL     1       9.687  -5.739  15.586  1.00  0.00     0.530 C 
HETATM   33  F1  UNL     1      10.921  -5.340  15.138  1.00  0.00    -0.144 F 
HETATM   34  F2  UNL     1       9.790  -6.082  16.928  1.00  0.00    -0.144 F 
HETATM   35  F3  UNL     1       9.231  -6.847  14.875  1.00  0.00    -0.144 F 
ENDBRANCH  31  32
ENDBRANCH  28  31
ENDBRANCH  21  25
ENDBRANCH   1  19
TORSDOF 8
ENDMDL
MODEL 2
REMARK VINA RESULT: -8.381653040      4.527      6.427
REMARK  8 active torsions:
REMARK  status: ('A' for Active; 'I' for Inactive)
REMARK    1  A    between atoms: O1_1  and  C1_3 
REMARK    2  A    between atoms: C1_3  and  C2_4 
REMARK    3  A    between atoms: C1_3  and  C5_12 
REMARK    4  A    between atoms: C1_3  and  C11_19 
REMARK    5  A    between atoms: C2_4  and  N1_5 
REMARK    6  A    between atoms: C13_21  and  C14_22 
REMARK    7  A    between atoms: C17_25  and  O2_26 
REMARK    8  A    between atoms: O2_26  and  C18_27 
ROOT
HETATM    1  C1  UNL     1       4.996  -6.052  15.378  1.00  0.00     0.122 C 
ENDROOT
BRANCH   1   2
HETATM    2  O1  UNL     1       4.230  -5.295  14.404  1.00  0.00    -0.381 OA
ATOM      3  H1  UNL     1       4.939  -4.980  13.857  1.00  0.00     0.211 HD
ENDBRANCH   1   2
BRANCH   1   4
HETATM    4  C2  UNL     1       3.852  -6.782  16.090  1.00  0.00     0.194 C 
BRANCH   4   5
HETATM    5  N1  UNL     1       2.537  -6.559  15.606  1.00  0.00    -0.284 N 
HETATM    6  C3  UNL     1       1.512  -5.871  16.208  1.00  0.00     0.201 A 
HETATM    7  N2  UNL     1       0.435  -5.877  15.444  1.00  0.00    -0.346 N 
HETATM    8  C4  UNL     1       0.728  -6.559  14.345  1.00  0.00     0.198 A 
ATOM      9  H2  UNL     1      -0.459  -5.437  15.660  1.00  0.00     0.167 HD
HETATM   10  N3  UNL     1       1.992  -6.969  14.445  1.00  0.00    -0.293 N 
ATOM     11  H3  UNL     1       2.481  -7.518  13.738  1.00  0.00     0.188 HD
ENDBRANCH   4   5
ENDBRANCH   1   4
BRANCH   1  12
HETATM   12  C5  UNL     1       5.653  -5.105  16.248  1.00  0.00    -0.021 A 
HETATM   13  C6  UNL     1       6.764  -4.345  15.828  1.00  0.00     0.012 A 
HETATM   14  C7  UNL     1       7.395  -3.444  16.640  1.00  0.00     0.024 A 
HETATM   15  C8  UNL     1       6.972  -3.234  17.916  1.00  0.00     0.034 A 
HETATM   16 CL1  UNL     1       7.750  -2.089  18.974  1.00  0.00    -0.084 Cl
HETATM   17  C9  UNL     1       5.878  -3.967  18.358  1.00  0.00     0.024 A 
HETATM   18  C10 UNL     1       5.228  -4.890  17.537  1.00  0.00     0.012 A 
ENDBRANCH   1  12
BRANCH   1  19
HETATM   19  C11 UNL     1       5.793  -7.007  14.637  1.00  0.00     0.145 C 
HETATM   20  C12 UNL     1       6.539  -8.100  15.301  1.00  0.00     0.085 C 
HETATM   21  C13 UNL     1       6.972  -8.888  14.081  1.00  0.00     0.034 C 
HETATM   22  N4  UNL     1       6.159  -8.611  13.083  1.00  0.00    -0.307 N 
HETATM   23  N5  UNL     1       5.180  -7.686  13.495  1.00  0.00    -0.132 NA
ATOM     24  H4  UNL     1       6.230  -9.008  12.147  1.00  0.00     0.182 HD
BRANCH  21  25
HETATM   25  C14 UNL     1       8.097  -9.807  13.946  1.00  0.00    -0.012 A 
HETATM   26  C15 UNL     1       8.852 -10.173  15.043  1.00  0.00     0.016 A 
HETATM   27  C16 UNL     1       9.929 -11.045  14.903  1.00  0.00     0.038 A 
HETATM   28  C17 UNL     1      10.290 -11.576  13.684  1.00  0.00     0.078 A 
HETATM   29  C19 UNL     1       9.521 -11.200  12.578  1.00  0.00     0.038 A 
HETATM   30  C20 UNL     1       8.464 -10.341  12.732  1.00  0.00     0.016 A 
BRANCH  28  31
HETATM   31  O2  UNL     1      11.360 -12.448  13.510  1.00  0.00    -0.255 OA
BRANCH  31  32
HETATM   32  C18 UNL     1      12.714 -11.984  13.588  1.00  0.00     0.530 C 
HETATM   33  F1  UNL     1      12.772 -10.697  13.116  1.00  0.00    -0.144 F 
HETATM   34  F2  UNL     1      13.152 -11.995  14.906  1.00  0.00    -0.144 F 
HETATM   35  F3  UNL     1      13.532 -12.829  12.839  1.00  0.00    -0.144 F 
ENDBRANCH  31  32
ENDBRANCH  28  31
ENDBRANCH  21  25
ENDBRANCH   1  19
TORSDOF 8
ENDMDL
MODEL 3
REMARK VINA RESULT: -7.988719737      5.691      9.457
REMARK  8 active torsions:
REMARK  status: ('A' for Active; 'I' for Inactive)
REMARK    1  A    between atoms: O1_1  and  C1_3 
REMARK    2  A    between atoms: C1_3  and  C2_4 
REMARK    3  A    between atoms: C1_3  and  C5_12 
REMARK    4  A    between atoms: C1_3  and  C11_19 
REMARK    5  A    between atoms: C2_4  and  N1_5 
REMARK    6  A    between atoms: C13_21  and  C14_22 
REMARK    7  A    between atoms: C17_25  and  O2_26 
REMARK    8  A    between atoms: O2_26  and  C18_27 
ROOT
HETATM    1  C1  UNL     1       5.950  -5.689  15.861  1.00  0.00     0.122 C 
ENDROOT
BRANCH   1   2
HETATM    2  O1  UNL     1       5.706  -4.529  15.021  1.00  0.00    -0.381 OA
ATOM      3  H1  UNL     1       4.998  -4.128  15.510  1.00  0.00     0.211 HD
ENDBRANCH   1   2
BRANCH   1   4
HETATM    4  C2  UNL     1       7.322  -5.308  16.427  1.00  0.00     0.194 C 
BRANCH   4   5
HETATM    5  N1  UNL     1       7.404  -4.114  17.189  1.00  0.00    -0.284 N 
HETATM    6  C3  UNL     1       7.383  -3.971  18.555  1.00  0.00     0.201 A 
HETATM    7  N2  UNL     1       7.484  -2.698  18.891  1.00  0.00    -0.346 N 
HETATM    8  C4  UNL     1       7.572  -1.993  17.771  1.00  0.00     0.198 A 
ATOM      9  H2  UNL     1       7.494  -2.325  19.840  1.00  0.00     0.167 HD
HETATM   10  N3  UNL     1       7.522  -2.847  16.748  1.00  0.00    -0.293 N 
ATOM     11  H3  UNL     1       7.568  -2.577  15.766  1.00  0.00     0.188 HD
ENDBRANCH   4   5
ENDBRANCH   1   4
BRANCH   1  12
HETATM   12  C5  UNL     1       6.026  -6.844  14.998  1.00  0.00    -0.021 A 
HETATM   13  C6  UNL     1       5.214  -6.981  13.854  1.00  0.00     0.012 A 
HETATM   14  C7  UNL     1       5.276  -8.068  13.027  1.00  0.00     0.024 A 
HETATM   15  C8  UNL     1       6.140  -9.090  13.274  1.00  0.00     0.034 A 
HETATM   16 CL1  UNL     1       6.248 -10.485  12.239  1.00  0.00    -0.084 Cl
HETATM   17  C9  UNL     1       6.955  -8.982  14.395  1.00  0.00     0.024 A 
HETATM   18  C10 UNL     1       6.898  -7.877  15.246  1.00  0.00     0.012 A 
ENDBRANCH   1  12
BRANCH   1  19
HETATM   19  C11 UNL     1       4.963  -5.656  16.920  1.00  0.00     0.145 C 
HETATM   20  C12 UNL     1       3.872  -4.654  16.953  1.00  0.00     0.085 C 
HETATM   21  C13 UNL     1       3.047  -5.218  18.092  1.00  0.00     0.034 C 
HETATM   22  N4  UNL     1       3.315  -6.500  18.220  1.00  0.00    -0.307 N 
HETATM   23  N5  UNL     1       4.268  -6.897  17.262  1.00  0.00    -0.132 NA
ATOM     24  H4  UNL     1       2.894  -7.118  18.914  1.00  0.00     0.182 HD
BRANCH  21  25
HETATM   25  C14 UNL     1       2.104  -4.522  18.961  1.00  0.00    -0.012 A 
HETATM   26  C15 UNL     1       0.778  -4.903  19.021  1.00  0.00     0.016 A 
HETATM   27  C16 UNL     1      -0.117  -4.226  19.847  1.00  0.00     0.038 A 
HETATM   28  C17 UNL     1       0.270  -3.161  20.631  1.00  0.00     0.078 A 
HETATM   29  C19 UNL     1       1.614  -2.780  20.563  1.00  0.00     0.038 A 
HETATM   30  C20 UNL     1       2.481  -3.456  19.745  1.00  0.00     0.016 A 
BRANCH  28  31
HETATM   31  O2  UNL     1      -0.599  -2.464  21.464  1.00  0.00    -0.255 OA
BRANCH  31  32
HETATM   32  C18 UNL     1      -0.719  -2.794  22.854  1.00  0.00     0.530 C 
HETATM   33  F1  UNL     1      -1.286  -4.039  22.969  1.00  0.00    -0.144 F 
HETATM   34  F2  UNL     1       0.534  -2.820  23.452  1.00  0.00    -0.144 F 
HETATM   35  F3  UNL     1      -1.498  -1.829  23.490  1.00  0.00    -0.144 F 
ENDBRANCH  31  32
ENDBRANCH  28  31
ENDBRANCH  21  25
ENDBRANCH   1  19
TORSDOF 8
ENDMDL
MODEL 4
REMARK VINA RESULT: -7.944134980      5.899      8.740
REMARK  8 active torsions:
REMARK  status: ('A' for Active; 'I' for Inactive)
REMARK    1  A    between atoms: O1_1  and  C1_3 
REMARK    2  A    between atoms: C1_3  and  C2_4 
REMARK    3  A    between atoms: C1_3  and  C5_12 
REMARK    4  A    between atoms: C1_3  and  C11_19 
REMARK    5  A    between atoms: C2_4  and  N1_5 
REMARK    6  A    between atoms: C13_21  and  C14_22 
REMARK    7  A    between atoms: C17_25  and  O2_26 
REMARK    8  A    between atoms: O2_26  and  C18_27 
ROOT
HETATM    1  C1  UNL     1       5.081  -7.367  15.368  1.00  0.00     0.122 C 
ENDROOT
BRANCH   1   2
HETATM    2  O1  UNL     1       3.916  -8.191  15.097  1.00  0.00    -0.381 OA
ATOM      3  H1  UNL     1       3.370  -7.938  15.831  1.00  0.00     0.211 HD
ENDBRANCH   1   2
BRANCH   1   4
HETATM    4  C2  UNL     1       5.332  -6.811  13.963  1.00  0.00     0.194 C 
BRANCH   4   5
HETATM    5  N1  UNL     1       4.986  -7.639  12.864  1.00  0.00    -0.284 N 
HETATM    6  C3  UNL     1       5.712  -8.663  12.307  1.00  0.00     0.201 A 
HETATM    7  N2  UNL     1       5.056  -9.203  11.296  1.00  0.00    -0.346 N 
HETATM    8  C4  UNL     1       3.906  -8.553  11.172  1.00  0.00     0.198 A 
ATOM      9  H2  UNL     1       5.375  -9.979  10.716  1.00  0.00     0.167 HD
HETATM   10  N3  UNL     1       3.867  -7.613  12.116  1.00  0.00    -0.293 N 
ATOM     11  H3  UNL     1       3.094  -6.961  12.253  1.00  0.00     0.188 HD
ENDBRANCH   4   5
ENDBRANCH   1   4
BRANCH   1  12
HETATM   12  C5  UNL     1       6.145  -8.244  15.797  1.00  0.00    -0.021 A 
HETATM   13  C6  UNL     1       7.490  -8.026  15.434  1.00  0.00     0.012 A 
HETATM   14  C7  UNL     1       8.508  -8.848  15.832  1.00  0.00     0.024 A 
HETATM   15  C8  UNL     1       8.266  -9.937  16.613  1.00  0.00     0.034 A 
HETATM   16 CL1  UNL     1       9.539 -11.000  17.142  1.00  0.00    -0.084 Cl
HETATM   17  C9  UNL     1       6.949 -10.177  16.987  1.00  0.00     0.024 A 
HETATM   18  C10 UNL     1       5.904  -9.344  16.584  1.00  0.00     0.012 A 
ENDBRANCH   1  12
BRANCH   1  19
HETATM   19  C11 UNL     1       4.645  -6.298  16.242  1.00  0.00     0.145 C 
HETATM   20  C12 UNL     1       3.558  -6.480  17.232  1.00  0.00     0.085 C 
HETATM   21  C13 UNL     1       3.687  -5.174  17.990  1.00  0.00     0.034 C 
HETATM   22  N4  UNL     1       4.905  -4.702  17.825  1.00  0.00    -0.307 N 
HETATM   23  N5  UNL     1       5.656  -5.569  17.008  1.00  0.00    -0.132 NA
ATOM     24  H4  UNL     1       5.253  -3.834  18.230  1.00  0.00     0.182 HD
BRANCH  21  25
HETATM   25  C14 UNL     1       2.676  -4.480  18.780  1.00  0.00    -0.012 A 
HETATM   26  C15 UNL     1       3.028  -3.482  19.668  1.00  0.00     0.016 A 
HETATM   27  C16 UNL     1       2.055  -2.831  20.424  1.00  0.00     0.038 A 
HETATM   28  C17 UNL     1       0.717  -3.146  20.326  1.00  0.00     0.078 A 
HETATM   29  C19 UNL     1       0.369  -4.158  19.427  1.00  0.00     0.038 A 
HETATM   30  C20 UNL     1       1.338  -4.789  18.690  1.00  0.00     0.016 A 
BRANCH  28  31
HETATM   31  O2  UNL     1      -0.277  -2.516  21.068  1.00  0.00    -0.255 OA
BRANCH  31  32
HETATM   32  C18 UNL     1      -0.614  -2.963  22.388  1.00  0.00     0.530 C 
HETATM   33  F1  UNL     1      -0.987  -4.282  22.329  1.00  0.00    -0.144 F 
HETATM   34  F2  UNL     1       0.485  -2.848  23.230  1.00  0.00    -0.144 F 
HETATM   35  F3  UNL     1      -1.646  -2.173  22.890  1.00  0.00    -0.144 F 
ENDBRANCH  31  32
ENDBRANCH  28  31
ENDBRANCH  21  25
ENDBRANCH   1  19
TORSDOF 8
ENDMDL
MODEL 5
REMARK VINA RESULT: -7.911763720      5.505      8.576
REMARK  8 active torsions:
REMARK  status: ('A' for Active; 'I' for Inactive)
REMARK    1  A    between atoms: O1_1  and  C1_3 
REMARK    2  A    between atoms: C1_3  and  C2_4 
REMARK    3  A    between atoms: C1_3  and  C5_12 
REMARK    4  A    between atoms: C1_3  and  C11_19 
REMARK    5  A    between atoms: C2_4  and  N1_5 
REMARK    6  A    between atoms: C13_21  and  C14_22 
REMARK    7  A    between atoms: C17_25  and  O2_26 
REMARK    8  A    between atoms: O2_26  and  C18_27 
ROOT
HETATM    1  C1  UNL     1       5.064  -7.113  15.161  1.00  0.00     0.122 C 
ENDROOT
BRANCH   1   2
HETATM    2  O1  UNL     1       5.076  -8.563  15.060  1.00  0.00    -0.381 OA
ATOM      3  H1  UNL     1       4.418  -8.771  15.712  1.00  0.00     0.211 HD
ENDBRANCH   1   2
BRANCH   1   4
HETATM    4  C2  UNL     1       4.453  -6.770  13.798  1.00  0.00     0.194 C 
BRANCH   4   5
HETATM    5  N1  UNL     1       4.602  -7.724  12.759  1.00  0.00    -0.284 N 
HETATM    6  C3  UNL     1       3.623  -8.439  12.112  1.00  0.00     0.201 A 
HETATM    7  N2  UNL     1       4.153  -9.230  11.197  1.00  0.00    -0.346 N 
HETATM    8  C4  UNL     1       5.467  -9.052  11.225  1.00  0.00     0.198 A 
ATOM      9  H2  UNL     1       3.643  -9.862  10.579  1.00  0.00     0.167 HD
HETATM   10  N3  UNL     1       5.734  -8.147  12.166  1.00  0.00    -0.293 N 
ATOM     11  H3  UNL     1       6.670  -7.818  12.405  1.00  0.00     0.188 HD
ENDBRANCH   4   5
ENDBRANCH   1   4
BRANCH   1  12
HETATM   12  C5  UNL     1       6.435  -6.672  15.262  1.00  0.00    -0.021 A 
HETATM   13  C6  UNL     1       6.789  -5.308  15.236  1.00  0.00     0.012 A 
HETATM   14  C7  UNL     1       8.083  -4.875  15.331  1.00  0.00     0.024 A 
HETATM   15  C8  UNL     1       9.110  -5.759  15.456  1.00  0.00     0.034 A 
HETATM   16 CL1  UNL     1      10.768  -5.241  15.585  1.00  0.00    -0.084 Cl
HETATM   17  C9  UNL     1       8.792  -7.111  15.486  1.00  0.00     0.024 A 
HETATM   18  C10 UNL     1       7.475  -7.562  15.388  1.00  0.00     0.012 A 
ENDBRANCH   1  12
BRANCH   1  19
HETATM   19  C11 UNL     1       4.128  -6.773  16.212  1.00  0.00     0.145 C 
HETATM   20  C12 UNL     1       3.833  -5.370  16.585  1.00  0.00     0.085 C 
HETATM   21  C13 UNL     1       2.668  -5.599  17.525  1.00  0.00     0.034 C 
HETATM   22  N4  UNL     1       2.118  -6.762  17.249  1.00  0.00    -0.307 N 
HETATM   23  N5  UNL     1       2.799  -7.383  16.184  1.00  0.00    -0.132 NA
ATOM     24  H4  UNL     1       1.314  -7.157  17.736  1.00  0.00     0.182 HD
BRANCH  21  25
HETATM   25  C14 UNL     1       2.182  -4.734  18.596  1.00  0.00    -0.012 A 
HETATM   26  C15 UNL     1       0.846  -4.718  18.946  1.00  0.00     0.016 A 
HETATM   27  C16 UNL     1       0.391  -3.882  19.964  1.00  0.00     0.038 A 
HETATM   28  C17 UNL     1       1.236  -3.044  20.658  1.00  0.00     0.078 A 
HETATM   29  C19 UNL     1       2.586  -3.066  20.296  1.00  0.00     0.038 A 
HETATM   30  C20 UNL     1       3.019  -3.893  19.293  1.00  0.00     0.016 A 
BRANCH  28  31
HETATM   31  O2  UNL     1       0.812  -2.198  21.678  1.00  0.00    -0.255 OA
BRANCH  31  32
HETATM   32  C18 UNL     1      -0.070  -2.661  22.709  1.00  0.00     0.530 C 
HETATM   33  F1  UNL     1      -0.630  -3.850  22.314  1.00  0.00    -0.144 F 
HETATM   34  F2  UNL     1       0.636  -2.871  23.887  1.00  0.00    -0.144 F 
HETATM   35  F3  UNL     1      -1.050  -1.698  22.941  1.00  0.00    -0.144 F 
ENDBRANCH  31  32
ENDBRANCH  28  31
ENDBRANCH  21  25
ENDBRANCH   1  19
TORSDOF 8
ENDMDL
