MODEL 1
REMARK VINA RESULT: -7.060888009      0.000      0.000
REMARK  2 active torsions:
REMARK  status: ('A' for Active; 'I' for Inactive)
REMARK    1  A    between atoms: C10_11  and  C11_12 
REMARK    2  A    between atoms: C11_12  and  C13_14 
ROOT
HETATM    1  C1  UNL     1       3.339 145.188 350.832  1.00  0.00     0.014 C 
HETATM    2  C2  UNL     1       3.596 143.773 350.430  1.00  0.00     0.026 C 
HETATM    3  C3  UNL     1       3.189 142.814 351.525  1.00  0.00    -0.006 C 
HETATM    4  C4  UNL     1       4.193 142.922 352.680  1.00  0.00     0.010 C 
HETATM    5  C5  UNL     1       5.417 142.355 351.992  1.00  0.00    -0.001 C 
HETATM    6  C6  UNL     1       5.953 143.564 351.200  1.00  0.00     0.049 C 
HETATM    7  C7  UNL     1       5.015 143.575 350.035  1.00  0.00     0.111 C 
HETATM    8  F1  UNL     1       5.379 144.433 349.038  1.00  0.00    -0.242 F 
HETATM    9  C8  UNL     1       5.131 142.112 349.590  1.00  0.00     0.031 C 
HETATM   10  C9  UNL     1       6.362 141.931 348.824  1.00  0.00     0.014 C 
HETATM   11  C10 UNL     1       4.975 141.419 350.918  1.00  0.00    -0.019 C 
HETATM   12  C14 UNL     1       3.445 141.387 351.086  1.00  0.00     0.016 C 
ENDROOT
BRANCH  11  13
HETATM   13  C11 UNL     1       5.496 140.045 350.959  1.00  0.00     0.080 C 
HETATM   14  C12 UNL     1       5.924 139.592 352.351  1.00  0.00     0.020 C 
BRANCH  13  15
HETATM   15  C13 UNL     1       4.580 139.005 350.492  1.00  0.00     0.235 C 
HETATM   16  N1  UNL     1       4.286 137.900 351.355  1.00  0.00    -0.062 NA
HETATM   17  O1  UNL     1       4.030 139.010 349.396  1.00  0.00    -0.276 OA
ENDBRANCH  13  15
ENDBRANCH  11  13
TORSDOF 2
ENDMDL
MODEL 2
REMARK VINA RESULT: -7.036602144      2.931      4.568
REMARK  2 active torsions:
REMARK  status: ('A' for Active; 'I' for Inactive)
REMARK    1  A    between atoms: C10_11  and  C11_12 
REMARK    2  A    between atoms: C11_12  and  C13_14 
ROOT
HETATM    1  C1  UNL     1       3.488 138.147 350.483  1.00  0.00     0.014 C 
HETATM    2  C2  UNL     1       3.559 139.592 350.851  1.00  0.00     0.026 C 
HETATM    3  C3  UNL     1       3.329 140.472 349.643  1.00  0.00    -0.006 C 
HETATM    4  C4  UNL     1       4.559 140.396 348.730  1.00  0.00     0.010 C 
HETATM    5  C5  UNL     1       5.569 141.084 349.626  1.00  0.00    -0.001 C 
HETATM    6  C6  UNL     1       6.006 139.952 350.578  1.00  0.00     0.049 C 
HETATM    7  C7  UNL     1       4.845 139.915 351.521  1.00  0.00     0.111 C 
HETATM    8  F1  UNL     1       5.047 139.129 352.618  1.00  0.00    -0.242 F 
HETATM    9  C8  UNL     1       4.765 141.399 351.899  1.00  0.00     0.031 C 
HETATM   10  C9  UNL     1       5.792 141.706 352.893  1.00  0.00     0.014 C 
HETATM   11  C10 UNL     1       4.848 142.025 350.531  1.00  0.00    -0.019 C 
HETATM   12  C14 UNL     1       3.390 141.931 350.047  1.00  0.00     0.016 C 
ENDROOT
BRANCH  11  13
HETATM   13  C11 UNL     1       5.272 143.432 350.524  1.00  0.00     0.080 C 
HETATM   14  C12 UNL     1       5.996 143.849 349.247  1.00  0.00     0.020 C 
BRANCH  13  15
HETATM   15  C13 UNL     1       4.204 144.418 350.687  1.00  0.00     0.235 C 
HETATM   16  N1  UNL     1       4.037 145.056 351.957  1.00  0.00    -0.062 NA
HETATM   17  O1  UNL     1       3.427 144.748 349.797  1.00  0.00    -0.276 OA
ENDBRANCH  13  15
ENDBRANCH  11  13
TORSDOF 2
ENDMDL
MODEL 3
REMARK VINA RESULT: -6.734350635      2.811      4.438
REMARK  2 active torsions:
REMARK  status: ('A' for Active; 'I' for Inactive)
REMARK    1  A    between atoms: C10_11  and  C11_12 
REMARK    2  A    between atoms: C11_12  and  C13_14 
ROOT
HETATM    1  C1  UNL     1       4.796 137.951 351.051  1.00  0.00     0.014 C 
HETATM    2  C2  UNL     1       5.151 139.401 351.010  1.00  0.00     0.026 C 
HETATM    3  C3  UNL     1       4.205 140.217 351.862  1.00  0.00    -0.006 C 
HETATM    4  C4  UNL     1       2.840 140.284 351.165  1.00  0.00     0.010 C 
HETATM    5  C5  UNL     1       3.223 141.118 349.960  1.00  0.00    -0.001 C 
HETATM    6  C6  UNL     1       3.839 140.075 349.006  1.00  0.00     0.049 C 
HETATM    7  C7  UNL     1       5.196 139.905 349.614  1.00  0.00     0.111 C 
HETATM    8  F1  UNL     1       6.059 139.176 348.848  1.00  0.00    -0.242 F 
HETATM    9  C8  UNL     1       5.628 141.374 349.707  1.00  0.00     0.031 C 
HETATM   10  C9  UNL     1       6.077 141.835 348.395  1.00  0.00     0.014 C 
HETATM   11  C10 UNL     1       4.390 141.975 350.319  1.00  0.00    -0.019 C 
HETATM   12  C14 UNL     1       4.597 141.679 351.816  1.00  0.00     0.016 C 
ENDROOT
BRANCH  11  13
HETATM   13  C11 UNL     1       4.252 143.426 350.127  1.00  0.00     0.080 C 
HETATM   14  C12 UNL     1       2.834 143.942 350.348  1.00  0.00     0.020 C 
BRANCH  13  15
HETATM   15  C13 UNL     1       5.093 144.263 350.982  1.00  0.00     0.235 C 
HETATM   16  N1  UNL     1       4.478 145.032 352.021  1.00  0.00    -0.062 NA
HETATM   17  O1  UNL     1       6.311 144.354 350.875  1.00  0.00    -0.276 OA
ENDBRANCH  13  15
ENDBRANCH  11  13
TORSDOF 2
ENDMDL
MODEL 4
REMARK VINA RESULT: -6.410125844      2.793      4.613
REMARK  2 active torsions:
REMARK  status: ('A' for Active; 'I' for Inactive)
REMARK    1  A    between atoms: C10_11  and  C11_12 
REMARK    2  A    between atoms: C11_12  and  C13_14 
ROOT
HETATM    1  C1  UNL     1       4.996 137.351 351.134  1.00  0.00     0.014 C 
HETATM    2  C2  UNL     1       4.393 138.674 351.476  1.00  0.00     0.026 C 
HETATM    3  C3  UNL     1       3.313 139.051 350.487  1.00  0.00    -0.006 C 
HETATM    4  C4  UNL     1       3.969 139.424 349.152  1.00  0.00     0.010 C 
HETATM    5  C5  UNL     1       4.679 140.693 349.576  1.00  0.00    -0.001 C 
HETATM    6  C6  UNL     1       5.963 140.158 350.241  1.00  0.00     0.049 C 
HETATM    7  C7  UNL     1       5.432 139.731 351.573  1.00  0.00     0.111 C 
HETATM    8  F1  UNL     1       6.401 139.396 352.474  1.00  0.00    -0.242 F 
HETATM    9  C8  UNL     1       4.697 141.011 351.987  1.00  0.00     0.031 C 
HETATM   10  C9  UNL     1       5.663 141.989 352.485  1.00  0.00     0.014 C 
HETATM   11  C10 UNL     1       3.937 141.301 350.719  1.00  0.00    -0.019 C 
HETATM   12  C14 UNL     1       2.708 140.387 350.866  1.00  0.00     0.016 C 
ENDROOT
BRANCH  11  13
HETATM   13  C11 UNL     1       3.491 142.694 350.574  1.00  0.00     0.080 C 
HETATM   14  C12 UNL     1       2.650 143.195 351.744  1.00  0.00     0.020 C 
BRANCH  13  15
HETATM   15  C13 UNL     1       4.553 143.689 350.423  1.00  0.00     0.235 C 
HETATM   16  N1  UNL     1       4.542 144.848 351.263  1.00  0.00    -0.062 NA
HETATM   17  O1  UNL     1       5.473 143.600 349.616  1.00  0.00    -0.276 OA
ENDBRANCH  13  15
ENDBRANCH  11  13
TORSDOF 2
ENDMDL
MODEL 5
REMARK VINA RESULT: -6.402763411      2.885      4.762
REMARK  2 active torsions:
REMARK  status: ('A' for Active; 'I' for Inactive)
REMARK    1  A    between atoms: C10_11  and  C11_12 
REMARK    2  A    between atoms: C11_12  and  C13_14 
ROOT
HETATM    1  C1  UNL     1       5.201 137.045 351.602  1.00  0.00     0.014 C 
HETATM    2  C2  UNL     1       5.147 138.235 350.700  1.00  0.00     0.026 C 
HETATM    3  C3  UNL     1       5.963 139.378 351.259  1.00  0.00    -0.006 C 
HETATM    4  C4  UNL     1       5.233 139.964 352.474  1.00  0.00     0.010 C 
HETATM    5  C5  UNL     1       4.025 140.550 351.773  1.00  0.00    -0.001 C 
HETATM    6  C6  UNL     1       3.102 139.326 351.607  1.00  0.00     0.049 C 
HETATM    7  C7  UNL     1       3.744 138.647 350.438  1.00  0.00     0.111 C 
HETATM    8  F1  UNL     1       3.009 137.619 349.923  1.00  0.00    -0.242 F 
HETATM    9  C8  UNL     1       3.825 139.826 349.461  1.00  0.00     0.031 C 
HETATM   10  C9  UNL     1       2.516 140.041 348.845  1.00  0.00     0.014 C 
HETATM   11  C10 UNL     1       4.399 140.883 350.368  1.00  0.00    -0.019 C 
HETATM   12  C14 UNL     1       5.904 140.564 350.319  1.00  0.00     0.016 C 
ENDROOT
BRANCH  11  13
HETATM   13  C11 UNL     1       4.181 142.264 349.917  1.00  0.00     0.080 C 
HETATM   14  C12 UNL     1       3.135 143.019 350.732  1.00  0.00     0.020 C 
BRANCH  13  15
HETATM   15  C13 UNL     1       5.360 143.130 349.928  1.00  0.00     0.235 C 
HETATM   16  N1  UNL     1       5.609 143.949 351.075  1.00  0.00    -0.062 NA
HETATM   17  O1  UNL     1       6.171 143.204 349.010  1.00  0.00    -0.276 OA
ENDBRANCH  13  15
ENDBRANCH  11  13
TORSDOF 2
ENDMDL
