MODEL 1
REMARK VINA RESULT: -6.655303192      0.000      0.000
REMARK  3 active torsions:
REMARK  status: ('A' for Active; 'I' for Inactive)
REMARK    1  A    between atoms: C2_2  and  C3_4 
REMARK    2  A    between atoms: C3_4  and  C4_5 
REMARK    3  A    between atoms: C6_7  and  C7_8 
ROOT
HETATM    1  C4  UNL     1      -3.794 166.214 398.864  1.00  0.00     0.000 C 
HETATM    2  C5  UNL     1      -3.872 165.233 397.683  1.00  0.00     0.018 C 
HETATM    3  C6  UNL     1      -5.048 166.016 399.751  1.00  0.00     0.062 C 
HETATM    4  C11 UNL     1      -5.516 167.422 399.763  1.00  0.00     0.201 C 
HETATM    5  C12 UNL     1      -4.253 168.257 399.836  1.00  0.00     0.068 C 
HETATM    6  C13 UNL     1      -4.073 167.608 398.458  1.00  0.00     0.201 C 
HETATM    7  N2  UNL     1      -5.519 167.786 398.377  1.00  0.00    -0.065 N 
HETATM    8  C14 UNL     1      -5.807 169.228 398.244  1.00  0.00     0.273 C 
HETATM    9  C15 UNL     1      -6.252 167.077 397.419  1.00  0.00     0.273 C 
ENDROOT
BRANCH   3  10
HETATM   10  C7  UNL     1      -4.784 165.480 401.067  1.00  0.00    -0.035 A 
HETATM   11  C8  UNL     1      -3.875 165.869 402.020  1.00  0.00     0.026 A 
HETATM   12  C9  UNL     1      -3.995 165.032 403.115  1.00  0.00     0.088 A 
HETATM   13  N1  UNL     1      -4.961 164.140 402.844  1.00  0.00    -0.375 N 
HETATM   14  C10 UNL     1      -5.455 164.384 401.620  1.00  0.00     0.095 A 
ATOM     15  H1  UNL     1      -5.271 163.396 403.469  1.00  0.00     0.164 HD
ENDBRANCH   3  10
BRANCH   1  16
HETATM   16  C3  UNL     1      -2.552 165.923 399.599  1.00  0.00     0.081 C 
BRANCH  16  17
HETATM   17  C2  UNL     1      -1.306 166.540 399.139  1.00  0.00     0.085 C 
HETATM   18  C1  UNL     1      -0.458 166.134 398.242  1.00  0.00     0.051 C 
HETATM   19  F1  UNL     1      -0.991 167.736 399.757  1.00  0.00    -0.212 F 
ENDBRANCH  16  17
ENDBRANCH   1  16
TORSDOF 3
ENDMDL
MODEL 2
REMARK VINA RESULT: -6.084004624      2.293      4.176
REMARK  3 active torsions:
REMARK  status: ('A' for Active; 'I' for Inactive)
REMARK    1  A    between atoms: C2_2  and  C3_4 
REMARK    2  A    between atoms: C3_4  and  C4_5 
REMARK    3  A    between atoms: C6_7  and  C7_8 
ROOT
HETATM    1  C4  UNL     1      -4.194 165.879 399.565  1.00  0.00     0.000 C 
HETATM    2  C5  UNL     1      -4.238 164.602 398.710  1.00  0.00     0.018 C 
HETATM    3  C6  UNL     1      -4.502 167.092 398.653  1.00  0.00     0.062 C 
HETATM    4  C11 UNL     1      -3.301 167.899 398.973  1.00  0.00     0.201 C 
HETATM    5  C12 UNL     1      -3.064 167.685 400.454  1.00  0.00     0.068 C 
HETATM    6  C13 UNL     1      -2.814 166.266 399.928  1.00  0.00     0.201 C 
HETATM    7  N2  UNL     1      -2.220 166.976 398.801  1.00  0.00    -0.065 N 
HETATM    8  C14 UNL     1      -0.959 167.597 399.250  1.00  0.00     0.273 C 
HETATM    9  C15 UNL     1      -1.998 166.299 397.596  1.00  0.00     0.273 C 
ENDROOT
BRANCH   3  10
HETATM   10  C7  UNL     1      -5.748 167.766 398.938  1.00  0.00    -0.035 A 
HETATM   11  C8  UNL     1      -6.003 168.884 399.693  1.00  0.00     0.026 A 
HETATM   12  C9  UNL     1      -7.364 169.131 399.675  1.00  0.00     0.088 A 
HETATM   13  N1  UNL     1      -7.941 168.181 398.922  1.00  0.00    -0.375 N 
HETATM   14  C10 UNL     1      -6.995 167.346 398.465  1.00  0.00     0.095 A 
ATOM     15  H1  UNL     1      -8.940 168.107 398.728  1.00  0.00     0.164 HD
ENDBRANCH   3  10
BRANCH   1  16
HETATM   16  C3  UNL     1      -5.195 165.729 400.634  1.00  0.00     0.081 C 
BRANCH  16  17
HETATM   17  C2  UNL     1      -4.858 164.906 401.797  1.00  0.00     0.085 C 
HETATM   18  C1  UNL     1      -4.233 165.226 402.891  1.00  0.00     0.051 C 
HETATM   19  F1  UNL     1      -5.271 163.588 401.711  1.00  0.00    -0.212 F 
ENDBRANCH  16  17
ENDBRANCH   1  16
TORSDOF 3
ENDMDL
MODEL 3
REMARK VINA RESULT: -6.042848060      2.114      4.035
REMARK  3 active torsions:
REMARK  status: ('A' for Active; 'I' for Inactive)
REMARK    1  A    between atoms: C2_2  and  C3_4 
REMARK    2  A    between atoms: C3_4  and  C4_5 
REMARK    3  A    between atoms: C6_7  and  C7_8 
ROOT
HETATM    1  C4  UNL     1      -4.410 166.952 400.069  1.00  0.00     0.000 C 
HETATM    2  C5  UNL     1      -4.430 168.185 400.987  1.00  0.00     0.018 C 
HETATM    3  C6  UNL     1      -3.739 167.347 398.731  1.00  0.00     0.062 C 
HETATM    4  C11 UNL     1      -4.822 166.907 397.820  1.00  0.00     0.201 C 
HETATM    5  C12 UNL     1      -5.357 165.628 398.433  1.00  0.00     0.068 C 
HETATM    6  C13 UNL     1      -5.746 166.637 399.521  1.00  0.00     0.201 C 
HETATM    7  N2  UNL     1      -5.996 167.509 398.379  1.00  0.00    -0.065 N 
HETATM    8  C14 UNL     1      -7.192 167.019 397.667  1.00  0.00     0.273 C 
HETATM    9  C15 UNL     1      -6.107 168.891 398.574  1.00  0.00     0.273 C 
ENDROOT
BRANCH   3  10
HETATM   10  C7  UNL     1      -2.468 166.707 398.475  1.00  0.00    -0.035 A 
HETATM   11  C8  UNL     1      -1.277 166.791 399.152  1.00  0.00     0.026 A 
HETATM   12  C9  UNL     1      -0.344 165.999 398.507  1.00  0.00     0.088 A 
HETATM   13  N1  UNL     1      -0.948 165.435 397.449  1.00  0.00    -0.375 N 
HETATM   14  C10 UNL     1      -2.226 165.842 397.403  1.00  0.00     0.095 A 
ATOM     15  H1  UNL     1      -0.505 164.799 396.785  1.00  0.00     0.164 HD
ENDBRANCH   3  10
BRANCH   1  16
HETATM   16  C3  UNL     1      -3.659 165.895 400.767  1.00  0.00     0.081 C 
BRANCH  16  17
HETATM   17  C2  UNL     1      -4.319 165.173 401.857  1.00  0.00     0.085 C 
HETATM   18  C1  UNL     1      -4.132 165.252 403.141  1.00  0.00     0.051 C 
HETATM   19  F1  UNL     1      -5.285 164.271 401.452  1.00  0.00    -0.212 F 
ENDBRANCH  16  17
ENDBRANCH   1  16
TORSDOF 3
ENDMDL
MODEL 4
REMARK VINA RESULT: -5.668690742      1.425      1.459
REMARK  3 active torsions:
REMARK  status: ('A' for Active; 'I' for Inactive)
REMARK    1  A    between atoms: C2_2  and  C3_4 
REMARK    2  A    between atoms: C3_4  and  C4_5 
REMARK    3  A    between atoms: C6_7  and  C7_8 
ROOT
HETATM    1  C4  UNL     1      -4.870 166.563 398.603  1.00  0.00     0.000 C 
HETATM    2  C5  UNL     1      -5.121 165.654 397.388  1.00  0.00     0.018 C 
HETATM    3  C6  UNL     1      -5.859 166.164 399.726  1.00  0.00     0.062 C 
HETATM    4  C11 UNL     1      -6.449 167.502 399.965  1.00  0.00     0.201 C 
HETATM    5  C12 UNL     1      -5.294 168.473 399.826  1.00  0.00     0.068 C 
HETATM    6  C13 UNL     1      -5.374 167.937 398.392  1.00  0.00     0.201 C 
HETATM    7  N2  UNL     1      -6.809 167.949 398.652  1.00  0.00    -0.065 N 
HETATM    8  C14 UNL     1      -7.263 169.352 398.712  1.00  0.00     0.273 C 
HETATM    9  C15 UNL     1      -7.670 167.219 397.824  1.00  0.00     0.273 C 
ENDROOT
BRANCH   3  10
HETATM   10  C7  UNL     1      -5.244 165.583 400.899  1.00  0.00    -0.035 A 
HETATM   11  C8  UNL     1      -4.090 165.922 401.560  1.00  0.00     0.026 A 
HETATM   12  C9  UNL     1      -3.917 165.054 402.623  1.00  0.00     0.088 A 
HETATM   13  N1  UNL     1      -4.945 164.192 402.619  1.00  0.00    -0.375 N 
HETATM   14  C10 UNL     1      -5.761 164.485 401.594  1.00  0.00     0.095 A 
ATOM     15  H1  UNL     1      -5.085 163.435 403.289  1.00  0.00     0.164 HD
ENDBRANCH   3  10
BRANCH   1  16
HETATM   16  C3  UNL     1      -3.469 166.373 399.013  1.00  0.00     0.081 C 
BRANCH  16  17
HETATM   17  C2  UNL     1      -2.492 165.971 397.999  1.00  0.00     0.085 C 
HETATM   18  C1  UNL     1      -1.522 166.649 397.463  1.00  0.00     0.051 C 
HETATM   19  F1  UNL     1      -2.629 164.671 397.549  1.00  0.00    -0.212 F 
ENDBRANCH  16  17
ENDBRANCH   1  16
TORSDOF 3
ENDMDL
MODEL 5
REMARK VINA RESULT: -5.590841666      1.811      3.847
REMARK  3 active torsions:
REMARK  status: ('A' for Active; 'I' for Inactive)
REMARK    1  A    between atoms: C2_2  and  C3_4 
REMARK    2  A    between atoms: C3_4  and  C4_5 
REMARK    3  A    between atoms: C6_7  and  C7_8 
ROOT
HETATM    1  C4  UNL     1      -3.707 167.545 399.394  1.00  0.00     0.000 C 
HETATM    2  C5  UNL     1      -3.389 168.945 399.944  1.00  0.00     0.018 C 
HETATM    3  C6  UNL     1      -3.115 166.492 400.363  1.00  0.00     0.062 C 
HETATM    4  C11 UNL     1      -2.318 165.729 399.374  1.00  0.00     0.201 C 
HETATM    5  C12 UNL     1      -3.169 165.698 398.120  1.00  0.00     0.068 C 
HETATM    6  C13 UNL     1      -2.881 167.201 398.218  1.00  0.00     0.201 C 
HETATM    7  N2  UNL     1      -1.577 166.744 398.685  1.00  0.00    -0.065 N 
HETATM    8  C14 UNL     1      -0.854 166.146 397.547  1.00  0.00     0.273 C 
HETATM    9  C15 UNL     1      -0.729 167.635 399.355  1.00  0.00     0.273 C 
ENDROOT
BRANCH   3  10
HETATM   10  C7  UNL     1      -4.094 165.690 401.062  1.00  0.00    -0.035 A 
HETATM   11  C8  UNL     1      -5.284 165.162 400.629  1.00  0.00     0.026 A 
HETATM   12  C9  UNL     1      -5.873 164.479 401.678  1.00  0.00     0.088 A 
HETATM   13  N1  UNL     1      -5.061 164.582 402.741  1.00  0.00    -0.375 N 
HETATM   14  C10 UNL     1      -3.982 165.305 402.402  1.00  0.00     0.095 A 
ATOM     15  H1  UNL     1      -5.236 164.177 403.661  1.00  0.00     0.164 HD
ENDBRANCH   3  10
BRANCH   1  16
HETATM   16  C3  UNL     1      -5.172 167.433 399.293  1.00  0.00     0.081 C 
BRANCH  16  17
HETATM   17  C2  UNL     1      -5.943 168.633 398.959  1.00  0.00     0.085 C 
HETATM   18  C1  UNL     1      -6.995 169.134 399.536  1.00  0.00     0.051 C 
HETATM   19  F1  UNL     1      -5.475 169.334 397.863  1.00  0.00    -0.212 F 
ENDBRANCH  16  17
ENDBRANCH   1  16
TORSDOF 3
ENDMDL
