MODEL 1
REMARK VINA RESULT: -6.595660147      0.000      0.000
REMARK  3 active torsions:
REMARK  status: ('A' for Active; 'I' for Inactive)
REMARK    1  A    between atoms: C2_2  and  C3_3 
REMARK    2  A    between atoms: C3_3  and  N1_4 
REMARK    3  A    between atoms: N1_4  and  C4_7 
ROOT
HETATM    1  C4  UNL     1      -2.676 166.054 398.488  1.00  0.00     0.128 C 
HETATM    2  C5  UNL     1      -2.621 165.697 399.935  1.00  0.00     0.043 C 
HETATM    3  C6  UNL     1      -3.786 166.226 400.739  1.00  0.00    -0.010 C 
HETATM    4  C7  UNL     1      -3.793 167.748 400.550  1.00  0.00     0.011 C 
HETATM    5  C8  UNL     1      -4.070 167.826 399.053  1.00  0.00     0.007 C 
HETATM    6  C9  UNL     1      -2.713 167.561 398.381  1.00  0.00     0.045 C 
HETATM    7  C10 UNL     1      -4.927 166.620 398.739  1.00  0.00     0.024 C 
HETATM    8 BR1  UNL     1      -6.599 167.020 397.943  1.00  0.00    -0.085 Br
HETATM    9  C11 UNL     1      -5.069 165.852 400.064  1.00  0.00     0.026 C 
HETATM   10  C12 UNL     1      -4.051 165.731 397.882  1.00  0.00     0.060 C 
ENDROOT
BRANCH   1  11
HETATM   11  N1  UNL     1      -1.636 165.420 397.743  1.00  0.00    -0.066 N 
ATOM     12  H12 UNL     1      -1.964 165.111 396.828  1.00  0.00     0.278 HD
ATOM     13  H11 UNL     1      -1.392 164.511 398.135  1.00  0.00     0.278 HD
BRANCH  11  14
HETATM   14  C3  UNL     1      -0.497 166.270 397.634  1.00  0.00     0.233 C 
BRANCH  14  15
HETATM   15  C2  UNL     1       0.681 165.764 398.489  1.00  0.00     0.023 C 
HETATM   16  C1  UNL     1       1.992 166.035 397.735  1.00  0.00     0.007 C 
ENDBRANCH  14  15
ENDBRANCH  11  14
ENDBRANCH   1  11
TORSDOF 3
ENDMDL
MODEL 2
REMARK VINA RESULT: -6.583510583      1.492      2.372
REMARK  3 active torsions:
REMARK  status: ('A' for Active; 'I' for Inactive)
REMARK    1  A    between atoms: C2_2  and  C3_3 
REMARK    2  A    between atoms: C3_3  and  N1_4 
REMARK    3  A    between atoms: N1_4  and  C4_7 
ROOT
HETATM    1  C4  UNL     1      -3.750 166.496 399.223  1.00  0.00     0.128 C 
HETATM    2  C5  UNL     1      -3.906 167.949 398.934  1.00  0.00     0.043 C 
HETATM    3  C6  UNL     1      -5.338 168.377 398.706  1.00  0.00    -0.010 C 
HETATM    4  C7  UNL     1      -5.868 167.527 397.545  1.00  0.00     0.011 C 
HETATM    5  C8  UNL     1      -5.795 166.142 398.178  1.00  0.00     0.007 C 
HETATM    6  C9  UNL     1      -4.322 165.724 398.057  1.00  0.00     0.045 C 
HETATM    7  C10 UNL     1      -6.041 166.361 399.654  1.00  0.00     0.024 C 
HETATM    8 BR1  UNL     1      -7.505 165.393 400.366  1.00  0.00    -0.085 Br
HETATM    9  C11 UNL     1      -6.192 167.882 399.831  1.00  0.00     0.026 C 
HETATM   10  C12 UNL     1      -4.722 166.034 400.321  1.00  0.00     0.060 C 
ENDROOT
BRANCH   1  11
HETATM   11  N1  UNL     1      -2.406 166.161 399.569  1.00  0.00    -0.066 N 
ATOM     12  H12 UNL     1      -2.355 165.272 400.066  1.00  0.00     0.278 HD
ATOM     13  H11 UNL     1      -2.043 166.769 400.303  1.00  0.00     0.278 HD
BRANCH  11  14
HETATM   14  C3  UNL     1      -1.566 166.170 398.417  1.00  0.00     0.233 C 
BRANCH  14  15
HETATM   15  C2  UNL     1      -0.099 165.861 398.774  1.00  0.00     0.023 C 
HETATM   16  C1  UNL     1       0.810 166.469 397.693  1.00  0.00     0.007 C 
ENDBRANCH  14  15
ENDBRANCH  11  14
ENDBRANCH   1  11
TORSDOF 3
ENDMDL
MODEL 3
REMARK VINA RESULT: -6.545433333      1.454      2.436
REMARK  3 active torsions:
REMARK  status: ('A' for Active; 'I' for Inactive)
REMARK    1  A    between atoms: C2_2  and  C3_3 
REMARK    2  A    between atoms: C3_3  and  N1_4 
REMARK    3  A    between atoms: N1_4  and  C4_7 
ROOT
HETATM    1  C4  UNL     1      -3.710 166.994 399.166  1.00  0.00     0.128 C 
HETATM    2  C5  UNL     1      -4.059 166.040 398.076  1.00  0.00     0.043 C 
HETATM    3  C6  UNL     1      -5.545 165.891 397.846  1.00  0.00    -0.010 C 
HETATM    4  C7  UNL     1      -6.152 165.443 399.181  1.00  0.00     0.011 C 
HETATM    5  C8  UNL     1      -5.841 166.667 400.035  1.00  0.00     0.007 C 
HETATM    6  C9  UNL     1      -4.366 166.509 400.438  1.00  0.00     0.045 C 
HETATM    7  C10 UNL     1      -5.885 167.842 399.085  1.00  0.00     0.024 C 
HETATM    8 BR1  UNL     1      -7.116 169.201 399.559  1.00  0.00    -0.085 Br
HETATM    9  C11 UNL     1      -6.165 167.245 397.695  1.00  0.00     0.026 C 
HETATM   10  C12 UNL     1      -4.453 168.330 399.002  1.00  0.00     0.060 C 
ENDROOT
BRANCH   1  11
HETATM   11  N1  UNL     1      -2.302 167.210 399.257  1.00  0.00    -0.066 N 
ATOM     12  H12 UNL     1      -1.949 167.008 400.193  1.00  0.00     0.278 HD
ATOM     13  H11 UNL     1      -2.069 168.202 399.216  1.00  0.00     0.278 HD
BRANCH  11  14
HETATM   14  C3  UNL     1      -1.607 166.465 398.260  1.00  0.00     0.233 C 
BRANCH  14  15
HETATM   15  C2  UNL     1      -0.293 165.869 398.801  1.00  0.00     0.023 C 
HETATM   16  C1  UNL     1       0.879 166.432 397.980  1.00  0.00     0.007 C 
ENDBRANCH  14  15
ENDBRANCH  11  14
ENDBRANCH   1  11
TORSDOF 3
ENDMDL
MODEL 4
REMARK VINA RESULT: -6.533915067      1.370      2.182
REMARK  3 active torsions:
REMARK  status: ('A' for Active; 'I' for Inactive)
REMARK    1  A    between atoms: C2_2  and  C3_3 
REMARK    2  A    between atoms: C3_3  and  N1_4 
REMARK    3  A    between atoms: N1_4  and  C4_7 
ROOT
HETATM    1  C4  UNL     1      -2.447 166.146 398.334  1.00  0.00     0.128 C 
HETATM    2  C5  UNL     1      -2.572 167.630 398.283  1.00  0.00     0.043 C 
HETATM    3  C6  UNL     1      -3.717 168.175 399.107  1.00  0.00    -0.010 C 
HETATM    4  C7  UNL     1      -4.991 167.500 398.585  1.00  0.00     0.011 C 
HETATM    5  C8  UNL     1      -4.687 166.050 398.946  1.00  0.00     0.007 C 
HETATM    6  C9  UNL     1      -3.745 165.551 397.839  1.00  0.00     0.045 C 
HETATM    7  C10 UNL     1      -3.848 166.116 400.202  1.00  0.00     0.024 C 
HETATM    8 BR1  UNL     1      -4.559 165.172 401.683  1.00  0.00    -0.085 Br
HETATM    9  C11 UNL     1      -3.647 167.613 400.492  1.00  0.00     0.026 C 
HETATM   10  C12 UNL     1      -2.477 165.629 399.781  1.00  0.00     0.060 C 
ENDROOT
BRANCH   1  11
HETATM   11  N1  UNL     1      -1.276 165.686 397.659  1.00  0.00    -0.066 N 
ATOM     12  H12 UNL     1      -1.193 166.093 396.728  1.00  0.00     0.278 HD
ATOM     13  H11 UNL     1      -1.356 164.705 397.392  1.00  0.00     0.278 HD
BRANCH  11  14
HETATM   14  C3  UNL     1      -0.110 165.924 398.443  1.00  0.00     0.233 C 
BRANCH  14  15
HETATM   15  C2  UNL     1       1.015 166.576 397.616  1.00  0.00     0.023 C 
HETATM   16  C1  UNL     1       2.327 165.821 397.884  1.00  0.00     0.007 C 
ENDBRANCH  14  15
ENDBRANCH  11  14
ENDBRANCH   1  11
TORSDOF 3
ENDMDL
MODEL 5
REMARK VINA RESULT: -6.163125998      2.640      4.970
REMARK  3 active torsions:
REMARK  status: ('A' for Active; 'I' for Inactive)
REMARK    1  A    between atoms: C2_2  and  C3_3 
REMARK    2  A    between atoms: C3_3  and  N1_4 
REMARK    3  A    between atoms: N1_4  and  C4_7 
ROOT
HETATM    1  C4  UNL     1      -4.712 166.512 399.051  1.00  0.00     0.128 C 
HETATM    2  C5  UNL     1      -4.751 167.997 399.176  1.00  0.00     0.043 C 
HETATM    3  C6  UNL     1      -3.418 168.616 399.529  1.00  0.00    -0.010 C 
HETATM    4  C7  UNL     1      -2.969 167.967 400.844  1.00  0.00     0.011 C 
HETATM    5  C8  UNL     1      -2.807 166.523 400.382  1.00  0.00     0.007 C 
HETATM    6  C9  UNL     1      -4.231 165.946 400.367  1.00  0.00     0.045 C 
HETATM    7  C10 UNL     1      -2.381 166.609 398.934  1.00  0.00     0.024 C 
HETATM    8 BR1  UNL     1      -0.739 165.753 398.537  1.00  0.00    -0.085 Br
HETATM    9  C11 UNL     1      -2.368 168.109 398.591  1.00  0.00     0.026 C 
HETATM   10  C12 UNL     1      -3.553 166.056 398.150  1.00  0.00     0.060 C 
ENDROOT
BRANCH   1  11
HETATM   11  N1  UNL     1      -5.952 165.983 398.582  1.00  0.00    -0.066 N 
ATOM     12  H12 UNL     1      -6.508 165.594 399.344  1.00  0.00     0.278 HD
ATOM     13  H11 UNL     1      -5.817 165.131 398.039  1.00  0.00     0.278 HD
BRANCH  11  14
HETATM   14  C3  UNL     1      -6.680 166.965 397.847  1.00  0.00     0.233 C 
BRANCH  14  15
HETATM   15  C2  UNL     1      -8.170 166.988 398.240  1.00  0.00     0.023 C 
HETATM   16  C1  UNL     1      -8.319 167.745 399.569  1.00  0.00     0.007 C 
ENDBRANCH  14  15
ENDBRANCH  11  14
ENDBRANCH   1  11
TORSDOF 3
ENDMDL
