MODEL 1
REMARK VINA RESULT: -5.019640660      0.000      0.000
REMARK  4 active torsions:
REMARK  status: ('A' for Active; 'I' for Inactive)
REMARK    1  A    between atoms: C2_2  and  N1_3 
REMARK    2  A    between atoms: N1_3  and  C3_4 
REMARK    3  A    between atoms: N1_3  and  C5_6 
REMARK    4  A    between atoms: C5_6  and  C6_7 
ROOT
HETATM    1  C6  UNL     1     -11.385  12.554 -15.488  1.00  0.00     0.164 C 
HETATM    2  C7  UNL     1     -11.519  12.289 -16.996  1.00  0.00     0.077 C 
HETATM    3  C8  UNL     1     -11.663  13.775 -16.931  1.00  0.00     0.091 C 
HETATM    4  C9  UNL     1     -13.040  14.326 -17.156  1.00  0.00     0.119 C 
HETATM    5  C10 UNL     1     -12.633  14.505 -18.571  1.00  0.00     0.147 C 
HETATM    6  O1  UNL     1     -13.192  14.557 -19.635  1.00  0.00    -0.296 OA
HETATM    7  C11 UNL     1     -11.234  14.588 -18.086  1.00  0.00     0.162 C 
HETATM    8 BR1  UNL     1     -10.789  16.435 -17.621  1.00  0.00    -0.080 Br
HETATM    9  O2  UNL     1     -11.080  13.885 -15.719  1.00  0.00    -0.367 OA
ENDROOT
BRANCH   1  10
HETATM   10  C5  UNL     1     -10.352  11.687 -14.841  1.00  0.00     0.099 C 
BRANCH  10  11
HETATM   11  N1  UNL     1     -10.933  10.818 -13.900  1.00  0.00    -0.352 N 
BRANCH  11  12
HETATM   12  C2  UNL     1     -11.454  11.312 -12.698  1.00  0.00     0.064 C 
HETATM   13  C1  UNL     1     -12.356  10.265 -12.052  1.00  0.00     0.055 C 
ENDBRANCH  11  12
BRANCH  11  14
HETATM   14  C3  UNL     1     -10.673   9.441 -14.034  1.00  0.00     0.064 C 
HETATM   15  C4  UNL     1      -9.960   9.063 -15.316  1.00  0.00     0.055 C 
ENDBRANCH  11  14
ENDBRANCH  10  11
ENDBRANCH   1  10
TORSDOF 4
ENDMDL
MODEL 2
REMARK VINA RESULT: -5.008019539      3.336      6.287
REMARK  4 active torsions:
REMARK  status: ('A' for Active; 'I' for Inactive)
REMARK    1  A    between atoms: C2_2  and  N1_3 
REMARK    2  A    between atoms: N1_3  and  C3_4 
REMARK    3  A    between atoms: N1_3  and  C5_6 
REMARK    4  A    between atoms: C5_6  and  C6_7 
ROOT
HETATM    1  C6  UNL     1     -12.152  14.401 -17.351  1.00  0.00     0.164 C 
HETATM    2  C7  UNL     1     -11.140  13.978 -16.274  1.00  0.00     0.077 C 
HETATM    3  C8  UNL     1     -12.237  12.983 -16.075  1.00  0.00     0.091 C 
HETATM    4  C9  UNL     1     -13.089  13.160 -14.853  1.00  0.00     0.119 C 
HETATM    5  C10 UNL     1     -12.186  12.182 -14.198  1.00  0.00     0.147 C 
HETATM    6  O1  UNL     1     -11.840  11.938 -13.072  1.00  0.00    -0.296 OA
HETATM    7  C11 UNL     1     -11.903  11.644 -15.552  1.00  0.00     0.162 C 
HETATM    8 BR1  UNL     1     -13.214  10.270 -16.021  1.00  0.00    -0.080 Br
HETATM    9  O2  UNL     1     -12.768  13.162 -17.302  1.00  0.00    -0.367 OA
ENDROOT
BRANCH   1  10
HETATM   10  C5  UNL     1     -11.492  14.821 -18.627  1.00  0.00     0.099 C 
BRANCH  10  11
HETATM   11  N1  UNL     1     -11.843  16.139 -18.972  1.00  0.00    -0.352 N 
BRANCH  11  12
HETATM   12  C2  UNL     1     -11.947  17.131 -17.990  1.00  0.00     0.064 C 
HETATM   13  C1  UNL     1     -10.556  17.541 -17.516  1.00  0.00     0.055 C 
ENDBRANCH  11  12
BRANCH  11  14
HETATM   14  C3  UNL     1     -12.414  16.351 -20.242  1.00  0.00     0.064 C 
HETATM   15  C4  UNL     1     -12.515  17.809 -20.643  1.00  0.00     0.055 C 
ENDBRANCH  11  14
ENDBRANCH  10  11
ENDBRANCH   1  10
TORSDOF 4
ENDMDL
MODEL 3
REMARK VINA RESULT: -4.944740577      3.322      6.367
REMARK  4 active torsions:
REMARK  status: ('A' for Active; 'I' for Inactive)
REMARK    1  A    between atoms: C2_2  and  N1_3 
REMARK    2  A    between atoms: N1_3  and  C3_4 
REMARK    3  A    between atoms: N1_3  and  C5_6 
REMARK    4  A    between atoms: C5_6  and  C6_7 
ROOT
HETATM    1  C6  UNL     1     -12.195  14.359 -17.214  1.00  0.00     0.164 C 
HETATM    2  C7  UNL     1     -11.121  13.906 -16.212  1.00  0.00     0.077 C 
HETATM    3  C8  UNL     1     -12.218  12.924 -15.953  1.00  0.00     0.091 C 
HETATM    4  C9  UNL     1     -12.986  13.098 -14.676  1.00  0.00     0.119 C 
HETATM    5  C10 UNL     1     -12.057  12.097 -14.095  1.00  0.00     0.147 C 
HETATM    6  O1  UNL     1     -11.642  11.832 -12.997  1.00  0.00    -0.296 OA
HETATM    7  C11 UNL     1     -11.872  11.573 -15.471  1.00  0.00     0.162 C 
HETATM    8 BR1  UNL     1     -13.233  10.226 -15.870  1.00  0.00    -0.080 Br
HETATM    9  O2  UNL     1     -12.826  13.129 -17.140  1.00  0.00    -0.367 OA
ENDROOT
BRANCH   1  10
HETATM   10  C5  UNL     1     -11.614  14.786 -18.525  1.00  0.00     0.099 C 
BRANCH  10  11
HETATM   11  N1  UNL     1     -12.056  16.073 -18.883  1.00  0.00    -0.352 N 
BRANCH  11  12
HETATM   12  C2  UNL     1     -12.260  16.411 -20.225  1.00  0.00     0.064 C 
HETATM   13  C1  UNL     1     -12.910  17.789 -20.323  1.00  0.00     0.055 C 
ENDBRANCH  11  12
BRANCH  11  14
HETATM   14  C3  UNL     1     -11.956  17.090 -17.914  1.00  0.00     0.064 C 
HETATM   15  C4  UNL     1     -10.534  17.475 -17.561  1.00  0.00     0.055 C 
ENDBRANCH  11  14
ENDBRANCH  10  11
ENDBRANCH   1  10
TORSDOF 4
ENDMDL
MODEL 4
REMARK VINA RESULT: -4.935503141      0.193      1.790
REMARK  4 active torsions:
REMARK  status: ('A' for Active; 'I' for Inactive)
REMARK    1  A    between atoms: C2_2  and  N1_3 
REMARK    2  A    between atoms: N1_3  and  C3_4 
REMARK    3  A    between atoms: N1_3  and  C5_6 
REMARK    4  A    between atoms: C5_6  and  C6_7 
ROOT
HETATM    1  C6  UNL     1     -11.324  12.546 -15.632  1.00  0.00     0.164 C 
HETATM    2  C7  UNL     1     -11.466  12.328 -17.147  1.00  0.00     0.077 C 
HETATM    3  C8  UNL     1     -11.637  13.808 -17.031  1.00  0.00     0.091 C 
HETATM    4  C9  UNL     1     -13.026  14.340 -17.226  1.00  0.00     0.119 C 
HETATM    5  C10 UNL     1     -12.635  14.573 -18.638  1.00  0.00     0.147 C 
HETATM    6  O1  UNL     1     -13.204  14.649 -19.696  1.00  0.00    -0.296 OA
HETATM    7  C11 UNL     1     -11.233  14.667 -18.161  1.00  0.00     0.162 C 
HETATM    8 BR1  UNL     1     -10.819  16.506 -17.639  1.00  0.00    -0.080 Br
HETATM    9  O2  UNL     1     -11.046  13.889 -15.821  1.00  0.00    -0.367 OA
ENDROOT
BRANCH   1  10
HETATM   10  C5  UNL     1     -10.269  11.677 -15.022  1.00  0.00     0.099 C 
BRANCH  10  11
HETATM   11  N1  UNL     1     -10.810  10.841 -14.029  1.00  0.00    -0.352 N 
BRANCH  11  12
HETATM   12  C2  UNL     1     -10.670   9.451 -14.111  1.00  0.00     0.064 C 
HETATM   13  C1  UNL     1      -9.919   9.077 -15.386  1.00  0.00     0.055 C 
ENDBRANCH  11  12
BRANCH  11  14
HETATM   14  C3  UNL     1     -11.770  11.395 -13.160  1.00  0.00     0.064 C 
HETATM   15  C4  UNL     1     -12.302  10.429 -12.122  1.00  0.00     0.055 C 
ENDBRANCH  11  14
ENDBRANCH  10  11
ENDBRANCH   1  10
TORSDOF 4
ENDMDL
MODEL 5
REMARK VINA RESULT: -4.806380969      3.151      6.058
REMARK  4 active torsions:
REMARK  status: ('A' for Active; 'I' for Inactive)
REMARK    1  A    between atoms: C2_2  and  N1_3 
REMARK    2  A    between atoms: N1_3  and  C3_4 
REMARK    3  A    between atoms: N1_3  and  C5_6 
REMARK    4  A    between atoms: C5_6  and  C6_7 
ROOT
HETATM    1  C6  UNL     1     -11.522  13.956 -16.597  1.00  0.00     0.164 C 
HETATM    2  C7  UNL     1     -11.937  12.535 -17.009  1.00  0.00     0.077 C 
HETATM    3  C8  UNL     1     -11.370  12.307 -15.645  1.00  0.00     0.091 C 
HETATM    4  C9  UNL     1     -10.033  11.631 -15.579  1.00  0.00     0.119 C 
HETATM    5  C10 UNL     1     -10.788  10.368 -15.392  1.00  0.00     0.147 C 
HETATM    6  O1  UNL     1     -10.591   9.200 -15.605  1.00  0.00    -0.296 OA
HETATM    7  C11 UNL     1     -11.888  11.190 -14.831  1.00  0.00     0.162 C 
HETATM    8 BR1  UNL     1     -11.633  11.437 -12.908  1.00  0.00    -0.080 Br
HETATM    9  O2  UNL     1     -11.498  13.594 -15.261  1.00  0.00    -0.367 OA
ENDROOT
BRANCH   1  10
HETATM   10  C5  UNL     1     -12.506  14.994 -17.038  1.00  0.00     0.099 C 
BRANCH  10  11
HETATM   11  N1  UNL     1     -11.885  15.984 -17.820  1.00  0.00    -0.352 N 
BRANCH  11  12
HETATM   12  C2  UNL     1     -10.519  16.255 -17.678  1.00  0.00     0.064 C 
HETATM   13  C1  UNL     1     -10.317  17.708 -17.258  1.00  0.00     0.055 C 
ENDBRANCH  11  12
BRANCH  11  14
HETATM   14  C3  UNL     1     -12.714  16.911 -18.480  1.00  0.00     0.064 C 
HETATM   15  C4  UNL     1     -12.477  17.007 -19.973  1.00  0.00     0.055 C 
ENDBRANCH  11  14
ENDBRANCH  10  11
ENDBRANCH   1  10
TORSDOF 4
ENDMDL
