MODEL 1
REMARK VINA RESULT: -5.119884740      0.000      0.000
REMARK  4 active torsions:
REMARK  status: ('A' for Active; 'I' for Inactive)
REMARK    1  A    between atoms: C4_6  and  N2_7 
REMARK    2  A    between atoms: N2_7  and  C5_9 
REMARK    3  A    between atoms: C5_9  and  N3_11 
REMARK    4  A    between atoms: N3_11  and  C7_13 
ROOT
HETATM    1  N2  UNL     1     -12.923  13.630 -17.073  1.00  0.00    -0.313 N 
ATOM      2  H2  UNL     1     -13.909  13.722 -17.319  1.00  0.00     0.170 HD
ENDROOT
BRANCH   1   3
HETATM    3  C4  UNL     1     -12.567  13.136 -15.912  1.00  0.00     0.151 A 
HETATM    4  N1  UNL     1     -12.885  13.565 -14.694  1.00  0.00    -0.345 N 
HETATM    5  C3  UNL     1     -12.408  12.908 -13.660  1.00  0.00     0.104 A 
ATOM      6  H1  UNL     1     -13.482  14.381 -14.565  1.00  0.00     0.167 HD
HETATM    7  C2  UNL     1     -11.616  11.825 -13.903  1.00  0.00    -0.003 A 
HETATM    8  C1  UNL     1     -10.955  10.916 -12.895  1.00  0.00     0.058 C 
HETATM    9  S2  UNL     1     -11.579  11.784 -15.609  1.00  0.00    -0.058 SA
ENDBRANCH   1   3
BRANCH   1  10
HETATM   10  C5  UNL     1     -11.919  14.032 -17.973  1.00  0.00     0.175 C 
HETATM   11  S1  UNL     1     -11.811  13.239 -19.395  1.00  0.00    -0.041 SA
BRANCH  10  12
HETATM   12  N3  UNL     1     -11.047  15.088 -17.634  1.00  0.00    -0.358 N 
HETATM   13  C6  UNL     1      -9.652  14.840 -17.363  1.00  0.00     0.152 C 
BRANCH  12  14
HETATM   14  C7  UNL     1     -11.534  16.461 -17.547  1.00  0.00     0.078 C 
HETATM   15  C8  UNL     1     -11.947  17.012 -18.877  1.00  0.00     0.032 C 
HETATM   16  C9  UNL     1     -10.429  17.377 -17.013  1.00  0.00     0.032 C 
ENDBRANCH  12  14
ENDBRANCH  10  12
ENDBRANCH   1  10
TORSDOF 4
ENDMDL
MODEL 2
REMARK VINA RESULT: -4.973132111      0.946      1.128
REMARK  4 active torsions:
REMARK  status: ('A' for Active; 'I' for Inactive)
REMARK    1  A    between atoms: C4_6  and  N2_7 
REMARK    2  A    between atoms: N2_7  and  C5_9 
REMARK    3  A    between atoms: C5_9  and  N3_11 
REMARK    4  A    between atoms: N3_11  and  C7_13 
ROOT
HETATM    1  N2  UNL     1     -12.905  13.546 -16.995  1.00  0.00    -0.313 N 
ATOM      2  H2  UNL     1     -13.869  13.879 -17.015  1.00  0.00     0.170 HD
ENDROOT
BRANCH   1   3
HETATM    3  C4  UNL     1     -12.517  12.673 -16.097  1.00  0.00     0.151 A 
HETATM    4  N1  UNL     1     -12.526  11.345 -16.170  1.00  0.00    -0.345 N 
HETATM    5  C3  UNL     1     -12.087  10.663 -15.137  1.00  0.00     0.104 A 
ATOM      6  H1  UNL     1     -12.865  10.870 -17.006  1.00  0.00     0.167 HD
HETATM    7  C2  UNL     1     -11.647  11.362 -14.052  1.00  0.00    -0.003 A 
HETATM    8  C1  UNL     1     -11.100  10.814 -12.756  1.00  0.00     0.058 C 
HETATM    9  S2  UNL     1     -11.880  12.978 -14.548  1.00  0.00    -0.058 SA
ENDBRANCH   1   3
BRANCH   1  10
HETATM   10  C5  UNL     1     -11.965  14.015 -17.931  1.00  0.00     0.175 C 
HETATM   11  S1  UNL     1     -11.923  13.292 -19.394  1.00  0.00    -0.041 SA
BRANCH  10  12
HETATM   12  N3  UNL     1     -11.100  15.076 -17.593  1.00  0.00    -0.358 N 
HETATM   13  C6  UNL     1      -9.704  14.835 -17.317  1.00  0.00     0.152 C 
BRANCH  12  14
HETATM   14  C7  UNL     1     -11.592  16.447 -17.512  1.00  0.00     0.078 C 
HETATM   15  C8  UNL     1     -12.035  16.980 -18.840  1.00  0.00     0.032 C 
HETATM   16  C9  UNL     1     -10.483  17.375 -17.011  1.00  0.00     0.032 C 
ENDBRANCH  12  14
ENDBRANCH  10  12
ENDBRANCH   1  10
TORSDOF 4
ENDMDL
MODEL 3
REMARK VINA RESULT: -4.942069153      1.432      5.286
REMARK  4 active torsions:
REMARK  status: ('A' for Active; 'I' for Inactive)
REMARK    1  A    between atoms: C4_6  and  N2_7 
REMARK    2  A    between atoms: N2_7  and  C5_9 
REMARK    3  A    between atoms: C5_9  and  N3_11 
REMARK    4  A    between atoms: N3_11  and  C7_13 
ROOT
HETATM    1  N2  UNL     1      -9.838  13.817 -16.875  1.00  0.00    -0.313 N 
ATOM      2  H2  UNL     1      -8.858  13.878 -16.596  1.00  0.00     0.170 HD
ENDROOT
BRANCH   1   3
HETATM    3  C4  UNL     1     -10.444  14.847 -17.417  1.00  0.00     0.151 A 
HETATM    4  N1  UNL     1     -10.502  16.101 -16.979  1.00  0.00    -0.345 N 
HETATM    5  C3  UNL     1     -11.174  16.977 -17.691  1.00  0.00     0.104 A 
ATOM      6  H1  UNL     1     -10.037  16.376 -16.114  1.00  0.00     0.167 HD
HETATM    7  C2  UNL     1     -11.771  16.543 -18.838  1.00  0.00    -0.003 A 
HETATM    8  C1  UNL     1     -12.590  17.347 -19.818  1.00  0.00     0.058 C 
HETATM    9  S2  UNL     1     -11.349  14.889 -18.858  1.00  0.00    -0.058 SA
ENDBRANCH   1   3
BRANCH   1  10
HETATM   10  C5  UNL     1     -10.565  12.628 -16.688  1.00  0.00     0.175 C 
HETATM   11  S1  UNL     1     -10.160  11.337 -17.600  1.00  0.00    -0.041 SA
BRANCH  10  12
HETATM   12  N3  UNL     1     -11.605  12.578 -15.736  1.00  0.00    -0.358 N 
HETATM   13  C6  UNL     1     -12.976  12.396 -16.145  1.00  0.00     0.152 C 
BRANCH  12  14
HETATM   14  C7  UNL     1     -11.321  12.709 -14.311  1.00  0.00     0.078 C 
HETATM   15  C8  UNL     1     -10.952  11.404 -13.673  1.00  0.00     0.032 C 
HETATM   16  C9  UNL     1     -12.559  13.226 -13.574  1.00  0.00     0.032 C 
ENDBRANCH  12  14
ENDBRANCH  10  12
ENDBRANCH   1  10
TORSDOF 4
ENDMDL
MODEL 4
REMARK VINA RESULT: -4.902528538      1.803      2.272
REMARK  4 active torsions:
REMARK  status: ('A' for Active; 'I' for Inactive)
REMARK    1  A    between atoms: C4_6  and  N2_7 
REMARK    2  A    between atoms: N2_7  and  C5_9 
REMARK    3  A    between atoms: C5_9  and  N3_11 
REMARK    4  A    between atoms: N3_11  and  C7_13 
ROOT
HETATM    1  N2  UNL     1     -11.429  12.703 -17.166  1.00  0.00    -0.313 N 
ATOM      2  H2  UNL     1     -12.076  12.360 -17.877  1.00  0.00     0.170 HD
ENDROOT
BRANCH   1   3
HETATM    3  C4  UNL     1     -11.186  11.998 -16.087  1.00  0.00     0.151 A 
HETATM    4  N1  UNL     1     -10.446  10.900 -15.961  1.00  0.00    -0.345 N 
HETATM    5  C3  UNL     1     -10.343  10.354 -14.770  1.00  0.00     0.104 A 
ATOM      6  H1  UNL     1      -9.971  10.493 -16.766  1.00  0.00     0.167 HD
HETATM    7  C2  UNL     1     -11.003  10.950 -13.736  1.00  0.00    -0.003 A 
HETATM    8  C1  UNL     1     -11.040  10.519 -12.289  1.00  0.00     0.058 C 
HETATM    9  S2  UNL     1     -11.753  12.276 -14.506  1.00  0.00    -0.058 SA
ENDBRANCH   1   3
BRANCH   1  10
HETATM   10  C5  UNL     1     -10.779  13.941 -17.323  1.00  0.00     0.175 C 
HETATM   11  S1  UNL     1      -9.157  13.931 -17.502  1.00  0.00    -0.041 SA
BRANCH  10  12
HETATM   12  N3  UNL     1     -11.528  15.136 -17.324  1.00  0.00    -0.358 N 
HETATM   13  C6  UNL     1     -12.806  15.211 -16.660  1.00  0.00     0.152 C 
BRANCH  12  14
HETATM   14  C7  UNL     1     -11.029  16.331 -17.998  1.00  0.00     0.078 C 
HETATM   15  C8  UNL     1     -10.555  17.378 -17.038  1.00  0.00     0.032 C 
HETATM   16  C9  UNL     1     -12.144  16.968 -18.832  1.00  0.00     0.032 C 
ENDBRANCH  12  14
ENDBRANCH  10  12
ENDBRANCH   1  10
TORSDOF 4
ENDMDL
MODEL 5
REMARK VINA RESULT: -4.865470065      1.602      5.319
REMARK  4 active torsions:
REMARK  status: ('A' for Active; 'I' for Inactive)
REMARK    1  A    between atoms: C4_6  and  N2_7 
REMARK    2  A    between atoms: N2_7  and  C5_9 
REMARK    3  A    between atoms: C5_9  and  N3_11 
REMARK    4  A    between atoms: N3_11  and  C7_13 
ROOT
HETATM    1  N2  UNL     1     -12.146  12.535 -17.276  1.00  0.00    -0.313 N 
ATOM      2  H2  UNL     1     -12.881  11.917 -17.624  1.00  0.00     0.170 HD
ENDROOT
BRANCH   1   3
HETATM    3  C4  UNL     1     -12.141  13.808 -17.589  1.00  0.00     0.151 A 
HETATM    4  N1  UNL     1     -12.288  14.861 -16.789  1.00  0.00    -0.345 N 
HETATM    5  C3  UNL     1     -12.248  16.059 -17.327  1.00  0.00     0.104 A 
ATOM      6  H1  UNL     1     -12.427  14.741 -15.787  1.00  0.00     0.167 HD
HETATM    7  C2  UNL     1     -12.058  16.148 -18.674  1.00  0.00    -0.003 A 
HETATM    8  C1  UNL     1     -11.975  17.397 -19.518  1.00  0.00     0.058 C 
HETATM    9  S2  UNL     1     -11.942  14.507 -19.128  1.00  0.00    -0.058 SA
ENDBRANCH   1   3
BRANCH   1  10
HETATM   10  C5  UNL     1     -11.120  12.036 -16.453  1.00  0.00     0.175 C 
HETATM   11  S1  UNL     1      -9.579  12.269 -16.934  1.00  0.00    -0.041 SA
BRANCH  10  12
HETATM   12  N3  UNL     1     -11.439  11.362 -15.256  1.00  0.00    -0.358 N 
HETATM   13  C6  UNL     1     -12.006  10.035 -15.281  1.00  0.00     0.152 C 
BRANCH  12  14
HETATM   14  C7  UNL     1     -11.206  11.988 -13.959  1.00  0.00     0.078 C 
HETATM   15  C8  UNL     1     -11.149  10.994 -12.840  1.00  0.00     0.032 C 
HETATM   16  C9  UNL     1     -12.345  12.958 -13.631  1.00  0.00     0.032 C 
ENDBRANCH  12  14
ENDBRANCH  10  12
ENDBRANCH   1  10
TORSDOF 4
ENDMDL
