MODEL 1
REMARK VINA RESULT: -5.797584745      0.000      0.000
REMARK  2 active torsions:
REMARK  status: ('A' for Active; 'I' for Inactive)
REMARK    1  A    between atoms: C4_6  and  N2_7 
REMARK    2  A    between atoms: N2_7  and  C5_9 
ROOT
HETATM    1  N2  UNL     1     -12.608  11.827 -13.300  1.00  0.00    -0.358 N 
ATOM      2  H2  UNL     1     -12.907  12.335 -12.467  1.00  0.00     0.163 HD
ENDROOT
BRANCH   1   3
HETATM    3  C4  UNL     1     -12.348  10.428 -13.248  1.00  0.00     0.171 C 
HETATM    4  N1  UNL     1     -11.802   9.784 -12.277  1.00  0.00    -0.360 N 
HETATM    5  C3  UNL     1     -11.701   8.375 -12.584  1.00  0.00     0.147 C 
ATOM      6  H1  UNL     1     -11.484  10.211 -11.407  1.00  0.00     0.162 HD
HETATM    7  C2  UNL     1     -11.940   8.322 -14.054  1.00  0.00     0.098 C 
HETATM    8  C1  UNL     1     -10.600   8.459 -14.761  1.00  0.00     0.034 C 
HETATM    9  N3  UNL     1     -12.676   9.541 -14.313  1.00  0.00    -0.357 N 
ATOM     10  H3  UNL     1     -13.302   9.726 -15.097  1.00  0.00     0.163 HD
ENDBRANCH   1   3
BRANCH   1  11
HETATM   11  C5  UNL     1     -12.439  12.511 -14.567  1.00  0.00     0.084 C 
HETATM   12  C6  UNL     1     -10.988  12.570 -14.987  1.00  0.00     0.025 C 
HETATM   13  C7  UNL     1     -10.733  11.964 -16.328  1.00  0.00     0.002 C 
HETATM   14  C8  UNL     1     -10.757  12.988 -17.447  1.00  0.00     0.000 C 
HETATM   15  C9  UNL     1     -12.098  13.021 -18.106  1.00  0.00     0.000 C 
HETATM   16  C10 UNL     1     -12.774  14.348 -18.075  1.00  0.00     0.000 C 
HETATM   17  C11 UNL     1     -12.853  14.982 -16.722  1.00  0.00     0.000 C 
HETATM   18  C12 UNL     1     -13.767  14.224 -15.778  1.00  0.00     0.002 C 
HETATM   19  C13 UNL     1     -13.058  13.885 -14.479  1.00  0.00     0.025 C 
ENDBRANCH   1  11
TORSDOF 2
ENDMDL
MODEL 2
REMARK VINA RESULT: -5.749919342      1.160      2.433
REMARK  2 active torsions:
REMARK  status: ('A' for Active; 'I' for Inactive)
REMARK    1  A    between atoms: C4_6  and  N2_7 
REMARK    2  A    between atoms: N2_7  and  C5_9 
ROOT
HETATM    1  N2  UNL     1     -11.447  11.370 -12.942  1.00  0.00    -0.358 N 
ATOM      2  H2  UNL     1     -11.097  11.784 -12.077  1.00  0.00     0.163 HD
ENDROOT
BRANCH   1   3
HETATM    3  C4  UNL     1     -11.837  10.001 -12.990  1.00  0.00     0.171 C 
HETATM    4  N1  UNL     1     -11.074   8.994 -13.233  1.00  0.00    -0.360 N 
HETATM    5  C3  UNL     1     -11.824   7.758 -13.198  1.00  0.00     0.147 C 
ATOM      6  H1  UNL     1     -10.074   9.059 -13.425  1.00  0.00     0.162 HD
HETATM    7  C2  UNL     1     -13.243   8.211 -13.256  1.00  0.00     0.098 C 
HETATM    8  C1  UNL     1     -13.658   8.292 -14.718  1.00  0.00     0.034 C 
HETATM    9  N3  UNL     1     -13.176   9.570 -12.764  1.00  0.00    -0.357 N 
ATOM     10  H3  UNL     1     -13.932  10.109 -12.341  1.00  0.00     0.163 HD
ENDBRANCH   1   3
BRANCH   1  11
HETATM   11  C5  UNL     1     -11.561  12.160 -14.152  1.00  0.00     0.084 C 
HETATM   12  C6  UNL     1     -12.968  12.676 -14.359  1.00  0.00     0.025 C 
HETATM   13  C7  UNL     1     -13.043  14.162 -14.479  1.00  0.00     0.002 C 
HETATM   14  C8  UNL     1     -13.010  14.636 -15.920  1.00  0.00     0.000 C 
HETATM   15  C9  UNL     1     -11.623  15.025 -16.317  1.00  0.00     0.000 C 
HETATM   16  C10 UNL     1     -11.076  14.275 -17.482  1.00  0.00     0.000 C 
HETATM   17  C11 UNL     1     -11.178  12.785 -17.374  1.00  0.00     0.000 C 
HETATM   18  C12 UNL     1     -10.289  12.220 -16.283  1.00  0.00     0.002 C 
HETATM   19  C13 UNL     1     -11.080  11.345 -15.328  1.00  0.00     0.025 C 
ENDBRANCH   1  11
TORSDOF 2
ENDMDL
MODEL 3
REMARK VINA RESULT: -5.690397554      2.085      5.825
REMARK  2 active torsions:
REMARK  status: ('A' for Active; 'I' for Inactive)
REMARK    1  A    between atoms: C4_6  and  N2_7 
REMARK    2  A    between atoms: N2_7  and  C5_9 
ROOT
HETATM    1  N2  UNL     1     -11.131  11.504 -17.063  1.00  0.00    -0.358 N 
ATOM      2  H2  UNL     1     -10.738  11.043 -17.884  1.00  0.00     0.163 HD
ENDROOT
BRANCH   1   3
HETATM    3  C4  UNL     1     -11.530  12.870 -17.114  1.00  0.00     0.171 C 
HETATM    4  N1  UNL     1     -10.775  13.898 -16.942  1.00  0.00    -0.360 N 
HETATM    5  C3  UNL     1     -11.534  15.122 -17.068  1.00  0.00     0.147 C 
ATOM      6  H1  UNL     1      -9.776  13.854 -16.743  1.00  0.00     0.162 HD
HETATM    7  C2  UNL     1     -12.949  14.664 -16.982  1.00  0.00     0.098 C 
HETATM    8  C1  UNL     1     -13.369  14.686 -15.520  1.00  0.00     0.034 C 
HETATM    9  N3  UNL     1     -12.871  13.274 -17.375  1.00  0.00    -0.357 N 
ATOM     10  H3  UNL     1     -13.622  12.700 -17.760  1.00  0.00     0.163 HD
ENDBRANCH   1   3
BRANCH   1  11
HETATM   11  C5  UNL     1     -11.297  10.786 -15.814  1.00  0.00     0.084 C 
HETATM   12  C6  UNL     1     -11.011  11.664 -14.617  1.00  0.00     0.025 C 
HETATM   13  C7  UNL     1     -12.152  11.748 -13.657  1.00  0.00     0.002 C 
HETATM   14  C8  UNL     1     -12.044  10.739 -12.529  1.00  0.00     0.000 C 
HETATM   15  C9  UNL     1     -12.848   9.515 -12.834  1.00  0.00     0.000 C 
HETATM   16  C10 UNL     1     -12.067   8.247 -12.855  1.00  0.00     0.000 C 
HETATM   17  C11 UNL     1     -10.839   8.279 -13.711  1.00  0.00     0.000 C 
HETATM   18  C12 UNL     1     -11.164   8.387 -15.188  1.00  0.00     0.002 C 
HETATM   19  C13 UNL     1     -10.429   9.551 -15.829  1.00  0.00     0.025 C 
ENDBRANCH   1  11
TORSDOF 2
ENDMDL
MODEL 4
REMARK VINA RESULT: -5.628864932      3.890      6.234
REMARK  2 active torsions:
REMARK  status: ('A' for Active; 'I' for Inactive)
REMARK    1  A    between atoms: C4_6  and  N2_7 
REMARK    2  A    between atoms: N2_7  and  C5_9 
ROOT
HETATM    1  N2  UNL     1     -10.786  15.029 -18.890  1.00  0.00    -0.358 N 
ATOM      2  H2  UNL     1      -9.801  15.026 -19.158  1.00  0.00     0.163 HD
ENDROOT
BRANCH   1   3
HETATM    3  C4  UNL     1     -11.214  14.414 -17.678  1.00  0.00     0.171 C 
HETATM    4  N1  UNL     1     -11.576  13.189 -17.525  1.00  0.00    -0.360 N 
HETATM    5  C3  UNL     1     -11.944  12.927 -16.151  1.00  0.00     0.147 C 
ATOM      6  H1  UNL     1     -11.599  12.495 -18.272  1.00  0.00     0.162 HD
HETATM    7  C2  UNL     1     -12.098  14.290 -15.568  1.00  0.00     0.098 C 
HETATM    8  C1  UNL     1     -13.543  14.729 -15.755  1.00  0.00     0.034 C 
HETATM    9  N3  UNL     1     -11.293  15.116 -16.441  1.00  0.00    -0.357 N 
ATOM     10  H3  UNL     1     -10.868  16.017 -16.217  1.00  0.00     0.163 HD
ENDBRANCH   1   3
BRANCH   1  11
HETATM   11  C5  UNL     1     -11.784  15.658 -19.730  1.00  0.00     0.084 C 
HETATM   12  C6  UNL     1     -12.632  16.644 -18.958  1.00  0.00     0.025 C 
HETATM   13  C7  UNL     1     -12.610  18.023 -19.530  1.00  0.00     0.002 C 
HETATM   14  C8  UNL     1     -13.763  18.281 -20.482  1.00  0.00     0.000 C 
HETATM   15  C9  UNL     1     -13.338  18.063 -21.899  1.00  0.00     0.000 C 
HETATM   16  C10 UNL     1     -14.125  17.033 -22.633  1.00  0.00     0.000 C 
HETATM   17  C11 UNL     1     -14.250  15.718 -21.929  1.00  0.00     0.000 C 
HETATM   18  C12 UNL     1     -12.926  14.985 -21.829  1.00  0.00     0.002 C 
HETATM   19  C13 UNL     1     -12.622  14.593 -20.395  1.00  0.00     0.025 C 
ENDBRANCH   1  11
TORSDOF 2
ENDMDL
MODEL 5
REMARK VINA RESULT: -5.614999315      1.096      2.441
REMARK  2 active torsions:
REMARK  status: ('A' for Active; 'I' for Inactive)
REMARK    1  A    between atoms: C4_6  and  N2_7 
REMARK    2  A    between atoms: N2_7  and  C5_9 
ROOT
HETATM    1  N2  UNL     1     -11.363  11.384 -13.178  1.00  0.00    -0.358 N 
ATOM      2  H2  UNL     1     -10.999  11.768 -12.305  1.00  0.00     0.163 HD
ENDROOT
BRANCH   1   3
HETATM    3  C4  UNL     1     -11.754  10.016 -13.266  1.00  0.00     0.171 C 
HETATM    4  N1  UNL     1     -12.918   9.533 -13.011  1.00  0.00    -0.360 N 
HETATM    5  C3  UNL     1     -12.937   8.101 -13.212  1.00  0.00     0.147 C 
ATOM      6  H1  UNL     1     -13.720  10.085 -12.707  1.00  0.00     0.162 HD
HETATM    7  C2  UNL     1     -11.492   7.740 -13.279  1.00  0.00     0.098 C 
HETATM    8  C1  UNL     1     -11.015   7.423 -11.869  1.00  0.00     0.034 C 
HETATM    9  N3  UNL     1     -10.860   8.982 -13.666  1.00  0.00    -0.357 N 
ATOM     10  H3  UNL     1      -9.958   9.094 -14.131  1.00  0.00     0.163 HD
ENDBRANCH   1   3
BRANCH   1  11
HETATM   11  C5  UNL     1     -11.497  12.214 -14.358  1.00  0.00     0.084 C 
HETATM   12  C6  UNL     1     -12.917  12.699 -14.548  1.00  0.00     0.025 C 
HETATM   13  C7  UNL     1     -13.033  14.187 -14.613  1.00  0.00     0.002 C 
HETATM   14  C8  UNL     1     -13.011  14.714 -16.035  1.00  0.00     0.000 C 
HETATM   15  C9  UNL     1     -11.634  15.155 -16.416  1.00  0.00     0.000 C 
HETATM   16  C10 UNL     1     -11.067  14.463 -17.606  1.00  0.00     0.000 C 
HETATM   17  C11 UNL     1     -11.129  12.968 -17.554  1.00  0.00     0.000 C 
HETATM   18  C12 UNL     1     -10.226  12.387 -16.483  1.00  0.00     0.002 C 
HETATM   19  C13 UNL     1     -10.994  11.456 -15.562  1.00  0.00     0.025 C 
ENDBRANCH   1  11
TORSDOF 2
ENDMDL
