MODEL 1
REMARK VINA RESULT: -5.612335040      0.000      0.000
REMARK  2 active torsions:
REMARK  status: ('A' for Active; 'I' for Inactive)
REMARK    1  A    between atoms: C2_2  and  C3_3 
REMARK    2  A    between atoms: C4_7  and  C5_8 
ROOT
HETATM    1  C3  UNL     1     -11.246  15.880 -18.051  1.00  0.00     0.041 A 
HETATM    2  N1  UNL     1      -9.968  15.505 -18.095  1.00  0.00    -0.264 N 
ATOM      3  H1  UNL     1      -9.239  16.002 -18.608  1.00  0.00     0.194 HD
HETATM    4  O1  UNL     1      -9.777  14.456 -17.420  1.00  0.00    -0.235 OA
HETATM    5  C4  UNL     1     -10.908  14.035 -16.865  1.00  0.00     0.135 A 
HETATM    6  C9  UNL     1     -11.863  14.927 -17.252  1.00  0.00     0.001 A 
HETATM    7  C10 UNL     1     -13.300  14.926 -16.912  1.00  0.00     0.053 C 
ENDROOT
BRANCH   5   8
HETATM    8  C5  UNL     1     -11.038  12.844 -16.017  1.00  0.00     0.093 A 
HETATM    9  N2  UNL     1     -11.513  12.748 -14.777  1.00  0.00    -0.329 N 
HETATM   10  C6  UNL     1     -11.461  11.460 -14.348  1.00  0.00     0.176 A 
ATOM     11  H2  UNL     1     -11.865  13.531 -14.227  1.00  0.00     0.168 HD
HETATM   12  S1  UNL     1     -11.936  10.872 -12.890  1.00  0.00    -0.041 SA
HETATM   13  N3  UNL     1     -10.941  10.766 -15.361  1.00  0.00    -0.335 N 
HETATM   14  C7  UNL     1     -10.667  11.571 -16.405  1.00  0.00     0.037 A 
ATOM     15  H3  UNL     1     -10.774   9.760 -15.346  1.00  0.00     0.168 HD
HETATM   16  C8  UNL     1     -10.079  11.166 -17.715  1.00  0.00     0.070 C 
ENDBRANCH   5   8
BRANCH   1  17
HETATM   17  C2  UNL     1     -11.816  17.063 -18.726  1.00  0.00     0.055 C 
HETATM   18  C1  UNL     1     -12.508  16.654 -20.019  1.00  0.00     0.011 C 
ENDBRANCH   1  17
TORSDOF 2
ENDMDL
MODEL 2
REMARK VINA RESULT: -5.500193271      3.182      6.250
REMARK  2 active torsions:
REMARK  status: ('A' for Active; 'I' for Inactive)
REMARK    1  A    between atoms: C2_2  and  C3_3 
REMARK    2  A    between atoms: C4_7  and  C5_8 
ROOT
HETATM    1  C3  UNL     1     -12.430   9.781 -13.399  1.00  0.00     0.041 A 
HETATM    2  N1  UNL     1     -11.793  10.570 -12.535  1.00  0.00    -0.264 N 
ATOM      3  H1  UNL     1     -11.572  10.311 -11.573  1.00  0.00     0.194 HD
HETATM    4  O1  UNL     1     -11.497  11.678 -13.062  1.00  0.00    -0.235 OA
HETATM    5  C4  UNL     1     -11.910  11.731 -14.323  1.00  0.00     0.135 A 
HETATM    6  C9  UNL     1     -12.510  10.531 -14.564  1.00  0.00     0.001 A 
HETATM    7  C10 UNL     1     -13.142  10.066 -15.816  1.00  0.00     0.053 C 
ENDROOT
BRANCH   5   8
HETATM    8  C5  UNL     1     -11.728  12.876 -15.222  1.00  0.00     0.093 A 
HETATM    9  N2  UNL     1     -10.880  13.014 -16.238  1.00  0.00    -0.329 N 
HETATM   10  C6  UNL     1     -11.030  14.234 -16.819  1.00  0.00     0.176 A 
ATOM     11  H2  UNL     1     -10.211  12.305 -16.539  1.00  0.00     0.168 HD
HETATM   12  S1  UNL     1     -10.199  14.841 -18.100  1.00  0.00    -0.041 SA
HETATM   13  N3  UNL     1     -11.996  14.842 -16.130  1.00  0.00    -0.335 N 
HETATM   14  C7  UNL     1     -12.454  14.049 -15.143  1.00  0.00     0.037 A 
ATOM     15  H3  UNL     1     -12.341  15.781 -16.325  1.00  0.00     0.168 HD
HETATM   16  C8  UNL     1     -13.530  14.375 -14.161  1.00  0.00     0.070 C 
ENDBRANCH   5   8
BRANCH   1  17
HETATM   17  C2  UNL     1     -12.917   8.416 -13.115  1.00  0.00     0.055 C 
HETATM   18  C1  UNL     1     -11.763   7.521 -12.684  1.00  0.00     0.011 C 
ENDBRANCH   1  17
TORSDOF 2
ENDMDL
MODEL 3
REMARK VINA RESULT: -5.448817809      2.764      3.835
REMARK  2 active torsions:
REMARK  status: ('A' for Active; 'I' for Inactive)
REMARK    1  A    between atoms: C2_2  and  C3_3 
REMARK    2  A    between atoms: C4_7  and  C5_8 
ROOT
HETATM    1  C3  UNL     1     -13.342  16.298 -21.256  1.00  0.00     0.041 A 
HETATM    2  N1  UNL     1     -13.366  14.971 -21.368  1.00  0.00    -0.264 N 
ATOM      3  H1  UNL     1     -13.577  14.468 -22.231  1.00  0.00     0.194 HD
HETATM    4  O1  UNL     1     -13.093  14.416 -20.267  1.00  0.00    -0.235 OA
HETATM    5  C4  UNL     1     -12.864  15.321 -19.322  1.00  0.00     0.135 A 
HETATM    6  C9  UNL     1     -13.017  16.532 -19.927  1.00  0.00     0.001 A 
HETATM    7  C10 UNL     1     -12.873  17.874 -19.326  1.00  0.00     0.053 C 
ENDROOT
BRANCH   5   8
HETATM    8  C5  UNL     1     -12.520  15.015 -17.929  1.00  0.00     0.093 A 
HETATM    9  N2  UNL     1     -13.318  14.629 -16.936  1.00  0.00    -0.329 N 
HETATM   10  C6  UNL     1     -12.602  14.448 -15.795  1.00  0.00     0.176 A 
ATOM     11  H2  UNL     1     -14.324  14.487 -17.020  1.00  0.00     0.168 HD
HETATM   12  S1  UNL     1     -13.166  13.977 -14.326  1.00  0.00    -0.041 SA
HETATM   13  N3  UNL     1     -11.341  14.735 -16.115  1.00  0.00    -0.335 N 
HETATM   14  C7  UNL     1     -11.241  15.087 -17.411  1.00  0.00     0.037 A 
ATOM     15  H3  UNL     1     -10.556  14.693 -15.465  1.00  0.00     0.168 HD
HETATM   16  C8  UNL     1      -9.998  15.476 -18.138  1.00  0.00     0.070 C 
ENDBRANCH   5   8
BRANCH   1  17
HETATM   17  C2  UNL     1     -13.613  17.255 -22.348  1.00  0.00     0.055 C 
HETATM   18  C1  UNL     1     -15.109  17.344 -22.617  1.00  0.00     0.011 C 
ENDBRANCH   1  17
TORSDOF 2
ENDMDL
MODEL 4
REMARK VINA RESULT: -5.414959112      3.677      5.893
REMARK  2 active torsions:
REMARK  status: ('A' for Active; 'I' for Inactive)
REMARK    1  A    between atoms: C2_2  and  C3_3 
REMARK    2  A    between atoms: C4_7  and  C5_8 
ROOT
HETATM    1  C3  UNL     1     -12.344  14.085 -15.850  1.00  0.00     0.041 A 
HETATM    2  N1  UNL     1     -13.653  14.085 -16.095  1.00  0.00    -0.264 N 
ATOM      3  H1  UNL     1     -14.372  13.913 -15.392  1.00  0.00     0.194 HD
HETATM    4  O1  UNL     1     -13.889  14.327 -17.312  1.00  0.00    -0.235 OA
HETATM    5  C4  UNL     1     -12.761  14.509 -17.988  1.00  0.00     0.135 A 
HETATM    6  C9  UNL     1     -11.758  14.360 -17.077  1.00  0.00     0.001 A 
HETATM    7  C10 UNL     1     -10.301  14.462 -17.303  1.00  0.00     0.053 C 
ENDROOT
BRANCH   5   8
HETATM    8  C5  UNL     1     -12.676  14.808 -19.422  1.00  0.00     0.093 A 
HETATM    9  N2  UNL     1     -12.676  13.965 -20.453  1.00  0.00    -0.329 N 
HETATM   10  C6  UNL     1     -12.582  14.649 -21.623  1.00  0.00     0.176 A 
ATOM     11  H2  UNL     1     -12.737  12.950 -20.375  1.00  0.00     0.168 HD
HETATM   12  S1  UNL     1     -12.546  14.027 -23.144  1.00  0.00    -0.041 SA
HETATM   13  N3  UNL     1     -12.526  15.936 -21.283  1.00  0.00    -0.335 N 
HETATM   14  C7  UNL     1     -12.581  16.082 -19.945  1.00  0.00     0.037 A 
ATOM     15  H3  UNL     1     -12.452  16.707 -21.947  1.00  0.00     0.168 HD
HETATM   16  C8  UNL     1     -12.544  17.366 -19.185  1.00  0.00     0.070 C 
ENDBRANCH   5   8
BRANCH   1  17
HETATM   17  C2  UNL     1     -11.719  13.840 -14.534  1.00  0.00     0.055 C 
HETATM   18  C1  UNL     1     -11.493  12.349 -14.324  1.00  0.00     0.011 C 
ENDBRANCH   1  17
TORSDOF 2
ENDMDL
MODEL 5
REMARK VINA RESULT: -5.399720392      3.442      5.825
REMARK  2 active torsions:
REMARK  status: ('A' for Active; 'I' for Inactive)
REMARK    1  A    between atoms: C2_2  and  C3_3 
REMARK    2  A    between atoms: C4_7  and  C5_8 
ROOT
HETATM    1  C3  UNL     1     -11.695  13.926 -16.087  1.00  0.00     0.041 A 
HETATM    2  N1  UNL     1     -10.616  13.669 -16.825  1.00  0.00    -0.264 N 
ATOM      3  H1  UNL     1      -9.781  13.194 -16.480  1.00  0.00     0.194 HD
HETATM    4  O1  UNL     1     -10.762  14.090 -18.006  1.00  0.00    -0.235 OA
HETATM    5  C4  UNL     1     -11.948  14.665 -18.164  1.00  0.00     0.135 A 
HETATM    6  C9  UNL     1     -12.565  14.574 -16.952  1.00  0.00     0.001 A 
HETATM    7  C10 UNL     1     -13.910  15.058 -16.577  1.00  0.00     0.053 C 
ENDROOT
BRANCH   5   8
HETATM    8  C5  UNL     1     -12.437  15.259 -19.413  1.00  0.00     0.093 A 
HETATM    9  N2  UNL     1     -13.015  14.662 -20.453  1.00  0.00    -0.329 N 
HETATM   10  C6  UNL     1     -13.320  15.573 -21.414  1.00  0.00     0.176 A 
ATOM     11  H2  UNL     1     -13.201  13.662 -20.520  1.00  0.00     0.168 HD
HETATM   12  S1  UNL     1     -14.039  15.294 -22.865  1.00  0.00    -0.041 SA
HETATM   13  N3  UNL     1     -12.914  16.749 -20.934  1.00  0.00    -0.335 N 
HETATM   14  C7  UNL     1     -12.368  16.606 -19.711  1.00  0.00     0.037 A 
ATOM     15  H3  UNL     1     -13.006  17.637 -21.427  1.00  0.00     0.168 HD
HETATM   16  C8  UNL     1     -11.800  17.688 -18.855  1.00  0.00     0.070 C 
ENDBRANCH   5   8
BRANCH   1  17
HETATM   17  C2  UNL     1     -11.864  13.569 -14.664  1.00  0.00     0.055 C 
HETATM   18  C1  UNL     1     -11.271  12.194 -14.388  1.00  0.00     0.011 C 
ENDBRANCH   1  17
TORSDOF 2
ENDMDL
