MODEL 1
REMARK VINA RESULT: -5.386516174      0.000      0.000
REMARK  9 active torsions:
REMARK  status: ('A' for Active; 'I' for Inactive)
REMARK    1  A    between atoms: C3_3  and  N1_4 
REMARK    2  A    between atoms: N1_4  and  C4_5 
REMARK    3  A    between atoms: C4_5  and  C5_6 
REMARK    4  A    between atoms: C5_6  and  N2_7 
REMARK    5  A    between atoms: N2_7  and  C6_9 
REMARK    6  A    between atoms: C6_9  and  C7_10 
REMARK    7  A    between atoms: C6_9  and  C8_15 
REMARK    8  A    between atoms: C7_10  and  N3_11 
REMARK    9  A    between atoms: C8_15  and  O1_16 
ROOT
HETATM    1  C1  UNL     1      16.459  -7.066  -1.613  1.00  0.00     0.013 C 
HETATM    2  C2  UNL     1      16.834  -6.757  -2.715  1.00  0.00    -0.089 C 
HETATM    3  C3  UNL     1      17.265  -6.405  -4.044  1.00  0.00     0.330 C 
ENDROOT
BRANCH   3   4
HETATM    4  N1  UNL     1      18.703  -6.216  -4.150  1.00  0.00    -0.056 N 
HETATM    5  C9  UNL     1      19.293  -7.532  -4.027  1.00  0.00     0.238 C 
HETATM    6  C10 UNL     1      20.379  -7.626  -5.057  1.00  0.00     0.030 C 
HETATM    7  C11 UNL     1      19.768  -6.818  -6.198  1.00  0.00     0.030 C 
HETATM    8  C12 UNL     1      19.110  -5.697  -5.441  1.00  0.00     0.238 C 
BRANCH   4   9
HETATM    9  C4  UNL     1      19.080  -5.310  -3.096  1.00  0.00     0.257 C 
BRANCH   9  10
HETATM   10  C5  UNL     1      19.898  -5.938  -1.995  1.00  0.00     0.142 C 
BRANCH  10  11
HETATM   11  N2  UNL     1      19.425  -5.504  -0.726  1.00  0.00    -0.412 N 
ATOM     12  H2  UNL     1      18.812  -4.692  -0.651  1.00  0.00     0.153 HD
BRANCH  11  13
HETATM   13  C6  UNL     1      19.820  -6.215   0.428  1.00  0.00     0.125 C 
BRANCH  13  14
HETATM   14  C7  UNL     1      21.086  -6.998   0.029  1.00  0.00     0.256 C 
BRANCH  14  15
HETATM   15  N3  UNL     1      21.780  -7.361   1.234  1.00  0.00    -0.077 N 
ATOM     16  H33 UNL     1      22.383  -6.616   1.583  1.00  0.00     0.274 HD
ATOM     17  H32 UNL     1      21.161  -7.425   2.042  1.00  0.00     0.274 HD
ATOM     18  H31 UNL     1      22.287  -8.227   1.056  1.00  0.00     0.274 HD
ENDBRANCH  14  15
ENDBRANCH  13  14
BRANCH  13  19
HETATM   19  C8  UNL     1      18.874  -7.220   0.977  1.00  0.00     0.190 C 
BRANCH  19  20
HETATM   20  O1  UNL     1      18.853  -8.436   0.324  1.00  0.00    -0.399 OA
ATOM     21  H1  UNL     1      19.654  -8.668  -0.133  1.00  0.00     0.209 HD
ENDBRANCH  19  20
ENDBRANCH  13  19
ENDBRANCH  11  13
ENDBRANCH  10  11
ENDBRANCH   9  10
ENDBRANCH   4   9
ENDBRANCH   3   4
TORSDOF 9
ENDMDL
MODEL 2
REMARK VINA RESULT: -5.095956920      2.310      5.291
REMARK  9 active torsions:
REMARK  status: ('A' for Active; 'I' for Inactive)
REMARK    1  A    between atoms: C3_3  and  N1_4 
REMARK    2  A    between atoms: N1_4  and  C4_5 
REMARK    3  A    between atoms: C4_5  and  C5_6 
REMARK    4  A    between atoms: C5_6  and  N2_7 
REMARK    5  A    between atoms: N2_7  and  C6_9 
REMARK    6  A    between atoms: C6_9  and  C7_10 
REMARK    7  A    between atoms: C6_9  and  C8_15 
REMARK    8  A    between atoms: C7_10  and  N3_11 
REMARK    9  A    between atoms: C8_15  and  O1_16 
ROOT
HETATM    1  C1  UNL     1      17.329  -8.245   3.409  1.00  0.00     0.013 C 
HETATM    2  C2  UNL     1      17.115  -7.596   2.417  1.00  0.00    -0.089 C 
HETATM    3  C3  UNL     1      16.833  -6.824   1.234  1.00  0.00     0.330 C 
ENDROOT
BRANCH   3   4
HETATM    4  N1  UNL     1      17.847  -6.966   0.201  1.00  0.00    -0.056 N 
HETATM    5  C9  UNL     1      18.386  -5.641  -0.021  1.00  0.00     0.238 C 
HETATM    6  C10 UNL     1      19.874  -5.785  -0.140  1.00  0.00     0.030 C 
HETATM    7  C11 UNL     1      20.139  -6.906   0.859  1.00  0.00     0.030 C 
HETATM    8  C12 UNL     1      18.957  -7.803   0.612  1.00  0.00     0.238 C 
BRANCH   4   9
HETATM    9  C4  UNL     1      17.188  -7.524  -0.952  1.00  0.00     0.257 C 
BRANCH   9  10
HETATM   10  C5  UNL     1      17.249  -6.660  -2.186  1.00  0.00     0.142 C 
BRANCH  10  11
HETATM   11  N2  UNL     1      18.000  -7.313  -3.203  1.00  0.00    -0.412 N 
ATOM     12  H2  UNL     1      18.081  -8.329  -3.217  1.00  0.00     0.153 HD
BRANCH  11  13
HETATM   13  C6  UNL     1      18.631  -6.528  -4.193  1.00  0.00     0.125 C 
BRANCH  13  14
HETATM   14  C7  UNL     1      19.849  -7.345  -4.667  1.00  0.00     0.256 C 
BRANCH  14  15
HETATM   15  N3  UNL     1      20.028  -7.100  -6.071  1.00  0.00    -0.077 N 
ATOM     16  H33 UNL     1      20.794  -6.456  -6.265  1.00  0.00     0.274 HD
ATOM     17  H32 UNL     1      20.400  -7.909  -6.569  1.00  0.00     0.274 HD
ATOM     18  H31 UNL     1      19.137  -6.779  -6.450  1.00  0.00     0.274 HD
ENDBRANCH  14  15
ENDBRANCH  13  14
BRANCH  13  19
HETATM   19  C8  UNL     1      19.162  -5.201  -3.787  1.00  0.00     0.190 C 
BRANCH  19  20
HETATM   20  O1  UNL     1      19.501  -4.354  -4.823  1.00  0.00    -0.399 OA
ATOM     21  H1  UNL     1      20.424  -4.142  -4.891  1.00  0.00     0.209 HD
ENDBRANCH  19  20
ENDBRANCH  13  19
ENDBRANCH  11  13
ENDBRANCH  10  11
ENDBRANCH   9  10
ENDBRANCH   4   9
ENDBRANCH   3   4
TORSDOF 9
ENDMDL
MODEL 3
REMARK VINA RESULT: -5.084509526      1.506      3.205
REMARK  9 active torsions:
REMARK  status: ('A' for Active; 'I' for Inactive)
REMARK    1  A    between atoms: C3_3  and  N1_4 
REMARK    2  A    between atoms: N1_4  and  C4_5 
REMARK    3  A    between atoms: C4_5  and  C5_6 
REMARK    4  A    between atoms: C5_6  and  N2_7 
REMARK    5  A    between atoms: N2_7  and  C6_9 
REMARK    6  A    between atoms: C6_9  and  C7_10 
REMARK    7  A    between atoms: C6_9  and  C8_15 
REMARK    8  A    between atoms: C7_10  and  N3_11 
REMARK    9  A    between atoms: C8_15  and  O1_16 
ROOT
HETATM    1  C1  UNL     1      19.128  -6.321  -6.558  1.00  0.00     0.013 C 
HETATM    2  C2  UNL     1      19.570  -6.651  -5.488  1.00  0.00    -0.089 C 
HETATM    3  C3  UNL     1      20.107  -7.071  -4.218  1.00  0.00     0.330 C 
ENDROOT
BRANCH   3   4
HETATM    4  N1  UNL     1      19.312  -6.624  -3.084  1.00  0.00    -0.056 N 
HETATM    5  C9  UNL     1      18.838  -5.299  -3.420  1.00  0.00     0.238 C 
HETATM    6  C10 UNL     1      17.401  -5.225  -2.997  1.00  0.00     0.030 C 
HETATM    7  C11 UNL     1      16.937  -6.647  -3.296  1.00  0.00     0.030 C 
HETATM    8  C12 UNL     1      18.137  -7.443  -2.862  1.00  0.00     0.238 C 
BRANCH   4   9
HETATM    9  C4  UNL     1      20.180  -6.656  -1.935  1.00  0.00     0.257 C 
BRANCH   9  10
HETATM   10  C5  UNL     1      20.053  -5.461  -1.023  1.00  0.00     0.142 C 
BRANCH  10  11
HETATM   11  N2  UNL     1      19.314  -5.812   0.142  1.00  0.00    -0.412 N 
ATOM     12  H2  UNL     1      18.708  -5.130   0.596  1.00  0.00     0.153 HD
BRANCH  11  13
HETATM   13  C6  UNL     1      19.436  -7.121   0.657  1.00  0.00     0.125 C 
BRANCH  13  14
HETATM   14  C7  UNL     1      18.074  -7.452   1.297  1.00  0.00     0.256 C 
BRANCH  14  15
HETATM   15  N3  UNL     1      17.057  -6.755   0.559  1.00  0.00    -0.077 N 
ATOM     16  H33 UNL     1      16.188  -6.653   1.083  1.00  0.00     0.274 HD
ATOM     17  H32 UNL     1      17.263  -5.763   0.443  1.00  0.00     0.274 HD
ATOM     18  H31 UNL     1      16.928  -7.237  -0.330  1.00  0.00     0.274 HD
ENDBRANCH  14  15
ENDBRANCH  13  14
BRANCH  13  19
HETATM   19  C8  UNL     1      20.453  -7.353   1.716  1.00  0.00     0.190 C 
BRANCH  19  20
HETATM   20  O1  UNL     1      21.768  -7.301   1.300  1.00  0.00    -0.399 OA
ATOM     21  H1  UNL     1      22.407  -7.625   1.924  1.00  0.00     0.209 HD
ENDBRANCH  19  20
ENDBRANCH  13  19
ENDBRANCH  11  13
ENDBRANCH  10  11
ENDBRANCH   9  10
ENDBRANCH   4   9
ENDBRANCH   3   4
TORSDOF 9
ENDMDL
MODEL 4
REMARK VINA RESULT: -5.013232048      1.210      2.957
REMARK  9 active torsions:
REMARK  status: ('A' for Active; 'I' for Inactive)
REMARK    1  A    between atoms: C3_3  and  N1_4 
REMARK    2  A    between atoms: N1_4  and  C4_5 
REMARK    3  A    between atoms: C4_5  and  C5_6 
REMARK    4  A    between atoms: C5_6  and  N2_7 
REMARK    5  A    between atoms: N2_7  and  C6_9 
REMARK    6  A    between atoms: C6_9  and  C7_10 
REMARK    7  A    between atoms: C6_9  and  C8_15 
REMARK    8  A    between atoms: C7_10  and  N3_11 
REMARK    9  A    between atoms: C8_15  and  O1_16 
ROOT
HETATM    1  C1  UNL     1      20.834  -8.143  -5.835  1.00  0.00     0.013 C 
HETATM    2  C2  UNL     1      20.030  -7.321  -5.477  1.00  0.00    -0.089 C 
HETATM    3  C3  UNL     1      19.080  -6.319  -5.067  1.00  0.00     0.330 C 
ENDROOT
BRANCH   3   4
HETATM    4  N1  UNL     1      18.791  -6.351  -3.642  1.00  0.00    -0.056 N 
HETATM    5  C9  UNL     1      18.297  -5.034  -3.300  1.00  0.00     0.238 C 
HETATM    6  C10 UNL     1      17.127  -5.228  -2.381  1.00  0.00     0.030 C 
HETATM    7  C11 UNL     1      16.510  -6.498  -2.960  1.00  0.00     0.030 C 
HETATM    8  C12 UNL     1      17.741  -7.291  -3.301  1.00  0.00     0.238 C 
BRANCH   4   9
HETATM    9  C4  UNL     1      20.021  -6.699  -2.979  1.00  0.00     0.257 C 
BRANCH   9  10
HETATM   10  C5  UNL     1      20.206  -6.056  -1.627  1.00  0.00     0.142 C 
BRANCH  10  11
HETATM   11  N2  UNL     1      20.111  -7.038  -0.602  1.00  0.00    -0.412 N 
ATOM     12  H2  UNL     1      20.559  -7.947  -0.711  1.00  0.00     0.153 HD
BRANCH  11  13
HETATM   13  C6  UNL     1      19.384  -6.731   0.569  1.00  0.00     0.125 C 
BRANCH  13  14
HETATM   14  C7  UNL     1      20.295  -7.127   1.748  1.00  0.00     0.256 C 
BRANCH  14  15
HETATM   15  N3  UNL     1      21.621  -7.329   1.234  1.00  0.00    -0.077 N 
ATOM     16  H33 UNL     1      21.984  -8.262   1.433  1.00  0.00     0.274 HD
ATOM     17  H32 UNL     1      21.645  -7.388   0.216  1.00  0.00     0.274 HD
ATOM     18  H31 UNL     1      22.217  -6.588   1.601  1.00  0.00     0.274 HD
ENDBRANCH  14  15
ENDBRANCH  13  14
BRANCH  13  19
HETATM   19  C8  UNL     1      18.099  -7.444   0.789  1.00  0.00     0.190 C 
BRANCH  19  20
HETATM   20  O1  UNL     1      16.964  -6.661   0.713  1.00  0.00    -0.399 OA
ATOM     21  H1  UNL     1      16.576  -6.421   1.546  1.00  0.00     0.209 HD
ENDBRANCH  19  20
ENDBRANCH  13  19
ENDBRANCH  11  13
ENDBRANCH  10  11
ENDBRANCH   9  10
ENDBRANCH   4   9
ENDBRANCH   3   4
TORSDOF 9
ENDMDL
MODEL 5
REMARK VINA RESULT: -4.938231215      2.200      5.223
REMARK  9 active torsions:
REMARK  status: ('A' for Active; 'I' for Inactive)
REMARK    1  A    between atoms: C3_3  and  N1_4 
REMARK    2  A    between atoms: N1_4  and  C4_5 
REMARK    3  A    between atoms: C4_5  and  C5_6 
REMARK    4  A    between atoms: C5_6  and  N2_7 
REMARK    5  A    between atoms: N2_7  and  C6_9 
REMARK    6  A    between atoms: C6_9  and  C7_10 
REMARK    7  A    between atoms: C6_9  and  C8_15 
REMARK    8  A    between atoms: C7_10  and  N3_11 
REMARK    9  A    between atoms: C8_15  and  O1_16 
ROOT
HETATM    1  C1  UNL     1      17.579  -8.231   3.388  1.00  0.00     0.013 C 
HETATM    2  C2  UNL     1      17.295  -7.617   2.391  1.00  0.00    -0.089 C 
HETATM    3  C3  UNL     1      16.930  -6.890   1.203  1.00  0.00     0.330 C 
ENDROOT
BRANCH   3   4
HETATM    4  N1  UNL     1      17.929  -6.974   0.148  1.00  0.00    -0.056 N 
HETATM    5  C9  UNL     1      18.464  -5.639  -0.008  1.00  0.00     0.238 C 
HETATM    6  C10 UNL     1      19.950  -5.775  -0.158  1.00  0.00     0.030 C 
HETATM    7  C11 UNL     1      20.230  -6.950   0.775  1.00  0.00     0.030 C 
HETATM    8  C12 UNL     1      19.044  -7.832   0.496  1.00  0.00     0.238 C 
BRANCH   4   9
HETATM    9  C4  UNL     1      17.252  -7.469  -1.023  1.00  0.00     0.257 C 
BRANCH   9  10
HETATM   10  C5  UNL     1      17.455  -6.633  -2.262  1.00  0.00     0.142 C 
BRANCH  10  11
HETATM   11  N2  UNL     1      18.212  -7.359  -3.223  1.00  0.00    -0.412 N 
ATOM     12  H2  UNL     1      17.949  -8.310  -3.480  1.00  0.00     0.153 HD
BRANCH  11  13
HETATM   13  C6  UNL     1      19.336  -6.740  -3.812  1.00  0.00     0.125 C 
BRANCH  13  14
HETATM   14  C7  UNL     1      19.085  -5.223  -3.712  1.00  0.00     0.256 C 
BRANCH  14  15
HETATM   15  N3  UNL     1      19.508  -4.622  -4.947  1.00  0.00    -0.077 N 
ATOM     16  H33 UNL     1      20.374  -4.092  -4.851  1.00  0.00     0.274 HD
ATOM     17  H32 UNL     1      19.841  -5.306  -5.625  1.00  0.00     0.274 HD
ATOM     18  H31 UNL     1      18.737  -4.057  -5.302  1.00  0.00     0.274 HD
ENDBRANCH  14  15
ENDBRANCH  13  14
BRANCH  13  19
HETATM   19  C8  UNL     1      19.601  -7.017  -5.248  1.00  0.00     0.190 C 
BRANCH  19  20
HETATM   20  O1  UNL     1      20.690  -7.824  -5.507  1.00  0.00    -0.399 OA
ATOM     21  H1  UNL     1      20.488  -8.679  -5.871  1.00  0.00     0.209 HD
ENDBRANCH  19  20
ENDBRANCH  13  19
ENDBRANCH  11  13
ENDBRANCH  10  11
ENDBRANCH   9  10
ENDBRANCH   4   9
ENDBRANCH   3   4
TORSDOF 9
ENDMDL
