MODEL 1
REMARK VINA RESULT: -8.567735301      0.000      0.000
REMARK  6 active torsions:
REMARK  status: ('A' for Active; 'I' for Inactive)
REMARK       I    between atoms: N1_8  and  C8_9 
REMARK    1  A    between atoms: C8_9  and  C9_11 
REMARK    2  A    between atoms: C9_11  and  C10_12 
REMARK    3  A    between atoms: C10_12  and  C11_13 
REMARK    4  A    between atoms: C11_13  and  N2_14 
REMARK       I    between atoms: N2_14  and  C12_16 
REMARK       I    between atoms: C12_16  and  N3_18 
REMARK    5  A    between atoms: N3_18  and  C13_20 
REMARK    6  A    between atoms: C13_20  and  C14_21 
ROOT
HETATM    1  C11 UNL     1      27.338 -16.688   4.828  1.00  0.00     0.125 C 
ENDROOT
BRANCH   1   2
HETATM    2  C10 UNL     1      26.817 -17.218   3.532  1.00  0.00     0.029 C 
BRANCH   2   3
HETATM    3  C9  UNL     1      26.322 -18.638   3.589  1.00  0.00     0.104 C 
BRANCH   3   4
HETATM    4  C8  UNL     1      27.228 -19.575   4.243  1.00  0.00     0.220 C 
HETATM    5  N1  UNL     1      28.350 -20.053   3.491  1.00  0.00    -0.347 N 
HETATM    6  C2  UNL     1      28.716 -19.717   2.113  1.00  0.00     0.084 C 
HETATM    7  C7  UNL     1      29.370 -20.974   3.927  1.00  0.00     0.135 C 
HETATM    8  C1  UNL     1      29.919 -18.811   2.116  1.00  0.00     0.032 C 
HETATM    9  C3  UNL     1      29.020 -21.087   1.539  1.00  0.00     0.035 C 
HETATM   10  C4  UNL     1      29.702 -21.780   2.686  1.00  0.00    -0.030 C 
HETATM   11  C5  UNL     1      29.101 -23.174   2.788  1.00  0.00     0.016 C 
HETATM   12  C6  UNL     1      31.178 -21.936   2.486  1.00  0.00     0.016 C 
HETATM   13  O1  UNL     1      27.099 -19.991   5.414  1.00  0.00    -0.273 OA
ENDBRANCH   3   4
ENDBRANCH   2   3
ENDBRANCH   1   2
BRANCH   1  14
HETATM   14  N2  UNL     1      28.776 -16.719   4.913  1.00  0.00    -0.343 N 
HETATM   15  C12 UNL     1      29.621 -15.653   4.513  1.00  0.00     0.316 C 
HETATM   16  O2  UNL     1      29.123 -14.597   4.056  1.00  0.00    -0.247 OA
HETATM   17  N3  UNL     1      31.033 -15.716   4.604  1.00  0.00    -0.343 N 
ATOM     18  H3  UNL     1      31.445 -16.573   4.974  1.00  0.00     0.164 HD
ATOM     19  H2  UNL     1      29.214 -17.562   5.285  1.00  0.00     0.164 HD
BRANCH  17  20
HETATM   20  C13 UNL     1      31.923 -14.667   4.215  1.00  0.00     0.129 C 
BRANCH  20  21
HETATM   21  C14 UNL     1      32.997 -15.125   3.276  1.00  0.00     0.004 C 
HETATM   22  C15 UNL     1      32.815 -16.616   2.923  1.00  0.00     0.011 C 
HETATM   23  C16 UNL     1      33.248 -16.560   1.511  1.00  0.00    -0.010 A 
HETATM   24  C17 UNL     1      32.597 -16.464   0.276  1.00  0.00     0.010 A 
HETATM   25  C18 UNL     1      32.191 -15.438   1.141  1.00  0.00    -0.010 A 
HETATM   26  C19 UNL     1      32.884 -14.393   1.921  1.00  0.00     0.011 C 
ENDBRANCH  20  21
ENDBRANCH  17  20
ENDBRANCH   1  14
TORSDOF 6
ENDMDL
MODEL 2
REMARK VINA RESULT: -8.026737575      8.119     10.631
REMARK  6 active torsions:
REMARK  status: ('A' for Active; 'I' for Inactive)
REMARK       I    between atoms: N1_8  and  C8_9 
REMARK    1  A    between atoms: C8_9  and  C9_11 
REMARK    2  A    between atoms: C9_11  and  C10_12 
REMARK    3  A    between atoms: C10_12  and  C11_13 
REMARK    4  A    between atoms: C11_13  and  N2_14 
REMARK       I    between atoms: N2_14  and  C12_16 
REMARK       I    between atoms: C12_16  and  N3_18 
REMARK    5  A    between atoms: N3_18  and  C13_20 
REMARK    6  A    between atoms: C13_20  and  C14_21 
ROOT
HETATM    1  C11 UNL     1      40.815 -17.035   0.975  1.00  0.00     0.125 C 
ENDROOT
BRANCH   1   2
HETATM    2  C10 UNL     1      40.062 -18.173   0.365  1.00  0.00     0.029 C 
BRANCH   2   3
HETATM    3  C9  UNL     1      38.569 -17.995   0.338  1.00  0.00     0.104 C 
BRANCH   3   4
HETATM    4  C8  UNL     1      37.973 -18.040  -0.992  1.00  0.00     0.220 C 
HETATM    5  N1  UNL     1      36.569 -18.308  -1.086  1.00  0.00    -0.347 N 
HETATM    6  C2  UNL     1      35.626 -18.550   0.008  1.00  0.00     0.084 C 
HETATM    7  C7  UNL     1      35.771 -18.398  -2.284  1.00  0.00     0.135 C 
HETATM    8  C1  UNL     1      34.735 -17.349   0.183  1.00  0.00     0.032 C 
HETATM    9  C3  UNL     1      34.875 -19.763  -0.504  1.00  0.00     0.035 C 
HETATM   10  C4  UNL     1      34.753 -19.477  -1.975  1.00  0.00    -0.030 C 
HETATM   11  C5  UNL     1      35.107 -20.760  -2.712  1.00  0.00     0.016 C 
HETATM   12  C6  UNL     1      33.366 -19.086  -2.385  1.00  0.00     0.016 C 
HETATM   13  O1  UNL     1      38.599 -17.860  -2.059  1.00  0.00    -0.273 OA
ENDBRANCH   3   4
ENDBRANCH   2   3
ENDBRANCH   1   2
BRANCH   1  14
HETATM   14  N2  UNL     1      40.307 -15.747   0.577  1.00  0.00    -0.343 N 
HETATM   15  C12 UNL     1      40.914 -14.917  -0.399  1.00  0.00     0.316 C 
HETATM   16  O2  UNL     1      41.959 -15.295  -0.979  1.00  0.00    -0.247 OA
HETATM   17  N3  UNL     1      40.393 -13.652  -0.764  1.00  0.00    -0.343 N 
ATOM     18  H3  UNL     1      39.543 -13.338  -0.294  1.00  0.00     0.164 HD
ATOM     19  H2  UNL     1      39.455 -15.411   1.026  1.00  0.00     0.164 HD
BRANCH  17  20
HETATM   20  C13 UNL     1      40.970 -12.784  -1.742  1.00  0.00     0.129 C 
BRANCH  20  21
HETATM   21  C14 UNL     1      41.482 -11.501  -1.161  1.00  0.00     0.004 C 
HETATM   22  C15 UNL     1      41.186 -10.316  -2.103  1.00  0.00     0.011 C 
HETATM   23  C16 UNL     1      40.900  -9.290  -1.080  1.00  0.00    -0.010 A 
HETATM   24  C17 UNL     1      39.740  -8.766  -0.495  1.00  0.00     0.010 A 
HETATM   25  C18 UNL     1      39.770 -10.165  -0.393  1.00  0.00    -0.010 A 
HETATM   26  C19 UNL     1      40.728 -11.154   0.141  1.00  0.00     0.011 C 
ENDBRANCH  20  21
ENDBRANCH  17  20
ENDBRANCH   1  14
TORSDOF 6
ENDMDL
MODEL 3
REMARK VINA RESULT: -7.881728525      2.068      5.383
REMARK  6 active torsions:
REMARK  status: ('A' for Active; 'I' for Inactive)
REMARK       I    between atoms: N1_8  and  C8_9 
REMARK    1  A    between atoms: C8_9  and  C9_11 
REMARK    2  A    between atoms: C9_11  and  C10_12 
REMARK    3  A    between atoms: C10_12  and  C11_13 
REMARK    4  A    between atoms: C11_13  and  N2_14 
REMARK       I    between atoms: N2_14  and  C12_16 
REMARK       I    between atoms: C12_16  and  N3_18 
REMARK    5  A    between atoms: N3_18  and  C13_20 
REMARK    6  A    between atoms: C13_20  and  C14_21 
ROOT
HETATM    1  C11 UNL     1      31.899 -14.560   4.541  1.00  0.00     0.125 C 
ENDROOT
BRANCH   1   2
HETATM    2  C10 UNL     1      32.978 -15.194   3.724  1.00  0.00     0.029 C 
BRANCH   2   3
HETATM    3  C9  UNL     1      32.523 -15.736   2.397  1.00  0.00     0.104 C 
BRANCH   3   4
HETATM    4  C8  UNL     1      32.358 -17.185   2.354  1.00  0.00     0.220 C 
HETATM    5  N1  UNL     1      32.539 -17.840   1.093  1.00  0.00    -0.347 N 
HETATM    6  C2  UNL     1      32.875 -17.230  -0.196  1.00  0.00     0.084 C 
HETATM    7  C7  UNL     1      32.430 -19.251   0.814  1.00  0.00     0.135 C 
HETATM    8  C1  UNL     1      34.303 -17.550  -0.549  1.00  0.00     0.032 C 
HETATM    9  C3  UNL     1      31.881 -17.908  -1.118  1.00  0.00     0.035 C 
HETATM   10  C4  UNL     1      31.837 -19.311  -0.580  1.00  0.00    -0.030 C 
HETATM   11  C5  UNL     1      30.373 -19.719  -0.511  1.00  0.00     0.016 C 
HETATM   12  C6  UNL     1      32.543 -20.300  -1.457  1.00  0.00     0.016 C 
HETATM   13  O1  UNL     1      32.073 -17.899   3.340  1.00  0.00    -0.273 OA
ENDBRANCH   3   4
ENDBRANCH   2   3
ENDBRANCH   1   2
BRANCH   1  14
HETATM   14  N2  UNL     1      30.934 -15.509   5.033  1.00  0.00    -0.343 N 
HETATM   15  C12 UNL     1      29.602 -15.611   4.559  1.00  0.00     0.316 C 
HETATM   16  O2  UNL     1      29.201 -14.846   3.650  1.00  0.00    -0.247 OA
HETATM   17  N3  UNL     1      28.674 -16.552   5.068  1.00  0.00    -0.343 N 
ATOM     18  H3  UNL     1      28.993 -17.177   5.809  1.00  0.00     0.164 HD
ATOM     19  H2  UNL     1      31.228 -16.151   5.770  1.00  0.00     0.164 HD
BRANCH  17  20
HETATM   20  C13 UNL     1      27.324 -16.691   4.619  1.00  0.00     0.129 C 
BRANCH  20  21
HETATM   21  C14 UNL     1      27.119 -17.880   3.730  1.00  0.00     0.004 C 
HETATM   22  C15 UNL     1      28.465 -18.378   3.164  1.00  0.00     0.011 C 
HETATM   23  C16 UNL     1      28.186 -19.829   3.183  1.00  0.00    -0.010 A 
HETATM   24  C17 UNL     1      28.470 -20.884   4.058  1.00  0.00     0.010 A 
HETATM   25  C18 UNL     1      27.833 -19.829   4.728  1.00  0.00    -0.010 A 
HETATM   26  C19 UNL     1      26.575 -19.078   4.539  1.00  0.00     0.011 C 
ENDBRANCH  20  21
ENDBRANCH  17  20
ENDBRANCH   1  14
TORSDOF 6
ENDMDL
MODEL 4
REMARK VINA RESULT: -7.832929113      8.041     10.517
REMARK  6 active torsions:
REMARK  status: ('A' for Active; 'I' for Inactive)
REMARK       I    between atoms: N1_8  and  C8_9 
REMARK    1  A    between atoms: C8_9  and  C9_11 
REMARK    2  A    between atoms: C9_11  and  C10_12 
REMARK    3  A    between atoms: C10_12  and  C11_13 
REMARK    4  A    between atoms: C11_13  and  N2_14 
REMARK       I    between atoms: N2_14  and  C12_16 
REMARK       I    between atoms: C12_16  and  N3_18 
REMARK    5  A    between atoms: N3_18  and  C13_20 
REMARK    6  A    between atoms: C13_20  and  C14_21 
ROOT
HETATM    1  C11 UNL     1      40.757 -17.626   0.123  1.00  0.00     0.125 C 
ENDROOT
BRANCH   1   2
HETATM    2  C10 UNL     1      39.407 -17.970   0.660  1.00  0.00     0.029 C 
BRANCH   2   3
HETATM    3  C9  UNL     1      38.287 -17.109   0.143  1.00  0.00     0.104 C 
BRANCH   3   4
HETATM    4  C8  UNL     1      37.596 -17.643  -1.025  1.00  0.00     0.220 C 
HETATM    5  N1  UNL     1      36.199 -17.932  -0.899  1.00  0.00    -0.347 N 
HETATM    6  C2  UNL     1      35.349 -17.759   0.281  1.00  0.00     0.084 C 
HETATM    7  C7  UNL     1      35.317 -18.460  -1.911  1.00  0.00     0.135 C 
HETATM    8  C1  UNL     1      34.432 -16.583   0.077  1.00  0.00     0.032 C 
HETATM    9  C3  UNL     1      34.604 -19.079   0.312  1.00  0.00     0.035 C 
HETATM   10  C4  UNL     1      34.362 -19.354  -1.147  1.00  0.00    -0.030 C 
HETATM   11  C5  UNL     1      34.704 -20.817  -1.389  1.00  0.00     0.016 C 
HETATM   12  C6  UNL     1      32.936 -19.148  -1.556  1.00  0.00     0.016 C 
HETATM   13  O1  UNL     1      38.134 -17.865  -2.131  1.00  0.00    -0.273 OA
ENDBRANCH   3   4
ENDBRANCH   2   3
ENDBRANCH   1   2
BRANCH   1  14
HETATM   14  N2  UNL     1      41.130 -16.257   0.372  1.00  0.00    -0.343 N 
HETATM   15  C12 UNL     1      41.332 -15.288  -0.643  1.00  0.00     0.316 C 
HETATM   16  O2  UNL     1      41.181 -15.602  -1.847  1.00  0.00    -0.247 OA
HETATM   17  N3  UNL     1      41.703 -13.949  -0.365  1.00  0.00    -0.343 N 
ATOM     18  H3  UNL     1      41.829 -13.687   0.613  1.00  0.00     0.164 HD
ATOM     19  H2  UNL     1      41.256 -15.965   1.342  1.00  0.00     0.164 HD
BRANCH  17  20
HETATM   20  C13 UNL     1      41.915 -12.940  -1.355  1.00  0.00     0.129 C 
BRANCH  20  21
HETATM   21  C14 UNL     1      40.751 -12.008  -1.504  1.00  0.00     0.004 C 
HETATM   22  C15 UNL     1      40.217 -11.575  -0.123  1.00  0.00     0.011 C 
HETATM   23  C16 UNL     1      39.859 -10.180  -0.455  1.00  0.00    -0.010 A 
HETATM   24  C17 UNL     1      40.479  -8.934  -0.308  1.00  0.00     0.010 A 
HETATM   25  C18 UNL     1      41.317  -9.839  -0.976  1.00  0.00    -0.010 A 
HETATM   26  C19 UNL     1      41.191 -10.690  -2.177  1.00  0.00     0.011 C 
ENDBRANCH  20  21
ENDBRANCH  17  20
ENDBRANCH   1  14
TORSDOF 6
ENDMDL
MODEL 5
REMARK VINA RESULT: -7.820930743      1.291      1.985
REMARK  6 active torsions:
REMARK  status: ('A' for Active; 'I' for Inactive)
REMARK       I    between atoms: N1_8  and  C8_9 
REMARK    1  A    between atoms: C8_9  and  C9_11 
REMARK    2  A    between atoms: C9_11  and  C10_12 
REMARK    3  A    between atoms: C10_12  and  C11_13 
REMARK    4  A    between atoms: C11_13  and  N2_14 
REMARK       I    between atoms: N2_14  and  C12_16 
REMARK       I    between atoms: C12_16  and  N3_18 
REMARK    5  A    between atoms: N3_18  and  C13_20 
REMARK    6  A    between atoms: C13_20  and  C14_21 
ROOT
HETATM    1  C11 UNL     1      27.377 -16.923   4.503  1.00  0.00     0.125 C 
ENDROOT
BRANCH   1   2
HETATM    2  C10 UNL     1      27.298 -17.935   3.406  1.00  0.00     0.029 C 
BRANCH   2   3
HETATM    3  C9  UNL     1      28.626 -18.322   2.813  1.00  0.00     0.104 C 
BRANCH   3   4
HETATM    4  C8  UNL     1      28.640 -19.619   2.145  1.00  0.00     0.220 C 
HETATM    5  N1  UNL     1      28.905 -20.778   2.944  1.00  0.00    -0.347 N 
HETATM    6  C2  UNL     1      29.171 -20.835   4.383  1.00  0.00     0.084 C 
HETATM    7  C7  UNL     1      28.967 -22.150   2.505  1.00  0.00     0.135 C 
HETATM    8  C1  UNL     1      27.974 -21.404   5.097  1.00  0.00     0.032 C 
HETATM    9  C3  UNL     1      30.372 -21.760   4.431  1.00  0.00     0.035 C 
HETATM   10  C4  UNL     1      30.052 -22.769   3.364  1.00  0.00    -0.030 C 
HETATM   11  C5  UNL     1      31.318 -22.972   2.545  1.00  0.00     0.016 C 
HETATM   12  C6  UNL     1      29.650 -24.103   3.916  1.00  0.00     0.016 C 
HETATM   13  O1  UNL     1      28.437 -19.793   0.924  1.00  0.00    -0.273 OA
ENDBRANCH   3   4
ENDBRANCH   2   3
ENDBRANCH   1   2
BRANCH   1  14
HETATM   14  N2  UNL     1      28.719 -16.724   4.990  1.00  0.00    -0.343 N 
HETATM   15  C12 UNL     1      29.582 -15.690   4.548  1.00  0.00     0.316 C 
HETATM   16  O2  UNL     1      29.188 -14.873   3.682  1.00  0.00    -0.247 OA
HETATM   17  N3  UNL     1      30.899 -15.524   5.042  1.00  0.00    -0.343 N 
ATOM     18  H3  UNL     1      31.226 -16.186   5.746  1.00  0.00     0.164 HD
ATOM     19  H2  UNL     1      29.070 -17.368   5.699  1.00  0.00     0.164 HD
BRANCH  17  20
HETATM   20  C13 UNL     1      31.802 -14.496   4.627  1.00  0.00     0.129 C 
BRANCH  20  21
HETATM   21  C14 UNL     1      32.899 -15.001   3.739  1.00  0.00     0.004 C 
HETATM   22  C15 UNL     1      32.735 -16.512   3.472  1.00  0.00     0.011 C 
HETATM   23  C16 UNL     1      33.196 -16.537   2.068  1.00  0.00    -0.010 A 
HETATM   24  C17 UNL     1      32.570 -16.520   0.817  1.00  0.00     0.010 A 
HETATM   25  C18 UNL     1      32.139 -15.447   1.611  1.00  0.00    -0.010 A 
HETATM   26  C19 UNL     1      32.809 -14.352   2.341  1.00  0.00     0.011 C 
ENDBRANCH  20  21
ENDBRANCH  17  20
ENDBRANCH   1  14
TORSDOF 6
ENDMDL
