MODEL 1
REMARK VINA RESULT: -6.813079443      0.000      0.000
REMARK  8 active torsions:
REMARK  status: ('A' for Active; 'I' for Inactive)
REMARK       I    between atoms: C1_2  and  N1_3 
REMARK    1  A    between atoms: C1_2  and  C10_13 
REMARK    2  A    between atoms: N1_3  and  C2_5 
REMARK    3  A    between atoms: C2_5  and  C3_6 
REMARK    4  A    between atoms: C3_6  and  C4_7 
REMARK    5  A    between atoms: C11_14  and  N2_15 
REMARK    6  A    between atoms: N2_15  and  C12_17 
REMARK    7  A    between atoms: C14_23  and  O2_24 
REMARK    8  A    between atoms: C18_31  and  O3_32 
ROOT
HETATM    1  C10 UNL     1       2.080  -9.864 -28.900  1.00  0.00     0.080 A 
HETATM    2  C11 UNL     1       1.223  -8.810 -28.672  1.00  0.00     0.093 A 
HETATM    3  S1  UNL     1       0.217  -9.389 -27.430  1.00  0.00    -0.070 SA
HETATM    4  C15 UNL     1       0.889 -10.934 -27.228  1.00  0.00     0.024 A 
HETATM    5  C16 UNL     1       0.562 -12.000 -26.379  1.00  0.00     0.065 A 
HETATM    6  C17 UNL     1       1.265 -13.177 -26.429  1.00  0.00     0.153 A 
HETATM    7  F1  UNL     1       1.004 -14.242 -25.642  1.00  0.00    -0.203 F 
HETATM    8  C18 UNL     1       2.291 -13.252 -27.344  1.00  0.00     0.144 A 
HETATM    9  C19 UNL     1       2.597 -12.207 -28.162  1.00  0.00     0.165 A 
HETATM   10  F2  UNL     1       3.623 -12.454 -29.045  1.00  0.00    -0.202 F 
HETATM   11  C20 UNL     1       1.907 -10.978 -28.147  1.00  0.00     0.041 A 
ENDROOT
BRANCH   1  12
HETATM   12  C1  UNL     1       3.094  -9.670 -29.968  1.00  0.00     0.255 C 
HETATM   13  O1  UNL     1       2.688  -9.735 -31.150  1.00  0.00    -0.268 OA
HETATM   14  N1  UNL     1       4.459  -9.420 -29.702  1.00  0.00    -0.356 N 
ATOM     15  H1  UNL     1       4.802  -9.358 -28.743  1.00  0.00     0.162 HD
BRANCH  14  16
HETATM   16  C2  UNL     1       5.356  -9.253 -30.822  1.00  0.00     0.127 C 
BRANCH  16  17
HETATM   17  C3  UNL     1       5.786  -7.833 -31.016  1.00  0.00     0.053 C 
BRANCH  17  18
HETATM   18  C4  UNL     1       5.005  -7.218 -32.116  1.00  0.00    -0.082 C 
HETATM   19  C5  UNL     1       3.859  -6.569 -31.919  1.00  0.00    -0.024 C 
HETATM   20  C6  UNL     1       3.217  -6.016 -33.170  1.00  0.00     0.027 C 
HETATM   21  C7  UNL     1       4.294  -5.095 -33.758  1.00  0.00     0.004 C 
HETATM   22  C8  UNL     1       5.432  -5.965 -34.231  1.00  0.00     0.005 C 
HETATM   23  C9  UNL     1       5.464  -7.291 -33.545  1.00  0.00     0.034 C 
ENDBRANCH  17  18
ENDBRANCH  16  17
ENDBRANCH  14  16
ENDBRANCH   1  12
BRANCH   2  24
HETATM   24  N2  UNL     1       1.197  -7.523 -29.309  1.00  0.00    -0.333 N 
ATOM     25  H2  UNL     1       1.745  -7.372 -30.156  1.00  0.00     0.168 HD
BRANCH  24  26
HETATM   26  C12 UNL     1       0.497  -6.563 -28.831  1.00  0.00     0.156 A 
HETATM   27  N3  UNL     1       0.731  -5.697 -27.840  1.00  0.00    -0.283 N 
HETATM   28  N4  UNL     1      -0.322  -4.904 -27.758  1.00  0.00    -0.307 N 
ATOM     29  H3  UNL     1       1.567  -5.656 -27.257  1.00  0.00     0.188 HD
HETATM   30  C13 UNL     1      -1.248  -5.225 -28.672  1.00  0.00     0.147 A 
ATOM     31  H4  UNL     1      -0.417  -4.144 -27.085  1.00  0.00     0.186 HD
HETATM   32  C14 UNL     1      -0.764  -6.282 -29.379  1.00  0.00     0.128 A 
BRANCH  32  33
HETATM   33  O2  UNL     1      -1.373  -6.964 -30.437  1.00  0.00    -0.356 OA
ATOM     34  H2  UNL     1      -2.273  -6.860 -30.725  1.00  0.00     0.218 HD
ENDBRANCH  32  33
ENDBRANCH  24  26
ENDBRANCH   2  24
BRANCH   8  35
HETATM   35  O3  UNL     1       3.048 -14.432 -27.444  1.00  0.00    -0.355 OA
ATOM     36  H3  UNL     1       3.973 -14.416 -27.230  1.00  0.00     0.218 HD
ENDBRANCH   8  35
TORSDOF 8
ENDMDL
MODEL 2
REMARK VINA RESULT: -6.687069411      2.943      7.263
REMARK  8 active torsions:
REMARK  status: ('A' for Active; 'I' for Inactive)
REMARK       I    between atoms: C1_2  and  N1_3 
REMARK    1  A    between atoms: C1_2  and  C10_13 
REMARK    2  A    between atoms: N1_3  and  C2_5 
REMARK    3  A    between atoms: C2_5  and  C3_6 
REMARK    4  A    between atoms: C3_6  and  C4_7 
REMARK    5  A    between atoms: C11_14  and  N2_15 
REMARK    6  A    between atoms: N2_15  and  C12_17 
REMARK    7  A    between atoms: C14_23  and  O2_24 
REMARK    8  A    between atoms: C18_31  and  O3_32 
ROOT
HETATM    1  C10 UNL     1       2.657  -9.648 -29.388  1.00  0.00     0.080 A 
HETATM    2  C11 UNL     1       3.610 -10.583 -29.050  1.00  0.00     0.093 A 
HETATM    3  S1  UNL     1       4.981 -10.070 -29.914  1.00  0.00    -0.070 SA
HETATM    4  C15 UNL     1       4.330  -8.702 -30.678  1.00  0.00     0.024 A 
HETATM    5  C16 UNL     1       4.877  -7.772 -31.573  1.00  0.00     0.065 A 
HETATM    6  C17 UNL     1       4.115  -6.747 -32.071  1.00  0.00     0.153 A 
HETATM    7  F1  UNL     1       4.578  -5.818 -32.934  1.00  0.00    -0.203 F 
HETATM    8  C18 UNL     1       2.805  -6.682 -31.653  1.00  0.00     0.144 A 
HETATM    9  C19 UNL     1       2.288  -7.594 -30.783  1.00  0.00     0.165 A 
HETATM   10  F2  UNL     1       0.954  -7.415 -30.494  1.00  0.00    -0.202 F 
HETATM   11  C20 UNL     1       3.030  -8.663 -30.241  1.00  0.00     0.041 A 
ENDROOT
BRANCH   1  12
HETATM   12  C1  UNL     1       1.309  -9.835 -28.792  1.00  0.00     0.255 C 
HETATM   13  O1  UNL     1       0.598 -10.742 -29.279  1.00  0.00    -0.268 OA
HETATM   14  N1  UNL     1       0.820  -9.050 -27.724  1.00  0.00    -0.356 N 
ATOM     15  H1  UNL     1       1.392  -8.312 -27.313  1.00  0.00     0.162 HD
BRANCH  14  16
HETATM   16  C2  UNL     1      -0.509  -9.319 -27.228  1.00  0.00     0.127 C 
BRANCH  16  17
HETATM   17  C3  UNL     1      -1.159  -8.115 -26.622  1.00  0.00     0.053 C 
BRANCH  17  18
HETATM   18  C4  UNL     1      -1.301  -7.053 -27.647  1.00  0.00    -0.082 C 
HETATM   19  C5  UNL     1      -2.066  -7.185 -28.729  1.00  0.00    -0.024 C 
HETATM   20  C6  UNL     1      -2.076  -5.988 -29.651  1.00  0.00     0.027 C 
HETATM   21  C7  UNL     1      -2.558  -4.839 -28.756  1.00  0.00     0.004 C 
HETATM   22  C8  UNL     1      -1.475  -4.565 -27.742  1.00  0.00     0.005 C 
HETATM   23  C9  UNL     1      -0.579  -5.741 -27.527  1.00  0.00     0.034 C 
ENDBRANCH  17  18
ENDBRANCH  16  17
ENDBRANCH  14  16
ENDBRANCH   1  12
BRANCH   2  24
HETATM   24  N2  UNL     1       3.488 -11.707 -28.164  1.00  0.00    -0.333 N 
ATOM     25  H2  UNL     1       3.898 -11.658 -27.232  1.00  0.00     0.168 HD
BRANCH  24  26
HETATM   26  C12 UNL     1       2.871 -12.770 -28.526  1.00  0.00     0.156 A 
HETATM   27  N3  UNL     1       2.688 -13.329 -29.727  1.00  0.00    -0.283 N 
HETATM   28  N4  UNL     1       1.977 -14.426 -29.542  1.00  0.00    -0.307 N 
ATOM     29  H3  UNL     1       3.035 -12.975 -30.619  1.00  0.00     0.188 HD
HETATM   30  C13 UNL     1       1.684 -14.606 -28.247  1.00  0.00     0.147 A 
ATOM     31  H4  UNL     1       1.688 -15.056 -30.290  1.00  0.00     0.186 HD
HETATM   32  C14 UNL     1       2.237 -13.568 -27.563  1.00  0.00     0.128 A 
BRANCH  32  33
HETATM   33  O2  UNL     1       2.198 -13.324 -26.186  1.00  0.00    -0.356 OA
ATOM     34  H2  UNL     1       2.144 -12.471 -25.770  1.00  0.00     0.218 HD
ENDBRANCH  32  33
ENDBRANCH  24  26
ENDBRANCH   2  24
BRANCH   8  35
HETATM   35  O3  UNL     1       1.973  -5.656 -32.129  1.00  0.00    -0.355 OA
ATOM     36  H3  UNL     1       1.927  -4.832 -31.660  1.00  0.00     0.218 HD
ENDBRANCH   8  35
TORSDOF 8
ENDMDL
MODEL 3
REMARK VINA RESULT: -6.675128748      2.601      6.365
REMARK  8 active torsions:
REMARK  status: ('A' for Active; 'I' for Inactive)
REMARK       I    between atoms: C1_2  and  N1_3 
REMARK    1  A    between atoms: C1_2  and  C10_13 
REMARK    2  A    between atoms: N1_3  and  C2_5 
REMARK    3  A    between atoms: C2_5  and  C3_6 
REMARK    4  A    between atoms: C3_6  and  C4_7 
REMARK    5  A    between atoms: C11_14  and  N2_15 
REMARK    6  A    between atoms: N2_15  and  C12_17 
REMARK    7  A    between atoms: C14_23  and  O2_24 
REMARK    8  A    between atoms: C18_31  and  O3_32 
ROOT
HETATM    1  C10 UNL     1       1.484  -8.002 -30.382  1.00  0.00     0.080 A 
HETATM    2  C11 UNL     1       0.757  -6.994 -30.976  1.00  0.00     0.093 A 
HETATM    3  S1  UNL     1       1.918  -6.174 -31.908  1.00  0.00    -0.070 SA
HETATM    4  C15 UNL     1       3.284  -7.108 -31.531  1.00  0.00     0.024 A 
HETATM    5  C16 UNL     1       4.626  -7.015 -31.923  1.00  0.00     0.065 A 
HETATM    6  C17 UNL     1       5.558  -7.902 -31.448  1.00  0.00     0.153 A 
HETATM    7  F1  UNL     1       6.865  -7.870 -31.785  1.00  0.00    -0.203 F 
HETATM    8  C18 UNL     1       5.111  -8.871 -30.579  1.00  0.00     0.144 A 
HETATM    9  C19 UNL     1       3.802  -8.948 -30.207  1.00  0.00     0.165 A 
HETATM   10  F2  UNL     1       3.523  -9.947 -29.303  1.00  0.00    -0.202 F 
HETATM   11  C20 UNL     1       2.808  -8.063 -30.669  1.00  0.00     0.041 A 
ENDROOT
BRANCH   1  12
HETATM   12  C1  UNL     1       0.737  -8.905 -29.469  1.00  0.00     0.255 C 
HETATM   13  O1  UNL     1       0.022  -9.781 -30.003  1.00  0.00    -0.268 OA
HETATM   14  N1  UNL     1       0.808  -8.811 -28.061  1.00  0.00    -0.356 N 
ATOM     15  H1  UNL     1       1.392  -8.106 -27.612  1.00  0.00     0.162 HD
BRANCH  14  16
HETATM   16  C2  UNL     1       0.033  -9.741 -27.273  1.00  0.00     0.127 C 
BRANCH  16  17
HETATM   17  C3  UNL     1       0.865 -10.509 -26.294  1.00  0.00     0.053 C 
BRANCH  17  18
HETATM   18  C4  UNL     1       1.105 -11.879 -26.809  1.00  0.00    -0.082 C 
HETATM   19  C5  UNL     1       1.871 -12.134 -27.868  1.00  0.00    -0.024 C 
HETATM   20  C6  UNL     1       1.990 -13.595 -28.231  1.00  0.00     0.027 C 
HETATM   21  C7  UNL     1       2.551 -14.245 -26.960  1.00  0.00     0.004 C 
HETATM   22  C8  UNL     1       1.481 -14.172 -25.899  1.00  0.00     0.005 C 
HETATM   23  C9  UNL     1       0.490 -13.085 -26.157  1.00  0.00     0.034 C 
ENDBRANCH  17  18
ENDBRANCH  16  17
ENDBRANCH  14  16
ENDBRANCH   1  12
BRANCH   2  24
HETATM   24  N2  UNL     1      -0.647  -6.714 -30.859  1.00  0.00    -0.333 N 
ATOM     25  H2  UNL     1      -1.320  -7.322 -31.325  1.00  0.00     0.168 HD
BRANCH  24  26
HETATM   26  C12 UNL     1      -1.067  -5.714 -30.177  1.00  0.00     0.156 A 
HETATM   27  N3  UNL     1      -1.010  -4.397 -30.400  1.00  0.00    -0.283 N 
HETATM   28  N4  UNL     1      -1.599  -3.803 -29.379  1.00  0.00    -0.307 N 
ATOM     29  H3  UNL     1      -0.590  -3.938 -31.208  1.00  0.00     0.188 HD
HETATM   30  C13 UNL     1      -2.045  -4.696 -28.485  1.00  0.00     0.147 A 
ATOM     31  H4  UNL     1      -1.703  -2.793 -29.283  1.00  0.00     0.186 HD
HETATM   32  C14 UNL     1      -1.725  -5.931 -28.957  1.00  0.00     0.128 A 
BRANCH  32  33
HETATM   33  O2  UNL     1      -1.985  -7.174 -28.371  1.00  0.00    -0.356 OA
ATOM     34  H2  UNL     1      -1.651  -7.479 -27.536  1.00  0.00     0.218 HD
ENDBRANCH  32  33
ENDBRANCH  24  26
ENDBRANCH   2  24
BRANCH   8  35
HETATM   35  O3  UNL     1       6.017  -9.808 -30.056  1.00  0.00    -0.355 OA
ATOM     36  H3  UNL     1       5.690 -10.589 -29.625  1.00  0.00     0.218 HD
ENDBRANCH   8  35
TORSDOF 8
ENDMDL
MODEL 4
REMARK VINA RESULT: -6.643234207      0.420      1.033
REMARK  8 active torsions:
REMARK  status: ('A' for Active; 'I' for Inactive)
REMARK       I    between atoms: C1_2  and  N1_3 
REMARK    1  A    between atoms: C1_2  and  C10_13 
REMARK    2  A    between atoms: N1_3  and  C2_5 
REMARK    3  A    between atoms: C2_5  and  C3_6 
REMARK    4  A    between atoms: C3_6  and  C4_7 
REMARK    5  A    between atoms: C11_14  and  N2_15 
REMARK    6  A    between atoms: N2_15  and  C12_17 
REMARK    7  A    between atoms: C14_23  and  O2_24 
REMARK    8  A    between atoms: C18_31  and  O3_32 
ROOT
HETATM    1  C10 UNL     1       2.041  -9.875 -28.874  1.00  0.00     0.080 A 
HETATM    2  C11 UNL     1       1.196  -8.819 -28.618  1.00  0.00     0.093 A 
HETATM    3  S1  UNL     1       0.224  -9.398 -27.350  1.00  0.00    -0.070 SA
HETATM    4  C15 UNL     1       0.895 -10.947 -27.172  1.00  0.00     0.024 A 
HETATM    5  C16 UNL     1       0.588 -12.014 -26.318  1.00  0.00     0.065 A 
HETATM    6  C17 UNL     1       1.284 -13.193 -26.392  1.00  0.00     0.153 A 
HETATM    7  F1  UNL     1       1.041 -14.260 -25.600  1.00  0.00    -0.203 F 
HETATM    8  C18 UNL     1       2.284 -13.270 -27.336  1.00  0.00     0.144 A 
HETATM    9  C19 UNL     1       2.570 -12.223 -28.159  1.00  0.00     0.165 A 
HETATM   10  F2  UNL     1       3.569 -12.471 -29.072  1.00  0.00    -0.202 F 
HETATM   11  C20 UNL     1       1.886 -10.991 -28.120  1.00  0.00     0.041 A 
ENDROOT
BRANCH   1  12
HETATM   12  C1  UNL     1       3.025  -9.683 -29.971  1.00  0.00     0.255 C 
HETATM   13  O1  UNL     1       2.599  -9.812 -31.140  1.00  0.00    -0.268 OA
HETATM   14  N1  UNL     1       4.383  -9.363 -29.744  1.00  0.00    -0.356 N 
ATOM     15  H1  UNL     1       4.742  -9.248 -28.796  1.00  0.00     0.162 HD
BRANCH  14  16
HETATM   16  C2  UNL     1       5.249  -9.204 -30.888  1.00  0.00     0.127 C 
BRANCH  16  17
HETATM   17  C3  UNL     1       5.725  -7.797 -31.066  1.00  0.00     0.053 C 
BRANCH  17  18
HETATM   18  C4  UNL     1       4.904  -7.117 -32.097  1.00  0.00    -0.082 C 
HETATM   19  C5  UNL     1       5.241  -7.079 -33.385  1.00  0.00    -0.024 C 
HETATM   20  C6  UNL     1       4.271  -6.337 -34.275  1.00  0.00     0.027 C 
HETATM   21  C7  UNL     1       2.941  -7.070 -34.060  1.00  0.00     0.004 C 
HETATM   22  C8  UNL     1       2.491  -6.797 -32.646  1.00  0.00     0.005 C 
HETATM   23  C9  UNL     1       3.622  -6.416 -31.748  1.00  0.00     0.034 C 
ENDBRANCH  17  18
ENDBRANCH  16  17
ENDBRANCH  14  16
ENDBRANCH   1  12
BRANCH   2  24
HETATM   24  N2  UNL     1       1.157  -7.530 -29.250  1.00  0.00    -0.333 N 
ATOM     25  H2  UNL     1       1.702  -7.370 -30.097  1.00  0.00     0.168 HD
BRANCH  24  26
HETATM   26  C12 UNL     1       0.448  -6.578 -28.767  1.00  0.00     0.156 A 
HETATM   27  N3  UNL     1       0.688  -5.693 -27.795  1.00  0.00    -0.283 N 
HETATM   28  N4  UNL     1      -0.379  -4.922 -27.696  1.00  0.00    -0.307 N 
ATOM     29  H3  UNL     1       1.538  -5.626 -27.234  1.00  0.00     0.188 HD
HETATM   30  C13 UNL     1      -1.321  -5.277 -28.581  1.00  0.00     0.147 A 
ATOM     31  H4  UNL     1      -0.474  -4.155 -27.032  1.00  0.00     0.186 HD
HETATM   32  C14 UNL     1      -0.832  -6.333 -29.286  1.00  0.00     0.128 A 
BRANCH  32  33
HETATM   33  O2  UNL     1      -1.454  -7.043 -30.318  1.00  0.00    -0.356 OA
ATOM     34  H2  UNL     1      -2.390  -7.131 -30.452  1.00  0.00     0.218 HD
ENDBRANCH  32  33
ENDBRANCH  24  26
ENDBRANCH   2  24
BRANCH   8  35
HETATM   35  O3  UNL     1       3.032 -14.452 -27.461  1.00  0.00    -0.355 OA
ATOM     36  H3  UNL     1       3.732 -14.499 -28.102  1.00  0.00     0.218 HD
ENDBRANCH   8  35
TORSDOF 8
ENDMDL
MODEL 5
REMARK VINA RESULT: -6.640268411      1.455      2.113
REMARK  8 active torsions:
REMARK  status: ('A' for Active; 'I' for Inactive)
REMARK       I    between atoms: C1_2  and  N1_3 
REMARK    1  A    between atoms: C1_2  and  C10_13 
REMARK    2  A    between atoms: N1_3  and  C2_5 
REMARK    3  A    between atoms: C2_5  and  C3_6 
REMARK    4  A    between atoms: C3_6  and  C4_7 
REMARK    5  A    between atoms: C11_14  and  N2_15 
REMARK    6  A    between atoms: N2_15  and  C12_17 
REMARK    7  A    between atoms: C14_23  and  O2_24 
REMARK    8  A    between atoms: C18_31  and  O3_32 
ROOT
HETATM    1  C10 UNL     1       2.224  -8.815 -29.912  1.00  0.00     0.080 A 
HETATM    2  C11 UNL     1       1.266  -8.015 -29.331  1.00  0.00     0.093 A 
HETATM    3  S1  UNL     1       0.761  -8.926 -27.988  1.00  0.00    -0.070 SA
HETATM    4  C15 UNL     1       1.757 -10.286 -28.186  1.00  0.00     0.024 A 
HETATM    5  C16 UNL     1       1.886 -11.474 -27.454  1.00  0.00     0.065 A 
HETATM    6  C17 UNL     1       2.770 -12.445 -27.846  1.00  0.00     0.153 A 
HETATM    7  F1  UNL     1       2.945 -13.612 -27.188  1.00  0.00    -0.203 F 
HETATM    8  C18 UNL     1       3.512 -12.195 -28.979  1.00  0.00     0.144 A 
HETATM    9  C19 UNL     1       3.375 -11.034 -29.679  1.00  0.00     0.165 A 
HETATM   10  F2  UNL     1       4.158 -10.952 -30.808  1.00  0.00    -0.202 F 
HETATM   11  C20 UNL     1       2.483 -10.005 -29.316  1.00  0.00     0.041 A 
ENDROOT
BRANCH   1  12
HETATM   12  C1  UNL     1       2.859  -8.292 -31.149  1.00  0.00     0.255 C 
HETATM   13  O1  UNL     1       2.247  -8.487 -32.223  1.00  0.00    -0.268 OA
HETATM   14  N1  UNL     1       4.091  -7.600 -31.152  1.00  0.00    -0.356 N 
ATOM     15  H1  UNL     1       4.597  -7.429 -30.283  1.00  0.00     0.162 HD
BRANCH  14  16
HETATM   16  C2  UNL     1       4.616  -7.142 -32.417  1.00  0.00     0.127 C 
BRANCH  16  17
HETATM   17  C3  UNL     1       4.051  -5.821 -32.837  1.00  0.00     0.053 C 
BRANCH  17  18
HETATM   18  C4  UNL     1       4.771  -5.326 -34.034  1.00  0.00    -0.082 C 
HETATM   19  C5  UNL     1       4.727  -4.057 -34.436  1.00  0.00    -0.024 C 
HETATM   20  C6  UNL     1       5.530  -3.754 -35.679  1.00  0.00     0.027 C 
HETATM   21  C7  UNL     1       6.956  -4.180 -35.307  1.00  0.00     0.004 C 
HETATM   22  C8  UNL     1       6.964  -5.682 -35.170  1.00  0.00     0.005 C 
HETATM   23  C9  UNL     1       5.609  -6.239 -34.884  1.00  0.00     0.034 C 
ENDBRANCH  17  18
ENDBRANCH  16  17
ENDBRANCH  14  16
ENDBRANCH   1  12
BRANCH   2  24
HETATM   24  N2  UNL     1       0.816  -6.715 -29.742  1.00  0.00    -0.333 N 
ATOM     25  H2  UNL     1       0.983  -6.406 -30.700  1.00  0.00     0.168 HD
BRANCH  24  26
HETATM   26  C12 UNL     1       0.207  -5.937 -28.927  1.00  0.00     0.156 A 
HETATM   27  N3  UNL     1       0.638  -5.244 -27.868  1.00  0.00    -0.283 N 
HETATM   28  N4  UNL     1      -0.402  -4.596 -27.376  1.00  0.00    -0.307 N 
ATOM     29  H3  UNL     1       1.592  -5.219 -27.507  1.00  0.00     0.188 HD
HETATM   30  C13 UNL     1      -1.512  -4.844 -28.085  1.00  0.00     0.147 A 
ATOM     31  H4  UNL     1      -0.366  -3.984 -26.561  1.00  0.00     0.186 HD
HETATM   32  C14 UNL     1      -1.166  -5.698 -29.086  1.00  0.00     0.128 A 
BRANCH  32  33
HETATM   33  O2  UNL     1      -1.986  -6.240 -30.081  1.00  0.00    -0.356 OA
ATOM     34  H2  UNL     1      -2.619  -5.763 -30.605  1.00  0.00     0.218 HD
ENDBRANCH  32  33
ENDBRANCH  24  26
ENDBRANCH   2  24
BRANCH   8  35
HETATM   35  O3  UNL     1       4.434 -13.152 -29.432  1.00  0.00    -0.355 OA
ATOM     36  H3  UNL     1       4.699 -13.155 -30.344  1.00  0.00     0.218 HD
ENDBRANCH   8  35
TORSDOF 8
ENDMDL
