MODEL 1
REMARK VINA RESULT: -5.549234557      0.000      0.000
REMARK  3 active torsions:
REMARK  status: ('A' for Active; 'I' for Inactive)
REMARK       I    between atoms: N1_4  and  C4_6 
REMARK    1  A    between atoms: C4_6  and  C5_8 
REMARK    2  A    between atoms: C14_21  and  C15_22 
REMARK       I    between atoms: C15_22  and  N2_24 
REMARK    3  A    between atoms: N2_24  and  C16_26 
ROOT
HETATM    1  C5  UNL     1      -7.514 -45.080  -0.235  1.00  0.00     0.101 C 
HETATM    2  C6  UNL     1      -8.150 -45.821  -1.324  1.00  0.00     0.047 C 
HETATM    3  C7  UNL     1      -8.673 -45.003  -2.465  1.00  0.00    -0.004 C 
HETATM    4  C8  UNL     1      -8.852 -46.105  -3.516  1.00  0.00     0.024 C 
HETATM    5  C9  UNL     1      -7.572 -46.905  -3.328  1.00  0.00     0.100 C 
HETATM    6 BR1  UNL     1      -8.087 -48.777  -3.288  1.00  0.00    -0.088 Br
HETATM    7  C10 UNL     1      -7.019 -46.553  -2.001  1.00  0.00     0.144 C 
HETATM    8  F1  UNL     1      -6.624 -47.643  -1.257  1.00  0.00    -0.239 F 
HETATM    9  C11 UNL     1      -5.975 -45.456  -2.003  1.00  0.00     0.104 C 
HETATM   10 CL1  UNL     1      -4.395 -46.238  -2.264  1.00  0.00    -0.113 Cl
HETATM   11  C12 UNL     1      -6.277 -44.469  -3.074  1.00  0.00     0.110 C 
HETATM   12 CL2  UNL     1      -5.290 -43.001  -2.727  1.00  0.00    -0.123 Cl
HETATM   13  C13 UNL     1      -7.701 -44.046  -3.046  1.00  0.00     0.027 C 
HETATM   14  C14 UNL     1      -6.102 -44.779  -0.667  1.00  0.00     0.119 C 
ENDROOT
BRANCH  14  15
HETATM   15  C15 UNL     1      -5.113 -45.166   0.343  1.00  0.00     0.225 C 
HETATM   16  O2  UNL     1      -3.997 -44.620   0.444  1.00  0.00    -0.273 OA
HETATM   17  N2  UNL     1      -5.392 -46.208   1.272  1.00  0.00    -0.356 N 
ATOM     18  H2  UNL     1      -6.294 -46.682   1.224  1.00  0.00     0.162 HD
BRANCH  17  19
HETATM   19  C16 UNL     1      -4.436 -46.618   2.285  1.00  0.00     0.084 C 
HETATM   20  C17 UNL     1      -4.485 -48.123   2.475  1.00  0.00     0.025 C 
HETATM   21  C18 UNL     1      -3.752 -48.292   3.788  1.00  0.00     0.002 C 
HETATM   22  C19 UNL     1      -4.329 -47.185   4.623  1.00  0.00     0.002 C 
HETATM   23  C20 UNL     1      -4.822 -46.127   3.660  1.00  0.00     0.025 C 
ENDBRANCH  17  19
ENDBRANCH  14  15
BRANCH   1  24
HETATM   24  C4  UNL     1      -8.266 -43.911   0.257  1.00  0.00     0.227 C 
HETATM   25  N1  UNL     1      -9.690 -43.909   0.265  1.00  0.00    -0.335 N 
HETATM   26  C2  UNL     1     -10.375 -42.874  -0.072  1.00  0.00    -0.018 C 
ATOM     27  H1  UNL     1     -10.183 -44.757   0.546  1.00  0.00     0.168 HD
HETATM   28  C1  UNL     1      -9.734 -41.604  -0.494  1.00  0.00     0.062 C 
HETATM   29  C3  UNL     1     -11.851 -42.932  -0.045  1.00  0.00     0.062 C 
HETATM   30  O1  UNL     1      -7.717 -42.872   0.688  1.00  0.00    -0.273 OA
ENDBRANCH   1  24
TORSDOF 3
ENDMDL
MODEL 2
REMARK VINA RESULT: -5.480104157      1.414      1.792
REMARK  3 active torsions:
REMARK  status: ('A' for Active; 'I' for Inactive)
REMARK       I    between atoms: N1_4  and  C4_6 
REMARK    1  A    between atoms: C4_6  and  C5_8 
REMARK    2  A    between atoms: C14_21  and  C15_22 
REMARK       I    between atoms: C15_22  and  N2_24 
REMARK    3  A    between atoms: N2_24  and  C16_26 
ROOT
HETATM    1  C5  UNL     1      -7.179 -45.320   0.119  1.00  0.00     0.101 C 
HETATM    2  C6  UNL     1      -7.929 -45.906  -0.992  1.00  0.00     0.047 C 
HETATM    3  C7  UNL     1      -8.563 -44.940  -1.945  1.00  0.00    -0.004 C 
HETATM    4  C8  UNL     1      -8.856 -45.884  -3.117  1.00  0.00     0.024 C 
HETATM    5  C9  UNL     1      -7.568 -46.691  -3.177  1.00  0.00     0.100 C 
HETATM    6 BR1  UNL     1      -8.088 -48.555  -3.349  1.00  0.00    -0.088 Br
HETATM    7  C10 UNL     1      -6.878 -46.526  -1.879  1.00  0.00     0.144 C 
HETATM    8  F1  UNL     1      -6.416 -47.706  -1.340  1.00  0.00    -0.239 F 
HETATM    9  C11 UNL     1      -5.834 -45.430  -1.834  1.00  0.00     0.104 C 
HETATM   10 CL1  UNL     1      -4.294 -46.154  -2.365  1.00  0.00    -0.113 Cl
HETATM   11  C12 UNL     1      -6.239 -44.304  -2.718  1.00  0.00     0.110 C 
HETATM   12 CL2  UNL     1      -5.212 -42.892  -2.270  1.00  0.00    -0.123 Cl
HETATM   13  C13 UNL     1      -7.650 -43.902  -2.482  1.00  0.00     0.027 C 
HETATM   14  C14 UNL     1      -5.817 -44.949  -0.409  1.00  0.00     0.119 C 
ENDROOT
BRANCH  14  15
HETATM   15  C15 UNL     1      -4.731 -45.466   0.428  1.00  0.00     0.225 C 
HETATM   16  O2  UNL     1      -3.575 -45.002   0.403  1.00  0.00    -0.273 OA
HETATM   17  N2  UNL     1      -4.958 -46.548   1.325  1.00  0.00    -0.356 N 
ATOM     18  H2  UNL     1      -5.889 -46.958   1.377  1.00  0.00     0.162 HD
BRANCH  17  19
HETATM   19  C16 UNL     1      -3.905 -47.086   2.170  1.00  0.00     0.084 C 
HETATM   20  C17 UNL     1      -4.370 -48.368   2.834  1.00  0.00     0.025 C 
HETATM   21  C18 UNL     1      -3.338 -48.540   3.928  1.00  0.00     0.002 C 
HETATM   22  C19 UNL     1      -3.216 -47.146   4.475  1.00  0.00     0.002 C 
HETATM   23  C20 UNL     1      -3.633 -46.206   3.366  1.00  0.00     0.025 C 
ENDBRANCH  17  19
ENDBRANCH  14  15
BRANCH   1  24
HETATM   24  C4  UNL     1      -7.868 -44.239   0.846  1.00  0.00     0.227 C 
HETATM   25  N1  UNL     1      -7.292 -43.659   2.013  1.00  0.00    -0.335 N 
HETATM   26  C2  UNL     1      -7.996 -43.362   3.047  1.00  0.00    -0.018 C 
ATOM     27  H1  UNL     1      -6.289 -43.474   2.028  1.00  0.00     0.168 HD
HETATM   28  C1  UNL     1      -9.459 -43.599   3.105  1.00  0.00     0.062 C 
HETATM   29  C3  UNL     1      -7.342 -42.762   4.230  1.00  0.00     0.062 C 
HETATM   30  O1  UNL     1      -8.976 -43.772   0.496  1.00  0.00    -0.273 OA
ENDBRANCH   1  24
TORSDOF 3
ENDMDL
MODEL 3
REMARK VINA RESULT: -5.346809299      1.182      1.332
REMARK  3 active torsions:
REMARK  status: ('A' for Active; 'I' for Inactive)
REMARK       I    between atoms: N1_4  and  C4_6 
REMARK    1  A    between atoms: C4_6  and  C5_8 
REMARK    2  A    between atoms: C14_21  and  C15_22 
REMARK       I    between atoms: C15_22  and  N2_24 
REMARK    3  A    between atoms: N2_24  and  C16_26 
ROOT
HETATM    1  C5  UNL     1      -8.255 -44.568  -0.473  1.00  0.00     0.101 C 
HETATM    2  C6  UNL     1      -8.654 -45.478  -1.547  1.00  0.00     0.047 C 
HETATM    3  C7  UNL     1      -8.931 -44.850  -2.878  1.00  0.00    -0.004 C 
HETATM    4  C8  UNL     1      -8.890 -46.097  -3.768  1.00  0.00     0.024 C 
HETATM    5  C9  UNL     1      -7.676 -46.823  -3.207  1.00  0.00     0.100 C 
HETATM    6 BR1  UNL     1      -8.190 -48.684  -2.997  1.00  0.00    -0.088 Br
HETATM    7  C10 UNL     1      -7.408 -46.267  -1.863  1.00  0.00     0.144 C 
HETATM    8  F1  UNL     1      -7.176 -47.225  -0.901  1.00  0.00    -0.239 F 
HETATM    9  C11 UNL     1      -6.386 -45.150  -1.815  1.00  0.00     0.104 C 
HETATM   10 CL1  UNL     1      -4.786 -45.915  -1.630  1.00  0.00    -0.113 Cl
HETATM   11  C12 UNL     1      -6.460 -44.338  -3.059  1.00  0.00     0.110 C 
HETATM   12 CL2  UNL     1      -5.564 -42.807  -2.738  1.00  0.00    -0.123 Cl
HETATM   13  C13 UNL     1      -7.859 -43.958  -3.383  1.00  0.00     0.027 C 
HETATM   14  C14 UNL     1      -6.784 -44.291  -0.647  1.00  0.00     0.119 C 
ENDROOT
BRANCH  14  15
HETATM   15  C15 UNL     1      -6.024 -44.497   0.589  1.00  0.00     0.225 C 
HETATM   16  O2  UNL     1      -4.805 -44.256   0.685  1.00  0.00    -0.273 OA
HETATM   17  N2  UNL     1      -6.663 -44.998   1.759  1.00  0.00    -0.356 N 
ATOM     18  H2  UNL     1      -7.659 -45.211   1.724  1.00  0.00     0.162 HD
BRANCH  17  19
HETATM   19  C16 UNL     1      -5.942 -45.216   3.001  1.00  0.00     0.084 C 
HETATM   20  C17 UNL     1      -5.682 -46.697   3.204  1.00  0.00     0.025 C 
HETATM   21  C18 UNL     1      -5.306 -46.746   4.669  1.00  0.00     0.002 C 
HETATM   22  C19 UNL     1      -6.329 -45.840   5.293  1.00  0.00     0.002 C 
HETATM   23  C20 UNL     1      -6.783 -44.887   4.210  1.00  0.00     0.025 C 
ENDBRANCH  17  19
ENDBRANCH  14  15
BRANCH   1  24
HETATM   24  C4  UNL     1      -9.091 -43.364  -0.323  1.00  0.00     0.227 C 
HETATM   25  N1  UNL     1     -10.412 -43.320  -0.853  1.00  0.00    -0.335 N 
HETATM   26  C2  UNL     1     -10.879 -42.276  -1.442  1.00  0.00    -0.018 C 
ATOM     27  H1  UNL     1     -11.008 -44.144  -0.764  1.00  0.00     0.168 HD
HETATM   28  C1  UNL     1     -10.078 -41.039  -1.613  1.00  0.00     0.062 C 
HETATM   29  C3  UNL     1     -12.258 -42.291  -1.974  1.00  0.00     0.062 C 
HETATM   30  O1  UNL     1      -8.706 -42.328   0.266  1.00  0.00    -0.273 OA
ENDBRANCH   1  24
TORSDOF 3
ENDMDL
MODEL 4
REMARK VINA RESULT: -4.653130914      9.858     12.951
REMARK  3 active torsions:
REMARK  status: ('A' for Active; 'I' for Inactive)
REMARK       I    between atoms: N1_4  and  C4_6 
REMARK    1  A    between atoms: C4_6  and  C5_8 
REMARK    2  A    between atoms: C14_21  and  C15_22 
REMARK       I    between atoms: C15_22  and  N2_24 
REMARK    3  A    between atoms: N2_24  and  C16_26 
ROOT
HETATM    1  C5  UNL     1      -0.372 -51.227   8.298  1.00  0.00     0.101 C 
HETATM    2  C6  UNL     1       0.609 -51.959   7.497  1.00  0.00     0.047 C 
HETATM    3  C7  UNL     1       0.477 -53.452   7.492  1.00  0.00    -0.004 C 
HETATM    4  C8  UNL     1       1.351 -53.786   6.277  1.00  0.00     0.024 C 
HETATM    5  C9  UNL     1       0.912 -52.713   5.292  1.00  0.00     0.100 C 
HETATM    6 BR1  UNL     1       2.532 -51.976   4.514  1.00  0.00    -0.088 Br
HETATM    7  C10 UNL     1       0.248 -51.642   6.067  1.00  0.00     0.144 C 
HETATM    8  F1  UNL     1       0.660 -50.372   5.727  1.00  0.00    -0.239 F 
HETATM    9  C11 UNL     1      -1.260 -51.748   6.160  1.00  0.00     0.104 C 
HETATM   10 CL1  UNL     1      -1.931 -50.901   4.742  1.00  0.00    -0.113 Cl
HETATM   11  C12 UNL     1      -1.670 -53.177   6.183  1.00  0.00     0.110 C 
HETATM   12 CL2  UNL     1      -3.384 -53.221   6.741  1.00  0.00    -0.123 Cl
HETATM   13  C13 UNL     1      -0.877 -53.959   7.167  1.00  0.00     0.027 C 
HETATM   14  C14 UNL     1      -1.628 -51.114   7.472  1.00  0.00     0.119 C 
ENDROOT
BRANCH  14  15
HETATM   15  C15 UNL     1      -2.129 -49.739   7.401  1.00  0.00     0.225 C 
HETATM   16  O2  UNL     1      -2.124 -49.068   6.351  1.00  0.00    -0.273 OA
HETATM   17  N2  UNL     1      -2.654 -49.096   8.558  1.00  0.00    -0.356 N 
ATOM     18  H2  UNL     1      -2.675 -49.608   9.440  1.00  0.00     0.162 HD
BRANCH  17  19
HETATM   19  C16 UNL     1      -3.159 -47.734   8.525  1.00  0.00     0.084 C 
HETATM   20  C17 UNL     1      -3.308 -47.195   9.936  1.00  0.00     0.025 C 
HETATM   21  C18 UNL     1      -4.186 -45.982   9.711  1.00  0.00     0.002 C 
HETATM   22  C19 UNL     1      -5.216 -46.506   8.751  1.00  0.00     0.002 C 
HETATM   23  C20 UNL     1      -4.581 -47.669   8.023  1.00  0.00     0.025 C 
ENDBRANCH  17  19
ENDBRANCH  14  15
BRANCH   1  24
HETATM   24  C4  UNL     1      -0.582 -51.741   9.663  1.00  0.00     0.227 C 
HETATM   25  N1  UNL     1       0.489 -51.780  10.602  1.00  0.00    -0.335 N 
HETATM   26  C2  UNL     1       0.666 -52.776  11.396  1.00  0.00    -0.018 C 
ATOM     27  H1  UNL     1       1.136 -50.993  10.646  1.00  0.00     0.168 HD
HETATM   28  C1  UNL     1      -0.230 -53.959  11.395  1.00  0.00     0.062 C 
HETATM   29  C3  UNL     1       1.795 -52.761  12.349  1.00  0.00     0.062 C 
HETATM   30  O1  UNL     1      -1.685 -52.165  10.077  1.00  0.00    -0.273 OA
ENDBRANCH   1  24
TORSDOF 3
ENDMDL
MODEL 5
REMARK VINA RESULT: -4.442537381      4.246      6.544
REMARK  3 active torsions:
REMARK  status: ('A' for Active; 'I' for Inactive)
REMARK       I    between atoms: N1_4  and  C4_6 
REMARK    1  A    between atoms: C4_6  and  C5_8 
REMARK    2  A    between atoms: C14_21  and  C15_22 
REMARK       I    between atoms: C15_22  and  N2_24 
REMARK    3  A    between atoms: N2_24  and  C16_26 
ROOT
HETATM    1  C5  UNL     1      -3.533 -45.420   2.742  1.00  0.00     0.101 C 
HETATM    2  C6  UNL     1      -4.450 -45.177   1.627  1.00  0.00     0.047 C 
HETATM    3  C7  UNL     1      -4.319 -46.096   0.451  1.00  0.00    -0.004 C 
HETATM    4  C8  UNL     1      -5.650 -45.807  -0.254  1.00  0.00     0.024 C 
HETATM    5  C9  UNL     1      -6.610 -45.778   0.925  1.00  0.00     0.100 C 
HETATM    6 BR1  UNL     1      -7.733 -44.210   0.688  1.00  0.00    -0.088 Br
HETATM    7  C10 UNL     1      -5.805 -45.583   2.150  1.00  0.00     0.144 C 
HETATM    8  F1  UNL     1      -6.310 -44.625   3.001  1.00  0.00    -0.239 F 
HETATM    9  C11 UNL     1      -5.421 -46.852   2.883  1.00  0.00     0.104 C 
HETATM   10 CL1  UNL     1      -6.745 -47.220   4.018  1.00  0.00    -0.113 Cl
HETATM   11  C12 UNL     1      -5.215 -47.958   1.910  1.00  0.00     0.110 C 
HETATM   12 CL2  UNL     1      -4.341 -49.270   2.787  1.00  0.00    -0.123 Cl
HETATM   13  C13 UNL     1      -4.344 -47.541   0.781  1.00  0.00     0.027 C 
HETATM   14  C14 UNL     1      -4.113 -46.547   3.558  1.00  0.00     0.119 C 
ENDROOT
BRANCH  14  15
HETATM   15  C15 UNL     1      -4.189 -46.222   4.985  1.00  0.00     0.225 C 
HETATM   16  O2  UNL     1      -3.511 -46.809   5.851  1.00  0.00    -0.273 OA
HETATM   17  N2  UNL     1      -5.064 -45.202   5.453  1.00  0.00    -0.356 N 
ATOM     18  H2  UNL     1      -5.639 -44.698   4.778  1.00  0.00     0.162 HD
BRANCH  17  19
HETATM   19  C16 UNL     1      -5.166 -44.854   6.859  1.00  0.00     0.084 C 
HETATM   20  C17 UNL     1      -5.922 -45.933   7.613  1.00  0.00     0.025 C 
HETATM   21  C18 UNL     1      -6.259 -45.225   8.908  1.00  0.00     0.002 C 
HETATM   22  C19 UNL     1      -6.707 -43.875   8.428  1.00  0.00     0.002 C 
HETATM   23  C20 UNL     1      -6.051 -43.652   7.083  1.00  0.00     0.025 C 
ENDBRANCH  17  19
ENDBRANCH  14  15
BRANCH   1  24
HETATM   24  C4  UNL     1      -2.119 -45.599   2.368  1.00  0.00     0.227 C 
HETATM   25  N1  UNL     1      -1.407 -44.570   1.687  1.00  0.00    -0.335 N 
HETATM   26  C2  UNL     1      -0.590 -44.825   0.726  1.00  0.00    -0.018 C 
ATOM     27  H1  UNL     1      -1.549 -43.601   1.970  1.00  0.00     0.168 HD
HETATM   28  C1  UNL     1      -0.328 -46.206   0.255  1.00  0.00     0.062 C 
HETATM   29  C3  UNL     1       0.120 -43.716   0.057  1.00  0.00     0.062 C 
HETATM   30  O1  UNL     1      -1.468 -46.639   2.618  1.00  0.00    -0.273 OA
ENDBRANCH   1  24
TORSDOF 3
ENDMDL
