MODEL 1
REMARK VINA RESULT: -6.136356659      0.000      0.000
REMARK  3 active torsions:
REMARK  status: ('A' for Active; 'I' for Inactive)
REMARK    1  A    between atoms: C3_3  and  C4_4 
REMARK    2  A    between atoms: C4_4  and  N1_5 
REMARK    3  A    between atoms: N1_5  and  C5_7 
ROOT
HETATM    1  C5  UNL     1      -7.623 -27.223  30.188  1.00  0.00     0.084 C 
HETATM    2  C6  UNL     1      -8.420 -27.358  31.420  1.00  0.00     0.009 C 
HETATM    3  C7  UNL     1      -7.916 -26.362  32.461  1.00  0.00     0.011 C 
HETATM    4  C8  UNL     1      -6.450 -26.520  32.680  1.00  0.00    -0.013 C 
HETATM    5  C9  UNL     1      -6.232 -27.908  33.304  1.00  0.00     0.009 C 
HETATM    6  C10 UNL     1      -6.738 -28.951  32.364  1.00  0.00    -0.013 C 
HETATM    7  C11 UNL     1      -8.199 -28.723  32.050  1.00  0.00     0.011 C 
HETATM    8  C12 UNL     1      -6.017 -28.905  31.024  1.00  0.00     0.011 C 
HETATM    9  C13 UNL     1      -6.131 -27.536  30.489  1.00  0.00     0.009 C 
HETATM   10  C14 UNL     1      -5.602 -26.515  31.436  1.00  0.00     0.011 C 
ENDROOT
BRANCH   1  11
HETATM   11  N1  UNL     1      -7.580 -26.017  29.489  1.00  0.00    -0.416 N 
ATOM     12  H1  UNL     1      -6.696 -25.536  29.321  1.00  0.00     0.153 HD
BRANCH  11  13
HETATM   13  C4  UNL     1      -8.799 -25.488  29.024  1.00  0.00     0.120 C 
BRANCH  13  14
HETATM   14  C3  UNL     1      -9.056 -24.112  29.655  1.00  0.00     0.030 C 
HETATM   15  C2  UNL     1      -9.657 -23.125  28.725  1.00  0.00     0.035 C 
HETATM   16  C1  UNL     1      -8.767 -21.916  28.972  1.00  0.00     0.232 C 
HETATM   17  N2  UNL     1      -7.463 -22.604  28.988  1.00  0.00    -0.075 N 
HETATM   18  C15 UNL     1      -7.709 -23.569  30.072  1.00  0.00     0.238 C 
ATOM     19  H22 UNL     1      -7.155 -22.999  28.100  1.00  0.00     0.277 HD
ATOM     20  H21 UNL     1      -6.643 -22.007  29.098  1.00  0.00     0.277 HD
ENDBRANCH  13  14
ENDBRANCH  11  13
ENDBRANCH   1  11
TORSDOF 3
ENDMDL
MODEL 2
REMARK VINA RESULT: -6.131599161      1.356      2.023
REMARK  3 active torsions:
REMARK  status: ('A' for Active; 'I' for Inactive)
REMARK    1  A    between atoms: C3_3  and  C4_4 
REMARK    2  A    between atoms: C4_4  and  N1_5 
REMARK    3  A    between atoms: N1_5  and  C5_7 
ROOT
HETATM    1  C5  UNL     1      -7.370 -25.583  29.583  1.00  0.00     0.084 C 
HETATM    2  C6  UNL     1      -8.730 -26.135  29.703  1.00  0.00     0.009 C 
HETATM    3  C7  UNL     1      -9.272 -25.846  31.101  1.00  0.00     0.011 C 
HETATM    4  C8  UNL     1      -8.333 -26.342  32.146  1.00  0.00    -0.013 C 
HETATM    5  C9  UNL     1      -8.297 -27.876  32.031  1.00  0.00     0.009 C 
HETATM    6  C10 UNL     1      -7.813 -28.251  30.670  1.00  0.00    -0.013 C 
HETATM    7  C11 UNL     1      -8.701 -27.651  29.604  1.00  0.00     0.011 C 
HETATM    8  C12 UNL     1      -6.416 -27.712  30.395  1.00  0.00     0.011 C 
HETATM    9  C13 UNL     1      -6.434 -26.257  30.624  1.00  0.00     0.009 C 
HETATM   10  C14 UNL     1      -6.901 -25.907  31.994  1.00  0.00     0.011 C 
ENDROOT
BRANCH   1  11
HETATM   11  N1  UNL     1      -7.131 -24.218  29.748  1.00  0.00    -0.416 N 
ATOM     12  H1  UNL     1      -6.651 -23.863  30.576  1.00  0.00     0.153 HD
BRANCH  11  13
HETATM   13  C4  UNL     1      -7.575 -23.350  28.733  1.00  0.00     0.120 C 
BRANCH  13  14
HETATM   14  C3  UNL     1      -8.675 -22.423  29.269  1.00  0.00     0.030 C 
HETATM   15  C2  UNL     1      -9.779 -22.178  28.309  1.00  0.00     0.035 C 
HETATM   16  C1  UNL     1      -9.907 -20.665  28.396  1.00  0.00     0.232 C 
HETATM   17  N2  UNL     1      -8.474 -20.322  28.373  1.00  0.00    -0.075 N 
HETATM   18  C15 UNL     1      -8.020 -21.090  29.545  1.00  0.00     0.238 C 
ATOM     19  H22 UNL     1      -7.982 -20.510  27.499  1.00  0.00     0.277 HD
ATOM     20  H21 UNL     1      -8.251 -19.327  28.377  1.00  0.00     0.277 HD
ENDBRANCH  13  14
ENDBRANCH  11  13
ENDBRANCH   1  11
TORSDOF 3
ENDMDL
MODEL 3
REMARK VINA RESULT: -6.121094528      2.079      6.144
REMARK  3 active torsions:
REMARK  status: ('A' for Active; 'I' for Inactive)
REMARK    1  A    between atoms: C3_3  and  C4_4 
REMARK    2  A    between atoms: C4_4  and  N1_5 
REMARK    3  A    between atoms: N1_5  and  C5_7 
ROOT
HETATM    1  C5  UNL     1      -9.494 -23.117  28.610  1.00  0.00     0.084 C 
HETATM    2  C6  UNL     1     -10.485 -24.194  28.777  1.00  0.00     0.009 C 
HETATM    3  C7  UNL     1     -10.168 -25.330  27.807  1.00  0.00     0.011 C 
HETATM    4  C8  UNL     1     -10.071 -24.820  26.409  1.00  0.00    -0.013 C 
HETATM    5  C9  UNL     1     -11.470 -24.322  26.011  1.00  0.00     0.009 C 
HETATM    6  C10 UNL     1     -11.882 -23.229  26.940  1.00  0.00    -0.013 C 
HETATM    7  C11 UNL     1     -11.868 -23.713  28.372  1.00  0.00     0.011 C 
HETATM    8  C12 UNL     1     -10.917 -22.052  26.894  1.00  0.00     0.011 C 
HETATM    9  C13 UNL     1      -9.561 -22.561  27.161  1.00  0.00     0.009 C 
HETATM   10  C14 UNL     1      -9.164 -23.636  26.210  1.00  0.00     0.011 C 
ENDROOT
BRANCH   1  11
HETATM   11  N1  UNL     1      -8.135 -23.352  28.819  1.00  0.00    -0.416 N 
ATOM     12  H1  UNL     1      -7.466 -23.299  28.051  1.00  0.00     0.153 HD
BRANCH  11  13
HETATM   13  C4  UNL     1      -7.721 -23.666  30.128  1.00  0.00     0.120 C 
BRANCH  13  14
HETATM   14  C3  UNL     1      -6.995 -25.019  30.146  1.00  0.00     0.030 C 
HETATM   15  C2  UNL     1      -7.850 -26.156  30.564  1.00  0.00     0.035 C 
HETATM   16  C1  UNL     1      -6.950 -26.834  31.585  1.00  0.00     0.232 C 
HETATM   17  N2  UNL     1      -6.478 -25.632  32.294  1.00  0.00    -0.075 N 
HETATM   18  C15 UNL     1      -5.884 -24.899  31.163  1.00  0.00     0.238 C 
ATOM     19  H22 UNL     1      -7.179 -25.126  32.835  1.00  0.00     0.277 HD
ATOM     20  H21 UNL     1      -5.864 -25.794  33.093  1.00  0.00     0.277 HD
ENDBRANCH  13  14
ENDBRANCH  11  13
ENDBRANCH   1  11
TORSDOF 3
ENDMDL
MODEL 4
REMARK VINA RESULT: -6.054817598      1.714      2.906
REMARK  3 active torsions:
REMARK  status: ('A' for Active; 'I' for Inactive)
REMARK    1  A    between atoms: C3_3  and  C4_4 
REMARK    2  A    between atoms: C4_4  and  N1_5 
REMARK    3  A    between atoms: N1_5  and  C5_7 
ROOT
HETATM    1  C5  UNL     1      -8.963 -25.179  29.868  1.00  0.00     0.084 C 
HETATM    2  C6  UNL     1      -8.027 -25.505  30.958  1.00  0.00     0.009 C 
HETATM    3  C7  UNL     1      -7.146 -26.679  30.536  1.00  0.00     0.011 C 
HETATM    4  C8  UNL     1      -7.979 -27.836  30.100  1.00  0.00    -0.013 C 
HETATM    5  C9  UNL     1      -8.752 -28.328  31.335  1.00  0.00     0.009 C 
HETATM    6  C10 UNL     1      -9.616 -27.222  31.843  1.00  0.00    -0.013 C 
HETATM    7  C11 UNL     1      -8.783 -26.005  32.177  1.00  0.00     0.011 C 
HETATM    8  C12 UNL     1     -10.620 -26.759  30.797  1.00  0.00     0.011 C 
HETATM    9  C13 UNL     1      -9.877 -26.401  29.576  1.00  0.00     0.009 C 
HETATM   10  C14 UNL     1      -9.038 -27.526  29.076  1.00  0.00     0.011 C 
ENDROOT
BRANCH   1  11
HETATM   11  N1  UNL     1      -8.496 -24.799  28.609  1.00  0.00    -0.416 N 
ATOM     12  H1  UNL     1      -8.545 -25.436  27.814  1.00  0.00     0.153 HD
BRANCH  11  13
HETATM   13  C4  UNL     1      -7.955 -23.506  28.477  1.00  0.00     0.120 C 
BRANCH  13  14
HETATM   14  C3  UNL     1      -8.951 -22.458  28.993  1.00  0.00     0.030 C 
HETATM   15  C2  UNL     1      -9.801 -21.861  27.935  1.00  0.00     0.035 C 
HETATM   16  C1  UNL     1      -9.670 -20.381  28.260  1.00  0.00     0.232 C 
HETATM   17  N2  UNL     1      -8.219 -20.339  28.511  1.00  0.00    -0.075 N 
HETATM   18  C15 UNL     1      -8.129 -21.338  29.589  1.00  0.00     0.238 C 
ATOM     19  H22 UNL     1      -7.619 -20.499  27.702  1.00  0.00     0.277 HD
ATOM     20  H21 UNL     1      -7.827 -19.420  28.719  1.00  0.00     0.277 HD
ENDBRANCH  13  14
ENDBRANCH  11  13
ENDBRANCH   1  11
TORSDOF 3
ENDMDL
MODEL 5
REMARK VINA RESULT: -6.041179818      1.997      6.059
REMARK  3 active torsions:
REMARK  status: ('A' for Active; 'I' for Inactive)
REMARK    1  A    between atoms: C3_3  and  C4_4 
REMARK    2  A    between atoms: C4_4  and  N1_5 
REMARK    3  A    between atoms: N1_5  and  C5_7 
ROOT
HETATM    1  C5  UNL     1      -8.838 -23.567  28.109  1.00  0.00     0.084 C 
HETATM    2  C6  UNL     1      -9.614 -22.333  27.896  1.00  0.00     0.009 C 
HETATM    3  C7  UNL     1     -10.875 -22.372  28.755  1.00  0.00     0.011 C 
HETATM    4  C8  UNL     1     -11.653 -23.617  28.498  1.00  0.00    -0.013 C 
HETATM    5  C9  UNL     1     -12.151 -23.547  27.044  1.00  0.00     0.009 C 
HETATM    6  C10 UNL     1     -10.976 -23.464  26.129  1.00  0.00    -0.013 C 
HETATM    7  C11 UNL     1     -10.121 -22.263  26.465  1.00  0.00     0.011 C 
HETATM    8  C12 UNL     1     -10.061 -24.673  26.269  1.00  0.00     0.011 C 
HETATM    9  C13 UNL     1      -9.684 -24.800  27.687  1.00  0.00     0.009 C 
HETATM   10  C14 UNL     1     -10.873 -24.901  28.579  1.00  0.00     0.011 C 
ENDROOT
BRANCH   1  11
HETATM   11  N1  UNL     1      -8.358 -23.905  29.374  1.00  0.00    -0.416 N 
ATOM     12  H1  UNL     1      -8.862 -23.637  30.219  1.00  0.00     0.153 HD
BRANCH  11  13
HETATM   13  C4  UNL     1      -7.152 -24.629  29.443  1.00  0.00     0.120 C 
BRANCH  13  14
HETATM   14  C3  UNL     1      -7.350 -25.915  30.259  1.00  0.00     0.030 C 
HETATM   15  C2  UNL     1      -8.526 -25.882  31.161  1.00  0.00     0.035 C 
HETATM   16  C1  UNL     1      -7.911 -26.392  32.456  1.00  0.00     0.232 C 
HETATM   17  N2  UNL     1      -6.659 -25.615  32.424  1.00  0.00    -0.075 N 
HETATM   18  C15 UNL     1      -6.124 -26.066  31.129  1.00  0.00     0.238 C 
ATOM     19  H22 UNL     1      -6.756 -24.606  32.541  1.00  0.00     0.277 HD
ATOM     20  H21 UNL     1      -6.041 -25.728  33.228  1.00  0.00     0.277 HD
ENDBRANCH  13  14
ENDBRANCH  11  13
ENDBRANCH   1  11
TORSDOF 3
ENDMDL
