MODEL 1
REMARK VINA RESULT: -6.376590182      0.000      0.000
REMARK  2 active torsions:
REMARK  status: ('A' for Active; 'I' for Inactive)
REMARK    1  A    between atoms: N2_15  and  C11_16 
REMARK    2  A    between atoms: C11_16  and  C12_17 
ROOT
HETATM    1  C1  UNL     1      -0.972   0.494  82.836  1.00  0.00     0.043 C 
HETATM    2  C2  UNL     1      -0.943   1.857  83.486  1.00  0.00     0.221 C 
HETATM    3  C3  UNL     1      -0.803   2.846  82.341  1.00  0.00     0.073 C 
HETATM    4  C4  UNL     1      -0.800   4.266  82.802  1.00  0.00     0.066 C 
HETATM    5  C5  UNL     1       0.468   5.000  82.430  1.00  0.00     0.065 C 
HETATM    6  C6  UNL     1       0.122   6.466  82.275  1.00  0.00     0.235 C 
HETATM    7  N1  UNL     1      -0.076   6.785  80.868  1.00  0.00    -0.073 N 
ATOM      8  H11 UNL     1       0.592   6.314  80.257  1.00  0.00     0.277 HD
ATOM      9  H12 UNL     1       0.185   7.744  80.639  1.00  0.00     0.277 HD
HETATM   10  C7  UNL     1      -1.458   6.481  80.535  1.00  0.00     0.258 C 
HETATM   11  C8  UNL     1      -1.700   5.022  80.856  1.00  0.00     0.196 C 
HETATM   12  O1  UNL     1      -1.911   4.930  82.241  1.00  0.00    -0.378 OA
HETATM   13  C9  UNL     1      -0.933   4.290  84.289  1.00  0.00     0.068 C 
HETATM   14  C10 UNL     1      -2.049   3.439  84.820  1.00  0.00     0.276 C 
HETATM   15  N2  UNL     1      -2.087   2.116  84.299  1.00  0.00     0.093 N 
ENDROOT
BRANCH  15  16
HETATM   16  C11 UNL     1      -2.163   1.161  85.354  1.00  0.00     0.277 C 
BRANCH  16  17
HETATM   17  C12 UNL     1      -3.317   1.430  86.307  1.00  0.00     0.014 A 
HETATM   18  C13 UNL     1      -3.013   1.054  87.771  1.00  0.00     0.007 A 
HETATM   19  C14 UNL     1      -4.051   0.330  86.935  1.00  0.00     0.007 A 
ENDBRANCH  16  17
ENDBRANCH  15  16
TORSDOF 2
ENDMDL
MODEL 2
REMARK VINA RESULT: -6.361739934      1.749      2.827
REMARK  2 active torsions:
REMARK  status: ('A' for Active; 'I' for Inactive)
REMARK    1  A    between atoms: N2_15  and  C11_16 
REMARK    2  A    between atoms: C11_16  and  C12_17 
ROOT
HETATM    1  C1  UNL     1      -2.721   4.465  85.163  1.00  0.00     0.043 C 
HETATM    2  C2  UNL     1      -2.081   3.505  84.188  1.00  0.00     0.221 C 
HETATM    3  C3  UNL     1      -0.889   4.252  83.611  1.00  0.00     0.073 C 
HETATM    4  C4  UNL     1      -0.104   3.427  82.646  1.00  0.00     0.066 C 
HETATM    5  C5  UNL     1      -0.041   4.041  81.266  1.00  0.00     0.065 C 
HETATM    6  C6  UNL     1       1.253   3.592  80.622  1.00  0.00     0.235 C 
HETATM    7  N1  UNL     1       2.265   4.630  80.762  1.00  0.00    -0.073 N 
ATOM      8  H11 UNL     1       1.889   5.570  80.635  1.00  0.00     0.277 HD
ATOM      9  H12 UNL     1       2.928   4.644  79.987  1.00  0.00     0.277 HD
HETATM   10  C7  UNL     1       2.910   4.449  82.052  1.00  0.00     0.258 C 
HETATM   11  C8  UNL     1       1.837   4.513  83.117  1.00  0.00     0.196 C 
HETATM   12  O1  UNL     1       1.205   3.261  83.148  1.00  0.00    -0.378 OA
HETATM   13  C9  UNL     1      -0.743   2.083  82.530  1.00  0.00     0.068 C 
HETATM   14  C10 UNL     1      -1.042   1.429  83.847  1.00  0.00     0.276 C 
HETATM   15  N2  UNL     1      -1.712   2.262  84.785  1.00  0.00     0.093 N 
ENDROOT
BRANCH  15  16
HETATM   16  C11 UNL     1      -2.867   1.609  85.305  1.00  0.00     0.277 C 
BRANCH  16  17
HETATM   17  C12 UNL     1      -2.571   0.802  86.559  1.00  0.00     0.014 A 
HETATM   18  C13 UNL     1      -3.811   0.110  87.160  1.00  0.00     0.007 A 
HETATM   19  C14 UNL     1      -3.070   1.229  87.868  1.00  0.00     0.007 A 
ENDBRANCH  16  17
ENDBRANCH  15  16
TORSDOF 2
ENDMDL
MODEL 3
REMARK VINA RESULT: -6.339946486      1.784      6.066
REMARK  2 active torsions:
REMARK  status: ('A' for Active; 'I' for Inactive)
REMARK    1  A    between atoms: N2_15  and  C11_16 
REMARK    2  A    between atoms: C11_16  and  C12_17 
ROOT
HETATM    1  C1  UNL     1      -0.049   5.272  84.303  1.00  0.00     0.043 C 
HETATM    2  C2  UNL     1      -0.316   3.849  83.873  1.00  0.00     0.221 C 
HETATM    3  C3  UNL     1      -0.993   3.189  85.063  1.00  0.00     0.073 C 
HETATM    4  C4  UNL     1      -1.371   1.769  84.797  1.00  0.00     0.066 C 
HETATM    5  C5  UNL     1      -0.712   0.799  85.751  1.00  0.00     0.065 C 
HETATM    6  C6  UNL     1      -1.627  -0.399  85.893  1.00  0.00     0.235 C 
HETATM    7  N1  UNL     1      -2.427  -0.274  87.104  1.00  0.00    -0.073 N 
ATOM      8  H11 UNL     1      -1.898   0.106  87.890  1.00  0.00     0.277 HD
ATOM      9  H12 UNL     1      -2.658  -1.176  87.520  1.00  0.00     0.277 HD
HETATM   10  C7  UNL     1      -3.603   0.516  86.779  1.00  0.00     0.258 C 
HETATM   11  C8  UNL     1      -3.130   1.847  86.236  1.00  0.00     0.196 C 
HETATM   12  O1  UNL     1      -2.774   1.646  84.893  1.00  0.00    -0.378 OA
HETATM   13  C9  UNL     1      -0.957   1.413  83.408  1.00  0.00     0.068 C 
HETATM   14  C10 UNL     1      -1.385   2.403  82.365  1.00  0.00     0.276 C 
HETATM   15  N2  UNL     1      -1.095   3.759  82.680  1.00  0.00     0.093 N 
ENDROOT
BRANCH  15  16
HETATM   16  C11 UNL     1      -0.410   4.392  81.602  1.00  0.00     0.277 C 
BRANCH  16  17
HETATM   17  C12 UNL     1      -1.323   5.270  80.761  1.00  0.00     0.014 A 
HETATM   18  C13 UNL     1      -1.054   6.780  80.922  1.00  0.00     0.007 A 
HETATM   19  C14 UNL     1      -2.339   6.120  81.384  1.00  0.00     0.007 A 
ENDBRANCH  16  17
ENDBRANCH  15  16
TORSDOF 2
ENDMDL
MODEL 4
REMARK VINA RESULT: -6.205234659      2.103      5.901
REMARK  2 active torsions:
REMARK  status: ('A' for Active; 'I' for Inactive)
REMARK    1  A    between atoms: N2_15  and  C11_16 
REMARK    2  A    between atoms: C11_16  and  C12_17 
ROOT
HETATM    1  C1  UNL     1      -1.931   5.517  82.277  1.00  0.00     0.043 C 
HETATM    2  C2  UNL     1      -0.992   4.840  83.248  1.00  0.00     0.221 C 
HETATM    3  C3  UNL     1      -1.503   3.415  83.375  1.00  0.00     0.073 C 
HETATM    4  C4  UNL     1      -0.657   2.578  84.278  1.00  0.00     0.066 C 
HETATM    5  C5  UNL     1      -1.427   2.026  85.456  1.00  0.00     0.065 C 
HETATM    6  C6  UNL     1      -0.774   0.721  85.861  1.00  0.00     0.235 C 
HETATM    7  N1  UNL     1      -1.506  -0.400  85.288  1.00  0.00    -0.073 N 
ATOM      8  H11 UNL     1      -2.517  -0.265  85.310  1.00  0.00     0.277 HD
ATOM      9  H12 UNL     1      -1.469  -1.236  85.871  1.00  0.00     0.277 HD
HETATM   10  C7  UNL     1      -0.994  -0.625  83.946  1.00  0.00     0.258 C 
HETATM   11  C8  UNL     1      -1.165   0.660  83.166  1.00  0.00     0.196 C 
HETATM   12  O1  UNL     1      -0.111   1.512  83.531  1.00  0.00    -0.378 OA
HETATM   13  C9  UNL     1       0.462   3.414  84.801  1.00  0.00     0.068 C 
HETATM   14  C10 UNL     1       1.204   4.180  83.746  1.00  0.00     0.276 C 
HETATM   15  N2  UNL     1       0.375   4.899  82.841  1.00  0.00     0.093 N 
ENDROOT
BRANCH  15  16
HETATM   16  C11 UNL     1       0.796   6.257  82.742  1.00  0.00     0.277 C 
BRANCH  16  17
HETATM   17  C12 UNL     1       1.749   6.660  83.857  1.00  0.00     0.014 A 
HETATM   18  C13 UNL     1       1.086   7.499  84.967  1.00  0.00     0.007 A 
HETATM   19  C14 UNL     1       2.150   8.056  84.041  1.00  0.00     0.007 A 
ENDBRANCH  16  17
ENDBRANCH  15  16
TORSDOF 2
ENDMDL
MODEL 5
REMARK VINA RESULT: -6.129252125      2.069      6.188
REMARK  2 active torsions:
REMARK  status: ('A' for Active; 'I' for Inactive)
REMARK    1  A    between atoms: N2_15  and  C11_16 
REMARK    2  A    between atoms: C11_16  and  C12_17 
ROOT
HETATM    1  C1  UNL     1      -0.078   5.250  84.321  1.00  0.00     0.043 C 
HETATM    2  C2  UNL     1      -0.338   3.831  83.873  1.00  0.00     0.221 C 
HETATM    3  C3  UNL     1      -1.010   3.152  85.054  1.00  0.00     0.073 C 
HETATM    4  C4  UNL     1      -1.381   1.734  84.770  1.00  0.00     0.066 C 
HETATM    5  C5  UNL     1      -0.716   0.755  85.710  1.00  0.00     0.065 C 
HETATM    6  C6  UNL     1      -1.625  -0.450  85.838  1.00  0.00     0.235 C 
HETATM    7  N1  UNL     1      -2.424  -0.345  87.050  1.00  0.00    -0.073 N 
ATOM      8  H11 UNL     1      -1.897   0.028  87.841  1.00  0.00     0.277 HD
ATOM      9  H12 UNL     1      -2.649  -1.254  87.455  1.00  0.00     0.277 HD
HETATM   10  C7  UNL     1      -3.604   0.442  86.737  1.00  0.00     0.258 C 
HETATM   11  C8  UNL     1      -3.139   1.783  86.211  1.00  0.00     0.196 C 
HETATM   12  O1  UNL     1      -2.783   1.602  84.866  1.00  0.00    -0.378 OA
HETATM   13  C9  UNL     1      -0.966   1.398  83.376  1.00  0.00     0.068 C 
HETATM   14  C10 UNL     1      -1.400   2.399  82.347  1.00  0.00     0.276 C 
HETATM   15  N2  UNL     1      -1.116   3.753  82.679  1.00  0.00     0.093 N 
ENDROOT
BRANCH  15  16
HETATM   16  C11 UNL     1      -0.436   4.403  81.609  1.00  0.00     0.277 C 
BRANCH  16  17
HETATM   17  C12 UNL     1       0.360   3.437  80.746  1.00  0.00     0.014 A 
HETATM   18  C13 UNL     1       1.839   3.836  80.569  1.00  0.00     0.007 A 
HETATM   19  C14 UNL     1       0.846   3.830  79.422  1.00  0.00     0.007 A 
ENDBRANCH  16  17
ENDBRANCH  15  16
TORSDOF 2
ENDMDL
