MODEL 1
REMARK VINA RESULT: -6.013253778      0.000      0.000
REMARK  3 active torsions:
REMARK  status: ('A' for Active; 'I' for Inactive)
REMARK    1  A    between atoms: C2_2  and  N1_3 
REMARK    2  A    between atoms: C14_15  and  C15_16 
REMARK    3  A    between atoms: C15_16  and  O1_17 
ROOT
HETATM    1  N1  UNL     1      -0.480   1.201  82.471  1.00  0.00     0.098 N 
HETATM    2  C3  UNL     1      -1.335   1.527  81.312  1.00  0.00     0.274 C 
HETATM    3  C4  UNL     1      -1.250   2.889  80.775  1.00  0.00     0.039 C 
HETATM    4  C5  UNL     1      -0.630   3.965  81.605  1.00  0.00     0.018 C 
HETATM    5  C6  UNL     1      -1.451   5.067  82.097  1.00  0.00    -0.025 C 
HETATM    6  C7  UNL     1      -2.206   5.065  83.336  1.00  0.00    -0.029 C 
HETATM    7  C8  UNL     1      -1.642   4.594  84.628  1.00  0.00     0.036 C 
HETATM    8  C9  UNL     1      -1.633   3.134  84.839  1.00  0.00    -0.028 A 
HETATM    9  C10 UNL     1      -2.739   2.241  84.953  1.00  0.00     0.018 A 
HETATM   10  C11 UNL     1      -2.044   2.501  83.600  1.00  0.00     0.034 A 
HETATM   11  C12 UNL     1      -0.618   2.301  83.344  1.00  0.00     0.171 C 
HETATM   12  C13 UNL     1      -0.296   2.405  84.746  1.00  0.00     0.053 C 
HETATM   13  C14 UNL     1       0.200   3.365  82.673  1.00  0.00     0.056 C 
ENDROOT
BRANCH  13  14
HETATM   14  C15 UNL     1       1.457   2.737  82.058  1.00  0.00     0.172 C 
BRANCH  14  15
HETATM   15  O1  UNL     1       2.556   3.163  82.812  1.00  0.00    -0.400 OA
ATOM     16  H1  UNL     1       3.315   2.673  82.517  1.00  0.00     0.209 HD
ENDBRANCH  14  15
ENDBRANCH  13  14
BRANCH   1  17
HETATM   17  C2  UNL     1      -0.925  -0.058  83.006  1.00  0.00     0.269 C 
HETATM   18  C1  UNL     1      -0.900  -1.172  82.008  1.00  0.00     0.037 C 
ENDBRANCH   1  17
TORSDOF 3
ENDMDL
MODEL 2
REMARK VINA RESULT: -5.508920684      1.774      2.918
REMARK  3 active torsions:
REMARK  status: ('A' for Active; 'I' for Inactive)
REMARK    1  A    between atoms: C2_2  and  N1_3 
REMARK    2  A    between atoms: C14_15  and  C15_16 
REMARK    3  A    between atoms: C15_16  and  O1_17 
ROOT
HETATM    1  N1  UNL     1       0.376   3.601  82.670  1.00  0.00     0.098 N 
HETATM    2  C3  UNL     1      -0.752   4.054  81.832  1.00  0.00     0.274 C 
HETATM    3  C4  UNL     1      -1.762   4.908  82.467  1.00  0.00     0.039 C 
HETATM    4  C5  UNL     1      -1.831   4.972  83.958  1.00  0.00     0.018 C 
HETATM    5  C6  UNL     1      -2.998   4.440  84.655  1.00  0.00    -0.025 C 
HETATM    6  C7  UNL     1      -3.167   3.065  85.082  1.00  0.00    -0.029 C 
HETATM    7  C8  UNL     1      -2.103   2.295  85.778  1.00  0.00     0.036 C 
HETATM    8  C9  UNL     1      -1.054   1.713  84.920  1.00  0.00    -0.028 A 
HETATM    9  C10 UNL     1      -1.177   0.707  83.917  1.00  0.00     0.018 A 
HETATM   10  C11 UNL     1      -1.255   2.208  83.571  1.00  0.00     0.034 A 
HETATM   11  C12 UNL     1      -0.216   3.190  83.883  1.00  0.00     0.171 C 
HETATM   12  C13 UNL     1       0.326   2.364  84.934  1.00  0.00     0.053 C 
HETATM   13  C14 UNL     1      -0.560   4.492  84.545  1.00  0.00     0.056 C 
ENDROOT
BRANCH  13  14
HETATM   14  C15 UNL     1       0.550   5.514  84.279  1.00  0.00     0.172 C 
BRANCH  14  15
HETATM   15  O1  UNL     1       0.303   6.630  85.087  1.00  0.00    -0.400 OA
ATOM     16  H1  UNL     1      -0.433   7.099  84.712  1.00  0.00     0.209 HD
ENDBRANCH  14  15
ENDBRANCH  13  14
BRANCH   1  17
HETATM   17  C2  UNL     1       1.069   2.565  81.952  1.00  0.00     0.269 C 
HETATM   18  C1  UNL     1       2.497   2.901  81.654  1.00  0.00     0.037 C 
ENDBRANCH   1  17
TORSDOF 3
ENDMDL
MODEL 3
REMARK VINA RESULT: -5.497496033      1.366      3.749
REMARK  3 active torsions:
REMARK  status: ('A' for Active; 'I' for Inactive)
REMARK    1  A    between atoms: C2_2  and  N1_3 
REMARK    2  A    between atoms: C14_15  and  C15_16 
REMARK    3  A    between atoms: C15_16  and  O1_17 
ROOT
HETATM    1  N1  UNL     1      -0.795   4.190  82.400  1.00  0.00     0.098 N 
HETATM    2  C3  UNL     1      -1.941   4.552  83.258  1.00  0.00     0.274 C 
HETATM    3  C4  UNL     1      -1.896   4.120  84.658  1.00  0.00     0.039 C 
HETATM    4  C5  UNL     1      -0.935   3.049  85.063  1.00  0.00     0.018 C 
HETATM    5  C6  UNL     1      -1.436   1.754  85.512  1.00  0.00    -0.025 C 
HETATM    6  C7  UNL     1      -1.747   0.629  84.651  1.00  0.00    -0.029 C 
HETATM    7  C8  UNL     1      -0.847   0.170  83.561  1.00  0.00     0.036 C 
HETATM    8  C9  UNL     1      -0.918   0.927  82.297  1.00  0.00    -0.028 A 
HETATM    9  C10 UNL     1      -2.013   1.053  81.392  1.00  0.00     0.018 A 
HETATM   10  C11 UNL     1      -1.770   2.081  82.515  1.00  0.00     0.034 A 
HETATM   11  C12 UNL     1      -0.531   2.837  82.700  1.00  0.00     0.171 C 
HETATM   12  C13 UNL     1       0.236   1.866  81.958  1.00  0.00     0.053 C 
HETATM   13  C14 UNL     1       0.130   2.915  84.045  1.00  0.00     0.056 C 
ENDROOT
BRANCH  13  14
HETATM   14  C15 UNL     1       1.050   4.141  84.096  1.00  0.00     0.172 C 
BRANCH  14  15
HETATM   15  O1  UNL     1       2.349   3.710  83.801  1.00  0.00    -0.400 OA
ATOM     16  H1  UNL     1       2.942   4.422  84.008  1.00  0.00     0.209 HD
ENDBRANCH  14  15
ENDBRANCH  13  14
BRANCH   1  17
HETATM   17  C2  UNL     1      -1.168   4.447  81.035  1.00  0.00     0.269 C 
HETATM   18  C1  UNL     1      -1.888   5.746  80.849  1.00  0.00     0.037 C 
ENDBRANCH   1  17
TORSDOF 3
ENDMDL
MODEL 4
REMARK VINA RESULT: -5.497094933      1.406      1.734
REMARK  3 active torsions:
REMARK  status: ('A' for Active; 'I' for Inactive)
REMARK    1  A    between atoms: C2_2  and  N1_3 
REMARK    2  A    between atoms: C14_15  and  C15_16 
REMARK    3  A    between atoms: C15_16  and  O1_17 
ROOT
HETATM    1  N1  UNL     1      -0.168   2.121  82.207  1.00  0.00     0.098 N 
HETATM    2  C3  UNL     1      -0.796   2.656  80.982  1.00  0.00     0.274 C 
HETATM    3  C4  UNL     1      -0.126   3.777  80.316  1.00  0.00     0.039 C 
HETATM    4  C5  UNL     1       0.902   4.563  81.063  1.00  0.00     0.018 C 
HETATM    5  C6  UNL     1       0.644   5.958  81.402  1.00  0.00    -0.025 C 
HETATM    6  C7  UNL     1      -0.035   6.422  82.597  1.00  0.00    -0.029 C 
HETATM    7  C8  UNL     1       0.268   5.899  83.955  1.00  0.00     0.036 C 
HETATM    8  C9  UNL     1      -0.361   4.612  84.312  1.00  0.00    -0.028 A 
HETATM    9  C10 UNL     1      -1.745   4.306  84.462  1.00  0.00     0.018 A 
HETATM   10  C11 UNL     1      -1.008   4.087  83.125  1.00  0.00     0.034 A 
HETATM   11  C12 UNL     1       0.188   3.262  82.957  1.00  0.00     0.171 C 
HETATM   12  C13 UNL     1       0.524   3.370  84.356  1.00  0.00     0.053 C 
HETATM   13  C14 UNL     1       1.388   3.784  82.223  1.00  0.00     0.056 C 
ENDROOT
BRANCH  13  14
HETATM   14  C15 UNL     1       2.244   2.610  81.735  1.00  0.00     0.172 C 
BRANCH  14  15
HETATM   15  O1  UNL     1       3.581   3.025  81.749  1.00  0.00    -0.400 OA
ATOM     16  H1  UNL     1       3.871   3.092  80.847  1.00  0.00     0.209 HD
ENDBRANCH  14  15
ENDBRANCH  13  14
BRANCH   1  17
HETATM   17  C2  UNL     1      -1.117   1.248  82.844  1.00  0.00     0.269 C 
HETATM   18  C1  UNL     1      -0.881  -0.201  82.553  1.00  0.00     0.037 C 
ENDBRANCH   1  17
TORSDOF 3
ENDMDL
MODEL 5
REMARK VINA RESULT: -5.443407043      1.592      2.469
REMARK  3 active torsions:
REMARK  status: ('A' for Active; 'I' for Inactive)
REMARK    1  A    between atoms: C2_2  and  N1_3 
REMARK    2  A    between atoms: C14_15  and  C15_16 
REMARK    3  A    between atoms: C15_16  and  O1_17 
ROOT
HETATM    1  N1  UNL     1      -0.791   1.195  83.595  1.00  0.00     0.098 N 
HETATM    2  C3  UNL     1      -1.823   1.844  82.763  1.00  0.00     0.274 C 
HETATM    3  C4  UNL     1      -2.168   3.233  83.080  1.00  0.00     0.039 C 
HETATM    4  C5  UNL     1      -1.776   3.799  84.406  1.00  0.00     0.018 C 
HETATM    5  C6  UNL     1      -2.806   4.161  85.375  1.00  0.00    -0.025 C 
HETATM    6  C7  UNL     1      -3.393   3.265  86.353  1.00  0.00    -0.029 C 
HETATM    7  C8  UNL     1      -2.586   2.345  87.196  1.00  0.00     0.036 C 
HETATM    8  C9  UNL     1      -2.159   1.084  86.559  1.00  0.00    -0.028 A 
HETATM    9  C10 UNL     1      -2.963   0.006  86.087  1.00  0.00     0.018 A 
HETATM   10  C11 UNL     1      -2.516   1.150  85.155  1.00  0.00     0.034 A 
HETATM   11  C12 UNL     1      -1.126   1.540  84.921  1.00  0.00     0.171 C 
HETATM   12  C13 UNL     1      -0.693   0.943  86.161  1.00  0.00     0.053 C 
HETATM   13  C14 UNL     1      -0.703   2.978  85.009  1.00  0.00     0.056 C 
ENDROOT
BRANCH  13  14
HETATM   14  C15 UNL     1       0.601   3.180  84.230  1.00  0.00     0.172 C 
BRANCH  14  15
HETATM   15  O1  UNL     1       1.663   2.979  85.120  1.00  0.00    -0.400 OA
ATOM     16  H1  UNL     1       1.383   2.336  85.761  1.00  0.00     0.209 HD
ENDBRANCH  14  15
ENDBRANCH  13  14
BRANCH   1  17
HETATM   17  C2  UNL     1      -0.818  -0.215  83.310  1.00  0.00     0.269 C 
HETATM   18  C1  UNL     1      -1.140  -0.528  81.883  1.00  0.00     0.037 C 
ENDBRANCH   1  17
TORSDOF 3
ENDMDL
