MODEL 1
REMARK VINA RESULT: -6.005510338      0.000      0.000
REMARK  2 active torsions:
REMARK  status: ('A' for Active; 'I' for Inactive)
REMARK    1  A    between atoms: C2_2  and  C4_4 
REMARK    2  A    between atoms: C8_9  and  C9_10 
ROOT
HETATM    1  C4  UNL     1      -1.342   1.020  83.895  1.00  0.00     0.025 C 
HETATM    2  C5  UNL     1      -0.540   0.484  85.080  1.00  0.00     0.037 C 
HETATM    3  C6  UNL     1      -1.307   1.161  86.212  1.00  0.00     0.273 C 
HETATM    4  N1  UNL     1      -2.100   2.221  85.616  1.00  0.00     0.090 N 
HETATM    5  C7  UNL     1      -3.475   1.891  85.573  1.00  0.00     0.310 C 
HETATM    6  C8  UNL     1      -1.511   2.424  84.274  1.00  0.00     0.247 C 
ENDROOT
BRANCH   6   7
HETATM    7  C9  UNL     1      -0.342   3.316  84.322  1.00  0.00     0.131 C 
HETATM    8  N2  UNL     1       0.751   3.036  83.476  1.00  0.00    -0.157 NA
HETATM    9  N3  UNL     1       1.141   4.143  82.706  1.00  0.00    -0.234 NA
HETATM   10  C10 UNL     1       1.542   5.268  83.518  1.00  0.00     0.110 C 
HETATM   11  C14 UNL     1       0.090   4.586  81.818  1.00  0.00     0.110 C 
HETATM   12  C11 UNL     1       0.399   5.668  84.424  1.00  0.00     0.022 C 
HETATM   13  C12 UNL     1      -0.769   4.758  84.091  1.00  0.00     0.011 C 
HETATM   14  C13 UNL     1      -1.109   4.998  82.636  1.00  0.00     0.022 C 
ENDBRANCH   6   7
BRANCH   1  15
HETATM   15  C2  UNL     1      -0.861   0.625  82.589  1.00  0.00    -0.016 C 
HETATM   16  C1  UNL     1      -1.793   1.143  81.520  1.00  0.00     0.010 C 
HETATM   17  C3  UNL     1      -0.911  -0.907  82.512  1.00  0.00     0.010 C 
ENDBRANCH   1  15
TORSDOF 2
ENDMDL
MODEL 2
REMARK VINA RESULT: -5.521829933      1.356      4.934
REMARK  2 active torsions:
REMARK  status: ('A' for Active; 'I' for Inactive)
REMARK    1  A    between atoms: C2_2  and  C4_4 
REMARK    2  A    between atoms: C8_9  and  C9_10 
ROOT
HETATM    1  C4  UNL     1       0.662   4.758  82.678  1.00  0.00     0.025 C 
HETATM    2  C5  UNL     1       1.587   3.955  81.765  1.00  0.00     0.037 C 
HETATM    3  C6  UNL     1       0.548   3.425  80.780  1.00  0.00     0.273 C 
HETATM    4  N1  UNL     1      -0.754   3.604  81.397  1.00  0.00     0.090 N 
HETATM    5  C7  UNL     1      -1.481   4.661  80.800  1.00  0.00     0.310 C 
HETATM    6  C8  UNL     1      -0.465   3.836  82.829  1.00  0.00     0.247 C 
ENDROOT
BRANCH   6   7
HETATM    7  C9  UNL     1      -0.284   2.572  83.560  1.00  0.00     0.131 C 
HETATM    8  N2  UNL     1      -0.016   2.629  84.943  1.00  0.00    -0.157 NA
HETATM    9  N3  UNL     1      -0.887   1.828  85.699  1.00  0.00    -0.234 NA
HETATM   10  C10 UNL     1      -0.812   0.433  85.335  1.00  0.00     0.110 C 
HETATM   11  C14 UNL     1      -2.264   2.251  85.571  1.00  0.00     0.110 C 
HETATM   12  C11 UNL     1      -1.141   0.278  83.867  1.00  0.00     0.022 C 
HETATM   13  C12 UNL     1      -1.482   1.659  83.341  1.00  0.00     0.011 C 
HETATM   14  C13 UNL     1      -2.683   2.142  84.126  1.00  0.00     0.022 C 
ENDBRANCH   6   7
BRANCH   1  15
HETATM   15  C2  UNL     1       1.301   5.389  83.812  1.00  0.00    -0.016 C 
HETATM   16  C1  UNL     1       0.277   6.142  84.627  1.00  0.00     0.010 C 
HETATM   17  C3  UNL     1       2.291   6.433  83.275  1.00  0.00     0.010 C 
ENDBRANCH   1  15
TORSDOF 2
ENDMDL
MODEL 3
REMARK VINA RESULT: -5.519350017      2.382      4.302
REMARK  2 active torsions:
REMARK  status: ('A' for Active; 'I' for Inactive)
REMARK    1  A    between atoms: C2_2  and  C4_4 
REMARK    2  A    between atoms: C8_9  and  C9_10 
ROOT
HETATM    1  C4  UNL     1      -0.557   4.286  84.130  1.00  0.00     0.025 C 
HETATM    2  C5  UNL     1       0.770   3.571  83.883  1.00  0.00     0.037 C 
HETATM    3  C6  UNL     1       1.671   4.791  83.716  1.00  0.00     0.273 C 
HETATM    4  N1  UNL     1       0.804   5.932  83.486  1.00  0.00     0.090 N 
HETATM    5  C7  UNL     1       0.736   6.779  84.618  1.00  0.00     0.310 C 
HETATM    6  C8  UNL     1      -0.504   5.346  83.122  1.00  0.00     0.247 C 
ENDROOT
BRANCH   6   7
HETATM    7  C9  UNL     1      -0.568   5.002  81.693  1.00  0.00     0.131 C 
HETATM    8  N2  UNL     1      -1.751   4.419  81.195  1.00  0.00    -0.157 NA
HETATM    9  N3  UNL     1      -2.257   5.091  80.071  1.00  0.00    -0.234 NA
HETATM   10  C10 UNL     1      -1.324   5.106  78.969  1.00  0.00     0.110 C 
HETATM   11  C14 UNL     1      -2.617   6.458  80.371  1.00  0.00     0.110 C 
HETATM   12  C11 UNL     1      -0.038   5.768  79.407  1.00  0.00     0.022 C 
HETATM   13  C12 UNL     1      -0.238   6.220  80.842  1.00  0.00     0.011 C 
HETATM   14  C13 UNL     1      -1.389   7.203  80.833  1.00  0.00     0.022 C 
ENDBRANCH   6   7
BRANCH   1  15
HETATM   15  C2  UNL     1      -1.709   3.425  84.285  1.00  0.00    -0.016 C 
HETATM   16  C1  UNL     1      -2.819   4.172  84.984  1.00  0.00     0.010 C 
HETATM   17  C3  UNL     1      -1.309   2.266  85.209  1.00  0.00     0.010 C 
ENDBRANCH   1  15
TORSDOF 2
ENDMDL
MODEL 4
REMARK VINA RESULT: -5.500659955      1.692      3.958
REMARK  2 active torsions:
REMARK  status: ('A' for Active; 'I' for Inactive)
REMARK    1  A    between atoms: C2_2  and  C4_4 
REMARK    2  A    between atoms: C8_9  and  C9_10 
ROOT
HETATM    1  C4  UNL     1      -0.470   1.657  81.574  1.00  0.00     0.025 C 
HETATM    2  C5  UNL     1      -0.899   2.600  80.450  1.00  0.00     0.037 C 
HETATM    3  C6  UNL     1       0.275   3.573  80.494  1.00  0.00     0.273 C 
HETATM    4  N1  UNL     1       0.955   3.364  81.760  1.00  0.00     0.090 N 
HETATM    5  C7  UNL     1       2.187   2.688  81.592  1.00  0.00     0.310 C 
HETATM    6  C8  UNL     1      -0.011   2.609  82.587  1.00  0.00     0.247 C 
ENDROOT
BRANCH   6   7
HETATM    7  C9  UNL     1      -0.978   3.502  83.246  1.00  0.00     0.131 C 
HETATM    8  N2  UNL     1      -2.353   3.233  83.091  1.00  0.00    -0.157 NA
HETATM    9  N3  UNL     1      -3.036   3.166  84.316  1.00  0.00    -0.234 NA
HETATM   10  C10 UNL     1      -2.951   4.399  85.064  1.00  0.00     0.110 C 
HETATM   11  C14 UNL     1      -2.543   2.099  85.156  1.00  0.00     0.110 C 
HETATM   12  C11 UNL     1      -1.499   4.734  85.321  1.00  0.00     0.022 C 
HETATM   13  C12 UNL     1      -0.674   3.603  84.734  1.00  0.00     0.011 C 
HETATM   14  C13 UNL     1      -1.085   2.340  85.459  1.00  0.00     0.022 C 
ENDBRANCH   6   7
BRANCH   1  15
HETATM   15  C2  UNL     1      -1.399   0.591  81.881  1.00  0.00    -0.016 C 
HETATM   16  C1  UNL     1      -0.695  -0.496  82.657  1.00  0.00     0.010 C 
HETATM   17  C3  UNL     1      -1.850  -0.037  80.554  1.00  0.00     0.010 C 
ENDBRANCH   1  15
TORSDOF 2
ENDMDL
MODEL 5
REMARK VINA RESULT: -5.411558734      1.863      4.909
REMARK  2 active torsions:
REMARK  status: ('A' for Active; 'I' for Inactive)
REMARK    1  A    between atoms: C2_2  and  C4_4 
REMARK    2  A    between atoms: C8_9  and  C9_10 
ROOT
HETATM    1  C4  UNL     1       0.181   5.057  80.821  1.00  0.00     0.025 C 
HETATM    2  C5  UNL     1      -0.265   6.481  81.148  1.00  0.00     0.037 C 
HETATM    3  C6  UNL     1       0.572   6.711  82.403  1.00  0.00     0.273 C 
HETATM    4  N1  UNL     1       1.029   5.409  82.854  1.00  0.00     0.090 N 
HETATM    5  C7  UNL     1       2.406   5.214  82.595  1.00  0.00     0.310 C 
HETATM    6  C8  UNL     1       0.165   4.439  82.147  1.00  0.00     0.247 C 
ENDROOT
BRANCH   6   7
HETATM    7  C9  UNL     1      -1.115   4.240  82.847  1.00  0.00     0.131 C 
HETATM    8  N2  UNL     1      -1.895   3.114  82.511  1.00  0.00    -0.157 NA
HETATM    9  N3  UNL     1      -2.263   2.353  83.632  1.00  0.00    -0.234 NA
HETATM   10  C10 UNL     1      -3.044   3.111  84.582  1.00  0.00     0.110 C 
HETATM   11  C14 UNL     1      -1.115   1.814  84.325  1.00  0.00     0.110 C 
HETATM   12  C11 UNL     1      -2.251   4.317  85.037  1.00  0.00     0.022 C 
HETATM   13  C12 UNL     1      -0.898   4.241  84.353  1.00  0.00     0.011 C 
HETATM   14  C13 UNL     1      -0.250   2.951  84.810  1.00  0.00     0.022 C 
ENDBRANCH   6   7
BRANCH   1  15
HETATM   15  C2  UNL     1      -0.465   4.450  79.678  1.00  0.00    -0.016 C 
HETATM   16  C1  UNL     1       0.570   4.055  78.652  1.00  0.00     0.010 C 
HETATM   17  C3  UNL     1      -1.354   5.513  79.019  1.00  0.00     0.010 C 
ENDBRANCH   1  15
TORSDOF 2
ENDMDL
