MODEL 1
REMARK VINA RESULT: -7.550364943      0.000      0.000
REMARK  2 active torsions:
REMARK  status: ('A' for Active; 'I' for Inactive)
REMARK    1  A    between atoms: C2_3  and  N2_4 
REMARK       I    between atoms: N2_4  and  C3_6 
REMARK    2  A    between atoms: C3_6  and  C4_8 
ROOT
HETATM    1  N1  UNL     1      -1.198   0.899  85.120  1.00  0.00    -0.195 NA
HETATM    2  C1  UNL     1      -1.607   1.938  85.451  1.00  0.00     0.091 C 
HETATM    3  C2  UNL     1      -2.146   3.238  85.876  1.00  0.00     0.122 C 
HETATM    4  C14 UNL     1      -2.041   3.421  87.358  1.00  0.00     0.047 C 
HETATM    5  C15 UNL     1      -3.339   2.615  87.468  1.00  0.00     0.007 C 
HETATM    6  C16 UNL     1      -3.665   3.148  86.066  1.00  0.00     0.047 C 
ENDROOT
BRANCH   3   7
HETATM    7  N2  UNL     1      -1.727   4.314  85.050  1.00  0.00    -0.338 N 
HETATM    8  C3  UNL     1      -0.349   4.568  84.855  1.00  0.00     0.227 C 
HETATM    9  O1  UNL     1       0.527   3.828  85.422  1.00  0.00    -0.273 OA
ATOM     10  H2  UNL     1      -2.422   4.906  84.595  1.00  0.00     0.164 HD
BRANCH   8  11
HETATM   11  C4  UNL     1       0.111   5.702  83.985  1.00  0.00     0.042 C 
HETATM   12  C5  UNL     1      -0.361   7.026  84.519  1.00  0.00     0.024 C 
HETATM   13  C6  UNL     1       0.093   8.100  83.569  1.00  0.00    -0.013 C 
HETATM   14  C7  UNL     1      -0.420   7.918  82.173  1.00  0.00     0.009 C 
HETATM   15  C11 UNL     1       1.615   8.156  83.486  1.00  0.00     0.009 C 
HETATM   16  C8  UNL     1       0.072   6.561  81.660  1.00  0.00    -0.013 C 
HETATM   17  C9  UNL     1       1.584   6.510  81.682  1.00  0.00     0.009 C 
HETATM   18  C13 UNL     1      -0.442   5.525  82.604  1.00  0.00     0.024 C 
HETATM   19  C10 UNL     1       2.116   6.812  83.063  1.00  0.00    -0.013 C 
HETATM   20  C12 UNL     1       1.628   5.726  83.993  1.00  0.00     0.024 C 
ENDBRANCH   8  11
ENDBRANCH   3   7
TORSDOF 2
ENDMDL
MODEL 2
REMARK VINA RESULT: -7.469001582      0.101      1.699
REMARK  2 active torsions:
REMARK  status: ('A' for Active; 'I' for Inactive)
REMARK    1  A    between atoms: C2_3  and  N2_4 
REMARK       I    between atoms: N2_4  and  C3_6 
REMARK    2  A    between atoms: C3_6  and  C4_8 
ROOT
HETATM    1  N1  UNL     1      -1.200   0.880  85.146  1.00  0.00    -0.195 NA
HETATM    2  C1  UNL     1      -1.606   1.924  85.467  1.00  0.00     0.091 C 
HETATM    3  C2  UNL     1      -2.140   3.230  85.879  1.00  0.00     0.122 C 
HETATM    4  C14 UNL     1      -2.031   3.428  87.359  1.00  0.00     0.047 C 
HETATM    5  C15 UNL     1      -3.332   2.627  87.481  1.00  0.00     0.007 C 
HETATM    6  C16 UNL     1      -3.659   3.146  86.074  1.00  0.00     0.047 C 
ENDROOT
BRANCH   3   7
HETATM    7  N2  UNL     1      -1.720   4.296  85.041  1.00  0.00    -0.338 N 
HETATM    8  C3  UNL     1      -0.342   4.546  84.843  1.00  0.00     0.227 C 
HETATM    9  O1  UNL     1       0.534   3.812  85.418  1.00  0.00    -0.273 OA
ATOM     10  H2  UNL     1      -2.414   4.884  84.580  1.00  0.00     0.164 HD
BRANCH   8  11
HETATM   11  C4  UNL     1       0.119   5.670  83.960  1.00  0.00     0.042 C 
HETATM   12  C5  UNL     1      -0.399   5.509  82.558  1.00  0.00     0.024 C 
HETATM   13  C6  UNL     1       0.145   6.638  81.728  1.00  0.00    -0.013 C 
HETATM   14  C7  UNL     1       1.643   6.691  81.699  1.00  0.00     0.009 C 
HETATM   15  C11 UNL     1      -0.342   7.988  82.244  1.00  0.00     0.009 C 
HETATM   16  C8  UNL     1       2.139   6.850  83.140  1.00  0.00    -0.013 C 
HETATM   17  C9  UNL     1       1.574   8.112  83.752  1.00  0.00     0.009 C 
HETATM   18  C13 UNL     1       1.616   5.683  83.913  1.00  0.00     0.024 C 
HETATM   19  C10 UNL     1       0.065   8.123  83.676  1.00  0.00    -0.013 C 
HETATM   20  C12 UNL     1      -0.447   6.968  84.505  1.00  0.00     0.024 C 
ENDBRANCH   8  11
ENDBRANCH   3   7
TORSDOF 2
ENDMDL
MODEL 3
REMARK VINA RESULT: -7.462010002      0.132      1.645
REMARK  2 active torsions:
REMARK  status: ('A' for Active; 'I' for Inactive)
REMARK    1  A    between atoms: C2_3  and  N2_4 
REMARK       I    between atoms: N2_4  and  C3_6 
REMARK    2  A    between atoms: C3_6  and  C4_8 
ROOT
HETATM    1  N1  UNL     1      -1.202   0.878  85.147  1.00  0.00    -0.195 NA
HETATM    2  C1  UNL     1      -1.602   1.924  85.468  1.00  0.00     0.091 C 
HETATM    3  C2  UNL     1      -2.129   3.233  85.879  1.00  0.00     0.122 C 
HETATM    4  C14 UNL     1      -2.040   3.422  87.362  1.00  0.00     0.047 C 
HETATM    5  C15 UNL     1      -3.350   2.633  87.460  1.00  0.00     0.007 C 
HETATM    6  C16 UNL     1      -3.652   3.163  86.051  1.00  0.00     0.047 C 
ENDROOT
BRANCH   3   7
HETATM    7  N2  UNL     1      -1.687   4.299  85.053  1.00  0.00    -0.338 N 
HETATM    8  C3  UNL     1      -0.303   4.533  84.872  1.00  0.00     0.227 C 
HETATM    9  O1  UNL     1       0.557   3.784  85.452  1.00  0.00    -0.273 OA
ATOM     10  H2  UNL     1      -2.368   4.899  84.588  1.00  0.00     0.164 HD
BRANCH   8  11
HETATM   11  C4  UNL     1       0.181   5.657  84.002  1.00  0.00     0.042 C 
HETATM   12  C5  UNL     1       1.680   5.768  84.038  1.00  0.00     0.024 C 
HETATM   13  C6  UNL     1       2.081   6.941  83.188  1.00  0.00    -0.013 C 
HETATM   14  C7  UNL     1       1.477   8.238  83.635  1.00  0.00     0.009 C 
HETATM   15  C11 UNL     1       1.673   6.734  81.733  1.00  0.00     0.009 C 
HETATM   16  C8  UNL     1      -0.047   8.091  83.592  1.00  0.00    -0.013 C 
HETATM   17  C9  UNL     1      -0.500   7.750  82.190  1.00  0.00     0.009 C 
HETATM   18  C13 UNL     1      -0.401   6.948  84.487  1.00  0.00     0.024 C 
HETATM   19  C10 UNL     1       0.196   6.508  81.683  1.00  0.00    -0.013 C 
HETATM   20  C12 UNL     1      -0.215   5.355  82.568  1.00  0.00     0.024 C 
ENDBRANCH   8  11
ENDBRANCH   3   7
TORSDOF 2
ENDMDL
MODEL 4
REMARK VINA RESULT: -6.688222315      2.575      3.526
REMARK  2 active torsions:
REMARK  status: ('A' for Active; 'I' for Inactive)
REMARK    1  A    between atoms: C2_3  and  N2_4 
REMARK       I    between atoms: N2_4  and  C3_6 
REMARK    2  A    between atoms: C3_6  and  C4_8 
ROOT
HETATM    1  N1  UNL     1      -1.153   1.090  84.221  1.00  0.00    -0.195 NA
HETATM    2  C1  UNL     1      -0.788   1.525  83.204  1.00  0.00     0.091 C 
HETATM    3  C2  UNL     1      -0.321   2.050  81.913  1.00  0.00     0.122 C 
HETATM    4  C14 UNL     1      -1.348   1.866  80.839  1.00  0.00     0.047 C 
HETATM    5  C15 UNL     1      -0.813   0.438  80.685  1.00  0.00     0.007 C 
HETATM    6  C16 UNL     1       0.526   0.998  81.186  1.00  0.00     0.047 C 
ENDROOT
BRANCH   3   7
HETATM    7  N2  UNL     1       0.299   3.322  82.018  1.00  0.00    -0.338 N 
HETATM    8  C3  UNL     1      -0.480   4.476  82.272  1.00  0.00     0.227 C 
HETATM    9  O1  UNL     1      -1.749   4.377  82.410  1.00  0.00    -0.273 OA
ATOM     10  H2  UNL     1       1.309   3.406  81.909  1.00  0.00     0.164 HD
BRANCH   8  11
HETATM   11  C4  UNL     1       0.160   5.829  82.386  1.00  0.00     0.042 C 
HETATM   12  C5  UNL     1      -0.871   6.923  82.377  1.00  0.00     0.024 C 
HETATM   13  C6  UNL     1      -0.152   8.242  82.441  1.00  0.00    -0.013 C 
HETATM   14  C7  UNL     1       0.807   8.456  81.309  1.00  0.00     0.009 C 
HETATM   15  C11 UNL     1       0.644   8.375  83.735  1.00  0.00     0.009 C 
HETATM   16  C8  UNL     1       1.839   7.325  81.343  1.00  0.00    -0.013 C 
HETATM   17  C9  UNL     1       2.572   7.324  82.666  1.00  0.00     0.009 C 
HETATM   18  C13 UNL     1       1.085   6.041  81.227  1.00  0.00     0.024 C 
HETATM   19  C10 UNL     1       1.602   7.230  83.821  1.00  0.00    -0.013 C 
HETATM   20  C12 UNL     1       0.886   5.904  83.717  1.00  0.00     0.024 C 
ENDBRANCH   8  11
ENDBRANCH   3   7
TORSDOF 2
ENDMDL
MODEL 5
REMARK VINA RESULT: -6.684638705      2.541      3.568
REMARK  2 active torsions:
REMARK  status: ('A' for Active; 'I' for Inactive)
REMARK    1  A    between atoms: C2_3  and  N2_4 
REMARK       I    between atoms: N2_4  and  C3_6 
REMARK    2  A    between atoms: C3_6  and  C4_8 
ROOT
HETATM    1  N1  UNL     1      -1.173   1.116  84.326  1.00  0.00    -0.195 NA
HETATM    2  C1  UNL     1      -0.806   1.533  83.302  1.00  0.00     0.091 C 
HETATM    3  C2  UNL     1      -0.337   2.034  82.002  1.00  0.00     0.122 C 
HETATM    4  C14 UNL     1      -1.379   1.873  80.940  1.00  0.00     0.047 C 
HETATM    5  C15 UNL     1      -0.889   0.428  80.792  1.00  0.00     0.007 C 
HETATM    6  C16 UNL     1       0.471   0.951  81.275  1.00  0.00     0.047 C 
ENDROOT
BRANCH   3   7
HETATM    7  N2  UNL     1       0.322   3.288  82.091  1.00  0.00    -0.338 N 
HETATM    8  C3  UNL     1      -0.422   4.469  82.323  1.00  0.00     0.227 C 
HETATM    9  O1  UNL     1      -1.694   4.411  82.456  1.00  0.00    -0.273 OA
ATOM     10  H2  UNL     1       1.335   3.339  81.987  1.00  0.00     0.164 HD
BRANCH   8  11
HETATM   11  C4  UNL     1       0.259   5.803  82.420  1.00  0.00     0.042 C 
HETATM   12  C5  UNL     1       1.099   5.899  83.663  1.00  0.00     0.024 C 
HETATM   13  C6  UNL     1       1.702   7.275  83.713  1.00  0.00    -0.013 C 
HETATM   14  C7  UNL     1       0.684   8.374  83.718  1.00  0.00     0.009 C 
HETATM   15  C11 UNL     1       2.622   7.518  82.521  1.00  0.00     0.009 C 
HETATM   16  C8  UNL     1      -0.156   8.247  82.444  1.00  0.00    -0.013 C 
HETATM   17  C9  UNL     1       0.728   8.347  81.221  1.00  0.00     0.009 C 
HETATM   18  C13 UNL     1      -0.774   6.887  82.462  1.00  0.00     0.024 C 
HETATM   19  C10 UNL     1       1.833   7.318  81.267  1.00  0.00    -0.013 C 
HETATM   20  C12 UNL     1       1.193   5.950  81.232  1.00  0.00     0.024 C 
ENDBRANCH   8  11
ENDBRANCH   3   7
TORSDOF 2
ENDMDL
