MODEL 1
REMARK VINA RESULT: -5.927692123      0.000      0.000
REMARK  4 active torsions:
REMARK  status: ('A' for Active; 'I' for Inactive)
REMARK    1  A    between atoms: O1_1  and  C1_3 
REMARK    2  A    between atoms: C1_3  and  C2_4 
REMARK    3  A    between atoms: C2_4  and  N1_5 
REMARK    4  A    between atoms: N2_8  and  C5_9 
ROOT
HETATM    1  N1  UNL     1       8.811  -3.373  75.218  1.00  0.00     0.099 N 
HETATM    2  C3  UNL     1      10.020  -2.641  75.470  1.00  0.00     0.317 C 
HETATM    3  C4  UNL     1       9.942  -1.211  75.766  1.00  0.00     0.094 C 
HETATM    4  N2  UNL     1       8.852  -0.482  75.324  1.00  0.00    -0.361 N 
HETATM    5  C15 UNL     1       7.684  -1.177  75.068  1.00  0.00     0.094 C 
HETATM    6  C16 UNL     1       7.974  -2.507  74.400  1.00  0.00     0.317 C 
ENDROOT
BRANCH   4   7
HETATM    7  C5  UNL     1       8.972   0.898  75.099  1.00  0.00     0.036 C 
HETATM    8  C6  UNL     1       9.342   1.688  76.370  1.00  0.00     0.036 C 
HETATM    9  C7  UNL     1       9.379   3.154  76.047  1.00  0.00    -0.012 C 
HETATM   10  C8  UNL     1       8.027   3.676  75.607  1.00  0.00     0.009 C 
HETATM   11  C12 UNL     1      10.345   3.509  74.936  1.00  0.00     0.009 C 
HETATM   12  C9  UNL     1       7.625   2.906  74.383  1.00  0.00    -0.012 C 
HETATM   13  C10 UNL     1       8.562   3.090  73.218  1.00  0.00     0.009 C 
HETATM   14  C14 UNL     1       7.579   1.446  74.749  1.00  0.00     0.036 C 
HETATM   15  C11 UNL     1       9.938   2.743  73.694  1.00  0.00    -0.012 C 
HETATM   16  C13 UNL     1      10.000   1.253  74.071  1.00  0.00     0.036 C 
ENDBRANCH   4   7
BRANCH   1  17
HETATM   17  C2  UNL     1       8.154  -3.818  76.435  1.00  0.00     0.299 C 
BRANCH  17  18
HETATM   18  C1  UNL     1       8.475  -5.209  76.857  1.00  0.00     0.194 C 
BRANCH  18  19
HETATM   19  O1  UNL     1       9.491  -5.398  77.732  1.00  0.00    -0.399 OA
ATOM     20  H1  UNL     1       9.486  -6.183  78.267  1.00  0.00     0.209 HD
ENDBRANCH  18  19
ENDBRANCH  17  18
ENDBRANCH   1  17
TORSDOF 4
ENDMDL
MODEL 2
REMARK VINA RESULT: -5.896087680      0.204      1.738
REMARK  4 active torsions:
REMARK  status: ('A' for Active; 'I' for Inactive)
REMARK    1  A    between atoms: O1_1  and  C1_3 
REMARK    2  A    between atoms: C1_3  and  C2_4 
REMARK    3  A    between atoms: C2_4  and  N1_5 
REMARK    4  A    between atoms: N2_8  and  C5_9 
ROOT
HETATM    1  N1  UNL     1       8.870  -3.336  75.283  1.00  0.00     0.099 N 
HETATM    2  C3  UNL     1      10.017  -2.515  75.551  1.00  0.00     0.317 C 
HETATM    3  C4  UNL     1       9.832  -1.085  75.797  1.00  0.00     0.094 C 
HETATM    4  N2  UNL     1       8.711  -0.447  75.294  1.00  0.00    -0.361 N 
HETATM    5  C15 UNL     1       7.603  -1.228  75.022  1.00  0.00     0.094 C 
HETATM    6  C16 UNL     1       8.007  -2.555  74.409  1.00  0.00     0.317 C 
ENDROOT
BRANCH   4   7
HETATM    7  C5  UNL     1       8.745   0.931  75.028  1.00  0.00     0.036 C 
HETATM    8  C6  UNL     1       9.709   1.302  73.883  1.00  0.00     0.036 C 
HETATM    9  C7  UNL     1       9.730   2.795  73.721  1.00  0.00    -0.012 C 
HETATM   10  C8  UNL     1      10.252   3.498  74.955  1.00  0.00     0.009 C 
HETATM   11  C12 UNL     1       8.367   3.396  73.444  1.00  0.00     0.009 C 
HETATM   12  C9  UNL     1       9.349   3.133  76.096  1.00  0.00    -0.012 C 
HETATM   13  C10 UNL     1       7.924   3.588  75.908  1.00  0.00     0.009 C 
HETATM   14  C14 UNL     1       9.369   1.635  76.243  1.00  0.00     0.036 C 
HETATM   15  C11 UNL     1       7.452   3.041  74.598  1.00  0.00    -0.012 C 
HETATM   16  C13 UNL     1       7.413   1.504  74.656  1.00  0.00     0.036 C 
ENDBRANCH   4   7
BRANCH   1  17
HETATM   17  C2  UNL     1       8.202  -3.787  76.492  1.00  0.00     0.299 C 
BRANCH  17  18
HETATM   18  C1  UNL     1       8.486  -5.193  76.886  1.00  0.00     0.194 C 
BRANCH  18  19
HETATM   19  O1  UNL     1       9.509  -5.428  77.743  1.00  0.00    -0.399 OA
ATOM     20  H1  UNL     1      10.277  -5.881  77.416  1.00  0.00     0.209 HD
ENDBRANCH  18  19
ENDBRANCH  17  18
ENDBRANCH   1  17
TORSDOF 4
ENDMDL
MODEL 3
REMARK VINA RESULT: -5.885969705      0.174      1.647
REMARK  4 active torsions:
REMARK  status: ('A' for Active; 'I' for Inactive)
REMARK    1  A    between atoms: O1_1  and  C1_3 
REMARK    2  A    between atoms: C1_3  and  C2_4 
REMARK    3  A    between atoms: C2_4  and  N1_5 
REMARK    4  A    between atoms: N2_8  and  C5_9 
ROOT
HETATM    1  N1  UNL     1       8.846  -3.372  75.270  1.00  0.00     0.099 N 
HETATM    2  C3  UNL     1      10.011  -2.581  75.548  1.00  0.00     0.317 C 
HETATM    3  C4  UNL     1       9.858  -1.154  75.827  1.00  0.00     0.094 C 
HETATM    4  N2  UNL     1       8.747  -0.482  75.347  1.00  0.00    -0.361 N 
HETATM    5  C15 UNL     1       7.621  -1.235  75.066  1.00  0.00     0.094 C 
HETATM    6  C16 UNL     1       7.993  -2.555  74.420  1.00  0.00     0.317 C 
ENDROOT
BRANCH   4   7
HETATM    7  C5  UNL     1       8.807   0.901  75.112  1.00  0.00     0.036 C 
HETATM    8  C6  UNL     1       7.445   1.507  74.718  1.00  0.00     0.036 C 
HETATM    9  C7  UNL     1       7.624   2.968  74.420  1.00  0.00    -0.012 C 
HETATM   10  C8  UNL     1       8.546   3.203  73.242  1.00  0.00     0.009 C 
HETATM   11  C12 UNL     1       8.211   3.757  75.572  1.00  0.00     0.009 C 
HETATM   12  C9  UNL     1       9.876   2.598  73.584  1.00  0.00    -0.012 C 
HETATM   13  C10 UNL     1      10.536   3.227  74.784  1.00  0.00     0.009 C 
HETATM   14  C14 UNL     1       9.661   1.132  73.856  1.00  0.00     0.036 C 
HETATM   15  C11 UNL     1       9.560   3.158  75.916  1.00  0.00    -0.012 C 
HETATM   16  C13 UNL     1       9.293   1.689  76.287  1.00  0.00     0.036 C 
ENDBRANCH   4   7
BRANCH   1  17
HETATM   17  C2  UNL     1       8.178  -3.838  76.473  1.00  0.00     0.299 C 
BRANCH  17  18
HETATM   18  C1  UNL     1       8.497  -5.234  76.877  1.00  0.00     0.194 C 
BRANCH  18  19
HETATM   19  O1  UNL     1       9.519  -5.436  77.743  1.00  0.00    -0.399 OA
ATOM     20  H1  UNL     1       9.519  -6.232  78.262  1.00  0.00     0.209 HD
ENDBRANCH  18  19
ENDBRANCH  17  18
ENDBRANCH   1  17
TORSDOF 4
ENDMDL
MODEL 4
REMARK VINA RESULT: -5.863679295      2.918      4.527
REMARK  4 active torsions:
REMARK  status: ('A' for Active; 'I' for Inactive)
REMARK    1  A    between atoms: O1_1  and  C1_3 
REMARK    2  A    between atoms: C1_3  and  C2_4 
REMARK    3  A    between atoms: C2_4  and  N1_5 
REMARK    4  A    between atoms: N2_8  and  C5_9 
ROOT
HETATM    1  N1  UNL     1       9.450  -7.249  76.817  1.00  0.00     0.099 N 
HETATM    2  C3  UNL     1       8.376  -6.373  77.191  1.00  0.00     0.317 C 
HETATM    3  C4  UNL     1       8.096  -5.192  76.374  1.00  0.00     0.094 C 
HETATM    4  N2  UNL     1       9.105  -4.647  75.598  1.00  0.00    -0.361 N 
HETATM    5  C15 UNL     1      10.150  -5.479  75.239  1.00  0.00     0.094 C 
HETATM    6  C16 UNL     1      10.543  -6.390  76.386  1.00  0.00     0.317 C 
ENDROOT
BRANCH   4   7
HETATM    7  C5  UNL     1       9.070  -3.288  75.251  1.00  0.00     0.036 C 
HETATM    8  C6  UNL     1       7.937  -2.513  75.953  1.00  0.00     0.036 C 
HETATM    9  C7  UNL     1       7.937  -1.092  75.467  1.00  0.00    -0.012 C 
HETATM   10  C8  UNL     1       7.656  -0.995  73.983  1.00  0.00     0.009 C 
HETATM   11  C12 UNL     1       9.251  -0.372  75.692  1.00  0.00     0.009 C 
HETATM   12  C9  UNL     1       8.730  -1.765  73.271  1.00  0.00    -0.012 C 
HETATM   13  C10 UNL     1      10.115  -1.212  73.488  1.00  0.00     0.009 C 
HETATM   14  C14 UNL     1       8.687  -3.186  73.767  1.00  0.00     0.036 C 
HETATM   15  C11 UNL     1      10.339  -1.138  74.965  1.00  0.00    -0.012 C 
HETATM   16  C13 UNL     1      10.337  -2.554  75.566  1.00  0.00     0.036 C 
ENDBRANCH   4   7
BRANCH   1  17
HETATM   17  C2  UNL     1       9.060  -8.226  75.815  1.00  0.00     0.299 C 
BRANCH  17  18
HETATM   18  C1  UNL     1       8.382  -9.440  76.342  1.00  0.00     0.194 C 
BRANCH  18  19
HETATM   19  O1  UNL     1       9.063 -10.235  77.202  1.00  0.00    -0.399 OA
ATOM     20  H1  UNL     1       9.197 -11.146  76.965  1.00  0.00     0.209 HD
ENDBRANCH  18  19
ENDBRANCH  17  18
ENDBRANCH   1  17
TORSDOF 4
ENDMDL
MODEL 5
REMARK VINA RESULT: -5.804675956      0.856      1.066
REMARK  4 active torsions:
REMARK  status: ('A' for Active; 'I' for Inactive)
REMARK    1  A    between atoms: O1_1  and  C1_3 
REMARK    2  A    between atoms: C1_3  and  C2_4 
REMARK    3  A    between atoms: C2_4  and  N1_5 
REMARK    4  A    between atoms: N2_8  and  C5_9 
ROOT
HETATM    1  N1  UNL     1       8.415  -3.740  75.026  1.00  0.00     0.099 N 
HETATM    2  C3  UNL     1       8.680  -3.049  73.796  1.00  0.00     0.317 C 
HETATM    3  C4  UNL     1       9.282  -1.717  73.839  1.00  0.00     0.094 C 
HETATM    4  N2  UNL     1       9.131  -0.937  74.973  1.00  0.00    -0.361 N 
HETATM    5  C15 UNL     1       8.866  -1.591  76.163  1.00  0.00     0.094 C 
HETATM    6  C16 UNL     1       7.900  -2.741  75.951  1.00  0.00     0.317 C 
ENDROOT
BRANCH   4   7
HETATM    7  C5  UNL     1       9.195   0.462  74.880  1.00  0.00     0.036 C 
HETATM    8  C6  UNL     1       9.609   1.138  76.203  1.00  0.00     0.036 C 
HETATM    9  C7  UNL     1       9.581   2.628  76.024  1.00  0.00    -0.012 C 
HETATM   10  C8  UNL     1       8.192   3.141  75.706  1.00  0.00     0.009 C 
HETATM   11  C12 UNL     1      10.474   3.125  74.906  1.00  0.00     0.009 C 
HETATM   12  C9  UNL     1       7.748   2.478  74.435  1.00  0.00    -0.012 C 
HETATM   13  C10 UNL     1       8.615   2.808  73.247  1.00  0.00     0.009 C 
HETATM   14  C14 UNL     1       7.769   0.989  74.657  1.00  0.00     0.036 C 
HETATM   15  C11 UNL     1      10.025   2.468  73.616  1.00  0.00    -0.012 C 
HETATM   16  C13 UNL     1      10.155   0.952  73.841  1.00  0.00     0.036 C 
ENDBRANCH   4   7
BRANCH   1  17
HETATM   17  C2  UNL     1       9.575  -4.450  75.537  1.00  0.00     0.299 C 
BRANCH  17  18
HETATM   18  C1  UNL     1       9.273  -5.581  76.455  1.00  0.00     0.194 C 
BRANCH  18  19
HETATM   19  O1  UNL     1       9.562  -5.438  77.771  1.00  0.00    -0.399 OA
ATOM     20  H1  UNL     1       8.855  -5.225  78.368  1.00  0.00     0.209 HD
ENDBRANCH  18  19
ENDBRANCH  17  18
ENDBRANCH   1  17
TORSDOF 4
ENDMDL
