MODEL 1
REMARK VINA RESULT: -6.455567455      0.000      0.000
REMARK  2 active torsions:
REMARK  status: ('A' for Active; 'I' for Inactive)
REMARK    1  A    between atoms: N1_8  and  N2_9 
REMARK       I    between atoms: N2_9  and  C7_11 
REMARK    2  A    between atoms: C7_11  and  C8_13 
ROOT
HETATM    1  N2  UNL     1      -0.835   6.011  85.301  1.00  0.00    -0.271 N 
ATOM      2  H2  UNL     1       0.148   5.902  85.549  1.00  0.00     0.190 HD
HETATM    3  C7  UNL     1      -1.099   7.238  84.694  1.00  0.00     0.244 C 
HETATM    4  O2  UNL     1      -2.256   7.542  84.332  1.00  0.00    -0.271 OA
ENDROOT
BRANCH   3   5
HETATM    5  C8  UNL     1      -0.049   8.268  84.424  1.00  0.00     0.043 C 
HETATM    6  C9  UNL     1       1.338   7.711  84.578  1.00  0.00     0.024 C 
HETATM    7  C10 UNL     1       2.303   8.818  84.209  1.00  0.00    -0.013 C 
HETATM    8  C11 UNL     1       2.064   9.333  82.802  1.00  0.00     0.009 C 
HETATM    9  C15 UNL     1       2.183   9.991  85.145  1.00  0.00     0.009 C 
HETATM   10  C12 UNL     1       0.656   9.900  82.708  1.00  0.00    -0.013 C 
HETATM   11  C13 UNL     1       0.508  11.037  83.711  1.00  0.00     0.009 C 
HETATM   12  C17 UNL     1      -0.306   8.779  83.022  1.00  0.00     0.024 C 
HETATM   13  C14 UNL     1       0.767  10.503  85.103  1.00  0.00    -0.013 C 
HETATM   14  C16 UNL     1      -0.260   9.416  85.364  1.00  0.00     0.024 C 
ENDBRANCH   3   5
BRANCH   1  15
HETATM   15  N1  UNL     1      -1.572   4.937  85.635  1.00  0.00    -0.312 N 
HETATM   16  C2  UNL     1      -2.165   4.743  86.881  1.00  0.00     0.062 C 
HETATM   17  C1  UNL     1      -2.954   5.866  87.459  1.00  0.00     0.042 C 
HETATM   18  C3  UNL     1      -3.124   3.543  86.919  1.00  0.00     0.042 C 
HETATM   19  C4  UNL     1      -1.059   4.333  87.872  1.00  0.00     0.199 C 
HETATM   20  O1  UNL     1      -0.613   3.080  87.424  1.00  0.00    -0.387 OA
HETATM   21  C5  UNL     1       0.012   3.256  86.176  1.00  0.00     0.189 C 
HETATM   22  C6  UNL     1      -0.979   3.699  85.130  1.00  0.00     0.170 C 
ENDBRANCH   1  15
TORSDOF 2
ENDMDL
MODEL 2
REMARK VINA RESULT: -6.277056854      0.111      1.619
REMARK  2 active torsions:
REMARK  status: ('A' for Active; 'I' for Inactive)
REMARK    1  A    between atoms: N1_8  and  N2_9 
REMARK       I    between atoms: N2_9  and  C7_11 
REMARK    2  A    between atoms: C7_11  and  C8_13 
ROOT
HETATM    1  N2  UNL     1      -0.877   6.080  85.291  1.00  0.00    -0.271 N 
ATOM      2  H2  UNL     1       0.111   5.992  85.528  1.00  0.00     0.190 HD
HETATM    3  C7  UNL     1      -1.177   7.307  84.701  1.00  0.00     0.244 C 
HETATM    4  O2  UNL     1      -2.344   7.587  84.355  1.00  0.00    -0.271 OA
ENDROOT
BRANCH   3   5
HETATM    5  C8  UNL     1      -0.154   8.364  84.432  1.00  0.00     0.043 C 
HETATM    6  C9  UNL     1      -0.296   9.536  85.362  1.00  0.00     0.024 C 
HETATM    7  C10 UNL     1       0.831  10.494  85.043  1.00  0.00    -0.013 C 
HETATM    8  C11 UNL     1       2.191   9.837  85.183  1.00  0.00     0.009 C 
HETATM    9  C15 UNL     1       0.728  11.022  83.636  1.00  0.00     0.009 C 
HETATM   10  C12 UNL     1       2.288   8.673  84.210  1.00  0.00    -0.013 C 
HETATM   11  C13 UNL     1       2.105   9.193  82.790  1.00  0.00     0.009 C 
HETATM   12  C17 UNL     1       1.197   7.692  84.566  1.00  0.00     0.024 C 
HETATM   13  C14 UNL     1       0.751   9.858  82.680  1.00  0.00    -0.013 C 
HETATM   14  C16 UNL     1      -0.293   8.806  83.007  1.00  0.00     0.024 C 
ENDBRANCH   3   5
BRANCH   1  15
HETATM   15  N1  UNL     1      -1.585   4.986  85.621  1.00  0.00    -0.312 N 
HETATM   16  C2  UNL     1      -2.157   4.762  86.872  1.00  0.00     0.062 C 
HETATM   17  C1  UNL     1      -2.963   5.859  87.474  1.00  0.00     0.042 C 
HETATM   18  C3  UNL     1      -3.088   3.539  86.906  1.00  0.00     0.042 C 
HETATM   19  C4  UNL     1      -1.029   4.365  87.843  1.00  0.00     0.199 C 
HETATM   20  O1  UNL     1      -0.561   3.128  87.373  1.00  0.00    -0.387 OA
HETATM   21  C5  UNL     1       0.044   3.334  86.119  1.00  0.00     0.189 C 
HETATM   22  C6  UNL     1      -0.970   3.767  85.092  1.00  0.00     0.170 C 
ENDBRANCH   1  15
TORSDOF 2
ENDMDL
MODEL 3
REMARK VINA RESULT: -5.579665458      3.646      6.566
REMARK  2 active torsions:
REMARK  status: ('A' for Active; 'I' for Inactive)
REMARK    1  A    between atoms: N1_8  and  N2_9 
REMARK       I    between atoms: N2_9  and  C7_11 
REMARK    2  A    between atoms: C7_11  and  C8_13 
ROOT
HETATM    1  N2  UNL     1       3.112   8.046  82.514  1.00  0.00    -0.271 N 
ATOM      2  H2  UNL     1       2.865   8.957  82.127  1.00  0.00     0.190 HD
HETATM    3  C7  UNL     1       2.196   7.606  83.469  1.00  0.00     0.244 C 
HETATM    4  O2  UNL     1       2.349   6.512  84.052  1.00  0.00    -0.271 OA
ENDROOT
BRANCH   3   5
HETATM    5  C8  UNL     1       0.980   8.381  83.863  1.00  0.00     0.043 C 
HETATM    6  C9  UNL     1       0.142   7.643  84.868  1.00  0.00     0.024 C 
HETATM    7  C10 UNL     1      -1.008   8.553  85.240  1.00  0.00    -0.013 C 
HETATM    8  C11 UNL     1      -0.525   9.882  85.790  1.00  0.00     0.009 C 
HETATM    9  C15 UNL     1      -1.887   8.848  84.054  1.00  0.00     0.009 C 
HETATM   10  C12 UNL     1       0.299  10.593  84.728  1.00  0.00    -0.013 C 
HETATM   11  C13 UNL     1      -0.566  10.823  83.495  1.00  0.00     0.009 C 
HETATM   12  C17 UNL     1       1.477   9.708  84.399  1.00  0.00     0.024 C 
HETATM   13  C14 UNL     1      -1.049   9.487  82.977  1.00  0.00    -0.013 C 
HETATM   14  C16 UNL     1       0.182   8.670  82.627  1.00  0.00     0.024 C 
ENDBRANCH   3   5
BRANCH   1  15
HETATM   15  N1  UNL     1       4.244   7.551  81.984  1.00  0.00    -0.312 N 
HETATM   16  C2  UNL     1       5.354   8.318  81.634  1.00  0.00     0.062 C 
HETATM   17  C1  UNL     1       5.868   9.295  82.634  1.00  0.00     0.042 C 
HETATM   18  C3  UNL     1       6.582   7.476  81.256  1.00  0.00     0.042 C 
HETATM   19  C4  UNL     1       5.023   9.056  80.323  1.00  0.00     0.199 C 
HETATM   20  O1  UNL     1       4.896   8.046  79.357  1.00  0.00    -0.387 OA
HETATM   21  C5  UNL     1       3.765   7.272  79.677  1.00  0.00     0.189 C 
HETATM   22  C6  UNL     1       3.964   6.530  80.974  1.00  0.00     0.170 C 
ENDBRANCH   1  15
TORSDOF 2
ENDMDL
MODEL 4
REMARK VINA RESULT: -5.526892790      3.671      6.497
REMARK  2 active torsions:
REMARK  status: ('A' for Active; 'I' for Inactive)
REMARK    1  A    between atoms: N1_8  and  N2_9 
REMARK       I    between atoms: N2_9  and  C7_11 
REMARK    2  A    between atoms: C7_11  and  C8_13 
ROOT
HETATM    1  N2  UNL     1       3.172   8.076  82.510  1.00  0.00    -0.271 N 
ATOM      2  H2  UNL     1       3.003   9.022  82.168  1.00  0.00     0.190 HD
HETATM    3  C7  UNL     1       2.209   7.660  83.428  1.00  0.00     0.244 C 
HETATM    4  O2  UNL     1       2.266   6.528  83.954  1.00  0.00    -0.271 OA
ENDROOT
BRANCH   3   5
HETATM    5  C8  UNL     1       1.050   8.507  83.847  1.00  0.00     0.043 C 
HETATM    6  C9  UNL     1       1.492   9.820  84.427  1.00  0.00     0.024 C 
HETATM    7  C10 UNL     1       0.240  10.611  84.741  1.00  0.00    -0.013 C 
HETATM    8  C11 UNL     1      -0.627  10.811  83.511  1.00  0.00     0.009 C 
HETATM    9  C15 UNL     1      -0.604   9.921  85.780  1.00  0.00     0.009 C 
HETATM   10  C12 UNL     1      -1.060   9.455  82.978  1.00  0.00    -0.013 C 
HETATM   11  C13 UNL     1      -1.848   8.722  84.056  1.00  0.00     0.009 C 
HETATM   12  C17 UNL     1       0.190   8.690  82.614  1.00  0.00     0.024 C 
HETATM   13  C14 UNL     1      -0.970   8.550  85.276  1.00  0.00    -0.013 C 
HETATM   14  C16 UNL     1       0.239   7.738  84.846  1.00  0.00     0.024 C 
ENDBRANCH   3   5
BRANCH   1  15
HETATM   15  N1  UNL     1       4.271   7.523  81.968  1.00  0.00    -0.312 N 
HETATM   16  C2  UNL     1       5.423   8.227  81.625  1.00  0.00     0.062 C 
HETATM   17  C1  UNL     1       5.997   9.157  82.637  1.00  0.00     0.042 C 
HETATM   18  C3  UNL     1       6.599   7.318  81.231  1.00  0.00     0.042 C 
HETATM   19  C4  UNL     1       5.134   9.002  80.326  1.00  0.00     0.199 C 
HETATM   20  O1  UNL     1       4.944   8.014  79.346  1.00  0.00    -0.387 OA
HETATM   21  C5  UNL     1       3.770   7.305  79.660  1.00  0.00     0.189 C 
HETATM   22  C6  UNL     1       3.928   6.534  80.945  1.00  0.00     0.170 C 
ENDBRANCH   1  15
TORSDOF 2
ENDMDL
MODEL 5
REMARK VINA RESULT: -5.501605087      3.692      6.561
REMARK  2 active torsions:
REMARK  status: ('A' for Active; 'I' for Inactive)
REMARK    1  A    between atoms: N1_8  and  N2_9 
REMARK       I    between atoms: N2_9  and  C7_11 
REMARK    2  A    between atoms: C7_11  and  C8_13 
ROOT
HETATM    1  N2  UNL     1       3.158   8.010  82.482  1.00  0.00    -0.271 N 
ATOM      2  H2  UNL     1       2.999   8.957  82.140  1.00  0.00     0.190 HD
HETATM    3  C7  UNL     1       2.140   7.567  83.325  1.00  0.00     0.244 C 
HETATM    4  O2  UNL     1       2.180   6.430  83.841  1.00  0.00    -0.271 OA
ENDROOT
BRANCH   3   5
HETATM    5  C8  UNL     1       0.942   8.391  83.672  1.00  0.00     0.043 C 
HETATM    6  C9  UNL     1       0.058   8.630  82.481  1.00  0.00     0.024 C 
HETATM    7  C10 UNL     1      -1.147   9.403  82.971  1.00  0.00    -0.013 C 
HETATM    8  C11 UNL     1      -1.886   8.664  84.071  1.00  0.00     0.009 C 
HETATM    9  C15 UNL     1      -0.755  10.751  83.519  1.00  0.00     0.009 C 
HETATM   10  C12 UNL     1      -0.954   8.465  85.255  1.00  0.00    -0.013 C 
HETATM   11  C13 UNL     1      -0.494   9.826  85.762  1.00  0.00     0.009 C 
HETATM   12  C17 UNL     1       0.220   7.646  84.776  1.00  0.00     0.024 C 
HETATM   13  C14 UNL     1       0.224  10.550  84.645  1.00  0.00    -0.013 C 
HETATM   14  C16 UNL     1       1.413   9.693  84.247  1.00  0.00     0.024 C 
ENDBRANCH   3   5
BRANCH   1  15
HETATM   15  N1  UNL     1       4.301   7.480  82.011  1.00  0.00    -0.312 N 
HETATM   16  C2  UNL     1       5.445   8.214  81.704  1.00  0.00     0.062 C 
HETATM   17  C1  UNL     1       5.936   9.192  82.714  1.00  0.00     0.042 C 
HETATM   18  C3  UNL     1       6.668   7.336  81.395  1.00  0.00     0.042 C 
HETATM   19  C4  UNL     1       5.195   8.942  80.370  1.00  0.00     0.199 C 
HETATM   20  O1  UNL     1       5.088   7.921  79.412  1.00  0.00    -0.387 OA
HETATM   21  C5  UNL     1       3.924   7.180  79.689  1.00  0.00     0.189 C 
HETATM   22  C6  UNL     1       4.043   6.451  81.003  1.00  0.00     0.170 C 
ENDBRANCH   1  15
TORSDOF 2
ENDMDL
