MODEL 1
REMARK VINA RESULT: -6.884870954      0.000      0.000
REMARK  3 active torsions:
REMARK  status: ('A' for Active; 'I' for Inactive)
REMARK    1  A    between atoms: C2_2  and  C3_3 
REMARK    2  A    between atoms: C4_4  and  N1_5 
REMARK    3  A    between atoms: N2_11  and  C7_12 
ROOT
HETATM    1  C7  UNL     1       0.206   7.767  84.606  1.00  0.00     0.224 C 
HETATM    2  C8  UNL     1      -1.289   7.866  84.510  1.00  0.00     0.036 C 
HETATM    3  C9  UNL     1      -1.860   6.688  85.264  1.00  0.00     0.014 C 
HETATM    4  C10 UNL     1      -0.752   5.677  85.354  1.00  0.00    -0.006 C 
HETATM    5  C11 UNL     1      -0.953   4.549  84.396  1.00  0.00     0.042 C 
HETATM    6  C12 UNL     1      -0.289   3.382  85.096  1.00  0.00     0.273 C 
HETATM    7  N3  UNL     1      -0.428   3.623  86.501  1.00  0.00     0.093 N 
HETATM    8  C13 UNL     1      -1.488   2.806  87.031  1.00  0.00     0.273 C 
HETATM    9  C14 UNL     1      -2.318   3.688  87.922  1.00  0.00     0.032 C 
HETATM   10  C15 UNL     1      -2.177   5.038  87.268  1.00  0.00     0.038 C 
HETATM   11  C16 UNL     1      -0.797   4.992  86.695  1.00  0.00     0.231 C 
HETATM   12  C17 UNL     1       0.545   6.419  85.146  1.00  0.00     0.047 C 
ENDROOT
BRANCH   1  13
HETATM   13  N2  UNL     1       0.744   8.008  83.277  1.00  0.00     0.100 N 
HETATM   14  C3  UNL     1       1.351   6.834  82.702  1.00  0.00     0.253 C 
HETATM   15  C4  UNL     1       2.802   7.120  82.482  1.00  0.00     0.218 C 
HETATM   16  C5  UNL     1       3.064   8.170  83.567  1.00  0.00     0.065 C 
HETATM   17  C6  UNL     1       1.794   9.000  83.430  1.00  0.00     0.275 C 
BRANCH  14  18
HETATM   18  C2  UNL     1       0.724   6.585  81.336  1.00  0.00     0.033 C 
HETATM   19  C1  UNL     1      -0.174   7.714  80.921  1.00  0.00     0.007 C 
ENDBRANCH  14  18
BRANCH  15  20
HETATM   20  N1  UNL     1       3.660   5.990  82.594  1.00  0.00    -0.073 N 
ATOM     21  H13 UNL     1       3.371   5.404  83.377  1.00  0.00     0.274 HD
ATOM     22  H12 UNL     1       3.496   5.345  81.821  1.00  0.00     0.274 HD
ATOM     23  H11 UNL     1       4.653   6.210  82.667  1.00  0.00     0.274 HD
ENDBRANCH  15  20
ENDBRANCH   1  13
TORSDOF 3
ENDMDL
MODEL 2
REMARK VINA RESULT: -6.411614088      1.162      1.798
REMARK  3 active torsions:
REMARK  status: ('A' for Active; 'I' for Inactive)
REMARK    1  A    between atoms: C2_2  and  C3_3 
REMARK    2  A    between atoms: C4_4  and  N1_5 
REMARK    3  A    between atoms: N2_11  and  C7_12 
ROOT
HETATM    1  C7  UNL     1       0.157   7.847  84.836  1.00  0.00     0.224 C 
HETATM    2  C8  UNL     1      -1.326   7.897  84.610  1.00  0.00     0.036 C 
HETATM    3  C9  UNL     1      -1.915   6.669  85.264  1.00  0.00     0.014 C 
HETATM    4  C10 UNL     1      -0.781   5.696  85.416  1.00  0.00    -0.006 C 
HETATM    5  C11 UNL     1      -0.853   4.601  84.401  1.00  0.00     0.042 C 
HETATM    6  C12 UNL     1      -0.209   3.430  85.113  1.00  0.00     0.273 C 
HETATM    7  N3  UNL     1      -0.480   3.609  86.508  1.00  0.00     0.093 N 
HETATM    8  C13 UNL     1      -1.551   2.734  86.910  1.00  0.00     0.273 C 
HETATM    9  C14 UNL     1      -2.490   3.549  87.755  1.00  0.00     0.032 C 
HETATM   10  C15 UNL     1      -2.344   4.928  87.168  1.00  0.00     0.038 C 
HETATM   11  C16 UNL     1      -0.918   4.955  86.720  1.00  0.00     0.231 C 
HETATM   12  C17 UNL     1       0.499   6.490  85.353  1.00  0.00     0.047 C 
ENDROOT
BRANCH   1  13
HETATM   13  N2  UNL     1       0.802   8.161  83.571  1.00  0.00     0.100 N 
HETATM   14  C3  UNL     1       2.203   8.462  83.721  1.00  0.00     0.253 C 
HETATM   15  C4  UNL     1       2.425   9.874  83.280  1.00  0.00     0.218 C 
HETATM   16  C5  UNL     1       1.050  10.490  83.562  1.00  0.00     0.065 C 
HETATM   17  C6  UNL     1       0.158   9.360  83.066  1.00  0.00     0.275 C 
BRANCH  14  18
HETATM   18  C2  UNL     1       2.994   7.563  82.779  1.00  0.00     0.033 C 
HETATM   19  C1  UNL     1       2.124   6.520  82.142  1.00  0.00     0.007 C 
ENDBRANCH  14  18
BRANCH  15  20
HETATM   20  N1  UNL     1       3.479  10.553  83.953  1.00  0.00    -0.073 N 
ATOM     21  H13 UNL     1       3.698  10.082  84.831  1.00  0.00     0.274 HD
ATOM     22  H12 UNL     1       4.359  10.419  83.456  1.00  0.00     0.274 HD
ATOM     23  H11 UNL     1       3.314  11.546  84.117  1.00  0.00     0.274 HD
ENDBRANCH  15  20
ENDBRANCH   1  13
TORSDOF 3
ENDMDL
MODEL 3
REMARK VINA RESULT: -6.012503397      1.061      1.471
REMARK  3 active torsions:
REMARK  status: ('A' for Active; 'I' for Inactive)
REMARK    1  A    between atoms: C2_2  and  C3_3 
REMARK    2  A    between atoms: C4_4  and  N1_5 
REMARK    3  A    between atoms: N2_11  and  C7_12 
ROOT
HETATM    1  C7  UNL     1       0.288   7.865  84.837  1.00  0.00     0.224 C 
HETATM    2  C8  UNL     1      -1.192   7.957  84.606  1.00  0.00     0.036 C 
HETATM    3  C9  UNL     1      -1.817   6.738  85.241  1.00  0.00     0.014 C 
HETATM    4  C10 UNL     1      -0.710   5.733  85.386  1.00  0.00    -0.006 C 
HETATM    5  C11 UNL     1      -0.806   4.653  84.357  1.00  0.00     0.042 C 
HETATM    6  C12 UNL     1      -0.198   3.457  85.057  1.00  0.00     0.273 C 
HETATM    7  N3  UNL     1      -0.471   3.625  86.453  1.00  0.00     0.093 N 
HETATM    8  C13 UNL     1      -1.566   2.774  86.838  1.00  0.00     0.273 C 
HETATM    9  C14 UNL     1      -2.487   3.603  87.690  1.00  0.00     0.032 C 
HETATM   10  C15 UNL     1      -2.301   4.986  87.121  1.00  0.00     0.038 C 
HETATM   11  C16 UNL     1      -0.873   4.980  86.680  1.00  0.00     0.231 C 
HETATM   12  C17 UNL     1       0.591   6.493  85.339  1.00  0.00     0.047 C 
ENDROOT
BRANCH   1  13
HETATM   13  N2  UNL     1       0.947   8.177  83.579  1.00  0.00     0.100 N 
HETATM   14  C3  UNL     1       0.152   7.818  82.432  1.00  0.00     0.253 C 
HETATM   15  C4  UNL     1       0.898   6.780  81.656  1.00  0.00     0.218 C 
HETATM   16  C5  UNL     1       1.731   6.125  82.763  1.00  0.00     0.065 C 
HETATM   17  C6  UNL     1       2.153   7.370  83.533  1.00  0.00     0.275 C 
BRANCH  14  18
HETATM   18  C2  UNL     1       0.015   9.043  81.536  1.00  0.00     0.033 C 
HETATM   19  C1  UNL     1      -1.421   9.347  81.225  1.00  0.00     0.007 C 
ENDBRANCH  14  18
BRANCH  15  20
HETATM   20  N1  UNL     1       0.078   5.845  80.963  1.00  0.00    -0.073 N 
ATOM     21  H13 UNL     1       0.121   4.933  81.416  1.00  0.00     0.274 HD
ATOM     22  H12 UNL     1      -0.907   6.067  81.105  1.00  0.00     0.274 HD
ATOM     23  H11 UNL     1       0.279   5.754  79.967  1.00  0.00     0.274 HD
ENDBRANCH  15  20
ENDBRANCH   1  13
TORSDOF 3
ENDMDL
MODEL 4
REMARK VINA RESULT: -5.932684868      1.824      3.360
REMARK  3 active torsions:
REMARK  status: ('A' for Active; 'I' for Inactive)
REMARK    1  A    between atoms: C2_2  and  C3_3 
REMARK    2  A    between atoms: C4_4  and  N1_5 
REMARK    3  A    between atoms: N2_11  and  C7_12 
ROOT
HETATM    1  C7  UNL     1       1.205   7.372  82.643  1.00  0.00     0.224 C 
HETATM    2  C8  UNL     1       2.080   7.487  83.858  1.00  0.00     0.036 C 
HETATM    3  C9  UNL     1       1.383   6.750  84.977  1.00  0.00     0.014 C 
HETATM    4  C10 UNL     1      -0.060   6.652  84.573  1.00  0.00    -0.006 C 
HETATM    5  C11 UNL     1      -0.913   7.621  85.326  1.00  0.00     0.042 C 
HETATM    6  C12 UNL     1      -2.253   6.920  85.392  1.00  0.00     0.273 C 
HETATM    7  N3  UNL     1      -1.974   5.516  85.403  1.00  0.00     0.093 N 
HETATM    8  C13 UNL     1      -2.106   5.006  86.743  1.00  0.00     0.273 C 
HETATM    9  C14 UNL     1      -0.917   4.119  86.994  1.00  0.00     0.032 C 
HETATM   10  C15 UNL     1       0.153   4.762  86.150  1.00  0.00     0.038 C 
HETATM   11  C16 UNL     1      -0.616   5.316  84.994  1.00  0.00     0.231 C 
HETATM   12  C17 UNL     1      -0.117   6.837  83.078  1.00  0.00     0.047 C 
ENDROOT
BRANCH   1  13
HETATM   13  N2  UNL     1       1.123   8.692  82.039  1.00  0.00     0.100 N 
HETATM   14  C3  UNL     1      -0.236   9.136  81.858  1.00  0.00     0.253 C 
HETATM   15  C4  UNL     1      -0.475   9.317  80.393  1.00  0.00     0.218 C 
HETATM   16  C5  UNL     1       0.524   8.315  79.805  1.00  0.00     0.065 C 
HETATM   17  C6  UNL     1       1.715   8.579  80.718  1.00  0.00     0.275 C 
BRANCH  14  18
HETATM   18  C2  UNL     1      -0.389  10.503  82.515  1.00  0.00     0.033 C 
HETATM   19  C1  UNL     1      -1.647  10.592  83.328  1.00  0.00     0.007 C 
ENDBRANCH  14  18
BRANCH  15  20
HETATM   20  N1  UNL     1      -1.812   9.071  79.970  1.00  0.00    -0.073 N 
ATOM     21  H13 UNL     1      -1.821   8.391  79.209  1.00  0.00     0.274 HD
ATOM     22  H12 UNL     1      -2.316   8.544  80.683  1.00  0.00     0.274 HD
ATOM     23  H11 UNL     1      -2.339   9.903  79.705  1.00  0.00     0.274 HD
ENDBRANCH  15  20
ENDBRANCH   1  13
TORSDOF 3
ENDMDL
MODEL 5
REMARK VINA RESULT: -5.795443912      1.801      5.915
REMARK  3 active torsions:
REMARK  status: ('A' for Active; 'I' for Inactive)
REMARK    1  A    between atoms: C2_2  and  C3_3 
REMARK    2  A    between atoms: C4_4  and  N1_5 
REMARK    3  A    between atoms: N2_11  and  C7_12 
ROOT
HETATM    1  C7  UNL     1       0.930   6.209  83.410  1.00  0.00     0.224 C 
HETATM    2  C8  UNL     1       0.765   6.891  82.082  1.00  0.00     0.036 C 
HETATM    3  C9  UNL     1       1.332   8.284  82.226  1.00  0.00     0.014 C 
HETATM    4  C10 UNL     1       1.357   8.571  83.700  1.00  0.00    -0.006 C 
HETATM    5  C11 UNL     1       0.255   9.498  84.102  1.00  0.00     0.042 C 
HETATM    6  C12 UNL     1       0.840  10.231  85.290  1.00  0.00     0.273 C 
HETATM    7  N3  UNL     1       2.254  10.290  85.071  1.00  0.00     0.093 N 
HETATM    8  C13 UNL     1       2.618  11.603  84.605  1.00  0.00     0.273 C 
HETATM    9  C14 UNL     1       3.565  11.411  83.452  1.00  0.00     0.032 C 
HETATM   10  C15 UNL     1       3.093  10.111  82.855  1.00  0.00     0.038 C 
HETATM   11  C16 UNL     1       2.597   9.354  84.044  1.00  0.00     0.231 C 
HETATM   12  C17 UNL     1       1.316   7.243  84.413  1.00  0.00     0.047 C 
ENDROOT
BRANCH   1  13
HETATM   13  N2  UNL     1      -0.327   5.546  83.719  1.00  0.00     0.100 N 
HETATM   14  C3  UNL     1      -0.317   4.913  85.014  1.00  0.00     0.253 C 
HETATM   15  C4  UNL     1      -0.500   3.443  84.814  1.00  0.00     0.218 C 
HETATM   16  C5  UNL     1       0.086   3.260  83.410  1.00  0.00     0.065 C 
HETATM   17  C6  UNL     1      -0.493   4.495  82.731  1.00  0.00     0.275 C 
BRANCH  14  18
HETATM   18  C2  UNL     1      -1.517   5.417  85.806  1.00  0.00     0.033 C 
HETATM   19  C1  UNL     1      -1.932   6.792  85.375  1.00  0.00     0.007 C 
ENDBRANCH  14  18
BRANCH  15  20
HETATM   20  N1  UNL     1       0.140   2.622  85.785  1.00  0.00    -0.073 N 
ATOM     21  H13 UNL     1       1.152   2.733  85.730  1.00  0.00     0.274 HD
ATOM     22  H12 UNL     1      -0.027   2.989  86.722  1.00  0.00     0.274 HD
ATOM     23  H11 UNL     1      -0.108   1.634  85.743  1.00  0.00     0.274 HD
ENDBRANCH  15  20
ENDBRANCH   1  13
TORSDOF 3
ENDMDL
