MODEL 1
REMARK VINA RESULT: -6.175756984      0.000      0.000
REMARK  6 active torsions:
REMARK  status: ('A' for Active; 'I' for Inactive)
REMARK    1  A    between atoms: O1_2  and  C2_3 
REMARK    2  A    between atoms: C3_4  and  O2_5 
REMARK    3  A    between atoms: C5_8  and  O3_9 
REMARK    4  A    between atoms: C9_14  and  C10_15 
REMARK    5  A    between atoms: C9_14  and  O4_20 
REMARK    6  A    between atoms: C11_16  and  C12_17 
ROOT
HETATM    1  C2  UNL     1      51.782 134.914  17.854  1.00  0.00     0.110 A 
HETATM    2  C3  UNL     1      51.566 134.971  16.493  1.00  0.00     0.102 A 
HETATM    3  C4  UNL     1      52.587 135.209  15.582  1.00  0.00     0.078 A 
HETATM    4  C5  UNL     1      53.863 135.392  16.111  1.00  0.00     0.102 A 
HETATM    5  C6  UNL     1      54.112 135.343  17.459  1.00  0.00     0.112 A 
HETATM    6  C7  UNL     1      53.072 135.105  18.314  1.00  0.00     0.018 A 
HETATM    7  C8  UNL     1      53.309 135.046  19.766  1.00  0.00     0.090 C 
HETATM    8  C9  UNL     1      54.808 134.437  19.926  1.00  0.00     0.113 C 
HETATM    9  C16 UNL     1      55.617 135.548  19.329  1.00  0.00     0.095 C 
HETATM   10  C17 UNL     1      57.094 135.514  19.617  1.00  0.00     0.050 C 
HETATM   11  C18 UNL     1      55.130 136.898  19.764  1.00  0.00     0.050 C 
HETATM   12  O5  UNL     1      55.390 135.532  17.905  1.00  0.00    -0.334 OA
ENDROOT
BRANCH   8  13
HETATM   13  C10 UNL     1      54.908 134.396  21.402  1.00  0.00     0.010 C 
HETATM   14  C11 UNL     1      56.056 133.978  22.168  1.00  0.00    -0.024 C 
BRANCH  14  15
HETATM   15  C12 UNL     1      56.607 132.609  22.116  1.00  0.00    -0.000 C 
HETATM   16  C13 UNL     1      55.668 131.569  22.746  1.00  0.00     0.013 C 
HETATM   17  C14 UNL     1      57.854 132.531  23.052  1.00  0.00     0.013 C 
ENDBRANCH  14  15
ENDBRANCH   8  13
BRANCH   8  18
HETATM   18  O4  UNL     1      54.661 133.349  19.237  1.00  0.00    -0.378 OA
HETATM   19  C15 UNL     1      54.549 132.090  19.292  1.00  0.00     0.203 C 
ENDBRANCH   8  18
BRANCH   1  20
HETATM   20  O1  UNL     1      50.694 134.670  18.678  1.00  0.00    -0.352 OA
HETATM   21  C1  UNL     1      49.998 135.678  19.367  1.00  0.00     0.210 C 
ENDBRANCH   1  20
BRANCH   2  22
HETATM   22  O2  UNL     1      50.285 134.788  15.944  1.00  0.00    -0.358 OA
ATOM     23  H2  UNL     1      49.958 133.923  15.723  1.00  0.00     0.217 HD
ENDBRANCH   2  22
BRANCH   4  24
HETATM   24  O3  UNL     1      54.921 135.635  15.241  1.00  0.00    -0.358 OA
ATOM     25  H3  UNL     1      55.728 135.994  15.590  1.00  0.00     0.217 HD
ENDBRANCH   4  24
TORSDOF 6
ENDMDL
MODEL 2
REMARK VINA RESULT: -5.581375504      2.414      5.863
REMARK  6 active torsions:
REMARK  status: ('A' for Active; 'I' for Inactive)
REMARK    1  A    between atoms: O1_2  and  C2_3 
REMARK    2  A    between atoms: C3_4  and  O2_5 
REMARK    3  A    between atoms: C5_8  and  O3_9 
REMARK    4  A    between atoms: C9_14  and  C10_15 
REMARK    5  A    between atoms: C9_14  and  O4_20 
REMARK    6  A    between atoms: C11_16  and  C12_17 
ROOT
HETATM    1  C2  UNL     1      55.755 134.240  22.830  1.00  0.00     0.110 A 
HETATM    2  C3  UNL     1      56.043 132.898  22.968  1.00  0.00     0.102 A 
HETATM    3  C4  UNL     1      55.781 131.969  21.969  1.00  0.00     0.078 A 
HETATM    4  C5  UNL     1      55.202 132.458  20.800  1.00  0.00     0.102 A 
HETATM    5  C6  UNL     1      54.902 133.787  20.630  1.00  0.00     0.112 A 
HETATM    6  C7  UNL     1      55.180 134.661  21.644  1.00  0.00     0.018 A 
HETATM    7  C8  UNL     1      54.869 136.092  21.491  1.00  0.00     0.090 C 
HETATM    8  C9  UNL     1      55.071 136.402  19.908  1.00  0.00     0.113 C 
HETATM    9  C16 UNL     1      53.961 135.581  19.327  1.00  0.00     0.095 C 
HETATM   10  C17 UNL     1      53.595 135.886  17.900  1.00  0.00     0.050 C 
HETATM   11  C18 UNL     1      52.695 135.696  20.124  1.00  0.00     0.050 C 
HETATM   12  O5  UNL     1      54.334 134.194  19.455  1.00  0.00    -0.334 OA
ENDROOT
BRANCH   8  13
HETATM   13  C10 UNL     1      54.769 137.851  19.894  1.00  0.00     0.010 C 
HETATM   14  C11 UNL     1      55.653 138.910  20.315  1.00  0.00    -0.024 C 
BRANCH  14  15
HETATM   15  C12 UNL     1      56.144 139.050  21.700  1.00  0.00    -0.000 C 
HETATM   16  C13 UNL     1      56.054 140.493  22.217  1.00  0.00     0.013 C 
HETATM   17  C14 UNL     1      57.683 138.793  21.719  1.00  0.00     0.013 C 
ENDBRANCH  14  15
ENDBRANCH   8  13
BRANCH   8  18
HETATM   18  O4  UNL     1      56.286 135.972  19.769  1.00  0.00    -0.378 OA
HETATM   19  C15 UNL     1      57.354 136.071  19.097  1.00  0.00     0.203 C 
ENDBRANCH   8  18
BRANCH   1  20
HETATM   20  O1  UNL     1      56.057 135.085  23.887  1.00  0.00    -0.352 OA
HETATM   21  C1  UNL     1      57.269 135.788  23.998  1.00  0.00     0.210 C 
ENDBRANCH   1  20
BRANCH   2  22
HETATM   22  O2  UNL     1      56.627 132.389  24.141  1.00  0.00    -0.358 OA
ATOM     23  H2  UNL     1      57.262 131.682  24.113  1.00  0.00     0.217 HD
ENDBRANCH   2  22
BRANCH   4  24
HETATM   24  O3  UNL     1      54.918 131.569  19.768  1.00  0.00    -0.358 OA
ATOM     25  H3  UNL     1      54.013 131.332  19.603  1.00  0.00     0.217 HD
ENDBRANCH   4  24
TORSDOF 6
ENDMDL
MODEL 3
REMARK VINA RESULT: -5.563718807      2.405      6.783
REMARK  6 active torsions:
REMARK  status: ('A' for Active; 'I' for Inactive)
REMARK    1  A    between atoms: O1_2  and  C2_3 
REMARK    2  A    between atoms: C3_4  and  O2_5 
REMARK    3  A    between atoms: C5_8  and  O3_9 
REMARK    4  A    between atoms: C9_14  and  C10_15 
REMARK    5  A    between atoms: C9_14  and  O4_20 
REMARK    6  A    between atoms: C11_16  and  C12_17 
ROOT
HETATM    1  C2  UNL     1      58.591 133.482  20.988  1.00  0.00     0.110 A 
HETATM    2  C3  UNL     1      58.841 132.625  22.039  1.00  0.00     0.102 A 
HETATM    3  C4  UNL     1      57.914 132.382  23.044  1.00  0.00     0.078 A 
HETATM    4  C5  UNL     1      56.698 133.054  22.945  1.00  0.00     0.102 A 
HETATM    5  C6  UNL     1      56.417 133.914  21.913  1.00  0.00     0.112 A 
HETATM    6  C7  UNL     1      57.364 134.118  20.949  1.00  0.00     0.018 A 
HETATM    7  C8  UNL     1      57.090 135.035  19.829  1.00  0.00     0.090 C 
HETATM    8  C9  UNL     1      55.492 134.908  19.559  1.00  0.00     0.113 C 
HETATM    9  C16 UNL     1      54.955 135.491  20.829  1.00  0.00     0.095 C 
HETATM   10  C17 UNL     1      53.500 135.877  20.812  1.00  0.00     0.050 C 
HETATM   11  C18 UNL     1      55.713 136.714  21.255  1.00  0.00     0.050 C 
HETATM   12  O5  UNL     1      55.201 134.538  21.882  1.00  0.00    -0.334 OA
ENDROOT
BRANCH   8  13
HETATM   13  C10 UNL     1      55.357 135.833  18.411  1.00  0.00     0.010 C 
HETATM   14  C11 UNL     1      54.143 136.119  17.685  1.00  0.00    -0.024 C 
BRANCH  14  15
HETATM   15  C12 UNL     1      53.400 135.098  16.920  1.00  0.00    -0.000 C 
HETATM   16  C13 UNL     1      53.145 135.518  15.465  1.00  0.00     0.013 C 
HETATM   17  C14 UNL     1      51.950 134.999  17.489  1.00  0.00     0.013 C 
ENDBRANCH  14  15
ENDBRANCH   8  13
BRANCH   8  18
HETATM   18  O4  UNL     1      55.414 133.625  19.394  1.00  0.00    -0.378 OA
HETATM   19  C15 UNL     1      54.661 132.662  19.067  1.00  0.00     0.203 C 
ENDBRANCH   8  18
BRANCH   1  20
HETATM   20  O1  UNL     1      59.584 133.655  20.035  1.00  0.00    -0.352 OA
HETATM   21  C1  UNL     1      60.605 134.614  20.141  1.00  0.00     0.210 C 
ENDBRANCH   1  20
BRANCH   2  22
HETATM   22  O2  UNL     1      60.063 131.939  22.153  1.00  0.00    -0.358 OA
ATOM     23  H2  UNL     1      60.151 131.168  22.701  1.00  0.00     0.217 HD
ENDBRANCH   2  22
BRANCH   4  24
HETATM   24  O3  UNL     1      55.735 132.846  23.927  1.00  0.00    -0.358 OA
ATOM     25  H3  UNL     1      54.942 133.370  23.911  1.00  0.00     0.217 HD
ENDBRANCH   4  24
TORSDOF 6
ENDMDL
MODEL 4
REMARK VINA RESULT: -5.459429323      1.919      4.454
REMARK  6 active torsions:
REMARK  status: ('A' for Active; 'I' for Inactive)
REMARK    1  A    between atoms: O1_2  and  C2_3 
REMARK    2  A    between atoms: C3_4  and  O2_5 
REMARK    3  A    between atoms: C5_8  and  O3_9 
REMARK    4  A    between atoms: C9_14  and  C10_15 
REMARK    5  A    between atoms: C9_14  and  O4_20 
REMARK    6  A    between atoms: C11_16  and  C12_17 
ROOT
HETATM    1  C2  UNL     1      53.638 135.301  17.387  1.00  0.00     0.110 A 
HETATM    2  C3  UNL     1      52.314 135.271  17.004  1.00  0.00     0.102 A 
HETATM    3  C4  UNL     1      51.270 135.452  17.903  1.00  0.00     0.078 A 
HETATM    4  C5  UNL     1      51.624 135.668  19.233  1.00  0.00     0.102 A 
HETATM    5  C6  UNL     1      52.932 135.702  19.648  1.00  0.00     0.112 A 
HETATM    6  C7  UNL     1      53.922 135.519  18.723  1.00  0.00     0.018 A 
HETATM    7  C8  UNL     1      55.334 135.551  19.139  1.00  0.00     0.090 C 
HETATM    8  C9  UNL     1      55.389 136.612  20.369  1.00  0.00     0.113 C 
HETATM    9  C16 UNL     1      54.580 135.879  21.395  1.00  0.00     0.095 C 
HETATM   10  C17 UNL     1      54.698 136.383  22.808  1.00  0.00     0.050 C 
HETATM   11  C18 UNL     1      54.910 134.417  21.437  1.00  0.00     0.050 C 
HETATM   12  O5  UNL     1      53.203 135.919  20.970  1.00  0.00    -0.334 OA
ENDROOT
BRANCH   8  13
HETATM   13  C10 UNL     1      56.839 136.580  20.666  1.00  0.00     0.010 C 
HETATM   14  C11 UNL     1      57.864 137.342  19.995  1.00  0.00    -0.024 C 
BRANCH  14  15
HETATM   15  C12 UNL     1      58.177 137.188  18.561  1.00  0.00    -0.000 C 
HETATM   16  C13 UNL     1      59.688 137.158  18.286  1.00  0.00     0.013 C 
HETATM   17  C14 UNL     1      57.735 138.480  17.806  1.00  0.00     0.013 C 
ENDBRANCH  14  15
ENDBRANCH   8  13
BRANCH   8  18
HETATM   18  O4  UNL     1      54.851 137.635  19.782  1.00  0.00    -0.378 OA
HETATM   19  C15 UNL     1      54.689 138.889  19.819  1.00  0.00     0.203 C 
ENDBRANCH   8  18
BRANCH   1  20
HETATM   20  O1  UNL     1      54.605 135.110  16.412  1.00  0.00    -0.352 OA
HETATM   21  C1  UNL     1      55.104 136.142  15.599  1.00  0.00     0.210 C 
ENDBRANCH   1  20
BRANCH   2  22
HETATM   22  O2  UNL     1      51.941 135.055  15.666  1.00  0.00    -0.358 OA
ATOM     23  H2  UNL     1      52.148 135.684  14.985  1.00  0.00     0.217 HD
ENDBRANCH   2  22
BRANCH   4  24
HETATM   24  O3  UNL     1      50.616 135.854  20.174  1.00  0.00    -0.358 OA
ATOM     25  H3  UNL     1      50.436 135.159  20.796  1.00  0.00     0.217 HD
ENDBRANCH   4  24
TORSDOF 6
ENDMDL
MODEL 5
REMARK VINA RESULT: -5.383948721      2.413      4.533
REMARK  6 active torsions:
REMARK  status: ('A' for Active; 'I' for Inactive)
REMARK    1  A    between atoms: O1_2  and  C2_3 
REMARK    2  A    between atoms: C3_4  and  O2_5 
REMARK    3  A    between atoms: C5_8  and  O3_9 
REMARK    4  A    between atoms: C9_14  and  C10_15 
REMARK    5  A    between atoms: C9_14  and  O4_20 
REMARK    6  A    between atoms: C11_16  and  C12_17 
ROOT
HETATM    1  C2  UNL     1      53.894 135.436  17.498  1.00  0.00     0.110 A 
HETATM    2  C3  UNL     1      52.596 135.340  17.041  1.00  0.00     0.102 A 
HETATM    3  C4  UNL     1      51.496 135.453  17.881  1.00  0.00     0.078 A 
HETATM    4  C5  UNL     1      51.763 135.671  19.231  1.00  0.00     0.102 A 
HETATM    5  C6  UNL     1      53.042 135.772  19.719  1.00  0.00     0.112 A 
HETATM    6  C7  UNL     1      54.091 135.654  18.849  1.00  0.00     0.018 A 
HETATM    7  C8  UNL     1      55.474 135.757  19.344  1.00  0.00     0.090 C 
HETATM    8  C9  UNL     1      55.403 136.804  20.585  1.00  0.00     0.113 C 
HETATM    9  C16 UNL     1      54.579 136.016  21.557  1.00  0.00     0.095 C 
HETATM   10  C17 UNL     1      54.591 136.509  22.979  1.00  0.00     0.050 C 
HETATM   11  C18 UNL     1      54.986 134.573  21.604  1.00  0.00     0.050 C 
HETATM   12  O5  UNL     1      53.228 135.986  21.056  1.00  0.00    -0.334 OA
ENDROOT
BRANCH   8  13
HETATM   13  C10 UNL     1      56.834 136.847  20.962  1.00  0.00     0.010 C 
HETATM   14  C11 UNL     1      57.419 137.662  21.998  1.00  0.00    -0.024 C 
BRANCH  14  15
HETATM   15  C12 UNL     1      57.407 139.137  21.969  1.00  0.00    -0.000 C 
HETATM   16  C13 UNL     1      58.707 139.751  22.510  1.00  0.00     0.013 C 
HETATM   17  C14 UNL     1      56.352 139.654  22.996  1.00  0.00     0.013 C 
ENDBRANCH  14  15
ENDBRANCH   8  13
BRANCH   8  18
HETATM   18  O4  UNL     1      54.843 137.803  19.978  1.00  0.00    -0.378 OA
HETATM   19  C15 UNL     1      55.008 138.978  19.538  1.00  0.00     0.203 C 
ENDBRANCH   8  18
BRANCH   1  20
HETATM   20  O1  UNL     1      54.922 135.310  16.576  1.00  0.00    -0.352 OA
HETATM   21  C1  UNL     1      55.449 136.389  15.846  1.00  0.00     0.210 C 
ENDBRANCH   1  20
BRANCH   2  22
HETATM   22  O2  UNL     1      52.310 135.120  15.682  1.00  0.00    -0.358 OA
ATOM     23  H2  UNL     1      52.925 135.364  15.000  1.00  0.00     0.217 HD
ENDBRANCH   2  22
BRANCH   4  24
HETATM   24  O3  UNL     1      50.696 135.791  20.116  1.00  0.00    -0.358 OA
ATOM     25  H3  UNL     1      49.850 135.442  19.863  1.00  0.00     0.217 HD
ENDBRANCH   4  24
TORSDOF 6
ENDMDL
