MODEL 1
REMARK VINA RESULT: -6.257600273      0.000      0.000
REMARK  6 active torsions:
REMARK  status: ('A' for Active; 'I' for Inactive)
REMARK    1  A    between atoms: O1_2  and  C2_3 
REMARK    2  A    between atoms: C4_5  and  C5_6 
REMARK    3  A    between atoms: C5_6  and  C6_7 
REMARK    4  A    between atoms: C11_13  and  N1_14 
REMARK    5  A    between atoms: C14_20  and  O2_21 
REMARK    6  A    between atoms: C16_23  and  O3_24 
ROOT
HETATM    1  C5  UNL     1      51.916 134.801  14.891  1.00  0.00    -0.035 C 
HETATM    2  C7  UNL     1      50.847 134.063  14.694  1.00  0.00    -0.070 C 
HETATM    3  C8  UNL     1      50.375 133.778  13.308  1.00  0.00     0.035 C 
HETATM    4  C9  UNL     1      49.110 132.910  13.397  1.00  0.00     0.006 C 
HETATM    5  C10 UNL     1      48.087 133.444  14.328  1.00  0.00     0.033 C 
HETATM    6  C11 UNL     1      48.639 134.005  15.589  1.00  0.00     0.187 C 
HETATM    7  C12 UNL     1      50.068 133.458  15.769  1.00  0.00     0.067 C 
ENDROOT
BRANCH   1   8
HETATM    8  C4  UNL     1      52.430 135.123  16.206  1.00  0.00    -0.023 A 
HETATM    9  C3  UNL     1      53.812 135.280  16.362  1.00  0.00     0.051 A 
HETATM   10  C2  UNL     1      54.326 135.614  17.594  1.00  0.00     0.105 A 
HETATM   11  C16 UNL     1      53.526 135.802  18.696  1.00  0.00     0.135 A 
HETATM   12  C14 UNL     1      52.167 135.653  18.563  1.00  0.00     0.105 A 
HETATM   13  C13 UNL     1      51.646 135.312  17.301  1.00  0.00     0.051 A 
BRANCH  10  14
HETATM   14  O1  UNL     1      55.717 135.757  17.689  1.00  0.00    -0.353 OA
HETATM   15  C1  UNL     1      56.377 136.936  17.318  1.00  0.00     0.210 C 
ENDBRANCH  10  14
BRANCH  11  16
HETATM   16  O3  UNL     1      54.111 136.136  19.899  1.00  0.00    -0.351 OA
HETATM   17  C17 UNL     1      54.453 135.191  20.890  1.00  0.00     0.210 C 
ENDBRANCH  11  16
BRANCH  12  18
HETATM   18  O2  UNL     1      51.296 135.832  19.647  1.00  0.00    -0.353 OA
HETATM   19  C15 UNL     1      49.900 135.715  19.449  1.00  0.00     0.210 C 
ENDBRANCH  12  18
ENDBRANCH   1   8
BRANCH   1  20
HETATM   20  C6  UNL     1      52.611 135.420  13.708  1.00  0.00     0.125 C 
HETATM   21  S1  UNL     1      52.190 137.147  13.523  1.00  0.00    -0.093 SA
ENDBRANCH   1  20
BRANCH   6  22
HETATM   22  N1  UNL     1      47.842 133.732  16.743  1.00  0.00    -0.075 N 
ATOM     23  H13 UNL     1      46.976 133.264  16.477  1.00  0.00     0.274 HD
ATOM     24  H12 UNL     1      48.270 132.999  17.309  1.00  0.00     0.274 HD
ATOM     25  H11 UNL     1      47.644 134.555  17.313  1.00  0.00     0.274 HD
ENDBRANCH   6  22
TORSDOF 6
ENDMDL
MODEL 2
REMARK VINA RESULT: -6.126394147      0.143      2.737
REMARK  6 active torsions:
REMARK  status: ('A' for Active; 'I' for Inactive)
REMARK    1  A    between atoms: O1_2  and  C2_3 
REMARK    2  A    between atoms: C4_5  and  C5_6 
REMARK    3  A    between atoms: C5_6  and  C6_7 
REMARK    4  A    between atoms: C11_13  and  N1_14 
REMARK    5  A    between atoms: C14_20  and  O2_21 
REMARK    6  A    between atoms: C16_23  and  O3_24 
ROOT
HETATM    1  C5  UNL     1      51.868 134.775  14.883  1.00  0.00    -0.035 C 
HETATM    2  C7  UNL     1      50.796 134.028  14.756  1.00  0.00    -0.070 C 
HETATM    3  C8  UNL     1      50.249 133.721  13.402  1.00  0.00     0.035 C 
HETATM    4  C9  UNL     1      48.998 132.845  13.573  1.00  0.00     0.006 C 
HETATM    5  C10 UNL     1      48.024 133.385  14.552  1.00  0.00     0.033 C 
HETATM    6  C11 UNL     1      48.642 133.965  15.774  1.00  0.00     0.187 C 
HETATM    7  C12 UNL     1      50.082 133.431  15.880  1.00  0.00     0.067 C 
ENDROOT
BRANCH   1   8
HETATM    8  C4  UNL     1      52.452 135.117  16.164  1.00  0.00    -0.023 A 
HETATM    9  C3  UNL     1      51.602 135.293  17.261  1.00  0.00     0.051 A 
HETATM   10  C2  UNL     1      52.132 135.589  18.496  1.00  0.00     0.105 A 
HETATM   11  C16 UNL     1      53.485 135.722  18.700  1.00  0.00     0.135 A 
HETATM   12  C14 UNL     1      54.336 135.552  17.636  1.00  0.00     0.105 A 
HETATM   13  C13 UNL     1      53.789 135.250  16.376  1.00  0.00     0.051 A 
BRANCH  10  14
HETATM   14  O1  UNL     1      51.230 135.754  19.556  1.00  0.00    -0.353 OA
HETATM   15  C1  UNL     1      49.842 135.751  19.367  1.00  0.00     0.210 C 
ENDBRANCH  10  14
BRANCH  11  16
HETATM   16  O3  UNL     1      53.944 136.020  19.965  1.00  0.00    -0.351 OA
HETATM   17  C17 UNL     1      54.372 135.044  20.891  1.00  0.00     0.210 C 
ENDBRANCH  11  16
BRANCH  12  18
HETATM   18  O2  UNL     1      55.726 135.674  17.778  1.00  0.00    -0.353 OA
HETATM   19  C15 UNL     1      56.355 136.903  17.466  1.00  0.00     0.210 C 
ENDBRANCH  12  18
ENDBRANCH   1   8
BRANCH   1  20
HETATM   20  C6  UNL     1      52.492 135.383  13.656  1.00  0.00     0.125 C 
HETATM   21  S1  UNL     1      52.125 137.128  13.523  1.00  0.00    -0.093 SA
ENDBRANCH   1  20
BRANCH   6  22
HETATM   22  N1  UNL     1      47.912 133.702  16.974  1.00  0.00    -0.075 N 
ATOM     23  H13 UNL     1      46.912 133.832  16.820  1.00  0.00     0.274 HD
ATOM     24  H12 UNL     1      47.926 132.705  17.190  1.00  0.00     0.274 HD
ATOM     25  H11 UNL     1      48.225 134.248  17.777  1.00  0.00     0.274 HD
ENDBRANCH   6  22
TORSDOF 6
ENDMDL
MODEL 3
REMARK VINA RESULT: -5.941932893      2.590      4.134
REMARK  6 active torsions:
REMARK  status: ('A' for Active; 'I' for Inactive)
REMARK    1  A    between atoms: O1_2  and  C2_3 
REMARK    2  A    between atoms: C4_5  and  C5_6 
REMARK    3  A    between atoms: C5_6  and  C6_7 
REMARK    4  A    between atoms: C11_13  and  N1_14 
REMARK    5  A    between atoms: C14_20  and  O2_21 
REMARK    6  A    between atoms: C16_23  and  O3_24 
ROOT
HETATM    1  C5  UNL     1      53.824 135.350  17.549  1.00  0.00    -0.035 C 
HETATM    2  C7  UNL     1      52.573 134.952  17.525  1.00  0.00    -0.070 C 
HETATM    3  C8  UNL     1      51.852 134.816  16.226  1.00  0.00     0.035 C 
HETATM    4  C9  UNL     1      50.416 134.350  16.516  1.00  0.00     0.006 C 
HETATM    5  C10 UNL     1      49.728 135.157  17.551  1.00  0.00     0.033 C 
HETATM    6  C11 UNL     1      50.586 135.534  18.705  1.00  0.00     0.187 C 
HETATM    7  C12 UNL     1      51.808 134.598  18.717  1.00  0.00     0.067 C 
ENDROOT
BRANCH   1   8
HETATM    8  C4  UNL     1      54.585 135.508  18.771  1.00  0.00    -0.023 A 
HETATM    9  C3  UNL     1      54.491 136.720  19.464  1.00  0.00     0.051 A 
HETATM   10  C2  UNL     1      55.180 136.888  20.643  1.00  0.00     0.105 A 
HETATM   11  C16 UNL     1      55.971 135.899  21.178  1.00  0.00     0.135 A 
HETATM   12  C14 UNL     1      56.076 134.701  20.513  1.00  0.00     0.105 A 
HETATM   13  C13 UNL     1      55.369 134.535  19.308  1.00  0.00     0.051 A 
BRANCH  10  14
HETATM   14  O1  UNL     1      55.047 138.123  21.292  1.00  0.00    -0.353 OA
HETATM   15  C1  UNL     1      55.003 139.337  20.593  1.00  0.00     0.210 C 
ENDBRANCH  10  14
BRANCH  11  16
HETATM   16  O3  UNL     1      56.632 136.138  22.363  1.00  0.00    -0.351 OA
HETATM   17  C17 UNL     1      56.104 135.815  23.632  1.00  0.00     0.210 C 
ENDBRANCH  11  16
BRANCH  12  18
HETATM   18  O2  UNL     1      56.866 133.653  21.004  1.00  0.00    -0.353 OA
HETATM   19  C15 UNL     1      56.260 132.608  21.742  1.00  0.00     0.210 C 
ENDBRANCH  12  18
ENDBRANCH   1   8
BRANCH   1  20
HETATM   20  C6  UNL     1      54.498 135.741  16.262  1.00  0.00     0.125 C 
HETATM   21  S1  UNL     1      55.041 137.444  16.290  1.00  0.00    -0.093 SA
ENDBRANCH   1  20
BRANCH   6  22
HETATM   22  N1  UNL     1      49.911 135.504  19.964  1.00  0.00    -0.075 N 
ATOM     23  H13 UNL     1      49.922 134.561  20.353  1.00  0.00     0.274 HD
ATOM     24  H12 UNL     1      50.458 135.991  20.676  1.00  0.00     0.274 HD
ATOM     25  H11 UNL     1      48.959 135.868  19.933  1.00  0.00     0.274 HD
ENDBRANCH   6  22
TORSDOF 6
ENDMDL
MODEL 4
REMARK VINA RESULT: -5.940005384      3.433      5.500
REMARK  6 active torsions:
REMARK  status: ('A' for Active; 'I' for Inactive)
REMARK    1  A    between atoms: O1_2  and  C2_3 
REMARK    2  A    between atoms: C4_5  and  C5_6 
REMARK    3  A    between atoms: C5_6  and  C6_7 
REMARK    4  A    between atoms: C11_13  and  N1_14 
REMARK    5  A    between atoms: C14_20  and  O2_21 
REMARK    6  A    between atoms: C16_23  and  O3_24 
ROOT
HETATM    1  C5  UNL     1      54.458 136.598  18.851  1.00  0.00    -0.035 C 
HETATM    2  C7  UNL     1      53.464 135.796  18.545  1.00  0.00    -0.070 C 
HETATM    3  C8  UNL     1      53.293 135.310  17.145  1.00  0.00     0.035 C 
HETATM    4  C9  UNL     1      52.049 134.409  17.094  1.00  0.00     0.006 C 
HETATM    5  C10 UNL     1      50.848 135.018  17.714  1.00  0.00     0.033 C 
HETATM    6  C11 UNL     1      51.120 135.764  18.972  1.00  0.00     0.187 C 
HETATM    7  C12 UNL     1      52.487 135.306  19.512  1.00  0.00     0.067 C 
ENDROOT
BRANCH   1   8
HETATM    8  C4  UNL     1      54.684 137.112  20.186  1.00  0.00    -0.023 A 
HETATM    9  C3  UNL     1      54.809 136.200  21.240  1.00  0.00     0.051 A 
HETATM   10  C2  UNL     1      55.054 136.659  22.515  1.00  0.00     0.105 A 
HETATM   11  C16 UNL     1      55.182 137.997  22.800  1.00  0.00     0.135 A 
HETATM   12  C14 UNL     1      55.064 138.908  21.778  1.00  0.00     0.105 A 
HETATM   13  C13 UNL     1      54.814 138.434  20.478  1.00  0.00     0.051 A 
BRANCH  10  14
HETATM   14  O1  UNL     1      55.168 135.698  23.529  1.00  0.00    -0.353 OA
HETATM   15  C1  UNL     1      56.091 134.646  23.465  1.00  0.00     0.210 C 
ENDBRANCH  10  14
BRANCH  11  16
HETATM   16  O3  UNL     1      55.427 138.384  24.100  1.00  0.00    -0.351 OA
HETATM   17  C17 UNL     1      56.722 138.527  24.642  1.00  0.00     0.210 C 
ENDBRANCH  11  16
BRANCH  12  18
HETATM   18  O2  UNL     1      55.185 140.286  22.003  1.00  0.00    -0.353 OA
HETATM   19  C15 UNL     1      56.429 140.924  21.783  1.00  0.00     0.210 C 
ENDBRANCH  12  18
ENDBRANCH   1   8
BRANCH   1  20
HETATM   20  C6  UNL     1      55.375 137.083  17.761  1.00  0.00     0.125 C 
HETATM   21  S1  UNL     1      57.095 136.882  18.206  1.00  0.00    -0.093 SA
ENDBRANCH   1  20
BRANCH   6  22
HETATM   22  N1  UNL     1      50.104 135.613  19.966  1.00  0.00    -0.075 N 
ATOM     23  H13 UNL     1      49.389 134.959  19.650  1.00  0.00     0.274 HD
ATOM     24  H12 UNL     1      50.465 135.100  20.771  1.00  0.00     0.274 HD
ATOM     25  H11 UNL     1      49.680 136.493  20.261  1.00  0.00     0.274 HD
ENDBRANCH   6  22
TORSDOF 6
ENDMDL
MODEL 5
REMARK VINA RESULT: -5.905072629      3.165      4.440
REMARK  6 active torsions:
REMARK  status: ('A' for Active; 'I' for Inactive)
REMARK    1  A    between atoms: O1_2  and  C2_3 
REMARK    2  A    between atoms: C4_5  and  C5_6 
REMARK    3  A    between atoms: C5_6  and  C6_7 
REMARK    4  A    between atoms: C11_13  and  N1_14 
REMARK    5  A    between atoms: C14_20  and  O2_21 
REMARK    6  A    between atoms: C16_23  and  O3_24 
ROOT
HETATM    1  C5  UNL     1      52.344 136.115  12.813  1.00  0.00    -0.035 C 
HETATM    2  C7  UNL     1      52.186 137.361  12.428  1.00  0.00    -0.070 C 
HETATM    3  C8  UNL     1      52.211 137.709  10.978  1.00  0.00     0.035 C 
HETATM    4  C9  UNL     1      52.015 139.227  10.841  1.00  0.00     0.006 C 
HETATM    5  C10 UNL     1      52.916 140.023  11.709  1.00  0.00     0.033 C 
HETATM    6  C11 UNL     1      53.104 139.463  13.073  1.00  0.00     0.187 C 
HETATM    7  C12 UNL     1      51.957 138.473  13.345  1.00  0.00     0.067 C 
ENDROOT
BRANCH   1   8
HETATM    8  C4  UNL     1      52.335 135.704  14.201  1.00  0.00    -0.023 A 
HETATM    9  C3  UNL     1      53.544 135.701  14.905  1.00  0.00     0.051 A 
HETATM   10  C2  UNL     1      53.561 135.343  16.233  1.00  0.00     0.105 A 
HETATM   11  C16 UNL     1      52.420 134.981  16.910  1.00  0.00     0.135 A 
HETATM   12  C14 UNL     1      51.222 134.978  16.236  1.00  0.00     0.105 A 
HETATM   13  C13 UNL     1      51.211 135.346  14.879  1.00  0.00     0.051 A 
BRANCH  10  14
HETATM   14  O1  UNL     1      54.801 135.359  16.885  1.00  0.00    -0.353 OA
HETATM   15  C1  UNL     1      55.412 136.547  17.307  1.00  0.00     0.210 C 
ENDBRANCH  10  14
BRANCH  11  16
HETATM   16  O3  UNL     1      52.512 134.634  18.240  1.00  0.00    -0.351 OA
HETATM   17  C17 UNL     1      52.328 135.548  19.301  1.00  0.00     0.210 C 
ENDBRANCH  11  16
BRANCH  12  18
HETATM   18  O2  UNL     1      50.023 134.620  16.868  1.00  0.00    -0.353 OA
HETATM   19  C15 UNL     1      48.788 134.984  16.282  1.00  0.00     0.210 C 
ENDBRANCH  12  18
ENDBRANCH   1   8
BRANCH   1  20
HETATM   20  C6  UNL     1      52.627 135.056  11.782  1.00  0.00     0.125 C 
HETATM   21  S1  UNL     1      51.150 134.152  11.340  1.00  0.00    -0.093 SA
ENDBRANCH   1  20
BRANCH   6  22
HETATM   22  N1  UNL     1      53.176 140.453  14.101  1.00  0.00    -0.075 N 
ATOM     23  H13 UNL     1      52.288 140.516  14.599  1.00  0.00     0.274 HD
ATOM     24  H12 UNL     1      53.779 140.137  14.861  1.00  0.00     0.274 HD
ATOM     25  H11 UNL     1      53.468 141.373  13.771  1.00  0.00     0.274 HD
ENDBRANCH   6  22
TORSDOF 6
ENDMDL
