MODEL 1
REMARK VINA RESULT: -6.406047545      0.000      0.000
REMARK  7 active torsions:
REMARK  status: ('A' for Active; 'I' for Inactive)
REMARK    1  A    between atoms: C2_2  and  N1_4 
REMARK       I    between atoms: N1_4  and  C4_6 
REMARK    2  A    between atoms: C4_6  and  O2_8 
REMARK    3  A    between atoms: O2_8  and  C5_9 
REMARK    4  A    between atoms: C5_9  and  C6_10 
REMARK    5  A    between atoms: C6_10  and  O3_11 
REMARK    6  A    between atoms: C6_10  and  C7_13 
REMARK    7  A    between atoms: C8_14  and  C9_15 
ROOT
HETATM    1  C7  UNL     1      52.614 134.681  16.346  1.00  0.00     0.029 A 
HETATM    2  C8  UNL     1      51.504 134.480  15.564  1.00  0.00    -0.051 A 
HETATM    3  C15 UNL     1      51.596 135.092  14.286  1.00  0.00     0.116 A 
HETATM    4  S1  UNL     1      53.088 135.865  14.222  1.00  0.00    -0.110 SA
HETATM    5  C16 UNL     1      53.642 135.464  15.741  1.00  0.00     0.096 A 
HETATM    6  N2  UNL     1      54.910 135.841  16.336  1.00  0.00    -0.094 NA
ENDROOT
BRANCH   1   7
HETATM    7  C6  UNL     1      52.906 134.149  17.668  1.00  0.00     0.080 C 
BRANCH   7   8
HETATM    8  C5  UNL     1      52.473 134.400  19.009  1.00  0.00     0.245 C 
BRANCH   8   9
HETATM    9  O2  UNL     1      53.359 135.269  19.758  1.00  0.00    -0.297 OA
BRANCH   9  10
HETATM   10  C4  UNL     1      54.174 134.800  20.774  1.00  0.00     0.361 C 
HETATM   11  N1  UNL     1      54.758 133.501  20.751  1.00  0.00    -0.333 N 
ATOM     12  H1  UNL     1      54.579 132.882  19.960  1.00  0.00     0.165 HD
HETATM   13  O1  UNL     1      54.399 135.557  21.749  1.00  0.00    -0.238 OA
BRANCH  11  14
HETATM   14  C2  UNL     1      55.593 133.054  21.824  1.00  0.00     0.078 C 
HETATM   15  C1  UNL     1      57.057 133.282  21.631  1.00  0.00     0.032 C 
HETATM   16  C3  UNL     1      55.292 131.572  22.106  1.00  0.00     0.032 C 
ENDBRANCH  11  14
ENDBRANCH   9  10
ENDBRANCH   8   9
ENDBRANCH   7   8
BRANCH   7  17
HETATM   17  O3  UNL     1      53.793 133.178  17.664  1.00  0.00    -0.362 OA
ATOM     18  H3  UNL     1      54.486 133.381  17.047  1.00  0.00     0.217 HD
ENDBRANCH   7  17
ENDBRANCH   1   7
BRANCH   2  19
HETATM   19  C9  UNL     1      50.245 133.720  15.770  1.00  0.00     0.016 C 
HETATM   20  C10 UNL     1      49.254 134.141  14.637  1.00  0.00     0.009 C 
HETATM   21  C11 UNL     1      47.817 134.061  14.986  1.00  0.00     0.001 C 
HETATM   22  C12 UNL     1      47.437 134.943  16.165  1.00  0.00     0.000 C 
HETATM   23  C13 UNL     1      48.607 134.945  17.122  1.00  0.00     0.001 C 
HETATM   24  C14 UNL     1      49.403 133.648  16.906  1.00  0.00     0.009 C 
ENDBRANCH   2  19
TORSDOF 7
ENDMDL
MODEL 2
REMARK VINA RESULT: -6.385250609      1.154      1.366
REMARK  7 active torsions:
REMARK  status: ('A' for Active; 'I' for Inactive)
REMARK    1  A    between atoms: C2_2  and  N1_4 
REMARK       I    between atoms: N1_4  and  C4_6 
REMARK    2  A    between atoms: C4_6  and  O2_8 
REMARK    3  A    between atoms: O2_8  and  C5_9 
REMARK    4  A    between atoms: C5_9  and  C6_10 
REMARK    5  A    between atoms: C6_10  and  O3_11 
REMARK    6  A    between atoms: C6_10  and  C7_13 
REMARK    7  A    between atoms: C8_14  and  C9_15 
ROOT
HETATM    1  C7  UNL     1      53.008 134.691  16.748  1.00  0.00     0.029 A 
HETATM    2  C8  UNL     1      51.881 134.601  15.968  1.00  0.00    -0.051 A 
HETATM    3  C15 UNL     1      51.945 135.395  14.792  1.00  0.00     0.116 A 
HETATM    4  S1  UNL     1      53.433 136.176  14.811  1.00  0.00    -0.110 SA
HETATM    5  C16 UNL     1      54.021 135.558  16.242  1.00  0.00     0.096 A 
HETATM    6  N2  UNL     1      55.301 135.850  16.859  1.00  0.00    -0.094 NA
ENDROOT
BRANCH   1   7
HETATM    7  C6  UNL     1      53.329 133.972  17.970  1.00  0.00     0.080 C 
BRANCH   7   8
HETATM    8  C5  UNL     1      53.030 134.104  19.364  1.00  0.00     0.245 C 
BRANCH   8   9
HETATM    9  O2  UNL     1      54.191 134.374  20.189  1.00  0.00    -0.297 OA
BRANCH   9  10
HETATM   10  C4  UNL     1      54.860 133.376  20.877  1.00  0.00     0.361 C 
HETATM   11  N1  UNL     1      55.974 133.642  21.724  1.00  0.00    -0.333 N 
ATOM     12  H1  UNL     1      56.301 134.601  21.840  1.00  0.00     0.165 HD
HETATM   13  O1  UNL     1      54.461 132.194  20.740  1.00  0.00    -0.238 OA
BRANCH  11  14
HETATM   14  C2  UNL     1      56.639 132.579  22.414  1.00  0.00     0.078 C 
HETATM   15  C1  UNL     1      56.318 132.464  23.869  1.00  0.00     0.032 C 
HETATM   16  C3  UNL     1      58.155 132.708  22.187  1.00  0.00     0.032 C 
ENDBRANCH  11  14
ENDBRANCH   9  10
ENDBRANCH   8   9
ENDBRANCH   7   8
BRANCH   7  17
HETATM   17  O3  UNL     1      54.088 132.914  17.780  1.00  0.00    -0.362 OA
ATOM     18  H3  UNL     1      53.542 132.140  17.708  1.00  0.00     0.217 HD
ENDBRANCH   7  17
ENDBRANCH   1   7
BRANCH   2  19
HETATM   19  C9  UNL     1      50.627 133.814  16.087  1.00  0.00     0.016 C 
HETATM   20  C10 UNL     1      49.697 134.235  14.904  1.00  0.00     0.009 C 
HETATM   21  C11 UNL     1      48.244 134.120  15.166  1.00  0.00     0.001 C 
HETATM   22  C12 UNL     1      47.777 134.975  16.334  1.00  0.00     0.000 C 
HETATM   23  C13 UNL     1      48.888 134.984  17.359  1.00  0.00     0.001 C 
HETATM   24  C14 UNL     1      49.722 133.707  17.171  1.00  0.00     0.009 C 
ENDBRANCH   2  19
TORSDOF 7
ENDMDL
MODEL 3
REMARK VINA RESULT: -6.304855906      1.977      2.437
REMARK  7 active torsions:
REMARK  status: ('A' for Active; 'I' for Inactive)
REMARK    1  A    between atoms: C2_2  and  N1_4 
REMARK       I    between atoms: N1_4  and  C4_6 
REMARK    2  A    between atoms: C4_6  and  O2_8 
REMARK    3  A    between atoms: O2_8  and  C5_9 
REMARK    4  A    between atoms: C5_9  and  C6_10 
REMARK    5  A    between atoms: C6_10  and  O3_11 
REMARK    6  A    between atoms: C6_10  and  C7_13 
REMARK    7  A    between atoms: C8_14  and  C9_15 
ROOT
HETATM    1  C7  UNL     1      52.635 134.658  16.399  1.00  0.00     0.029 A 
HETATM    2  C8  UNL     1      51.520 134.540  15.606  1.00  0.00    -0.051 A 
HETATM    3  C15 UNL     1      51.604 135.286  14.400  1.00  0.00     0.116 A 
HETATM    4  S1  UNL     1      53.095 136.064  14.412  1.00  0.00    -0.110 SA
HETATM    5  C16 UNL     1      53.658 135.503  15.875  1.00  0.00     0.096 A 
HETATM    6  N2  UNL     1      54.929 135.816  16.501  1.00  0.00    -0.094 NA
ENDROOT
BRANCH   1   7
HETATM    7  C6  UNL     1      52.934 133.988  17.654  1.00  0.00     0.080 C 
BRANCH   7   8
HETATM    8  C5  UNL     1      52.493 134.077  19.012  1.00  0.00     0.245 C 
BRANCH   8   9
HETATM    9  O2  UNL     1      52.308 135.437  19.481  1.00  0.00    -0.297 OA
BRANCH   9  10
HETATM   10  C4  UNL     1      53.316 136.148  20.109  1.00  0.00     0.361 C 
HETATM   11  N1  UNL     1      54.246 136.954  19.393  1.00  0.00    -0.333 N 
ATOM     12  H1  UNL     1      54.179 137.021  18.377  1.00  0.00     0.165 HD
HETATM   13  O1  UNL     1      53.403 136.072  21.358  1.00  0.00    -0.238 OA
BRANCH  11  14
HETATM   14  C2  UNL     1      55.276 137.672  20.081  1.00  0.00     0.078 C 
HETATM   15  C1  UNL     1      54.921 139.066  20.486  1.00  0.00     0.032 C 
HETATM   16  C3  UNL     1      56.556 137.650  19.228  1.00  0.00     0.032 C 
ENDBRANCH  11  14
ENDBRANCH   9  10
ENDBRANCH   8   9
ENDBRANCH   7   8
BRANCH   7  17
HETATM   17  O3  UNL     1      53.842 133.042  17.546  1.00  0.00    -0.362 OA
ATOM     18  H3  UNL     1      54.710 133.425  17.606  1.00  0.00     0.217 HD
ENDBRANCH   7  17
ENDBRANCH   1   7
BRANCH   2  19
HETATM   19  C9  UNL     1      50.262 133.761  15.736  1.00  0.00     0.016 C 
HETATM   20  C10 UNL     1      49.324 134.187  14.561  1.00  0.00     0.009 C 
HETATM   21  C11 UNL     1      47.874 134.082  14.835  1.00  0.00     0.001 C 
HETATM   22  C12 UNL     1      47.422 134.940  16.007  1.00  0.00     0.000 C 
HETATM   23  C13 UNL     1      48.542 134.942  17.022  1.00  0.00     0.001 C 
HETATM   24  C14 UNL     1      49.366 133.660  16.827  1.00  0.00     0.009 C 
ENDBRANCH   2  19
TORSDOF 7
ENDMDL
MODEL 4
REMARK VINA RESULT: -6.247829862      1.607      1.813
REMARK  7 active torsions:
REMARK  status: ('A' for Active; 'I' for Inactive)
REMARK    1  A    between atoms: C2_2  and  N1_4 
REMARK       I    between atoms: N1_4  and  C4_6 
REMARK    2  A    between atoms: C4_6  and  O2_8 
REMARK    3  A    between atoms: O2_8  and  C5_9 
REMARK    4  A    between atoms: C5_9  and  C6_10 
REMARK    5  A    between atoms: C6_10  and  O3_11 
REMARK    6  A    between atoms: C6_10  and  C7_13 
REMARK    7  A    between atoms: C8_14  and  C9_15 
ROOT
HETATM    1  C7  UNL     1      52.703 134.686  16.376  1.00  0.00     0.029 A 
HETATM    2  C8  UNL     1      51.582 134.532  15.598  1.00  0.00    -0.051 A 
HETATM    3  C15 UNL     1      51.655 135.224  14.361  1.00  0.00     0.116 A 
HETATM    4  S1  UNL     1      53.145 136.004  14.325  1.00  0.00    -0.110 SA
HETATM    5  C16 UNL     1      53.721 135.508  15.807  1.00  0.00     0.096 A 
HETATM    6  N2  UNL     1      54.997 135.849  16.408  1.00  0.00    -0.094 NA
ENDROOT
BRANCH   1   7
HETATM    7  C6  UNL     1      53.014 134.072  17.657  1.00  0.00     0.080 C 
BRANCH   7   8
HETATM    8  C5  UNL     1      52.547 134.184  19.005  1.00  0.00     0.245 C 
BRANCH   8   9
HETATM    9  O2  UNL     1      53.609 134.307  19.985  1.00  0.00    -0.297 OA
BRANCH   9  10
HETATM   10  C4  UNL     1      53.794 135.455  20.737  1.00  0.00     0.361 C 
HETATM   11  N1  UNL     1      54.791 135.557  21.748  1.00  0.00    -0.333 N 
ATOM     12  H1  UNL     1      55.402 134.762  21.936  1.00  0.00     0.165 HD
HETATM   13  O1  UNL     1      53.047 136.437  20.509  1.00  0.00    -0.238 OA
BRANCH  11  14
HETATM   14  C2  UNL     1      54.948 136.762  22.504  1.00  0.00     0.078 C 
HETATM   15  C1  UNL     1      56.241 137.482  22.298  1.00  0.00     0.032 C 
HETATM   16  C3  UNL     1      54.715 136.451  23.993  1.00  0.00     0.032 C 
ENDBRANCH  11  14
ENDBRANCH   9  10
ENDBRANCH   8   9
ENDBRANCH   7   8
BRANCH   7  17
HETATM   17  O3  UNL     1      53.967 133.168  17.594  1.00  0.00    -0.362 OA
ATOM     18  H3  UNL     1      53.813 132.495  18.247  1.00  0.00     0.217 HD
ENDBRANCH   7  17
ENDBRANCH   1   7
BRANCH   2  19
HETATM   19  C9  UNL     1      50.327 133.758  15.773  1.00  0.00     0.016 C 
HETATM   20  C10 UNL     1      49.362 134.163  14.613  1.00  0.00     0.009 C 
HETATM   21  C11 UNL     1      47.918 134.067  14.924  1.00  0.00     0.001 C 
HETATM   22  C12 UNL     1      47.495 134.948  16.089  1.00  0.00     0.000 C 
HETATM   23  C13 UNL     1      48.639 134.967  17.077  1.00  0.00     0.001 C 
HETATM   24  C14 UNL     1      49.456 133.680  16.887  1.00  0.00     0.009 C 
ENDBRANCH   2  19
TORSDOF 7
ENDMDL
MODEL 5
REMARK VINA RESULT: -6.191424169      2.968      4.807
REMARK  7 active torsions:
REMARK  status: ('A' for Active; 'I' for Inactive)
REMARK    1  A    between atoms: C2_2  and  N1_4 
REMARK       I    between atoms: N1_4  and  C4_6 
REMARK    2  A    between atoms: C4_6  and  O2_8 
REMARK    3  A    between atoms: O2_8  and  C5_9 
REMARK    4  A    between atoms: C5_9  and  C6_10 
REMARK    5  A    between atoms: C6_10  and  O3_11 
REMARK    6  A    between atoms: C6_10  and  C7_13 
REMARK    7  A    between atoms: C8_14  and  C9_15 
ROOT
HETATM    1  C7  UNL     1      50.148 133.965  14.532  1.00  0.00     0.029 A 
HETATM    2  C8  UNL     1      51.117 134.793  14.021  1.00  0.00    -0.051 A 
HETATM    3  C15 UNL     1      51.366 134.583  12.639  1.00  0.00     0.116 A 
HETATM    4  S1  UNL     1      50.341 133.346  12.141  1.00  0.00    -0.110 SA
HETATM    5  C16 UNL     1      49.580 133.053  13.594  1.00  0.00     0.096 A 
HETATM    6  N2  UNL     1      48.553 132.063  13.858  1.00  0.00    -0.094 NA
ENDROOT
BRANCH   1   7
HETATM    7  C6  UNL     1      49.582 133.944  15.872  1.00  0.00     0.080 C 
BRANCH   7   8
HETATM    8  C5  UNL     1      48.938 134.878  16.744  1.00  0.00     0.245 C 
BRANCH   8   9
HETATM    9  O2  UNL     1      49.156 134.611  18.153  1.00  0.00    -0.297 OA
BRANCH   9  10
HETATM   10  C4  UNL     1      50.304 135.013  18.814  1.00  0.00     0.361 C 
HETATM   11  N1  UNL     1      51.570 134.398  18.596  1.00  0.00    -0.333 N 
ATOM     12  H1  UNL     1      51.649 133.632  17.928  1.00  0.00     0.165 HD
HETATM   13  O1  UNL     1      50.213 135.957  19.636  1.00  0.00    -0.238 OA
BRANCH  11  14
HETATM   14  C2  UNL     1      52.732 134.843  19.303  1.00  0.00     0.078 C 
HETATM   15  C1  UNL     1      53.485 135.959  18.654  1.00  0.00     0.032 C 
HETATM   16  C3  UNL     1      53.647 133.635  19.569  1.00  0.00     0.032 C 
ENDBRANCH  11  14
ENDBRANCH   9  10
ENDBRANCH   8   9
ENDBRANCH   7   8
BRANCH   7  17
HETATM   17  O3  UNL     1      49.664 132.772  16.464  1.00  0.00    -0.362 OA
ATOM     18  H3  UNL     1      50.338 132.249  16.044  1.00  0.00     0.217 HD
ENDBRANCH   7  17
ENDBRANCH   1   7
BRANCH   2  19
HETATM   19  C9  UNL     1      51.928 135.887  14.612  1.00  0.00     0.016 C 
HETATM   20  C10 UNL     1      51.897 137.086  13.610  1.00  0.00     0.009 C 
HETATM   21  C11 UNL     1      53.088 137.965  13.632  1.00  0.00     0.001 C 
HETATM   22  C12 UNL     1      54.379 137.233  13.302  1.00  0.00     0.000 C 
HETATM   23  C13 UNL     1      54.266 135.839  13.877  1.00  0.00     0.001 C 
HETATM   24  C14 UNL     1      53.275 135.885  15.050  1.00  0.00     0.009 C 
ENDBRANCH   2  19
TORSDOF 7
ENDMDL
