MODEL 1
REMARK VINA RESULT: -5.760601974      0.000      0.000
REMARK  10 active torsions:
REMARK  status: ('A' for Active; 'I' for Inactive)
REMARK    1  A    between atoms: N1_1  and  N2_4 
REMARK    2  A    between atoms: N2_4  and  N3_5 
REMARK    3  A    between atoms: N3_5  and  C1_6 
REMARK    4  A    between atoms: N4_10  and  N5_12 
REMARK    5  A    between atoms: C6_17  and  O1_18 
REMARK    6  A    between atoms: O1_18  and  C7_19 
REMARK    7  A    between atoms: C7_19  and  C8_21 
REMARK       I    between atoms: C8_21  and  N8_23 
REMARK    8  A    between atoms: N8_23  and  N9_25 
REMARK    9  A    between atoms: C9_28  and  C10_29 
REMARK   10  A    between atoms: C10_29  and  O4_30 
ROOT
HETATM    1  C1  UNL     1      -1.238  -2.847   7.754  1.00  0.00     0.233 C 
HETATM    2  C2  UNL     1      -2.555  -2.669   8.512  1.00  0.00     0.056 C 
HETATM    3  C3  UNL     1      -3.574  -3.548   7.830  1.00  0.00     0.060 C 
HETATM    4  C4  UNL     1      -4.054  -2.774   6.663  1.00  0.00     0.036 C 
HETATM    5  N4  UNL     1      -5.293  -2.942   6.366  1.00  0.00    -0.304 N 
ATOM      6  H4  UNL     1      -5.700  -2.443   5.575  1.00  0.00     0.186 HD
HETATM    7  C6  UNL     1      -3.363  -1.833   5.772  1.00  0.00     0.210 C 
HETATM    8  C9  UNL     1      -1.896  -2.144   5.579  1.00  0.00     0.182 C 
HETATM    9  O5  UNL     1      -1.098  -2.200   6.622  1.00  0.00    -0.358 OA
ENDROOT
BRANCH   7  10
HETATM   10  O1  UNL     1      -3.553  -0.501   6.197  1.00  0.00    -0.300 OA
BRANCH  10  11
HETATM   11  C7  UNL     1      -4.269   0.392   5.416  1.00  0.00     0.354 C 
HETATM   12  O2  UNL     1      -4.894  -0.085   4.430  1.00  0.00    -0.254 OA
BRANCH  11  13
HETATM   13  C8  UNL     1      -4.334   1.808   5.669  1.00  0.00     0.334 C 
HETATM   14  O3  UNL     1      -4.001   2.630   4.785  1.00  0.00    -0.260 OA
HETATM   15  N8  UNL     1      -4.776   2.295   6.918  1.00  0.00    -0.268 N 
ATOM     16  H8  UNL     1      -5.051   1.636   7.645  1.00  0.00     0.190 HD
BRANCH  15  17
HETATM   17  N9  UNL     1      -4.843   3.684   7.174  1.00  0.00    -0.342 N 
ATOM     18  H92 UNL     1      -4.013   4.251   7.001  1.00  0.00     0.176 HD
ATOM     19  H91 UNL     1      -5.700   4.112   7.524  1.00  0.00     0.176 HD
ENDBRANCH  15  17
ENDBRANCH  11  13
ENDBRANCH  10  11
ENDBRANCH   7  10
BRANCH   8  20
HETATM   20  C10 UNL     1      -1.800  -3.227   4.532  1.00  0.00     0.199 C 
BRANCH  20  21
HETATM   21  O4  UNL     1      -0.485  -3.550   4.203  1.00  0.00    -0.398 OA
ATOM     22  H4  UNL     1      -0.123  -2.990   3.526  1.00  0.00     0.209 HD
ENDBRANCH  20  21
ENDBRANCH   8  20
BRANCH   5  23
HETATM   23  N5  UNL     1      -6.079  -3.806   7.126  1.00  0.00    -0.276 N 
HETATM   24  C5  UNL     1      -6.649  -4.840   6.606  1.00  0.00     0.215 C 
HETATM   25  N6  UNL     1      -7.451  -5.723   7.380  1.00  0.00    -0.065 NA
HETATM   26  N7  UNL     1      -6.505  -5.149   5.227  1.00  0.00    -0.065 NA
ATOM     27  H5  UNL     1      -6.207  -3.617   8.120  1.00  0.00     0.189 HD
ENDBRANCH   5  23
BRANCH   1  28
HETATM   28  N3  UNL     1      -0.966  -4.270   7.774  1.00  0.00    -0.095 NA
BRANCH  28  29
HETATM   29  N2  UNL     1       0.226  -4.620   7.156  1.00  0.00    -0.036 NA
BRANCH  29  30
HETATM   30  N1  UNL     1       0.118  -5.701   6.295  1.00  0.00    -0.332 N 
ATOM     31  H12 UNL     1      -0.441  -5.662   5.442  1.00  0.00     0.173 HD
ATOM     32  H11 UNL     1       0.644  -6.522   6.593  1.00  0.00     0.173 HD
ENDBRANCH  29  30
ENDBRANCH  28  29
ENDBRANCH   1  28
TORSDOF 10
ENDMDL
MODEL 2
REMARK VINA RESULT: -5.294588719      1.605      1.905
REMARK  10 active torsions:
REMARK  status: ('A' for Active; 'I' for Inactive)
REMARK    1  A    between atoms: N1_1  and  N2_4 
REMARK    2  A    between atoms: N2_4  and  N3_5 
REMARK    3  A    between atoms: N3_5  and  C1_6 
REMARK    4  A    between atoms: N4_10  and  N5_12 
REMARK    5  A    between atoms: C6_17  and  O1_18 
REMARK    6  A    between atoms: O1_18  and  C7_19 
REMARK    7  A    between atoms: C7_19  and  C8_21 
REMARK       I    between atoms: C8_21  and  N8_23 
REMARK    8  A    between atoms: N8_23  and  N9_25 
REMARK    9  A    between atoms: C9_28  and  C10_29 
REMARK   10  A    between atoms: C10_29  and  O4_30 
ROOT
HETATM    1  C1  UNL     1      -2.153  -2.569   8.268  1.00  0.00     0.233 C 
HETATM    2  C2  UNL     1      -3.495  -3.243   8.559  1.00  0.00     0.056 C 
HETATM    3  C3  UNL     1      -3.636  -4.379   7.576  1.00  0.00     0.060 C 
HETATM    4  C4  UNL     1      -4.130  -3.767   6.323  1.00  0.00     0.036 C 
HETATM    5  N4  UNL     1      -4.938  -4.495   5.638  1.00  0.00    -0.304 N 
ATOM      6  H4  UNL     1      -5.324  -4.144   4.763  1.00  0.00     0.186 HD
HETATM    7  C6  UNL     1      -3.864  -2.458   5.712  1.00  0.00     0.210 C 
HETATM    8  C9  UNL     1      -2.481  -1.921   6.003  1.00  0.00     0.182 C 
HETATM    9  O5  UNL     1      -2.097  -1.747   7.248  1.00  0.00    -0.358 OA
ENDROOT
BRANCH   7  10
HETATM   10  O1  UNL     1      -4.861  -1.523   6.063  1.00  0.00    -0.300 OA
BRANCH  10  11
HETATM   11  C7  UNL     1      -4.788  -0.214   5.612  1.00  0.00     0.354 C 
HETATM   12  O2  UNL     1      -4.859  -0.034   4.367  1.00  0.00    -0.254 OA
BRANCH  11  13
HETATM   13  C8  UNL     1      -4.638   0.926   6.479  1.00  0.00     0.334 C 
HETATM   14  O3  UNL     1      -4.290   0.778   7.673  1.00  0.00    -0.260 OA
HETATM   15  N8  UNL     1      -4.880   2.231   5.998  1.00  0.00    -0.268 N 
ATOM     16  H8  UNL     1      -5.163   2.364   5.027  1.00  0.00     0.190 HD
BRANCH  15  17
HETATM   17  N9  UNL     1      -4.735   3.355   6.843  1.00  0.00    -0.342 N 
ATOM     18  H92 UNL     1      -4.306   3.224   7.758  1.00  0.00     0.176 HD
ATOM     19  H91 UNL     1      -5.052   4.278   6.546  1.00  0.00     0.176 HD
ENDBRANCH  15  17
ENDBRANCH  11  13
ENDBRANCH  10  11
ENDBRANCH   7  10
BRANCH   8  20
HETATM   20  C10 UNL     1      -1.529  -2.582   5.036  1.00  0.00     0.199 C 
BRANCH  20  21
HETATM   21  O4  UNL     1      -2.048  -2.685   3.747  1.00  0.00    -0.398 OA
ATOM     22  H4  UNL     1      -1.945  -1.887   3.240  1.00  0.00     0.209 HD
ENDBRANCH  20  21
ENDBRANCH   8  20
BRANCH   5  23
HETATM   23  N5  UNL     1      -5.286  -5.765   6.096  1.00  0.00    -0.276 N 
HETATM   24  C5  UNL     1      -5.627  -6.709   5.285  1.00  0.00     0.215 C 
HETATM   25  N6  UNL     1      -5.982  -8.005   5.750  1.00  0.00    -0.065 NA
HETATM   26  N7  UNL     1      -5.665  -6.500   3.880  1.00  0.00    -0.065 NA
ATOM     27  H5  UNL     1      -5.272  -5.953   7.098  1.00  0.00     0.189 HD
ENDBRANCH   5  23
BRANCH   1  28
HETATM   28  N3  UNL     1      -1.160  -3.619   8.364  1.00  0.00    -0.095 NA
BRANCH  28  29
HETATM   29  N2  UNL     1       0.112  -3.159   8.675  1.00  0.00    -0.036 NA
BRANCH  29  30
HETATM   30  N1  UNL     1       0.124  -1.953   9.358  1.00  0.00    -0.332 N 
ATOM     31  H12 UNL     1       0.918  -1.660   9.928  1.00  0.00     0.173 HD
ATOM     32  H11 UNL     1      -0.724  -1.399   9.237  1.00  0.00     0.173 HD
ENDBRANCH  29  30
ENDBRANCH  28  29
ENDBRANCH   1  28
TORSDOF 10
ENDMDL
MODEL 3
REMARK VINA RESULT: -5.265345141      2.730      6.406
REMARK  10 active torsions:
REMARK  status: ('A' for Active; 'I' for Inactive)
REMARK    1  A    between atoms: N1_1  and  N2_4 
REMARK    2  A    between atoms: N2_4  and  N3_5 
REMARK    3  A    between atoms: N3_5  and  C1_6 
REMARK    4  A    between atoms: N4_10  and  N5_12 
REMARK    5  A    between atoms: C6_17  and  O1_18 
REMARK    6  A    between atoms: O1_18  and  C7_19 
REMARK    7  A    between atoms: C7_19  and  C8_21 
REMARK       I    between atoms: C8_21  and  N8_23 
REMARK    8  A    between atoms: N8_23  and  N9_25 
REMARK    9  A    between atoms: C9_28  and  C10_29 
REMARK   10  A    between atoms: C10_29  and  O4_30 
ROOT
HETATM    1  C1  UNL     1      -6.551  -1.327   6.789  1.00  0.00     0.233 C 
HETATM    2  C2  UNL     1      -5.861  -2.441   7.579  1.00  0.00     0.056 C 
HETATM    3  C3  UNL     1      -4.858  -1.776   8.489  1.00  0.00     0.060 C 
HETATM    4  C4  UNL     1      -3.663  -1.525   7.653  1.00  0.00     0.036 C 
HETATM    5  N4  UNL     1      -2.536  -1.631   8.262  1.00  0.00    -0.304 N 
ATOM      6  H4  UNL     1      -1.665  -1.475   7.755  1.00  0.00     0.186 HD
HETATM    7  C6  UNL     1      -3.527  -1.175   6.233  1.00  0.00     0.210 C 
HETATM    8  C9  UNL     1      -4.676  -0.351   5.698  1.00  0.00     0.182 C 
HETATM    9  O5  UNL     1      -5.903  -0.817   5.770  1.00  0.00    -0.358 OA
ENDROOT
BRANCH   7  10
HETATM   10  O1  UNL     1      -3.313  -2.327   5.446  1.00  0.00    -0.300 OA
BRANCH  10  11
HETATM   11  C7  UNL     1      -2.028  -2.705   5.089  1.00  0.00     0.354 C 
HETATM   12  O2  UNL     1      -1.079  -2.032   5.573  1.00  0.00    -0.254 OA
BRANCH  11  13
HETATM   13  C8  UNL     1      -1.731  -3.808   4.212  1.00  0.00     0.334 C 
HETATM   14  O3  UNL     1      -0.567  -3.988   3.786  1.00  0.00    -0.260 OA
HETATM   15  N8  UNL     1      -2.746  -4.705   3.817  1.00  0.00    -0.268 N 
ATOM     16  H8  UNL     1      -3.697  -4.570   4.157  1.00  0.00     0.190 HD
BRANCH  15  17
HETATM   17  N9  UNL     1      -2.461  -5.790   2.955  1.00  0.00    -0.342 N 
ATOM     18  H92 UNL     1      -2.339  -5.603   1.961  1.00  0.00     0.176 HD
ATOM     19  H91 UNL     1      -2.379  -6.740   3.319  1.00  0.00     0.176 HD
ENDBRANCH  15  17
ENDBRANCH  11  13
ENDBRANCH  10  11
ENDBRANCH   7  10
BRANCH   8  20
HETATM   20  C10 UNL     1      -4.421   1.084   6.090  1.00  0.00     0.199 C 
BRANCH  20  21
HETATM   21  O4  UNL     1      -5.569   1.873   6.044  1.00  0.00    -0.398 OA
ATOM     22  H4  UNL     1      -5.468   2.703   6.495  1.00  0.00     0.209 HD
ENDBRANCH  20  21
ENDBRANCH   8  20
BRANCH   5  23
HETATM   23  N5  UNL     1      -2.506  -1.961   9.616  1.00  0.00    -0.276 N 
HETATM   24  C5  UNL     1      -1.463  -1.748  10.344  1.00  0.00     0.215 C 
HETATM   25  N6  UNL     1      -1.431  -2.083  11.725  1.00  0.00    -0.065 NA
HETATM   26  N7  UNL     1      -0.287  -1.167   9.800  1.00  0.00    -0.065 NA
ATOM     27  H5  UNL     1      -3.332  -2.381  10.043  1.00  0.00     0.189 HD
ENDBRANCH   5  23
BRANCH   1  28
HETATM   28  N3  UNL     1      -7.095  -0.424   7.782  1.00  0.00    -0.095 NA
BRANCH  28  29
HETATM   29  N2  UNL     1      -7.987   0.505   7.265  1.00  0.00    -0.036 NA
BRANCH  29  30
HETATM   30  N1  UNL     1      -7.946   1.738   7.898  1.00  0.00    -0.332 N 
ATOM     31  H12 UNL     1      -7.329   1.922   8.689  1.00  0.00     0.173 HD
ATOM     32  H11 UNL     1      -8.583   2.429   7.500  1.00  0.00     0.173 HD
ENDBRANCH  29  30
ENDBRANCH  28  29
ENDBRANCH   1  28
TORSDOF 10
ENDMDL
MODEL 4
REMARK VINA RESULT: -5.233719005      2.153      2.742
REMARK  10 active torsions:
REMARK  status: ('A' for Active; 'I' for Inactive)
REMARK    1  A    between atoms: N1_1  and  N2_4 
REMARK    2  A    between atoms: N2_4  and  N3_5 
REMARK    3  A    between atoms: N3_5  and  C1_6 
REMARK    4  A    between atoms: N4_10  and  N5_12 
REMARK    5  A    between atoms: C6_17  and  O1_18 
REMARK    6  A    between atoms: O1_18  and  C7_19 
REMARK    7  A    between atoms: C7_19  and  C8_21 
REMARK       I    between atoms: C8_21  and  N8_23 
REMARK    8  A    between atoms: N8_23  and  N9_25 
REMARK    9  A    between atoms: C9_28  and  C10_29 
REMARK   10  A    between atoms: C10_29  and  O4_30 
ROOT
HETATM    1  C1  UNL     1      -2.485  -2.140   8.523  1.00  0.00     0.233 C 
HETATM    2  C2  UNL     1      -3.546  -1.148   9.005  1.00  0.00     0.056 C 
HETATM    3  C3  UNL     1      -4.882  -1.680   8.546  1.00  0.00     0.060 C 
HETATM    4  C4  UNL     1      -5.019  -1.255   7.135  1.00  0.00     0.036 C 
HETATM    5  N4  UNL     1      -6.214  -0.965   6.763  1.00  0.00    -0.304 N 
ATOM      6  H4  UNL     1      -6.392  -0.663   5.805  1.00  0.00     0.186 HD
HETATM    7  C6  UNL     1      -4.022  -1.099   6.067  1.00  0.00     0.210 C 
HETATM    8  C9  UNL     1      -2.860  -2.061   6.175  1.00  0.00     0.182 C 
HETATM    9  O5  UNL     1      -2.125  -2.075   7.264  1.00  0.00    -0.358 OA
ENDROOT
BRANCH   7  10
HETATM   10  O1  UNL     1      -3.576   0.236   5.982  1.00  0.00    -0.300 OA
BRANCH  10  11
HETATM   11  C7  UNL     1      -4.397   1.221   5.455  1.00  0.00     0.354 C 
HETATM   12  O2  UNL     1      -5.042   0.929   4.412  1.00  0.00    -0.254 OA
BRANCH  11  13
HETATM   13  C8  UNL     1      -4.549   2.533   6.030  1.00  0.00     0.334 C 
HETATM   14  O3  UNL     1      -4.318   3.558   5.348  1.00  0.00    -0.260 OA
HETATM   15  N8  UNL     1      -4.960   2.686   7.371  1.00  0.00    -0.268 N 
ATOM     16  H8  UNL     1      -5.152   1.860   7.936  1.00  0.00     0.190 HD
BRANCH  15  17
HETATM   17  N9  UNL     1      -5.111   3.971   7.942  1.00  0.00    -0.342 N 
ATOM     18  H92 UNL     1      -4.914   4.787   7.363  1.00  0.00     0.176 HD
ATOM     19  H91 UNL     1      -5.411   4.082   8.911  1.00  0.00     0.176 HD
ENDBRANCH  15  17
ENDBRANCH  11  13
ENDBRANCH  10  11
ENDBRANCH   7  10
BRANCH   8  20
HETATM   20  C10 UNL     1      -3.308  -3.375   5.584  1.00  0.00     0.199 C 
BRANCH  20  21
HETATM   21  O4  UNL     1      -2.524  -4.451   5.995  1.00  0.00    -0.398 OA
ATOM     22  H4  UNL     1      -3.035  -5.225   6.205  1.00  0.00     0.209 HD
ENDBRANCH  20  21
ENDBRANCH   8  20
BRANCH   5  23
HETATM   23  N5  UNL     1      -7.268  -1.064   7.670  1.00  0.00    -0.276 N 
HETATM   24  C5  UNL     1      -8.079  -0.083   7.880  1.00  0.00     0.215 C 
HETATM   25  N6  UNL     1      -9.154  -0.183   8.805  1.00  0.00    -0.065 NA
HETATM   26  N7  UNL     1      -7.937   1.153   7.194  1.00  0.00    -0.065 NA
ATOM     27  H5  UNL     1      -7.401  -1.936   8.183  1.00  0.00     0.189 HD
ENDBRANCH   5  23
BRANCH   1  28
HETATM   28  N3  UNL     1      -2.878  -3.425   9.062  1.00  0.00    -0.095 NA
BRANCH  28  29
HETATM   29  N2  UNL     1      -1.982  -4.447   8.782  1.00  0.00    -0.036 NA
BRANCH  29  30
HETATM   30  N1  UNL     1      -0.668  -4.025   8.653  1.00  0.00    -0.332 N 
ATOM     31  H12 UNL     1      -0.259  -3.328   9.276  1.00  0.00     0.173 HD
ATOM     32  H11 UNL     1      -0.162  -4.473   7.890  1.00  0.00     0.173 HD
ENDBRANCH  29  30
ENDBRANCH  28  29
ENDBRANCH   1  28
TORSDOF 10
ENDMDL
MODEL 5
REMARK VINA RESULT: -5.204643209      2.376      3.695
REMARK  10 active torsions:
REMARK  status: ('A' for Active; 'I' for Inactive)
REMARK    1  A    between atoms: N1_1  and  N2_4 
REMARK    2  A    between atoms: N2_4  and  N3_5 
REMARK    3  A    between atoms: N3_5  and  C1_6 
REMARK    4  A    between atoms: N4_10  and  N5_12 
REMARK    5  A    between atoms: C6_17  and  O1_18 
REMARK    6  A    between atoms: O1_18  and  C7_19 
REMARK    7  A    between atoms: C7_19  and  C8_21 
REMARK       I    between atoms: C8_21  and  N8_23 
REMARK    8  A    between atoms: N8_23  and  N9_25 
REMARK    9  A    between atoms: C9_28  and  C10_29 
REMARK   10  A    between atoms: C10_29  and  O4_30 
ROOT
HETATM    1  C1  UNL     1      -1.920  -3.634   6.947  1.00  0.00     0.233 C 
HETATM    2  C2  UNL     1      -1.517  -2.405   7.764  1.00  0.00     0.056 C 
HETATM    3  C3  UNL     1      -2.612  -2.174   8.776  1.00  0.00     0.060 C 
HETATM    4  C4  UNL     1      -3.675  -1.438   8.055  1.00  0.00     0.036 C 
HETATM    5  N4  UNL     1      -4.317  -0.575   8.757  1.00  0.00    -0.304 N 
ATOM      6  H4  UNL     1      -5.064  -0.026   8.333  1.00  0.00     0.186 HD
HETATM    7  C6  UNL     1      -4.135  -1.516   6.662  1.00  0.00     0.210 C 
HETATM    8  C9  UNL     1      -3.994  -2.891   6.051  1.00  0.00     0.182 C 
HETATM    9  O5  UNL     1      -2.814  -3.466   6.002  1.00  0.00    -0.358 OA
ENDROOT
BRANCH   7  10
HETATM   10  O1  UNL     1      -3.506  -0.535   5.867  1.00  0.00    -0.300 OA
BRANCH  10  11
HETATM   11  C7  UNL     1      -4.258   0.419   5.200  1.00  0.00     0.354 C 
HETATM   12  O2  UNL     1      -4.932   0.025   4.210  1.00  0.00    -0.254 OA
BRANCH  11  13
HETATM   13  C8  UNL     1      -4.308   1.809   5.574  1.00  0.00     0.334 C 
HETATM   14  O3  UNL     1      -3.920   2.697   4.781  1.00  0.00    -0.260 OA
HETATM   15  N8  UNL     1      -4.796   2.194   6.841  1.00  0.00    -0.268 N 
ATOM     16  H8  UNL     1      -5.115   1.481   7.495  1.00  0.00     0.190 HD
BRANCH  15  17
HETATM   17  N9  UNL     1      -4.847   3.557   7.216  1.00  0.00    -0.342 N 
ATOM     18  H92 UNL     1      -4.104   4.178   6.897  1.00  0.00     0.176 HD
ATOM     19  H91 UNL     1      -5.610   3.913   7.792  1.00  0.00     0.176 HD
ENDBRANCH  15  17
ENDBRANCH  11  13
ENDBRANCH  10  11
ENDBRANCH   7  10
BRANCH   8  20
HETATM   20  C10 UNL     1      -5.181  -3.707   6.502  1.00  0.00     0.199 C 
BRANCH  20  21
HETATM   21  O4  UNL     1      -4.975  -5.080   6.380  1.00  0.00    -0.398 OA
ATOM     22  H4  UNL     1      -5.771  -5.586   6.496  1.00  0.00     0.209 HD
ENDBRANCH  20  21
ENDBRANCH   8  20
BRANCH   5  23
HETATM   23  N5  UNL     1      -3.990  -0.389  10.100  1.00  0.00    -0.276 N 
HETATM   24  C5  UNL     1      -4.097   0.762  10.672  1.00  0.00     0.215 C 
HETATM   25  N6  UNL     1      -3.764   0.953  12.041  1.00  0.00    -0.065 NA
HETATM   26  N7  UNL     1      -4.554   1.903   9.959  1.00  0.00    -0.065 NA
ATOM     27  H5  UNL     1      -3.657  -1.185  10.644  1.00  0.00     0.189 HD
ENDBRANCH   5  23
BRANCH   1  28
HETATM   28  N3  UNL     1      -2.128  -4.694   7.913  1.00  0.00    -0.095 NA
BRANCH  28  29
HETATM   29  N2  UNL     1      -2.437  -5.919   7.340  1.00  0.00    -0.036 NA
BRANCH  29  30
HETATM   30  N1  UNL     1      -1.885  -6.110   6.083  1.00  0.00    -0.332 N 
ATOM     31  H12 UNL     1      -2.289  -5.692   5.244  1.00  0.00     0.173 HD
ATOM     32  H11 UNL     1      -1.052  -6.698   6.081  1.00  0.00     0.173 HD
ENDBRANCH  29  30
ENDBRANCH  28  29
ENDBRANCH   1  28
TORSDOF 10
ENDMDL
