MODEL 1
REMARK VINA RESULT: -8.040335098      0.000      0.000
REMARK  5 active torsions:
REMARK  status: ('A' for Active; 'I' for Inactive)
REMARK    1  A    between atoms: C2_2  and  C5_5 
REMARK    2  A    between atoms: C16_19  and  O1_20 
REMARK    3  A    between atoms: C16_19  and  N4_22 
REMARK    4  A    between atoms: N4_22  and  C17_24 
REMARK    5  A    between atoms: C22_29  and  O2_30 
ROOT
HETATM    1  C5  UNL     1       9.194  21.762  -1.344  1.00  0.00    -0.007 C 
HETATM    2  C6  UNL     1       7.926  21.002  -1.501  1.00  0.00     0.007 C 
HETATM    3  C7  UNL     1       7.507  20.260  -0.265  1.00  0.00     0.027 C 
HETATM    4  C8  UNL     1       8.542  19.201   0.150  1.00  0.00     0.086 C 
HETATM    5  C9  UNL     1       9.894  19.867   0.029  1.00  0.00     0.027 C 
HETATM    6  C10 UNL     1       9.793  21.389  -0.009  1.00  0.00     0.007 C 
HETATM    7  C11 UNL     1       8.249  18.685   1.506  1.00  0.00     0.153 C 
HETATM    8  C12 UNL     1       9.377  18.636   2.426  1.00  0.00     0.069 C 
HETATM    9  N1  UNL     1      10.280  18.573   3.156  1.00  0.00    -0.197 NA
HETATM   10  C13 UNL     1       7.324  17.496   1.586  1.00  0.00     0.214 C 
HETATM   11  C14 UNL     1       7.035  17.406   3.037  1.00  0.00     0.086 C 
HETATM   12  N2  UNL     1       6.791  17.315   4.183  1.00  0.00    -0.195 NA
HETATM   13  N3  UNL     1       7.746  16.284   1.056  1.00  0.00    -0.326 N 
HETATM   14  C15 UNL     1       6.988  15.123   1.094  1.00  0.00     0.096 C 
HETATM   15  C16 UNL     1       5.595  14.986   1.363  1.00  0.00     0.162 C 
HETATM   16  C22 UNL     1       7.863  14.010   1.728  1.00  0.00     0.104 C 
HETATM   17  C23 UNL     1       8.989  14.542   2.552  1.00  0.00     0.045 C 
HETATM   18  C24 UNL     1      10.235  13.676   2.412  1.00  0.00     0.009 C 
HETATM   19  C25 UNL     1      11.043  14.257   1.299  1.00  0.00     0.052 C 
HETATM   20  C26 UNL     1      10.251  14.554   0.029  1.00  0.00    -0.015 C 
HETATM   21  C27 UNL     1       9.288  13.508  -0.322  1.00  0.00     0.055 C 
HETATM   22  C28 UNL     1       8.320  13.024   0.672  1.00  0.00     0.050 C 
HETATM   23  N5  UNL     1       9.889  15.935  -0.109  1.00  0.00    -0.363 N 
ATOM     24  H5  UNL     1      10.621  16.642  -0.187  1.00  0.00     0.162 HD
HETATM   25  C29 UNL     1       8.544  16.328  -0.140  1.00  0.00     0.312 C 
HETATM   26  S1  UNL     1       8.377  17.891  -1.012  1.00  0.00     0.194 S 
HETATM   27  O3  UNL     1       7.124  17.962  -1.810  1.00  0.00    -0.223 OA
HETATM   28  O4  UNL     1       9.546  17.970  -1.975  1.00  0.00    -0.223 OA
ENDROOT
BRANCH   1  29
HETATM   29  C2  UNL     1       9.060  23.249  -1.516  1.00  0.00    -0.048 C 
HETATM   30  C1  UNL     1       8.174  23.651  -2.655  1.00  0.00     0.015 C 
HETATM   31  C3  UNL     1       8.457  23.839  -0.244  1.00  0.00     0.015 C 
HETATM   32  C4  UNL     1      10.405  23.908  -1.711  1.00  0.00     0.015 C 
ENDBRANCH   1  29
BRANCH  15  33
HETATM   33  O1  UNL     1       5.226  13.709   1.435  1.00  0.00    -0.345 OA
ATOM     34  H1  UNL     1       4.290  13.618   1.570  1.00  0.00     0.219 HD
ENDBRANCH  15  33
BRANCH  15  35
HETATM   35  N4  UNL     1       4.478  15.769   1.575  1.00  0.00    -0.365 N 
ATOM     36  H4  UNL     1       4.386  16.616   1.013  1.00  0.00     0.162 HD
BRANCH  35  37
HETATM   37  C17 UNL     1       3.421  15.488   2.532  1.00  0.00     0.083 C 
HETATM   38  C18 UNL     1       3.931  15.275   3.924  1.00  0.00     0.025 C 
HETATM   39  C19 UNL     1       2.603  15.170   4.683  1.00  0.00     0.002 C 
HETATM   40  C20 UNL     1       1.646  16.076   3.917  1.00  0.00     0.002 C 
HETATM   41  C21 UNL     1       2.405  16.553   2.694  1.00  0.00     0.025 C 
ENDBRANCH  35  37
ENDBRANCH  15  35
BRANCH  16  42
HETATM   42  O2  UNL     1       7.121  13.238   2.630  1.00  0.00    -0.383 OA
ATOM     43  H2  UNL     1       7.528  12.392   2.772  1.00  0.00     0.211 HD
ENDBRANCH  16  42
TORSDOF 5
ENDMDL
MODEL 2
REMARK VINA RESULT: -7.587887347      1.179      1.402
REMARK  5 active torsions:
REMARK  status: ('A' for Active; 'I' for Inactive)
REMARK    1  A    between atoms: C2_2  and  C5_5 
REMARK    2  A    between atoms: C16_19  and  O1_20 
REMARK    3  A    between atoms: C16_19  and  N4_22 
REMARK    4  A    between atoms: N4_22  and  C17_24 
REMARK    5  A    between atoms: C22_29  and  O2_30 
ROOT
HETATM    1  C5  UNL     1       7.963  21.430  -1.119  1.00  0.00    -0.007 C 
HETATM    2  C6  UNL     1       6.822  20.610  -0.636  1.00  0.00     0.007 C 
HETATM    3  C7  UNL     1       7.076  19.931   0.679  1.00  0.00     0.027 C 
HETATM    4  C8  UNL     1       8.254  18.945   0.601  1.00  0.00     0.086 C 
HETATM    5  C9  UNL     1       9.346  19.659  -0.164  1.00  0.00     0.027 C 
HETATM    6  C10 UNL     1       9.137  21.169  -0.207  1.00  0.00     0.007 C 
HETATM    7  C11 UNL     1       8.661  18.505   1.954  1.00  0.00     0.153 C 
HETATM    8  C12 UNL     1      10.088  18.563   2.240  1.00  0.00     0.069 C 
HETATM    9  N1  UNL     1      11.228  18.585   2.464  1.00  0.00    -0.197 NA
HETATM   10  C13 UNL     1       7.961  17.286   2.501  1.00  0.00     0.214 C 
HETATM   11  C14 UNL     1       8.386  17.276   3.921  1.00  0.00     0.086 C 
HETATM   12  N2  UNL     1       8.711  17.249   5.050  1.00  0.00    -0.195 NA
HETATM   13  N3  UNL     1       8.169  16.061   1.880  1.00  0.00    -0.326 N 
HETATM   14  C15 UNL     1       7.596  14.874   2.311  1.00  0.00     0.096 C 
HETATM   15  C16 UNL     1       6.500  14.696   3.205  1.00  0.00     0.162 C 
HETATM   16  C22 UNL     1       8.737  13.842   2.503  1.00  0.00     0.104 C 
HETATM   17  C23 UNL     1      10.079  14.473   2.684  1.00  0.00     0.045 C 
HETATM   18  C24 UNL     1      11.172  13.652   2.009  1.00  0.00     0.009 C 
HETATM   19  C25 UNL     1      11.329  14.195   0.627  1.00  0.00     0.052 C 
HETATM   20  C26 UNL     1      10.019  14.376  -0.135  1.00  0.00    -0.015 C 
HETATM   21  C27 UNL     1       9.076  13.270   0.045  1.00  0.00     0.055 C 
HETATM   22  C28 UNL     1       8.717  12.810   1.393  1.00  0.00     0.050 C 
HETATM   23  N5  UNL     1       9.542  15.729  -0.139  1.00  0.00    -0.363 N 
ATOM     24  H5  UNL     1      10.105  16.460  -0.576  1.00  0.00     0.162 HD
HETATM   25  C29 UNL     1       8.314  16.062   0.450  1.00  0.00     0.312 C 
HETATM   26  S1  UNL     1       7.656  17.558  -0.301  1.00  0.00     0.194 S 
HETATM   27  O3  UNL     1       6.174  17.524  -0.422  1.00  0.00    -0.223 OA
HETATM   28  O4  UNL     1       8.235  17.624  -1.701  1.00  0.00    -0.223 OA
ENDROOT
BRANCH   1  29
HETATM   29  C2  UNL     1       7.664  22.896  -1.263  1.00  0.00    -0.048 C 
HETATM   30  C1  UNL     1       6.212  23.236  -1.127  1.00  0.00     0.015 C 
HETATM   31  C3  UNL     1       8.412  23.660  -0.173  1.00  0.00     0.015 C 
HETATM   32  C4  UNL     1       8.151  23.433  -2.588  1.00  0.00     0.015 C 
ENDBRANCH   1  29
BRANCH  15  33
HETATM   33  O1  UNL     1       6.294  13.411   3.489  1.00  0.00    -0.345 OA
ATOM     34  H1  UNL     1       5.429  13.263   3.853  1.00  0.00     0.219 HD
ENDBRANCH  15  33
BRANCH  15  35
HETATM   35  N4  UNL     1       5.559  15.443   3.887  1.00  0.00    -0.365 N 
ATOM     36  H4  UNL     1       5.845  15.858   4.774  1.00  0.00     0.162 HD
BRANCH  35  37
HETATM   37  C17 UNL     1       4.197  15.686   3.445  1.00  0.00     0.083 C 
HETATM   38  C18 UNL     1       3.225  15.810   4.579  1.00  0.00     0.025 C 
HETATM   39  C19 UNL     1       1.963  16.212   3.809  1.00  0.00     0.002 C 
HETATM   40  C20 UNL     1       2.474  17.015   2.619  1.00  0.00     0.002 C 
HETATM   41  C21 UNL     1       3.988  16.932   2.673  1.00  0.00     0.025 C 
ENDBRANCH  35  37
ENDBRANCH  15  35
BRANCH  16  42
HETATM   42  O2  UNL     1       8.554  13.099   3.674  1.00  0.00    -0.383 OA
ATOM     43  H2  UNL     1       9.387  12.865   4.066  1.00  0.00     0.211 HD
ENDBRANCH  16  42
TORSDOF 5
ENDMDL
MODEL 3
REMARK VINA RESULT: -7.330583895      1.176      1.443
REMARK  5 active torsions:
REMARK  status: ('A' for Active; 'I' for Inactive)
REMARK    1  A    between atoms: C2_2  and  C5_5 
REMARK    2  A    between atoms: C16_19  and  O1_20 
REMARK    3  A    between atoms: C16_19  and  N4_22 
REMARK    4  A    between atoms: N4_22  and  C17_24 
REMARK    5  A    between atoms: C22_29  and  O2_30 
ROOT
HETATM    1  C5  UNL     1       8.036  22.202  -1.146  1.00  0.00    -0.007 C 
HETATM    2  C6  UNL     1       6.993  21.146  -1.216  1.00  0.00     0.007 C 
HETATM    3  C7  UNL     1       6.977  20.229  -0.028  1.00  0.00     0.027 C 
HETATM    4  C8  UNL     1       8.298  19.457   0.124  1.00  0.00     0.086 C 
HETATM    5  C9  UNL     1       9.401  20.467  -0.101  1.00  0.00     0.027 C 
HETATM    6  C10 UNL     1       8.913  21.905   0.047  1.00  0.00     0.007 C 
HETATM    7  C11 UNL     1       8.364  18.783   1.439  1.00  0.00     0.153 C 
HETATM    8  C12 UNL     1       9.599  18.969   2.189  1.00  0.00     0.069 C 
HETATM    9  N1  UNL     1      10.592  19.096   2.780  1.00  0.00    -0.197 NA
HETATM   10  C13 UNL     1       7.794  17.388   1.508  1.00  0.00     0.214 C 
HETATM   11  C14 UNL     1       7.771  17.116   2.965  1.00  0.00     0.086 C 
HETATM   12  N2  UNL     1       7.744  16.879   4.116  1.00  0.00    -0.195 NA
HETATM   13  N3  UNL     1       8.420  16.375   0.793  1.00  0.00    -0.326 N 
HETATM   14  C15 UNL     1       7.997  15.054   0.800  1.00  0.00     0.096 C 
HETATM   15  C16 UNL     1       6.744  14.531   1.236  1.00  0.00     0.162 C 
HETATM   16  C22 UNL     1       9.213  14.171   1.182  1.00  0.00     0.104 C 
HETATM   17  C23 UNL     1      10.284  14.922   1.903  1.00  0.00     0.045 C 
HETATM   18  C24 UNL     1      11.670  14.433   1.501  1.00  0.00     0.009 C 
HETATM   19  C25 UNL     1      12.118  15.289   0.363  1.00  0.00     0.052 C 
HETATM   20  C26 UNL     1      11.086  15.457  -0.748  1.00  0.00    -0.015 C 
HETATM   21  C27 UNL     1      10.375  14.221  -1.083  1.00  0.00     0.055 C 
HETATM   22  C28 UNL     1       9.732  13.424  -0.030  1.00  0.00     0.050 C 
HETATM   23  N5  UNL     1      10.369  16.698  -0.681  1.00  0.00    -0.363 N 
ATOM     24  H5  UNL     1      10.876  17.578  -0.775  1.00  0.00     0.162 HD
HETATM   25  C29 UNL     1       8.981  16.718  -0.486  1.00  0.00     0.312 C 
HETATM   26  S1  UNL     1       8.288  18.241  -1.147  1.00  0.00     0.194 S 
HETATM   27  O3  UNL     1       6.948  18.033  -1.757  1.00  0.00    -0.223 OA
HETATM   28  O4  UNL     1       9.231  18.700  -2.242  1.00  0.00    -0.223 OA
ENDROOT
BRANCH   1  29
HETATM   29  C2  UNL     1       7.504  23.608  -1.129  1.00  0.00    -0.048 C 
HETATM   30  C1  UNL     1       6.017  23.693  -0.977  1.00  0.00     0.015 C 
HETATM   31  C3  UNL     1       8.123  24.355   0.050  1.00  0.00     0.015 C 
HETATM   32  C4  UNL     1       7.893  24.362  -2.379  1.00  0.00     0.015 C 
ENDBRANCH   1  29
BRANCH  15  33
HETATM   33  O1  UNL     1       6.727  13.200   1.212  1.00  0.00    -0.345 OA
ATOM     34  H1  UNL     1       7.302  12.826   1.869  1.00  0.00     0.219 HD
ENDBRANCH  15  33
BRANCH  15  35
HETATM   35  N4  UNL     1       5.513  14.969   1.682  1.00  0.00    -0.365 N 
ATOM     36  H4  UNL     1       4.893  15.400   0.995  1.00  0.00     0.162 HD
BRANCH  35  37
HETATM   37  C17 UNL     1       5.027  14.868   3.047  1.00  0.00     0.083 C 
HETATM   38  C18 UNL     1       4.276  16.084   3.496  1.00  0.00     0.025 C 
HETATM   39  C19 UNL     1       3.778  15.603   4.863  1.00  0.00     0.002 C 
HETATM   40  C20 UNL     1       3.573  14.103   4.696  1.00  0.00     0.002 C 
HETATM   41  C21 UNL     1       4.079  13.760   3.307  1.00  0.00     0.025 C 
ENDBRANCH  35  37
ENDBRANCH  15  35
BRANCH  16  42
HETATM   42  O2  UNL     1       8.844  13.165   2.081  1.00  0.00    -0.383 OA
ATOM     43  H2  UNL     1       9.327  13.238   2.895  1.00  0.00     0.211 HD
ENDBRANCH  16  42
TORSDOF 5
ENDMDL
MODEL 4
REMARK VINA RESULT: -7.180603530      1.527      1.990
REMARK  5 active torsions:
REMARK  status: ('A' for Active; 'I' for Inactive)
REMARK    1  A    between atoms: C2_2  and  C5_5 
REMARK    2  A    between atoms: C16_19  and  O1_20 
REMARK    3  A    between atoms: C16_19  and  N4_22 
REMARK    4  A    between atoms: N4_22  and  C17_24 
REMARK    5  A    between atoms: C22_29  and  O2_30 
ROOT
HETATM    1  C5  UNL     1       8.104  20.619  -0.736  1.00  0.00    -0.007 C 
HETATM    2  C6  UNL     1       6.904  19.855  -0.307  1.00  0.00     0.007 C 
HETATM    3  C7  UNL     1       7.009  19.287   1.078  1.00  0.00     0.027 C 
HETATM    4  C8  UNL     1       8.169  18.284   1.204  1.00  0.00     0.086 C 
HETATM    5  C9  UNL     1       9.348  18.919   0.500  1.00  0.00     0.027 C 
HETATM    6  C10 UNL     1       9.174  20.422   0.311  1.00  0.00     0.007 C 
HETATM    7  C11 UNL     1       8.427  17.956   2.623  1.00  0.00     0.153 C 
HETATM    8  C12 UNL     1       9.818  18.021   3.049  1.00  0.00     0.069 C 
HETATM    9  N1  UNL     1      10.930  18.049   3.388  1.00  0.00    -0.197 NA
HETATM   10  C13 UNL     1       7.651  16.795   3.195  1.00  0.00     0.214 C 
HETATM   11  C14 UNL     1       7.929  16.901   4.647  1.00  0.00     0.086 C 
HETATM   12  N2  UNL     1       8.136  16.965   5.802  1.00  0.00    -0.195 NA
HETATM   13  N3  UNL     1       7.896  15.520   2.702  1.00  0.00    -0.326 N 
HETATM   14  C15 UNL     1       7.258  14.380   3.168  1.00  0.00     0.096 C 
HETATM   15  C16 UNL     1       6.074  14.291   3.957  1.00  0.00     0.162 C 
HETATM   16  C22 UNL     1       8.354  13.355   3.562  1.00  0.00     0.104 C 
HETATM   17  C23 UNL     1       9.682  13.983   3.827  1.00  0.00     0.045 C 
HETATM   18  C24 UNL     1      10.821  13.097   3.339  1.00  0.00     0.009 C 
HETATM   19  C25 UNL     1      11.129  13.519   1.941  1.00  0.00     0.052 C 
HETATM   20  C26 UNL     1       9.908  13.650   1.035  1.00  0.00    -0.015 C 
HETATM   21  C27 UNL     1       8.929  12.574   1.207  1.00  0.00     0.055 C 
HETATM   22  C28 UNL     1       8.425  12.234   2.545  1.00  0.00     0.050 C 
HETATM   23  N5  UNL     1       9.461  15.004   0.870  1.00  0.00    -0.363 N 
ATOM     24  H5  UNL     1      10.080  15.688   0.434  1.00  0.00     0.162 HD
HETATM   25  C29 UNL     1       8.187  15.399   1.299  1.00  0.00     0.312 C 
HETATM   26  S1  UNL     1       7.638  16.834   0.363  1.00  0.00     0.194 S 
HETATM   27  O3  UNL     1       6.176  16.807   0.094  1.00  0.00    -0.223 OA
HETATM   28  O4  UNL     1       8.358  16.775  -0.970  1.00  0.00    -0.223 OA
ENDROOT
BRANCH   1  29
HETATM   29  C2  UNL     1       7.851  22.071  -1.031  1.00  0.00    -0.048 C 
HETATM   30  C1  UNL     1       8.563  23.011  -0.107  1.00  0.00     0.015 C 
HETATM   31  C3  UNL     1       8.332  22.377  -2.447  1.00  0.00     0.015 C 
HETATM   32  C4  UNL     1       6.377  22.396  -0.988  1.00  0.00     0.015 C 
ENDBRANCH   1  29
BRANCH  15  33
HETATM   33  O1  UNL     1       5.814  13.037   4.323  1.00  0.00    -0.345 OA
ATOM     34  H1  UNL     1       5.193  13.000   5.041  1.00  0.00     0.219 HD
ENDBRANCH  15  33
BRANCH  15  35
HETATM   35  N4  UNL     1       5.084  15.104   4.473  1.00  0.00    -0.365 N 
ATOM     36  H4  UNL     1       5.223  15.469   5.416  1.00  0.00     0.162 HD
BRANCH  35  37
HETATM   37  C17 UNL     1       3.861  15.481   3.786  1.00  0.00     0.083 C 
HETATM   38  C18 UNL     1       2.699  15.665   4.715  1.00  0.00     0.025 C 
HETATM   39  C19 UNL     1       1.652  16.199   3.731  1.00  0.00     0.002 C 
HETATM   40  C20 UNL     1       2.454  16.981   2.698  1.00  0.00     0.002 C 
HETATM   41  C21 UNL     1       3.914  16.759   3.041  1.00  0.00     0.025 C 
ENDBRANCH  35  37
ENDBRANCH  15  35
BRANCH  16  42
HETATM   42  O2  UNL     1       8.037  12.716   4.766  1.00  0.00    -0.383 OA
ATOM     43  H2  UNL     1       7.702  11.840   4.611  1.00  0.00     0.211 HD
ENDBRANCH  16  42
TORSDOF 5
ENDMDL
MODEL 5
REMARK VINA RESULT: -7.042393635      3.946      5.399
REMARK  5 active torsions:
REMARK  status: ('A' for Active; 'I' for Inactive)
REMARK    1  A    between atoms: C2_2  and  C5_5 
REMARK    2  A    between atoms: C16_19  and  O1_20 
REMARK    3  A    between atoms: C16_19  and  N4_22 
REMARK    4  A    between atoms: N4_22  and  C17_24 
REMARK    5  A    between atoms: C22_29  and  O2_30 
ROOT
HETATM    1  C5  UNL     1       6.971  23.552  -1.794  1.00  0.00    -0.007 C 
HETATM    2  C6  UNL     1       7.033  22.767  -0.533  1.00  0.00     0.007 C 
HETATM    3  C7  UNL     1       8.430  22.435  -0.095  1.00  0.00     0.027 C 
HETATM    4  C8  UNL     1       9.168  21.565  -1.127  1.00  0.00     0.086 C 
HETATM    5  C9  UNL     1       8.870  22.177  -2.477  1.00  0.00     0.027 C 
HETATM    6  C10 UNL     1       8.365  23.612  -2.369  1.00  0.00     0.007 C 
HETATM    7  C11 UNL     1      10.611  21.486  -0.811  1.00  0.00     0.153 C 
HETATM    8  C12 UNL     1      11.520  21.735  -1.921  1.00  0.00     0.069 C 
HETATM    9  N1  UNL     1      12.249  21.908  -2.810  1.00  0.00    -0.197 NA
HETATM   10  C13 UNL     1      11.036  20.370   0.110  1.00  0.00     0.214 C 
HETATM   11  C14 UNL     1      12.440  20.725   0.426  1.00  0.00     0.086 C 
HETATM   12  N2  UNL     1      13.555  20.988   0.691  1.00  0.00    -0.195 NA
HETATM   13  N3  UNL     1      10.911  19.058  -0.329  1.00  0.00    -0.326 N 
HETATM   14  C15 UNL     1      11.290  17.956   0.423  1.00  0.00     0.096 C 
HETATM   15  C16 UNL     1      11.565  17.894   1.820  1.00  0.00     0.162 C 
HETATM   16  C22 UNL     1      12.250  17.101  -0.444  1.00  0.00     0.104 C 
HETATM   17  C23 UNL     1      12.889  17.872  -1.552  1.00  0.00     0.045 C 
HETATM   18  C24 UNL     1      13.042  17.018  -2.805  1.00  0.00     0.009 C 
HETATM   19  C25 UNL     1      11.819  17.239  -3.631  1.00  0.00     0.052 C 
HETATM   20  C26 UNL     1      10.506  17.124  -2.862  1.00  0.00    -0.015 C 
HETATM   21  C27 UNL     1      10.476  16.011  -1.911  1.00  0.00     0.055 C 
HETATM   22  C28 UNL     1      11.555  15.844  -0.927  1.00  0.00     0.050 C 
HETATM   23  N5  UNL     1       9.944  18.392  -2.496  1.00  0.00    -0.363 N 
ATOM     24  H5  UNL     1       9.666  19.049  -3.225  1.00  0.00     0.162 HD
HETATM   25  C29 UNL     1       9.773  18.742  -1.149  1.00  0.00     0.312 C 
HETATM   26  S1  UNL     1       8.460  19.961  -0.991  1.00  0.00     0.194 S 
HETATM   27  O3  UNL     1       7.658  19.770   0.247  1.00  0.00    -0.223 OA
HETATM   28  O4  UNL     1       7.539  19.753  -2.177  1.00  0.00    -0.223 OA
ENDROOT
BRANCH   1  29
HETATM   29  C2  UNL     1       6.349  24.913  -1.655  1.00  0.00    -0.048 C 
HETATM   30  C1  UNL     1       5.811  25.469  -2.938  1.00  0.00     0.015 C 
HETATM   31  C3  UNL     1       5.182  24.823  -0.676  1.00  0.00     0.015 C 
HETATM   32  C4  UNL     1       7.326  25.913  -1.083  1.00  0.00     0.015 C 
ENDBRANCH   1  29
BRANCH  15  33
HETATM   33  O1  UNL     1      12.019  16.696   2.184  1.00  0.00    -0.345 OA
ATOM     34  H1  UNL     1      11.313  16.077   2.326  1.00  0.00     0.219 HD
ENDBRANCH  15  33
BRANCH  15  35
HETATM   35  N4  UNL     1      11.508  18.692   2.946  1.00  0.00    -0.365 N 
ATOM     36  H4  UNL     1      12.361  19.185   3.214  1.00  0.00     0.162 HD
BRANCH  35  37
HETATM   37  C17 UNL     1      10.336  18.887   3.782  1.00  0.00     0.083 C 
HETATM   38  C18 UNL     1       9.449  17.681   3.841  1.00  0.00     0.025 C 
HETATM   39  C19 UNL     1       8.436  18.145   4.893  1.00  0.00     0.002 C 
HETATM   40  C20 UNL     1       9.229  19.055   5.822  1.00  0.00     0.002 C 
HETATM   41  C21 UNL     1      10.609  19.187   5.206  1.00  0.00     0.025 C 
ENDBRANCH  35  37
ENDBRANCH  15  35
BRANCH  16  42
HETATM   42  O2  UNL     1      13.332  16.635   0.310  1.00  0.00    -0.383 OA
ATOM     43  H2  UNL     1      14.006  17.298   0.389  1.00  0.00     0.211 HD
ENDBRANCH  16  42
TORSDOF 5
ENDMDL
