MODEL 1
REMARK VINA RESULT: -6.196074330      0.000      0.000
REMARK  2 active torsions:
REMARK  status: ('A' for Active; 'I' for Inactive)
REMARK    1  A    between atoms: C1_2  and  N1_3 
REMARK    2  A    between atoms: C9_11  and  C10_12 
ROOT
HETATM    1  N1  UNL     1      -1.769  13.365  24.730  1.00  0.00    -0.376 N 
HETATM    2  C2  UNL     1      -2.460  12.218  25.354  1.00  0.00     0.128 C 
HETATM    3  C3  UNL     1      -2.415  12.462  26.848  1.00  0.00     0.008 C 
HETATM    4  C4  UNL     1      -2.850  11.301  27.670  1.00  0.00     0.007 C 
HETATM    5  C5  UNL     1      -1.965  11.319  28.912  1.00  0.00     0.001 C 
HETATM    6  C6  UNL     1      -0.971  12.468  28.687  1.00  0.00     0.005 C 
HETATM    7  C7  UNL     1      -0.925  12.534  27.213  1.00  0.00    -0.007 C 
HETATM    8  C8  UNL     1      -0.386  13.782  26.618  1.00  0.00     0.030 C 
HETATM    9  C9  UNL     1      -0.418  13.525  25.103  1.00  0.00     0.089 C 
ENDROOT
BRANCH   9  10
HETATM   10  C10 UNL     1       0.415  14.524  24.452  1.00  0.00     0.011 C 
HETATM   11  C11 UNL     1       0.754  14.291  23.008  1.00  0.00     0.026 C 
HETATM   12  C12 UNL     1       1.139  15.663  22.443  1.00  0.00     0.114 C 
HETATM   13  N2  UNL     1       2.138  16.317  23.190  1.00  0.00    -0.421 N 
HETATM   14  C13 UNL     1       2.094  16.263  24.584  1.00  0.00     0.114 C 
ATOM     15  H2  UNL     1       2.885  16.824  22.717  1.00  0.00     0.153 HD
HETATM   16  C14 UNL     1       1.700  14.890  25.152  1.00  0.00     0.026 C 
ENDBRANCH   9  10
BRANCH   1  17
HETATM   17  C1  UNL     1      -2.533  14.142  23.853  1.00  0.00     0.168 C 
HETATM   18  S1  UNL     1      -3.977  13.604  23.340  1.00  0.00    -0.074 SA
ENDBRANCH   1  17
TORSDOF 2
ENDMDL
MODEL 2
REMARK VINA RESULT: -5.751292236      2.108      3.221
REMARK  2 active torsions:
REMARK  status: ('A' for Active; 'I' for Inactive)
REMARK    1  A    between atoms: C1_2  and  N1_3 
REMARK    2  A    between atoms: C9_11  and  C10_12 
ROOT
HETATM    1  N1  UNL     1      -3.247  13.968  23.529  1.00  0.00    -0.376 N 
HETATM    2  C2  UNL     1      -4.328  13.145  22.947  1.00  0.00     0.128 C 
HETATM    3  C3  UNL     1      -4.746  12.173  24.031  1.00  0.00     0.008 C 
HETATM    4  C4  UNL     1      -5.663  11.098  23.566  1.00  0.00     0.007 C 
HETATM    5  C5  UNL     1      -5.270   9.851  24.353  1.00  0.00     0.001 C 
HETATM    6  C6  UNL     1      -4.047  10.263  25.185  1.00  0.00     0.005 C 
HETATM    7  C7  UNL     1      -3.489  11.357  24.366  1.00  0.00    -0.007 C 
HETATM    8  C8  UNL     1      -2.536  12.275  25.040  1.00  0.00     0.030 C 
HETATM    9  C9  UNL     1      -2.102  13.250  23.934  1.00  0.00     0.089 C 
ENDROOT
BRANCH   9  10
HETATM   10  C10 UNL     1      -0.911  13.953  24.387  1.00  0.00     0.011 C 
HETATM   11  C11 UNL     1       0.253  13.997  23.440  1.00  0.00     0.026 C 
HETATM   12  C12 UNL     1       1.110  15.187  23.888  1.00  0.00     0.114 C 
HETATM   13  N2  UNL     1       1.455  15.146  25.252  1.00  0.00    -0.421 N 
HETATM   14  C13 UNL     1       0.500  14.744  26.187  1.00  0.00     0.114 C 
ATOM     15  H2  UNL     1       2.393  15.408  25.555  1.00  0.00     0.153 HD
HETATM   16  C14 UNL     1      -0.366  13.557  25.736  1.00  0.00     0.026 C 
ENDBRANCH   9  10
BRANCH   1  17
HETATM   17  C1  UNL     1      -3.491  15.342  23.603  1.00  0.00     0.168 C 
HETATM   18  S1  UNL     1      -4.743  15.990  22.797  1.00  0.00    -0.074 SA
ENDBRANCH   1  17
TORSDOF 2
ENDMDL
MODEL 3
REMARK VINA RESULT: -5.687338294      0.813      1.434
REMARK  2 active torsions:
REMARK  status: ('A' for Active; 'I' for Inactive)
REMARK    1  A    between atoms: C1_2  and  N1_3 
REMARK    2  A    between atoms: C9_11  and  C10_12 
ROOT
HETATM    1  N1  UNL     1      -1.817  12.847  25.216  1.00  0.00    -0.376 N 
HETATM    2  C2  UNL     1      -2.594  11.757  25.843  1.00  0.00     0.128 C 
HETATM    3  C3  UNL     1      -2.711  12.114  27.310  1.00  0.00     0.008 C 
HETATM    4  C4  UNL     1      -3.255  11.022  28.162  1.00  0.00     0.007 C 
HETATM    5  C5  UNL     1      -2.514  11.126  29.491  1.00  0.00     0.001 C 
HETATM    6  C6  UNL     1      -1.481  12.246  29.294  1.00  0.00     0.005 C 
HETATM    7  C7  UNL     1      -1.269  12.198  27.834  1.00  0.00    -0.007 C 
HETATM    8  C8  UNL     1      -0.645  13.393  27.212  1.00  0.00     0.030 C 
HETATM    9  C9  UNL     1      -0.514  13.022  25.726  1.00  0.00     0.089 C 
ENDROOT
BRANCH   9  10
HETATM   10  C10 UNL     1       0.405  13.961  25.100  1.00  0.00     0.011 C 
HETATM   11  C11 UNL     1       0.754  15.194  25.882  1.00  0.00     0.026 C 
HETATM   12  C12 UNL     1       2.074  15.702  25.290  1.00  0.00     0.114 C 
HETATM   13  N2  UNL     1       2.033  15.875  23.894  1.00  0.00    -0.421 N 
HETATM   14  C13 UNL     1       1.381  14.925  23.106  1.00  0.00     0.114 C 
ATOM     15  H2  UNL     1       2.475  16.686  23.462  1.00  0.00     0.153 HD
HETATM   16  C14 UNL     1       0.061  14.409  23.701  1.00  0.00     0.026 C 
ENDBRANCH   9  10
BRANCH   1  17
HETATM   17  C1  UNL     1      -2.466  13.562  24.204  1.00  0.00     0.168 C 
HETATM   18  S1  UNL     1      -3.862  13.009  23.586  1.00  0.00    -0.074 SA
ENDBRANCH   1  17
TORSDOF 2
ENDMDL
MODEL 4
REMARK VINA RESULT: -5.674751542      3.105      6.251
REMARK  2 active torsions:
REMARK  status: ('A' for Active; 'I' for Inactive)
REMARK    1  A    between atoms: C1_2  and  N1_3 
REMARK    2  A    between atoms: C9_11  and  C10_12 
ROOT
HETATM    1  N1  UNL     1      -2.207  11.859  27.909  1.00  0.00    -0.376 N 
HETATM    2  C2  UNL     1      -0.993  12.654  28.191  1.00  0.00     0.128 C 
HETATM    3  C3  UNL     1      -0.931  13.721  27.118  1.00  0.00     0.008 C 
HETATM    4  C4  UNL     1       0.348  14.480  27.086  1.00  0.00     0.007 C 
HETATM    5  C5  UNL     1       0.624  14.763  25.612  1.00  0.00     0.001 C 
HETATM    6  C6  UNL     1      -0.496  14.047  24.844  1.00  0.00     0.005 C 
HETATM    7  C7  UNL     1      -0.853  12.965  25.783  1.00  0.00    -0.007 C 
HETATM    8  C8  UNL     1      -2.167  12.307  25.574  1.00  0.00     0.030 C 
HETATM    9  C9  UNL     1      -2.221  11.215  26.654  1.00  0.00     0.089 C 
ENDROOT
BRANCH   9  10
HETATM   10  C10 UNL     1      -3.288  10.286  26.312  1.00  0.00     0.011 C 
HETATM   11  C11 UNL     1      -2.989   8.823  26.464  1.00  0.00     0.026 C 
HETATM   12  C12 UNL     1      -4.352   8.129  26.575  1.00  0.00     0.114 C 
HETATM   13  N2  UNL     1      -5.232   8.450  25.524  1.00  0.00    -0.421 N 
HETATM   14  C13 UNL     1      -5.295   9.766  25.064  1.00  0.00     0.114 C 
ATOM     15  H2  UNL     1      -5.817   7.729  25.103  1.00  0.00     0.153 HD
HETATM   16  C14 UNL     1      -3.931  10.467  24.960  1.00  0.00     0.026 C 
ENDBRANCH   9  10
BRANCH   1  17
HETATM   17  C1  UNL     1      -3.180  11.844  28.912  1.00  0.00     0.168 C 
HETATM   18  S1  UNL     1      -3.183  10.660  30.024  1.00  0.00    -0.074 SA
ENDBRANCH   1  17
TORSDOF 2
ENDMDL
MODEL 5
REMARK VINA RESULT: -5.467951447      2.589      4.336
REMARK  2 active torsions:
REMARK  status: ('A' for Active; 'I' for Inactive)
REMARK    1  A    between atoms: C1_2  and  N1_3 
REMARK    2  A    between atoms: C9_11  and  C10_12 
ROOT
HETATM    1  N1  UNL     1      -3.463  13.795  23.613  1.00  0.00    -0.376 N 
HETATM    2  C2  UNL     1      -4.288  13.228  22.527  1.00  0.00     0.128 C 
HETATM    3  C3  UNL     1      -5.123  12.135  23.160  1.00  0.00     0.008 C 
HETATM    4  C4  UNL     1      -5.850  11.279  22.184  1.00  0.00     0.007 C 
HETATM    5  C5  UNL     1      -5.837   9.873  22.776  1.00  0.00     0.001 C 
HETATM    6  C6  UNL     1      -4.994   9.979  24.055  1.00  0.00     0.005 C 
HETATM    7  C7  UNL     1      -4.120  11.126  23.738  1.00  0.00    -0.007 C 
HETATM    8  C8  UNL     1      -3.445  11.786  24.884  1.00  0.00     0.030 C 
HETATM    9  C9  UNL     1      -2.586  12.884  24.237  1.00  0.00     0.089 C 
ENDROOT
BRANCH   9  10
HETATM   10  C10 UNL     1      -1.617  13.345  25.220  1.00  0.00     0.011 C 
HETATM   11  C11 UNL     1      -0.245  13.684  24.714  1.00  0.00     0.026 C 
HETATM   12  C12 UNL     1       0.371  14.612  25.768  1.00  0.00     0.114 C 
HETATM   13  N2  UNL     1       0.331  14.082  27.072  1.00  0.00    -0.421 N 
HETATM   14  C13 UNL     1      -0.812  13.407  27.501  1.00  0.00     0.114 C 
ATOM     15  H2  UNL     1       1.130  14.192  27.697  1.00  0.00     0.153 HD
HETATM   16  C14 UNL     1      -1.435  12.482  26.443  1.00  0.00     0.026 C 
ENDBRANCH   9  10
BRANCH   1  17
HETATM   17  C1  UNL     1      -3.653  15.154  23.885  1.00  0.00     0.168 C 
HETATM   18  S1  UNL     1      -4.481  16.083  22.841  1.00  0.00    -0.074 SA
ENDBRANCH   1  17
TORSDOF 2
ENDMDL
