MODEL 1
REMARK VINA RESULT: -4.176373317      0.000      0.000
REMARK  3 active torsions:
REMARK  status: ('A' for Active; 'I' for Inactive)
REMARK    1  A    between atoms: O1_1  and  C1_3 
REMARK    2  A    between atoms: C1_3  and  C2_4 
REMARK    3  A    between atoms: C2_4  and  N1_5 
ROOT
HETATM    1  N1  UNL     1      83.192 -21.449  20.674  1.00  0.00    -0.260 N 
HETATM    2  C3  UNL     1      83.407 -21.555  19.349  1.00  0.00     0.224 A 
HETATM    3  N2  UNL     1      84.348 -22.525  19.195  1.00  0.00    -0.238 N 
ATOM      4  H2  UNL     1      84.737 -22.854  18.311  1.00  0.00     0.197 HD
HETATM    5  O2  UNL     1      84.659 -22.956  20.387  1.00  0.00    -0.141 OA
HETATM    6  N3  UNL     1      83.985 -22.331  21.298  1.00  0.00     0.050 NA
ENDROOT
BRANCH   1   7
HETATM    7  C2  UNL     1      82.256 -20.525  21.289  1.00  0.00     0.174 C 
BRANCH   7   8
HETATM    8  C1  UNL     1      80.863 -21.152  21.373  1.00  0.00     0.185 C 
BRANCH   8   9
HETATM    9  O1  UNL     1      80.939 -22.475  21.792  1.00  0.00    -0.399 OA
ATOM     10  H1  UNL     1      80.117 -22.926  21.642  1.00  0.00     0.209 HD
ENDBRANCH   8   9
ENDBRANCH   7   8
ENDBRANCH   1   7
TORSDOF 3
ENDMDL
MODEL 2
REMARK VINA RESULT: -4.173149591      2.334      3.260
REMARK  3 active torsions:
REMARK  status: ('A' for Active; 'I' for Inactive)
REMARK    1  A    between atoms: O1_1  and  C1_3 
REMARK    2  A    between atoms: C1_3  and  C2_4 
REMARK    3  A    between atoms: C2_4  and  N1_5 
ROOT
HETATM    1  N1  UNL     1      83.190 -21.689  19.327  1.00  0.00    -0.260 N 
HETATM    2  C3  UNL     1      83.329 -20.380  19.046  1.00  0.00     0.224 A 
HETATM    3  N2  UNL     1      82.111 -19.952  18.619  1.00  0.00    -0.238 N 
ATOM      4  H2  UNL     1      81.871 -19.005  18.325  1.00  0.00     0.197 HD
HETATM    5  O2  UNL     1      81.306 -20.979  18.654  1.00  0.00    -0.141 OA
HETATM    6  N3  UNL     1      81.920 -22.038  19.073  1.00  0.00     0.050 NA
ENDROOT
BRANCH   1   7
HETATM    7  C2  UNL     1      84.252 -22.549  19.817  1.00  0.00     0.174 C 
BRANCH   7   8
HETATM    8  C1  UNL     1      84.029 -22.884  21.294  1.00  0.00     0.185 C 
BRANCH   8   9
HETATM    9  O1  UNL     1      85.224 -23.244  21.906  1.00  0.00    -0.399 OA
ATOM     10  H1  UNL     1      85.611 -23.999  21.477  1.00  0.00     0.209 HD
ENDBRANCH   8   9
ENDBRANCH   7   8
ENDBRANCH   1   7
TORSDOF 3
ENDMDL
MODEL 3
REMARK VINA RESULT: -4.163308625      2.357      3.485
REMARK  3 active torsions:
REMARK  status: ('A' for Active; 'I' for Inactive)
REMARK    1  A    between atoms: O1_1  and  C1_3 
REMARK    2  A    between atoms: C1_3  and  C2_4 
REMARK    3  A    between atoms: C2_4  and  N1_5 
ROOT
HETATM    1  N1  UNL     1      82.957 -20.543  20.515  1.00  0.00    -0.260 N 
HETATM    2  C3  UNL     1      81.943 -19.752  20.910  1.00  0.00     0.224 A 
HETATM    3  N2  UNL     1      82.207 -18.516  20.407  1.00  0.00    -0.238 N 
ATOM      4  H2  UNL     1      81.634 -17.680  20.522  1.00  0.00     0.197 HD
HETATM    5  O2  UNL     1      83.332 -18.599  19.748  1.00  0.00    -0.141 OA
HETATM    6  N3  UNL     1      83.809 -19.801  19.793  1.00  0.00     0.050 NA
ENDROOT
BRANCH   1   7
HETATM    7  C2  UNL     1      83.079 -21.954  20.833  1.00  0.00     0.174 C 
BRANCH   7   8
HETATM    8  C1  UNL     1      84.255 -22.573  20.075  1.00  0.00     0.185 C 
BRANCH   8   9
HETATM    9  O1  UNL     1      83.927 -22.790  18.742  1.00  0.00    -0.399 OA
ATOM     10  H1  UNL     1      84.351 -22.153  18.180  1.00  0.00     0.209 HD
ENDBRANCH   8   9
ENDBRANCH   7   8
ENDBRANCH   1   7
TORSDOF 3
ENDMDL
MODEL 4
REMARK VINA RESULT: -4.138996562      2.814      3.096
REMARK  3 active torsions:
REMARK  status: ('A' for Active; 'I' for Inactive)
REMARK    1  A    between atoms: O1_1  and  C1_3 
REMARK    2  A    between atoms: C1_3  and  C2_4 
REMARK    3  A    between atoms: C2_4  and  N1_5 
ROOT
HETATM    1  N1  UNL     1      83.148 -20.066  20.318  1.00  0.00    -0.260 N 
HETATM    2  C3  UNL     1      83.527 -20.493  19.099  1.00  0.00     0.224 A 
HETATM    3  N2  UNL     1      83.943 -21.778  19.260  1.00  0.00    -0.238 N 
ATOM      4  H2  UNL     1      84.295 -22.396  18.529  1.00  0.00     0.197 HD
HETATM    5  O2  UNL     1      83.809 -22.073  20.525  1.00  0.00    -0.141 OA
HETATM    6  N3  UNL     1      83.335 -21.068  21.189  1.00  0.00     0.050 NA
ENDROOT
BRANCH   1   7
HETATM    7  C2  UNL     1      82.633 -18.740  20.608  1.00  0.00     0.174 C 
BRANCH   7   8
HETATM    8  C1  UNL     1      83.735 -17.691  20.444  1.00  0.00     0.185 C 
BRANCH   8   9
HETATM    9  O1  UNL     1      83.278 -16.604  19.707  1.00  0.00    -0.399 OA
ATOM     10  H1  UNL     1      83.887 -16.387  19.011  1.00  0.00     0.209 HD
ENDBRANCH   8   9
ENDBRANCH   7   8
ENDBRANCH   1   7
TORSDOF 3
ENDMDL
MODEL 5
REMARK VINA RESULT: -4.130803425      1.633      1.827
REMARK  3 active torsions:
REMARK  status: ('A' for Active; 'I' for Inactive)
REMARK    1  A    between atoms: O1_1  and  C1_3 
REMARK    2  A    between atoms: C1_3  and  C2_4 
REMARK    3  A    between atoms: C2_4  and  N1_5 
ROOT
HETATM    1  N1  UNL     1      83.221 -21.454  20.696  1.00  0.00    -0.260 N 
HETATM    2  C3  UNL     1      83.407 -21.558  19.367  1.00  0.00     0.224 A 
HETATM    3  N2  UNL     1      84.337 -22.534  19.190  1.00  0.00    -0.238 N 
ATOM      4  H2  UNL     1      84.706 -22.864  18.297  1.00  0.00     0.197 HD
HETATM    5  O2  UNL     1      84.671 -22.971  20.375  1.00  0.00    -0.141 OA
HETATM    6  N3  UNL     1      84.021 -22.344  21.301  1.00  0.00     0.050 NA
ENDROOT
BRANCH   1   7
HETATM    7  C2  UNL     1      82.306 -20.525  21.333  1.00  0.00     0.174 C 
BRANCH   7   8
HETATM    8  C1  UNL     1      82.679 -19.082  20.984  1.00  0.00     0.185 C 
BRANCH   8   9
HETATM    9  O1  UNL     1      81.686 -18.486  20.215  1.00  0.00    -0.399 OA
ATOM     10  H1  UNL     1      81.156 -19.142  19.778  1.00  0.00     0.209 HD
ENDBRANCH   8   9
ENDBRANCH   7   8
ENDBRANCH   1   7
TORSDOF 3
ENDMDL
