MODEL 1
REMARK VINA RESULT: -4.330667707      0.000      0.000
REMARK  1 active torsions:
REMARK  status: ('A' for Active; 'I' for Inactive)
REMARK    1  A    between atoms: C1_2  and  N1_3 
ROOT
HETATM    1  N1  UNL     1      82.968 -20.071  20.660  1.00  0.00    -0.256 N 
HETATM    2  C2  UNL     1      83.216 -20.852  19.432  1.00  0.00     0.259 C 
HETATM    3  N2  UNL     1      83.031 -22.188  20.041  1.00  0.00    -0.182 NA
HETATM    4  C3  UNL     1      81.787 -21.904  20.762  1.00  0.00     0.249 C 
HETATM    5  N3  UNL     1      82.702 -21.099  21.590  1.00  0.00    -0.108 NA
HETATM    6  N4  UNL     1      83.766 -21.971  21.218  1.00  0.00    -0.049 NA
ENDROOT
BRANCH   1   7
HETATM    7  C1  UNL     1      82.988 -18.685  20.865  1.00  0.00     0.369 C 
HETATM    8  O1  UNL     1      83.298 -17.943  19.921  1.00  0.00    -0.282 OA
ENDBRANCH   1   7
TORSDOF 1
ENDMDL
MODEL 2
REMARK VINA RESULT: -4.318319955      2.534      3.217
REMARK  1 active torsions:
REMARK  status: ('A' for Active; 'I' for Inactive)
REMARK    1  A    between atoms: C1_2  and  N1_3 
ROOT
HETATM    1  N1  UNL     1      81.831 -21.788  19.651  1.00  0.00    -0.256 N 
HETATM    2  C2  UNL     1      82.593 -21.808  20.916  1.00  0.00     0.259 C 
HETATM    3  N2  UNL     1      83.939 -21.738  20.302  1.00  0.00    -0.182 NA
HETATM    4  C3  UNL     1      83.669 -20.647  19.362  1.00  0.00     0.249 C 
HETATM    5  N3  UNL     1      82.873 -21.697  18.704  1.00  0.00    -0.108 NA
HETATM    6  N4  UNL     1      83.736 -22.676  19.276  1.00  0.00    -0.049 NA
ENDROOT
BRANCH   1   7
HETATM    7  C1  UNL     1      80.447 -21.844  19.434  1.00  0.00     0.369 C 
HETATM    8  O1  UNL     1      80.008 -22.604  18.558  1.00  0.00    -0.282 OA
ENDBRANCH   1   7
TORSDOF 1
ENDMDL
MODEL 3
REMARK VINA RESULT: -4.250901697      2.282      3.017
REMARK  1 active torsions:
REMARK  status: ('A' for Active; 'I' for Inactive)
REMARK    1  A    between atoms: C1_2  and  N1_3 
ROOT
HETATM    1  N1  UNL     1      81.645 -20.913  19.927  1.00  0.00    -0.256 N 
HETATM    2  C2  UNL     1      81.211 -20.824  21.336  1.00  0.00     0.259 C 
HETATM    3  N2  UNL     1      82.530 -20.452  21.895  1.00  0.00    -0.182 NA
HETATM    4  C3  UNL     1      82.865 -19.404  20.927  1.00  0.00     0.249 C 
HETATM    5  N3  UNL     1      83.009 -20.571  20.038  1.00  0.00    -0.108 NA
HETATM    6  N4  UNL     1      83.314 -21.370  21.178  1.00  0.00    -0.049 NA
ENDROOT
BRANCH   1   7
HETATM    7  C1  UNL     1      80.913 -21.247  18.779  1.00  0.00     0.369 C 
HETATM    8  O1  UNL     1      80.464 -22.397  18.668  1.00  0.00    -0.282 OA
ENDBRANCH   1   7
TORSDOF 1
ENDMDL
MODEL 4
REMARK VINA RESULT: -4.229509438      2.603      3.188
REMARK  1 active torsions:
REMARK  status: ('A' for Active; 'I' for Inactive)
REMARK    1  A    between atoms: C1_2  and  N1_3 
ROOT
HETATM    1  N1  UNL     1      81.884 -21.944  20.325  1.00  0.00    -0.256 N 
HETATM    2  C2  UNL     1      83.159 -21.592  20.983  1.00  0.00     0.259 C 
HETATM    3  N2  UNL     1      83.952 -21.439  19.742  1.00  0.00    -0.182 NA
HETATM    4  C3  UNL     1      82.997 -20.614  18.999  1.00  0.00     0.249 C 
HETATM    5  N3  UNL     1      82.253 -21.886  18.964  1.00  0.00    -0.108 NA
HETATM    6  N4  UNL     1      83.490 -22.584  19.072  1.00  0.00    -0.049 NA
ENDROOT
BRANCH   1   7
HETATM    7  C1  UNL     1      80.638 -22.255  20.886  1.00  0.00     0.369 C 
HETATM    8  O1  UNL     1      80.599 -22.748  22.023  1.00  0.00    -0.282 OA
ENDBRANCH   1   7
TORSDOF 1
ENDMDL
MODEL 5
REMARK VINA RESULT: -4.222394156      2.178      2.871
REMARK  1 active torsions:
REMARK  status: ('A' for Active; 'I' for Inactive)
REMARK    1  A    between atoms: C1_2  and  N1_3 
ROOT
HETATM    1  N1  UNL     1      82.992 -21.506  20.327  1.00  0.00    -0.256 N 
HETATM    2  C2  UNL     1      81.849 -20.892  19.622  1.00  0.00     0.259 C 
HETATM    3  N2  UNL     1      81.264 -20.219  20.804  1.00  0.00    -0.182 NA
HETATM    4  C3  UNL     1      82.500 -19.627  21.323  1.00  0.00     0.249 C 
HETATM    5  N3  UNL     1      82.788 -21.037  21.642  1.00  0.00    -0.108 NA
HETATM    6  N4  UNL     1      81.386 -21.281  21.715  1.00  0.00    -0.049 NA
ENDROOT
BRANCH   1   7
HETATM    7  C1  UNL     1      84.012 -22.333  19.837  1.00  0.00     0.369 C 
HETATM    8  O1  UNL     1      83.841 -22.923  18.761  1.00  0.00    -0.282 OA
ENDBRANCH   1   7
TORSDOF 1
ENDMDL
