MODEL 1
REMARK VINA RESULT: -6.598334332      0.000      0.000
REMARK  12 active torsions:
REMARK  status: ('A' for Active; 'I' for Inactive)
REMARK    1  A    between atoms: C2_2  and  C3_3 
REMARK    2  A    between atoms: C3_3  and  C4_4 
REMARK    3  A    between atoms: C4_4  and  C5_5 
REMARK    4  A    between atoms: C5_5  and  O1_6 
REMARK    5  A    between atoms: O1_6  and  C6_7 
REMARK    6  A    between atoms: C7_8  and  N1_9 
REMARK    7  A    between atoms: N1_9  and  C8_11 
REMARK    8  A    between atoms: C8_11  and  O2_12 
REMARK    9  A    between atoms: C8_11  and  C9_14 
REMARK   10  A    between atoms: C9_14  and  C10_15 
REMARK   11  A    between atoms: C18_26  and  N4_27 
REMARK   12  A    between atoms: C19_32  and  N6_33 
ROOT
HETATM    1  C6  UNL     1      -6.650  -2.000  -2.094  1.00  0.00     0.157 A 
HETATM    2  C7  UNL     1      -6.859  -0.617  -2.071  1.00  0.00     0.156 A 
HETATM    3  N3  UNL     1      -5.830   0.191  -2.357  1.00  0.00    -0.174 N 
ATOM      4  H3  UNL     1      -5.983   1.200  -2.339  1.00  0.00     0.186 HD
HETATM    5  C18 UNL     1      -4.591  -0.272  -2.671  1.00  0.00     0.679 A 
HETATM    6  N5  UNL     1      -4.432  -1.599  -2.684  1.00  0.00    -0.174 N 
ATOM      7  H5  UNL     1      -3.509  -1.964  -2.917  1.00  0.00     0.186 HD
HETATM    8  C19 UNL     1      -5.404  -2.482  -2.411  1.00  0.00     0.152 A 
ENDROOT
BRANCH   2   9
HETATM    9  N1  UNL     1      -8.165  -0.114  -1.759  1.00  0.00    -0.347 N 
ATOM     10  H1  UNL     1      -8.915  -0.288  -2.428  1.00  0.00     0.163 HD
BRANCH   9  11
HETATM   11  C8  UNL     1      -8.486   0.622  -0.559  1.00  0.00     0.221 C 
BRANCH  11  12
HETATM   12  O2  UNL     1      -7.371   0.899   0.188  1.00  0.00    -0.377 OA
ATOM     13  H2  UNL     1      -7.468   0.617   1.090  1.00  0.00     0.212 HD
ENDBRANCH  11  12
BRANCH  11  14
HETATM   14  C9  UNL     1      -9.661   0.074   0.198  1.00  0.00     0.095 C 
BRANCH  14  15
HETATM   15  C10 UNL     1     -10.760   1.053   0.399  1.00  0.00     0.164 C 
HETATM   16  C11 UNL     1     -11.209   1.754  -0.833  1.00  0.00     0.042 C 
HETATM   17  C12 UNL     1     -11.813   0.802  -1.816  1.00  0.00     0.004 C 
HETATM   18  C13 UNL     1     -12.999   0.137  -1.146  1.00  0.00     0.030 C 
HETATM   19  C14 UNL     1     -12.626  -0.458   0.186  1.00  0.00     0.273 C 
HETATM   20  N2  UNL     1     -11.879   0.407   1.026  1.00  0.00     0.098 N 
HETATM   21  C15 UNL     1     -12.630   1.422   1.686  1.00  0.00     0.273 C 
HETATM   22  C16 UNL     1     -11.548   2.247   2.350  1.00  0.00     0.033 C 
HETATM   23  C17 UNL     1     -10.336   2.049   1.469  1.00  0.00     0.043 C 
ENDBRANCH  14  15
ENDBRANCH  11  14
ENDBRANCH   9  11
ENDBRANCH   2   9
BRANCH   1  24
HETATM   24  O1  UNL     1      -7.716  -2.827  -1.797  1.00  0.00    -0.344 OA
BRANCH  24  25
HETATM   25  C5  UNL     1      -8.175  -3.227  -0.554  1.00  0.00     0.176 C 
BRANCH  25  26
HETATM   26  C4  UNL     1      -7.174  -3.469   0.510  1.00  0.00     0.027 C 
BRANCH  26  27
HETATM   27  C3  UNL     1      -7.011  -2.260   1.389  1.00  0.00     0.002 C 
BRANCH  27  28
HETATM   28  C2  UNL     1      -5.591  -1.815   1.431  1.00  0.00    -0.004 C 
HETATM   29  C1  UNL     1      -4.738  -3.078   1.236  1.00  0.00     0.005 C 
ENDBRANCH  27  28
ENDBRANCH  26  27
ENDBRANCH  25  26
ENDBRANCH  24  25
ENDBRANCH   1  24
BRANCH   8  30
HETATM   30  N6  UNL     1      -5.188  -3.762  -2.452  1.00  0.00    -0.383 N 
ATOM     31  H62 UNL     1      -4.978  -4.294  -1.608  1.00  0.00     0.157 HD
ATOM     32  H61 UNL     1      -5.217  -4.260  -3.341  1.00  0.00     0.157 HD
ENDBRANCH   8  30
BRANCH   5  33
HETATM   33  N4  UNL     1      -3.634   0.567  -2.940  1.00  0.00    -0.234 N 
ATOM     34  H42 UNL     1      -3.616   1.528  -2.597  1.00  0.00     0.174 HD
ATOM     35  H41 UNL     1      -2.850   0.272  -3.521  1.00  0.00     0.174 HD
ENDBRANCH   5  33
TORSDOF 12
ENDMDL
MODEL 2
REMARK VINA RESULT: -6.483946649      0.742      1.984
REMARK  12 active torsions:
REMARK  status: ('A' for Active; 'I' for Inactive)
REMARK    1  A    between atoms: C2_2  and  C3_3 
REMARK    2  A    between atoms: C3_3  and  C4_4 
REMARK    3  A    between atoms: C4_4  and  C5_5 
REMARK    4  A    between atoms: C5_5  and  O1_6 
REMARK    5  A    between atoms: O1_6  and  C6_7 
REMARK    6  A    between atoms: C7_8  and  N1_9 
REMARK    7  A    between atoms: N1_9  and  C8_11 
REMARK    8  A    between atoms: C8_11  and  O2_12 
REMARK    9  A    between atoms: C8_11  and  C9_14 
REMARK   10  A    between atoms: C9_14  and  C10_15 
REMARK   11  A    between atoms: C18_26  and  N4_27 
REMARK   12  A    between atoms: C19_32  and  N6_33 
ROOT
HETATM    1  C6  UNL     1      -6.778  -2.019  -2.100  1.00  0.00     0.157 A 
HETATM    2  C7  UNL     1      -6.997  -0.638  -2.059  1.00  0.00     0.156 A 
HETATM    3  N3  UNL     1      -5.973   0.181  -2.333  1.00  0.00    -0.174 N 
ATOM      4  H3  UNL     1      -6.133   1.188  -2.301  1.00  0.00     0.186 HD
HETATM    5  C18 UNL     1      -4.731  -0.270  -2.651  1.00  0.00     0.679 A 
HETATM    6  N5  UNL     1      -4.562  -1.594  -2.682  1.00  0.00    -0.174 N 
ATOM      7  H5  UNL     1      -3.636  -1.950  -2.918  1.00  0.00     0.186 HD
HETATM    8  C19 UNL     1      -5.528  -2.488  -2.422  1.00  0.00     0.152 A 
ENDROOT
BRANCH   2   9
HETATM    9  N1  UNL     1      -8.307  -0.149  -1.742  1.00  0.00    -0.347 N 
ATOM     10  H1  UNL     1      -9.066  -0.363  -2.389  1.00  0.00     0.163 HD
BRANCH   9  11
HETATM   11  C8  UNL     1      -8.620   0.629  -0.566  1.00  0.00     0.221 C 
BRANCH  11  12
HETATM   12  O2  UNL     1      -7.496   0.981   0.133  1.00  0.00    -0.377 OA
ATOM     13  H2  UNL     1      -7.692   1.204   1.035  1.00  0.00     0.212 HD
ENDBRANCH  11  12
BRANCH  11  14
HETATM   14  C9  UNL     1      -9.750   0.072   0.251  1.00  0.00     0.095 C 
BRANCH  14  15
HETATM   15  C10 UNL     1     -11.075   0.663  -0.066  1.00  0.00     0.164 C 
HETATM   16  C11 UNL     1     -12.114   0.473   0.980  1.00  0.00     0.042 C 
HETATM   17  C12 UNL     1     -11.750   1.178   2.248  1.00  0.00     0.004 C 
HETATM   18  C13 UNL     1     -11.611   2.654   1.931  1.00  0.00     0.030 C 
HETATM   19  C14 UNL     1     -10.681   2.889   0.770  1.00  0.00     0.273 C 
HETATM   20  N2  UNL     1     -10.927   2.062  -0.356  1.00  0.00     0.098 N 
HETATM   21  C15 UNL     1     -12.038   2.440  -1.164  1.00  0.00     0.273 C 
HETATM   22  C16 UNL     1     -12.124   1.296  -2.152  1.00  0.00     0.033 C 
HETATM   23  C17 UNL     1     -11.545   0.117  -1.407  1.00  0.00     0.043 C 
ENDBRANCH  14  15
ENDBRANCH  11  14
ENDBRANCH   9  11
ENDBRANCH   2   9
BRANCH   1  24
HETATM   24  O1  UNL     1      -7.839  -2.857  -1.815  1.00  0.00    -0.344 OA
BRANCH  24  25
HETATM   25  C5  UNL     1      -8.288  -3.288  -0.579  1.00  0.00     0.176 C 
BRANCH  25  26
HETATM   26  C4  UNL     1      -7.283  -3.509   0.485  1.00  0.00     0.027 C 
BRANCH  26  27
HETATM   27  C3  UNL     1      -7.158  -2.303   1.374  1.00  0.00     0.002 C 
BRANCH  27  28
HETATM   28  C2  UNL     1      -5.773  -1.757   1.347  1.00  0.00    -0.004 C 
HETATM   29  C1  UNL     1      -4.834  -2.970   1.270  1.00  0.00     0.005 C 
ENDBRANCH  27  28
ENDBRANCH  26  27
ENDBRANCH  25  26
ENDBRANCH  24  25
ENDBRANCH   1  24
BRANCH   8  30
HETATM   30  N6  UNL     1      -5.303  -3.766  -2.480  1.00  0.00    -0.383 N 
ATOM     31  H62 UNL     1      -5.015  -4.294  -1.656  1.00  0.00     0.157 HD
ATOM     32  H61 UNL     1      -5.404  -4.267  -3.362  1.00  0.00     0.157 HD
ENDBRANCH   8  30
BRANCH   5  33
HETATM   33  N4  UNL     1      -3.780   0.580  -2.908  1.00  0.00    -0.234 N 
ATOM     34  H42 UNL     1      -3.539   0.887  -3.850  1.00  0.00     0.174 HD
ATOM     35  H41 UNL     1      -3.232   0.974  -2.143  1.00  0.00     0.174 HD
ENDBRANCH   5  33
TORSDOF 12
ENDMDL
MODEL 3
REMARK VINA RESULT: -6.294263220      2.164      6.534
REMARK  12 active torsions:
REMARK  status: ('A' for Active; 'I' for Inactive)
REMARK    1  A    between atoms: C2_2  and  C3_3 
REMARK    2  A    between atoms: C3_3  and  C4_4 
REMARK    3  A    between atoms: C4_4  and  C5_5 
REMARK    4  A    between atoms: C5_5  and  O1_6 
REMARK    5  A    between atoms: O1_6  and  C6_7 
REMARK    6  A    between atoms: C7_8  and  N1_9 
REMARK    7  A    between atoms: N1_9  and  C8_11 
REMARK    8  A    between atoms: C8_11  and  O2_12 
REMARK    9  A    between atoms: C8_11  and  C9_14 
REMARK   10  A    between atoms: C9_14  and  C10_15 
REMARK   11  A    between atoms: C18_26  and  N4_27 
REMARK   12  A    between atoms: C19_32  and  N6_33 
ROOT
HETATM    1  C6  UNL     1     -10.315  -0.226  -1.098  1.00  0.00     0.157 A 
HETATM    2  C7  UNL     1      -9.468   0.109  -0.037  1.00  0.00     0.156 A 
HETATM    3  N3  UNL     1      -9.652   1.281   0.585  1.00  0.00    -0.174 N 
ATOM      4  H3  UNL     1      -9.033   1.525   1.358  1.00  0.00     0.186 HD
HETATM    5  C18 UNL     1     -10.628   2.159   0.232  1.00  0.00     0.679 A 
HETATM    6  N5  UNL     1     -11.417   1.802  -0.785  1.00  0.00    -0.174 N 
ATOM      7  H5  UNL     1     -12.155   2.449  -1.064  1.00  0.00     0.186 HD
HETATM    8  C19 UNL     1     -11.306   0.651  -1.465  1.00  0.00     0.152 A 
ENDROOT
BRANCH   2   9
HETATM    9  N1  UNL     1      -8.446  -0.816   0.358  1.00  0.00    -0.347 N 
ATOM     10  H1  UNL     1      -8.735  -1.682   0.812  1.00  0.00     0.163 HD
BRANCH   9  11
HETATM   11  C8  UNL     1      -7.032  -0.599   0.155  1.00  0.00     0.221 C 
BRANCH  11  12
HETATM   12  O2  UNL     1      -6.659   0.682   0.463  1.00  0.00    -0.377 OA
ATOM     13  H2  UNL     1      -5.859   0.707   0.974  1.00  0.00     0.212 HD
ENDBRANCH  11  12
BRANCH  11  14
HETATM   14  C9  UNL     1      -6.514  -1.136  -1.147  1.00  0.00     0.095 C 
BRANCH  14  15
HETATM   15  C10 UNL     1      -5.675  -2.354  -1.008  1.00  0.00     0.164 C 
HETATM   16  C11 UNL     1      -5.998  -3.450  -1.960  1.00  0.00     0.042 C 
HETATM   17  C12 UNL     1      -5.729  -3.044  -3.374  1.00  0.00     0.004 C 
HETATM   18  C13 UNL     1      -4.258  -2.692  -3.481  1.00  0.00     0.030 C 
HETATM   19  C14 UNL     1      -3.846  -1.694  -2.431  1.00  0.00     0.273 C 
HETATM   20  N2  UNL     1      -4.287  -2.006  -1.120  1.00  0.00     0.098 N 
HETATM   21  C15 UNL     1      -3.546  -3.022  -0.449  1.00  0.00     0.273 C 
HETATM   22  C16 UNL     1      -4.349  -3.225   0.818  1.00  0.00     0.033 C 
HETATM   23  C17 UNL     1      -5.758  -2.841   0.432  1.00  0.00     0.043 C 
ENDBRANCH  14  15
ENDBRANCH  11  14
ENDBRANCH   9  11
ENDBRANCH   2   9
BRANCH   1  24
HETATM   24  O1  UNL     1     -10.117  -1.436  -1.735  1.00  0.00    -0.344 OA
BRANCH  24  25
HETATM   25  C5  UNL     1     -10.644  -2.675  -1.414  1.00  0.00     0.176 C 
BRANCH  25  26
HETATM   26  C4  UNL     1      -9.744  -3.850  -1.486  1.00  0.00     0.027 C 
BRANCH  26  27
HETATM   27  C3  UNL     1      -9.495  -4.256  -2.912  1.00  0.00     0.002 C 
BRANCH  27  28
HETATM   28  C2  UNL     1      -8.884  -5.612  -2.984  1.00  0.00    -0.004 C 
HETATM   29  C1  UNL     1      -8.181  -5.696  -4.348  1.00  0.00     0.005 C 
ENDBRANCH  27  28
ENDBRANCH  26  27
ENDBRANCH  25  26
ENDBRANCH  24  25
ENDBRANCH   1  24
BRANCH   8  30
HETATM   30  N6  UNL     1     -12.113   0.357  -2.438  1.00  0.00    -0.383 N 
ATOM     31  H62 UNL     1     -11.840   0.482  -3.413  1.00  0.00     0.157 HD
ATOM     32  H61 UNL     1     -13.048  -0.000  -2.241  1.00  0.00     0.157 HD
ENDBRANCH   8  30
BRANCH   5  33
HETATM   33  N4  UNL     1     -10.754   3.281   0.877  1.00  0.00    -0.234 N 
ATOM     34  H42 UNL     1     -10.884   3.337   1.888  1.00  0.00     0.174 HD
ATOM     35  H41 UNL     1     -10.725   4.165   0.369  1.00  0.00     0.174 HD
ENDBRANCH   5  33
TORSDOF 12
ENDMDL
MODEL 4
REMARK VINA RESULT: -6.187280207      1.314      2.249
REMARK  12 active torsions:
REMARK  status: ('A' for Active; 'I' for Inactive)
REMARK    1  A    between atoms: C2_2  and  C3_3 
REMARK    2  A    between atoms: C3_3  and  C4_4 
REMARK    3  A    between atoms: C4_4  and  C5_5 
REMARK    4  A    between atoms: C5_5  and  O1_6 
REMARK    5  A    between atoms: O1_6  and  C6_7 
REMARK    6  A    between atoms: C7_8  and  N1_9 
REMARK    7  A    between atoms: N1_9  and  C8_11 
REMARK    8  A    between atoms: C8_11  and  O2_12 
REMARK    9  A    between atoms: C8_11  and  C9_14 
REMARK   10  A    between atoms: C9_14  and  C10_15 
REMARK   11  A    between atoms: C18_26  and  N4_27 
REMARK   12  A    between atoms: C19_32  and  N6_33 
ROOT
HETATM    1  C6  UNL     1      -6.041  -1.578  -2.557  1.00  0.00     0.157 A 
HETATM    2  C7  UNL     1      -6.435  -0.261  -2.300  1.00  0.00     0.156 A 
HETATM    3  N3  UNL     1      -5.535   0.719  -2.455  1.00  0.00    -0.174 N 
ATOM      4  H3  UNL     1      -5.823   1.679  -2.266  1.00  0.00     0.186 HD
HETATM    5  C18 UNL     1      -4.255   0.491  -2.851  1.00  0.00     0.679 A 
HETATM    6  N5  UNL     1      -3.917  -0.780  -3.087  1.00  0.00    -0.174 N 
ATOM      7  H5  UNL     1      -2.960  -0.970  -3.385  1.00  0.00     0.186 HD
HETATM    8  C19 UNL     1      -4.751  -1.823  -2.959  1.00  0.00     0.152 A 
ENDROOT
BRANCH   2   9
HETATM    9  N1  UNL     1      -7.787  -0.003  -1.899  1.00  0.00    -0.347 N 
ATOM     10  H1  UNL     1      -8.529  -0.191  -2.573  1.00  0.00     0.163 HD
BRANCH   9  11
HETATM   11  C8  UNL     1      -8.166   0.505  -0.601  1.00  0.00     0.221 C 
BRANCH  11  12
HETATM   12  O2  UNL     1      -7.111   0.523   0.272  1.00  0.00    -0.377 OA
ATOM     13  H2  UNL     1      -6.548   1.276   0.134  1.00  0.00     0.212 HD
ENDBRANCH  11  12
BRANCH  11  14
HETATM   14  C9  UNL     1      -9.445  -0.074  -0.069  1.00  0.00     0.095 C 
BRANCH  14  15
HETATM   15  C10 UNL     1     -10.494   0.938   0.216  1.00  0.00     0.164 C 
HETATM   16  C11 UNL     1     -11.011   1.658  -0.977  1.00  0.00     0.042 C 
HETATM   17  C12 UNL     1     -11.717   0.730  -1.914  1.00  0.00     0.004 C 
HETATM   18  C13 UNL     1     -12.871   0.100  -1.159  1.00  0.00     0.030 C 
HETATM   19  C14 UNL     1     -12.418  -0.512   0.140  1.00  0.00     0.273 C 
HETATM   20  N2  UNL     1     -11.583   0.325   0.924  1.00  0.00     0.098 N 
HETATM   21  C15 UNL     1     -12.250   1.361   1.640  1.00  0.00     0.273 C 
HETATM   22  C16 UNL     1     -11.096   2.148   2.223  1.00  0.00     0.033 C 
HETATM   23  C17 UNL     1      -9.960   1.916   1.254  1.00  0.00     0.043 C 
ENDBRANCH  14  15
ENDBRANCH  11  14
ENDBRANCH   9  11
ENDBRANCH   2   9
BRANCH   1  24
HETATM   24  O1  UNL     1      -6.975  -2.583  -2.394  1.00  0.00    -0.344 OA
BRANCH  24  25
HETATM   25  C5  UNL     1      -7.249  -3.330  -1.261  1.00  0.00     0.176 C 
BRANCH  25  26
HETATM   26  C4  UNL     1      -8.665  -3.641  -0.963  1.00  0.00     0.027 C 
BRANCH  26  27
HETATM   27  C3  UNL     1      -9.476  -3.748  -2.225  1.00  0.00     0.002 C 
BRANCH  27  28
HETATM   28  C2  UNL     1     -10.687  -2.885  -2.159  1.00  0.00    -0.004 C 
HETATM   29  C1  UNL     1     -11.842  -3.797  -1.719  1.00  0.00     0.005 C 
ENDBRANCH  27  28
ENDBRANCH  26  27
ENDBRANCH  25  26
ENDBRANCH  24  25
ENDBRANCH   1  24
BRANCH   8  30
HETATM   30  N6  UNL     1      -4.364  -3.036  -3.215  1.00  0.00    -0.383 N 
ATOM     31  H62 UNL     1      -4.989  -3.832  -3.089  1.00  0.00     0.157 HD
ATOM     32  H61 UNL     1      -3.415  -3.215  -3.543  1.00  0.00     0.157 HD
ENDBRANCH   8  30
BRANCH   5  33
HETATM   33  N4  UNL     1      -3.430   1.488  -2.982  1.00  0.00    -0.234 N 
ATOM     34  H42 UNL     1      -3.723   2.430  -3.240  1.00  0.00     0.174 HD
ATOM     35  H41 UNL     1      -2.433   1.345  -2.824  1.00  0.00     0.174 HD
ENDBRANCH   5  33
TORSDOF 12
ENDMDL
MODEL 5
REMARK VINA RESULT: -6.091916145      1.305      2.623
REMARK  12 active torsions:
REMARK  status: ('A' for Active; 'I' for Inactive)
REMARK    1  A    between atoms: C2_2  and  C3_3 
REMARK    2  A    between atoms: C3_3  and  C4_4 
REMARK    3  A    between atoms: C4_4  and  C5_5 
REMARK    4  A    between atoms: C5_5  and  O1_6 
REMARK    5  A    between atoms: O1_6  and  C6_7 
REMARK    6  A    between atoms: C7_8  and  N1_9 
REMARK    7  A    between atoms: N1_9  and  C8_11 
REMARK    8  A    between atoms: C8_11  and  O2_12 
REMARK    9  A    between atoms: C8_11  and  C9_14 
REMARK   10  A    between atoms: C9_14  and  C10_15 
REMARK   11  A    between atoms: C18_26  and  N4_27 
REMARK   12  A    between atoms: C19_32  and  N6_33 
ROOT
HETATM    1  C6  UNL     1      -6.534  -2.019  -1.732  1.00  0.00     0.157 A 
HETATM    2  C7  UNL     1      -6.754  -0.650  -1.919  1.00  0.00     0.156 A 
HETATM    3  N3  UNL     1      -5.737   0.110  -2.344  1.00  0.00    -0.174 N 
ATOM      4  H3  UNL     1      -5.897   1.108  -2.479  1.00  0.00     0.186 HD
HETATM    5  C18 UNL     1      -4.499  -0.390  -2.604  1.00  0.00     0.679 A 
HETATM    6  N5  UNL     1      -4.329  -1.701  -2.414  1.00  0.00    -0.174 N 
ATOM      7  H5  UNL     1      -3.407  -2.093  -2.604  1.00  0.00     0.186 HD
HETATM    8  C19 UNL     1      -5.290  -2.537  -1.991  1.00  0.00     0.152 A 
ENDROOT
BRANCH   2   9
HETATM    9  N1  UNL     1      -8.059  -0.112  -1.666  1.00  0.00    -0.347 N 
ATOM     10  H1  UNL     1      -8.771  -0.230  -2.387  1.00  0.00     0.163 HD
BRANCH   9  11
HETATM   11  C8  UNL     1      -8.430   0.584  -0.457  1.00  0.00     0.221 C 
BRANCH  11  12
HETATM   12  O2  UNL     1      -7.351   0.812   0.357  1.00  0.00    -0.377 OA
ATOM     13  H2  UNL     1      -7.482   0.460   1.229  1.00  0.00     0.212 HD
ENDBRANCH  11  12
BRANCH  11  14
HETATM   14  C9  UNL     1      -9.651   0.030   0.217  1.00  0.00     0.095 C 
BRANCH  14  15
HETATM   15  C10 UNL     1     -10.736   1.025   0.415  1.00  0.00     0.164 C 
HETATM   16  C11 UNL     1     -11.161   1.744  -0.815  1.00  0.00     0.042 C 
HETATM   17  C12 UNL     1     -11.770   0.809  -1.812  1.00  0.00     0.004 C 
HETATM   18  C13 UNL     1     -12.974   0.159  -1.160  1.00  0.00     0.030 C 
HETATM   19  C14 UNL     1     -12.624  -0.453   0.171  1.00  0.00     0.273 C 
HETATM   20  N2  UNL     1     -11.872   0.393   1.025  1.00  0.00     0.098 N 
HETATM   21  C15 UNL     1     -12.613   1.415   1.686  1.00  0.00     0.273 C 
HETATM   22  C16 UNL     1     -11.525   2.216   2.368  1.00  0.00     0.033 C 
HETATM   23  C17 UNL     1     -10.307   2.006   1.498  1.00  0.00     0.043 C 
ENDBRANCH  14  15
ENDBRANCH  11  14
ENDBRANCH   9  11
ENDBRANCH   2   9
BRANCH   1  24
HETATM   24  O1  UNL     1      -7.589  -2.796  -1.292  1.00  0.00    -0.344 OA
BRANCH  24  25
HETATM   25  C5  UNL     1      -8.417  -3.623  -2.030  1.00  0.00     0.176 C 
BRANCH  25  26
HETATM   26  C4  UNL     1      -9.811  -3.802  -1.565  1.00  0.00     0.027 C 
BRANCH  26  27
HETATM   27  C3  UNL     1     -10.715  -2.747  -2.141  1.00  0.00     0.002 C 
BRANCH  27  28
HETATM   28  C2  UNL     1     -12.095  -3.271  -2.334  1.00  0.00    -0.004 C 
HETATM   29  C1  UNL     1     -12.559  -2.766  -3.709  1.00  0.00     0.005 C 
ENDBRANCH  27  28
ENDBRANCH  26  27
ENDBRANCH  25  26
ENDBRANCH  24  25
ENDBRANCH   1  24
BRANCH   8  30
HETATM   30  N6  UNL     1      -5.064  -3.806  -1.838  1.00  0.00    -0.383 N 
ATOM     31  H62 UNL     1      -5.258  -4.476  -2.582  1.00  0.00     0.157 HD
ATOM     32  H61 UNL     1      -4.693  -4.160  -0.956  1.00  0.00     0.157 HD
ENDBRANCH   8  30
BRANCH   5  33
HETATM   33  N4  UNL     1      -3.554   0.403  -3.015  1.00  0.00    -0.234 N 
ATOM     34  H42 UNL     1      -3.727   1.261  -3.539  1.00  0.00     0.174 HD
ATOM     35  H41 UNL     1      -2.579   0.177  -2.816  1.00  0.00     0.174 HD
ENDBRANCH   5  33
TORSDOF 12
ENDMDL
