MODEL 1
REMARK VINA RESULT: -4.105135193      0.000      0.000
REMARK  2 active torsions:
REMARK  status: ('A' for Active; 'I' for Inactive)
REMARK    1  A    between atoms: C5_7  and  O2_8 
REMARK    2  A    between atoms: C5_7  and  O3_10 
ROOT
HETATM    1  C1  UNL     1      -3.978   9.748   4.037  1.00  0.00     0.150 C 
HETATM    2  N1  UNL     1      -4.396  10.741   5.022  1.00  0.00    -0.138 NA
HETATM    3  O1  UNL     1      -3.453  10.846   6.000  1.00  0.00    -0.281 OA
HETATM    4  C2  UNL     1      -3.056  12.151   5.707  1.00  0.00     0.149 A 
HETATM    5  C3  UNL     1      -1.645  12.276   5.242  1.00  0.00     0.055 C 
HETATM    6  C4  UNL     1      -3.379  13.039   6.904  1.00  0.00     0.055 C 
HETATM    7  C5  UNL     1      -4.117  12.108   4.649  1.00  0.00     0.280 A 
ENDROOT
BRANCH   7   8
HETATM    8  O2  UNL     1      -5.137  12.997   4.936  1.00  0.00    -0.349 OA
ATOM      9  H2  UNL     1      -4.851  13.894   5.061  1.00  0.00     0.214 HD
ENDBRANCH   7   8
BRANCH   7  10
HETATM   10  O3  UNL     1      -3.666  12.205   3.332  1.00  0.00    -0.349 OA
ATOM     11  H3  UNL     1      -2.847  12.684   3.273  1.00  0.00     0.214 HD
ENDBRANCH   7  10
TORSDOF 2
ENDMDL
MODEL 2
REMARK VINA RESULT: -3.913686585      1.252      1.491
REMARK  2 active torsions:
REMARK  status: ('A' for Active; 'I' for Inactive)
REMARK    1  A    between atoms: C5_7  and  O2_8 
REMARK    2  A    between atoms: C5_7  and  O3_10 
ROOT
HETATM    1  C1  UNL     1      -3.575   8.949   4.980  1.00  0.00     0.150 C 
HETATM    2  N1  UNL     1      -4.329  10.173   4.721  1.00  0.00    -0.138 NA
HETATM    3  O1  UNL     1      -4.539  10.840   5.890  1.00  0.00    -0.281 OA
HETATM    4  C2  UNL     1      -3.750  11.951   5.590  1.00  0.00     0.149 A 
HETATM    5  C3  UNL     1      -2.558  12.115   6.472  1.00  0.00     0.055 C 
HETATM    6  C4  UNL     1      -4.643  13.186   5.544  1.00  0.00     0.055 C 
HETATM    7  C5  UNL     1      -3.526  11.285   4.267  1.00  0.00     0.280 A 
ENDROOT
BRANCH   7   8
HETATM    8  O2  UNL     1      -4.097  12.018   3.242  1.00  0.00    -0.349 OA
ATOM      9  H2  UNL     1      -3.986  12.958   3.324  1.00  0.00     0.214 HD
ENDBRANCH   7   8
BRANCH   7  10
HETATM   10  O3  UNL     1      -2.214  10.900   3.995  1.00  0.00    -0.349 OA
ATOM     11  H3  UNL     1      -2.065  10.784   3.063  1.00  0.00     0.214 HD
ENDBRANCH   7  10
TORSDOF 2
ENDMDL
MODEL 3
REMARK VINA RESULT: -3.833382420      2.085      3.223
REMARK  2 active torsions:
REMARK  status: ('A' for Active; 'I' for Inactive)
REMARK    1  A    between atoms: C5_7  and  O2_8 
REMARK    2  A    between atoms: C5_7  and  O3_10 
ROOT
HETATM    1  C1  UNL     1      -2.266  11.078   8.188  1.00  0.00     0.150 C 
HETATM    2  N1  UNL     1      -2.088  11.062   6.738  1.00  0.00    -0.138 NA
HETATM    3  O1  UNL     1      -3.304  11.028   6.125  1.00  0.00    -0.281 OA
HETATM    4  C2  UNL     1      -3.229  12.293   5.539  1.00  0.00     0.149 A 
HETATM    5  C3  UNL     1      -4.240  13.266   6.043  1.00  0.00     0.055 C 
HETATM    6  C4  UNL     1      -3.247  12.129   4.024  1.00  0.00     0.055 C 
HETATM    7  C5  UNL     1      -1.861  12.361   6.149  1.00  0.00     0.280 A 
ENDROOT
BRANCH   7   8
HETATM    8  O2  UNL     1      -0.884  12.380   5.170  1.00  0.00    -0.349 OA
ATOM      9  H2  UNL     1      -1.082  11.846   4.409  1.00  0.00     0.214 HD
ENDBRANCH   7   8
BRANCH   7  10
HETATM   10  O3  UNL     1      -1.678  13.346   7.120  1.00  0.00    -0.349 OA
ATOM     11  H3  UNL     1      -0.760  13.457   7.341  1.00  0.00     0.214 HD
ENDBRANCH   7  10
TORSDOF 2
ENDMDL
MODEL 4
REMARK VINA RESULT: -3.816096974      2.509      3.485
REMARK  2 active torsions:
REMARK  status: ('A' for Active; 'I' for Inactive)
REMARK    1  A    between atoms: C5_7  and  O2_8 
REMARK    2  A    between atoms: C5_7  and  O3_10 
ROOT
HETATM    1  C1  UNL     1      -3.795  11.646   3.974  1.00  0.00     0.150 C 
HETATM    2  N1  UNL     1      -2.626  10.816   3.695  1.00  0.00    -0.138 NA
HETATM    3  O1  UNL     1      -1.660  11.054   4.625  1.00  0.00    -0.281 OA
HETATM    4  C2  UNL     1      -1.692   9.793   5.221  1.00  0.00     0.149 A 
HETATM    5  C3  UNL     1      -2.142   9.795   6.643  1.00  0.00     0.055 C 
HETATM    6  C4  UNL     1      -0.339   9.122   5.016  1.00  0.00     0.055 C 
HETATM    7  C5  UNL     1      -2.724   9.462   4.186  1.00  0.00     0.280 A 
ENDROOT
BRANCH   7   8
HETATM    8  O2  UNL     1      -2.252   8.502   3.307  1.00  0.00    -0.349 OA
ATOM      9  H2  UNL     1      -2.928   8.077   2.792  1.00  0.00     0.214 HD
ENDBRANCH   7   8
BRANCH   7  10
HETATM   10  O3  UNL     1      -4.000   9.176   4.669  1.00  0.00    -0.349 OA
ATOM     11  H3  UNL     1      -4.307   9.842   5.274  1.00  0.00     0.214 HD
ENDBRANCH   7  10
TORSDOF 2
ENDMDL
MODEL 5
REMARK VINA RESULT: -3.809970957      2.243      3.611
REMARK  2 active torsions:
REMARK  status: ('A' for Active; 'I' for Inactive)
REMARK    1  A    between atoms: C5_7  and  O2_8 
REMARK    2  A    between atoms: C5_7  and  O3_10 
ROOT
HETATM    1  C1  UNL     1      -1.938  12.415   7.417  1.00  0.00     0.150 C 
HETATM    2  N1  UNL     1      -1.714  11.130   6.760  1.00  0.00    -0.138 NA
HETATM    3  O1  UNL     1      -2.860  10.718   6.149  1.00  0.00    -0.281 OA
HETATM    4  C2  UNL     1      -2.392  10.815   4.839  1.00  0.00     0.149 A 
HETATM    5  C3  UNL     1      -3.093  11.837   4.009  1.00  0.00     0.055 C 
HETATM    6  C4  UNL     1      -2.396   9.424   4.216  1.00  0.00     0.055 C 
HETATM    7  C5  UNL     1      -1.091  11.224   5.460  1.00  0.00     0.280 A 
ENDROOT
BRANCH   7   8
HETATM    8  O2  UNL     1      -0.113  10.274   5.228  1.00  0.00    -0.349 OA
ATOM      9  H2  UNL     1       0.264  10.306   4.356  1.00  0.00     0.214 HD
ENDBRANCH   7   8
BRANCH   7  10
HETATM   10  O3  UNL     1      -0.666  12.523   5.181  1.00  0.00    -0.349 OA
ATOM     11  H3  UNL     1       0.190  12.702   5.554  1.00  0.00     0.214 HD
ENDBRANCH   7  10
TORSDOF 2
ENDMDL
