MODEL 1
REMARK VINA RESULT: -5.427119066      0.000      0.000
REMARK  3 active torsions:
REMARK  status: ('A' for Active; 'I' for Inactive)
REMARK    1  A    between atoms: C2_2  and  N1_4 
REMARK    2  A    between atoms: C5_6  and  C6_7 
REMARK       I    between atoms: C6_7  and  N2_9 
REMARK    3  A    between atoms: N2_9  and  C7_11 
ROOT
HETATM    1  C6  UNL     1      55.084  43.475  89.441  1.00  0.00     0.261 C 
HETATM    2  O1  UNL     1      54.909  42.610  90.330  1.00  0.00    -0.267 OA
HETATM    3  N2  UNL     1      53.951  44.067  88.834  1.00  0.00    -0.350 N 
ATOM      4  H2  UNL     1      54.092  44.771  88.109  1.00  0.00     0.163 HD
ENDROOT
BRANCH   1   5
HETATM    5  C5  UNL     1      56.430  43.841  89.063  1.00  0.00     0.105 A 
HETATM    6  C4  UNL     1      57.135  45.004  88.769  1.00  0.00     0.125 A 
HETATM    7  N1  UNL     1      58.392  44.601  88.489  1.00  0.00    -0.322 N 
HETATM    8  S1  UNL     1      57.892  43.037  88.769  1.00  0.00    -0.005 SA
BRANCH   7   9
HETATM    9  C2  UNL     1      59.672  45.129  88.111  1.00  0.00     0.088 C 
HETATM   10  C1  UNL     1      59.505  45.991  86.854  1.00  0.00     0.033 C 
HETATM   11  C3  UNL     1      60.152  46.056  89.201  1.00  0.00     0.033 C 
ENDBRANCH   7   9
ENDBRANCH   1   5
BRANCH   3  12
HETATM   12  C7  UNL     1      52.609  43.711  89.203  1.00  0.00     0.115 C 
HETATM   13  C8  UNL     1      51.978  42.729  88.259  1.00  0.00     0.062 C 
HETATM   14  C9  UNL     1      50.500  43.037  88.317  1.00  0.00     0.226 A 
HETATM   15  C10 UNL     1      49.879  43.412  87.015  1.00  0.00     0.066 A 
HETATM   16  N3  UNL     1      50.359  44.353  88.873  1.00  0.00     0.095 N 
HETATM   17  C11 UNL     1      49.710  44.763  87.644  1.00  0.00     0.275 A 
HETATM   18  C12 UNL     1      51.659  44.891  89.111  1.00  0.00     0.298 C 
ENDBRANCH   3  12
TORSDOF 3
ENDMDL
MODEL 2
REMARK VINA RESULT: -5.330419240      1.643      1.876
REMARK  3 active torsions:
REMARK  status: ('A' for Active; 'I' for Inactive)
REMARK    1  A    between atoms: C2_2  and  N1_4 
REMARK    2  A    between atoms: C5_6  and  C6_7 
REMARK       I    between atoms: C6_7  and  N2_9 
REMARK    3  A    between atoms: N2_9  and  C7_11 
ROOT
HETATM    1  C6  UNL     1      54.489  45.741  88.656  1.00  0.00     0.261 C 
HETATM    2  O1  UNL     1      54.082  46.734  89.301  1.00  0.00    -0.267 OA
HETATM    3  N2  UNL     1      53.546  44.942  87.967  1.00  0.00    -0.350 N 
ATOM      4  H2  UNL     1      53.878  44.132  87.441  1.00  0.00     0.163 HD
ENDROOT
BRANCH   1   5
HETATM    5  C5  UNL     1      55.903  45.442  88.633  1.00  0.00     0.105 A 
HETATM    6  C4  UNL     1      57.103  46.147  88.642  1.00  0.00     0.125 A 
HETATM    7  N1  UNL     1      58.071  45.208  88.604  1.00  0.00    -0.322 N 
HETATM    8  S1  UNL     1      56.871  44.053  88.581  1.00  0.00    -0.005 SA
BRANCH   7   9
HETATM    9  C2  UNL     1      59.501  45.084  88.587  1.00  0.00     0.088 C 
HETATM   10  C1  UNL     1      60.018  45.460  87.193  1.00  0.00     0.033 C 
HETATM   11  C3  UNL     1      60.085  46.093  89.543  1.00  0.00     0.033 C 
ENDBRANCH   7   9
ENDBRANCH   1   5
BRANCH   3  12
HETATM   12  C7  UNL     1      52.139  45.230  87.982  1.00  0.00     0.115 C 
HETATM   13  C8  UNL     1      51.419  44.599  89.138  1.00  0.00     0.062 C 
HETATM   14  C9  UNL     1      50.018  44.356  88.630  1.00  0.00     0.226 A 
HETATM   15  C10 UNL     1      49.570  42.935  88.658  1.00  0.00     0.066 A 
HETATM   16  N3  UNL     1      50.066  44.413  87.197  1.00  0.00     0.095 N 
HETATM   17  C11 UNL     1      49.592  43.044  87.162  1.00  0.00     0.275 A 
HETATM   18  C12 UNL     1      51.418  44.623  86.792  1.00  0.00     0.298 C 
ENDBRANCH   3  12
TORSDOF 3
ENDMDL
MODEL 3
REMARK VINA RESULT: -5.242362106      1.226      1.409
REMARK  3 active torsions:
REMARK  status: ('A' for Active; 'I' for Inactive)
REMARK    1  A    between atoms: C2_2  and  N1_4 
REMARK    2  A    between atoms: C5_6  and  C6_7 
REMARK       I    between atoms: C6_7  and  N2_9 
REMARK    3  A    between atoms: N2_9  and  C7_11 
ROOT
HETATM    1  C6  UNL     1      54.862  42.612  88.335  1.00  0.00     0.261 C 
HETATM    2  O1  UNL     1      54.767  41.367  88.435  1.00  0.00    -0.267 OA
HETATM    3  N2  UNL     1      53.699  43.364  88.044  1.00  0.00    -0.350 N 
ATOM      4  H2  UNL     1      53.776  44.378  87.962  1.00  0.00     0.163 HD
ENDROOT
BRANCH   1   5
HETATM    5  C5  UNL     1      56.150  43.241  88.519  1.00  0.00     0.105 A 
HETATM    6  C4  UNL     1      56.753  44.458  88.214  1.00  0.00     0.125 A 
HETATM    7  N1  UNL     1      58.011  44.365  88.693  1.00  0.00    -0.322 N 
HETATM    8  S1  UNL     1      57.638  42.827  89.213  1.00  0.00    -0.005 SA
BRANCH   7   9
HETATM    9  C2  UNL     1      59.222  45.128  88.793  1.00  0.00     0.088 C 
HETATM   10  C1  UNL     1      59.921  45.140  87.428  1.00  0.00     0.033 C 
HETATM   11  C3  UNL     1      58.867  46.561  89.100  1.00  0.00     0.033 C 
ENDBRANCH   7   9
ENDBRANCH   1   5
BRANCH   3  12
HETATM   12  C7  UNL     1      52.414  42.749  87.860  1.00  0.00     0.115 C 
HETATM   13  C8  UNL     1      51.508  43.534  86.956  1.00  0.00     0.062 C 
HETATM   14  C9  UNL     1      50.113  43.219  87.445  1.00  0.00     0.226 A 
HETATM   15  C10 UNL     1      49.314  44.398  87.885  1.00  0.00     0.066 A 
HETATM   16  N3  UNL     1      50.236  42.686  88.773  1.00  0.00     0.095 N 
HETATM   17  C11 UNL     1      49.428  43.790  89.251  1.00  0.00     0.275 A 
HETATM   18  C12 UNL     1      51.612  42.703  89.148  1.00  0.00     0.298 C 
ENDBRANCH   3  12
TORSDOF 3
ENDMDL
MODEL 4
REMARK VINA RESULT: -5.169984144      1.371      1.585
REMARK  3 active torsions:
REMARK  status: ('A' for Active; 'I' for Inactive)
REMARK    1  A    between atoms: C2_2  and  N1_4 
REMARK    2  A    between atoms: C5_6  and  C6_7 
REMARK       I    between atoms: C6_7  and  N2_9 
REMARK    3  A    between atoms: N2_9  and  C7_11 
ROOT
HETATM    1  C6  UNL     1      54.977  44.759  89.035  1.00  0.00     0.261 C 
HETATM    2  O1  UNL     1      54.765  45.493  90.028  1.00  0.00    -0.267 OA
HETATM    3  N2  UNL     1      53.941  43.908  88.583  1.00  0.00    -0.350 N 
ATOM      4  H2  UNL     1      54.112  43.310  87.774  1.00  0.00     0.163 HD
ENDROOT
BRANCH   1   5
HETATM    5  C5  UNL     1      56.266  44.803  88.384  1.00  0.00     0.105 A 
HETATM    6  C4  UNL     1      57.542  44.291  88.594  1.00  0.00     0.125 A 
HETATM    7  N1  UNL     1      58.286  44.743  87.563  1.00  0.00    -0.322 N 
HETATM    8  S1  UNL     1      56.924  45.516  86.995  1.00  0.00    -0.005 SA
BRANCH   7   9
HETATM    9  C2  UNL     1      59.623  44.686  87.046  1.00  0.00     0.088 C 
HETATM   10  C1  UNL     1      60.581  45.312  88.067  1.00  0.00     0.033 C 
HETATM   11  C3  UNL     1      60.030  43.239  86.916  1.00  0.00     0.033 C 
ENDBRANCH   7   9
ENDBRANCH   1   5
BRANCH   3  12
HETATM   12  C7  UNL     1      52.655  43.858  89.222  1.00  0.00     0.115 C 
HETATM   13  C8  UNL     1      51.827  42.682  88.791  1.00  0.00     0.062 C 
HETATM   14  C9  UNL     1      50.398  43.152  88.918  1.00  0.00     0.226 A 
HETATM   15  C10 UNL     1      49.601  43.110  87.659  1.00  0.00     0.066 A 
HETATM   16  N3  UNL     1      50.422  44.587  88.967  1.00  0.00     0.095 N 
HETATM   17  C11 UNL     1      49.613  44.606  87.766  1.00  0.00     0.275 A 
HETATM   18  C12 UNL     1      51.772  45.027  88.825  1.00  0.00     0.298 C 
ENDBRANCH   3  12
TORSDOF 3
ENDMDL
MODEL 5
REMARK VINA RESULT: -5.158506635      1.591      1.863
REMARK  3 active torsions:
REMARK  status: ('A' for Active; 'I' for Inactive)
REMARK    1  A    between atoms: C2_2  and  N1_4 
REMARK    2  A    between atoms: C5_6  and  C6_7 
REMARK       I    between atoms: C6_7  and  N2_9 
REMARK    3  A    between atoms: N2_9  and  C7_11 
ROOT
HETATM    1  C6  UNL     1      55.006  42.927  89.240  1.00  0.00     0.261 C 
HETATM    2  O1  UNL     1      54.853  42.375  90.353  1.00  0.00    -0.267 OA
HETATM    3  N2  UNL     1      53.896  43.564  88.636  1.00  0.00    -0.350 N 
ATOM      4  H2  UNL     1      54.019  44.014  87.728  1.00  0.00     0.163 HD
ENDROOT
BRANCH   1   5
HETATM    5  C5  UNL     1      56.305  42.898  88.607  1.00  0.00     0.105 A 
HETATM    6  C4  UNL     1      56.820  42.754  87.322  1.00  0.00     0.125 A 
HETATM    7  N1  UNL     1      58.160  42.825  87.462  1.00  0.00    -0.322 N 
HETATM    8  S1  UNL     1      57.921  43.023  89.099  1.00  0.00    -0.005 SA
BRANCH   7   9
HETATM    9  C2  UNL     1      59.364  42.773  86.683  1.00  0.00     0.088 C 
HETATM   10  C1  UNL     1      59.267  41.609  85.689  1.00  0.00     0.033 C 
HETATM   11  C3  UNL     1      59.459  44.031  85.856  1.00  0.00     0.033 C 
ENDBRANCH   7   9
ENDBRANCH   1   5
BRANCH   3  12
HETATM   12  C7  UNL     1      52.601  43.600  89.257  1.00  0.00     0.115 C 
HETATM   13  C8  UNL     1      51.683  42.516  88.771  1.00  0.00     0.062 C 
HETATM   14  C9  UNL     1      50.297  43.102  88.897  1.00  0.00     0.226 A 
HETATM   15  C10 UNL     1      49.520  43.173  87.627  1.00  0.00     0.066 A 
HETATM   16  N3  UNL     1      50.442  44.526  89.001  1.00  0.00     0.095 N 
HETATM   17  C11 UNL     1      49.656  44.658  87.791  1.00  0.00     0.275 A 
HETATM   18  C12 UNL     1      51.827  44.854  88.893  1.00  0.00     0.298 C 
ENDBRANCH   3  12
TORSDOF 3
ENDMDL
