MODEL 1
REMARK VINA RESULT: -8.418188607      0.000      0.000
REMARK  6 active torsions:
REMARK  status: ('A' for Active; 'I' for Inactive)
REMARK    1  A    between atoms: C2_3  and  N2_4 
REMARK    2  A    between atoms: C3_9  and  C4_10 
REMARK    3  A    between atoms: C4_10  and  S1_11 
REMARK    4  A    between atoms: S1_11  and  C5_12 
REMARK    5  A    between atoms: C7_20  and  N7_21 
REMARK    6  A    between atoms: N7_21  and  O1_23 
ROOT
HETATM    1  C5  UNL     1     -10.473   9.070 -35.333  1.00  0.00     0.104 A 
HETATM    2  N4  UNL     1     -11.313   8.670 -36.301  1.00  0.00    -0.291 N 
ATOM      3  H4  UNL     1     -11.599   9.243 -37.093  1.00  0.00     0.187 HD
HETATM    4  N5  UNL     1     -11.717   7.433 -36.086  1.00  0.00    -0.283 N 
ATOM      5  H5  UNL     1     -12.359   6.914 -36.688  1.00  0.00     0.188 HD
HETATM    6  C6  UNL     1     -11.162   6.956 -34.962  1.00  0.00     0.154 A 
HETATM    7  N6  UNL     1     -11.237   5.781 -34.308  1.00  0.00    -0.172 N 
ATOM      8  H6  UNL     1     -11.823   5.033 -34.679  1.00  0.00     0.186 HD
HETATM    9  C7  UNL     1     -10.550   5.588 -33.177  1.00  0.00     0.708 A 
HETATM   10  N8  UNL     1      -9.767   6.575 -32.675  1.00  0.00    -0.149 N 
HETATM   11  C8  UNL     1      -9.011   6.394 -31.453  1.00  0.00     0.179 C 
HETATM   12  C9  UNL     1      -9.665   7.767 -33.302  1.00  0.00     0.278 A 
HETATM   13  O2  UNL     1      -8.930   8.679 -32.821  1.00  0.00    -0.266 OA
HETATM   14  C10 UNL     1     -10.364   7.999 -34.476  1.00  0.00     0.113 A 
ENDROOT
BRANCH   1  15
HETATM   15  S1  UNL     1      -9.629  10.626 -35.113  1.00  0.00    -0.102 SA
BRANCH  15  16
HETATM   16  C4  UNL     1      -8.293  10.710 -36.337  1.00  0.00     0.158 C 
BRANCH  16  17
HETATM   17  C3  UNL     1      -8.807  11.500 -37.489  1.00  0.00     0.111 A 
HETATM   18  N3  UNL     1      -8.045  12.311 -38.231  1.00  0.00    -0.180 N 
HETATM   19  C2  UNL     1      -8.577  13.010 -39.277  1.00  0.00     0.683 A 
ATOM     20  H3  UNL     1      -7.053  12.410 -38.013  1.00  0.00     0.185 HD
HETATM   21  N1  UNL     1      -9.880  12.905 -39.592  1.00  0.00    -0.137 N 
HETATM   22  C1  UNL     1     -10.458  13.647 -40.706  1.00  0.00     0.180 C 
HETATM   23  C11 UNL     1     -10.645  12.089 -38.846  1.00  0.00     0.341 A 
HETATM   24  N9  UNL     1     -10.113  11.403 -37.817  1.00  0.00    -0.296 N 
HETATM   25  O3  UNL     1     -11.881  11.991 -39.146  1.00  0.00    -0.246 OA
ATOM     26  H9  UNL     1     -10.716  10.791 -37.268  1.00  0.00     0.172 HD
BRANCH  19  27
HETATM   27  N2  UNL     1      -7.840  13.785 -39.986  1.00  0.00    -0.234 N 
ATOM     28  H22 UNL     1      -8.196  14.683 -40.312  1.00  0.00     0.174 HD
ATOM     29  H21 UNL     1      -6.893  13.480 -40.211  1.00  0.00     0.174 HD
ENDBRANCH  19  27
ENDBRANCH  16  17
ENDBRANCH  15  16
ENDBRANCH   1  15
BRANCH   9  30
HETATM   30  N7  UNL     1     -10.585   4.477 -32.504  1.00  0.00    -0.098 N 
ATOM     31  H7  UNL     1      -9.961   4.317 -31.714  1.00  0.00     0.213 HD
BRANCH  30  32
HETATM   32  O1  UNL     1     -11.494   3.525 -32.898  1.00  0.00    -0.276 OA
ATOM     33  H1  UNL     1     -11.222   2.908 -33.566  1.00  0.00     0.245 HD
ENDBRANCH  30  32
ENDBRANCH   9  30
TORSDOF 6
ENDMDL
MODEL 2
REMARK VINA RESULT: -8.310237114      1.843      8.492
REMARK  6 active torsions:
REMARK  status: ('A' for Active; 'I' for Inactive)
REMARK    1  A    between atoms: C2_3  and  N2_4 
REMARK    2  A    between atoms: C3_9  and  C4_10 
REMARK    3  A    between atoms: C4_10  and  S1_11 
REMARK    4  A    between atoms: S1_11  and  C5_12 
REMARK    5  A    between atoms: C7_20  and  N7_21 
REMARK    6  A    between atoms: N7_21  and  O1_23 
ROOT
HETATM    1  C5  UNL     1      -8.581  10.862 -36.439  1.00  0.00     0.104 A 
HETATM    2  N4  UNL     1      -7.290  10.993 -36.094  1.00  0.00    -0.291 N 
ATOM      3  H4  UNL     1      -6.843  10.495 -35.325  1.00  0.00     0.187 HD
HETATM    4  N5  UNL     1      -6.680  11.854 -36.885  1.00  0.00    -0.283 N 
ATOM      5  H5  UNL     1      -5.696  12.116 -36.815  1.00  0.00     0.188 HD
HETATM    6  C6  UNL     1      -7.542  12.335 -37.793  1.00  0.00     0.154 A 
HETATM    7  N6  UNL     1      -7.437  13.216 -38.806  1.00  0.00    -0.172 N 
ATOM      8  H6  UNL     1      -6.541  13.665 -38.995  1.00  0.00     0.186 HD
HETATM    9  C7  UNL     1      -8.499  13.508 -39.566  1.00  0.00     0.708 A 
HETATM   10  N8  UNL     1      -9.695  12.916 -39.325  1.00  0.00    -0.149 N 
HETATM   11  C8  UNL     1     -10.862  13.211 -40.132  1.00  0.00     0.179 C 
HETATM   12  C9  UNL     1      -9.840  12.026 -38.319  1.00  0.00     0.278 A 
HETATM   13  O2  UNL     1     -10.964  11.483 -38.107  1.00  0.00    -0.266 OA
HETATM   14  C10 UNL     1      -8.760  11.703 -37.514  1.00  0.00     0.113 A 
ENDROOT
BRANCH   1  15
HETATM   15  S1  UNL     1      -9.866   9.848 -35.729  1.00  0.00    -0.102 SA
BRANCH  15  16
HETATM   16  C4  UNL     1      -9.254   9.208 -34.145  1.00  0.00     0.158 C 
BRANCH  16  17
HETATM   17  C3  UNL     1      -9.980   7.937 -33.879  1.00  0.00     0.111 A 
HETATM   18  N3  UNL     1     -10.486   7.607 -32.685  1.00  0.00    -0.180 N 
HETATM   19  C2  UNL     1     -11.143   6.424 -32.505  1.00  0.00     0.683 A 
ATOM     20  H3  UNL     1     -10.378   8.248 -31.898  1.00  0.00     0.185 HD
HETATM   21  N1  UNL     1     -11.302   5.555 -33.520  1.00  0.00    -0.137 N 
HETATM   22  C1  UNL     1     -12.002   4.290 -33.338  1.00  0.00     0.180 C 
HETATM   23  C11 UNL     1     -10.794   5.888 -34.719  1.00  0.00     0.341 A 
HETATM   24  N9  UNL     1     -10.148   7.057 -34.888  1.00  0.00    -0.296 N 
HETATM   25  O3  UNL     1     -10.946   5.063 -35.680  1.00  0.00    -0.246 OA
ATOM     26  H9  UNL     1      -9.772   7.284 -35.809  1.00  0.00     0.172 HD
BRANCH  19  27
HETATM   27  N2  UNL     1     -11.628   6.115 -31.358  1.00  0.00    -0.234 N 
ATOM     28  H22 UNL     1     -12.312   5.364 -31.269  1.00  0.00     0.174 HD
ATOM     29  H21 UNL     1     -11.310   6.638 -30.542  1.00  0.00     0.174 HD
ENDBRANCH  19  27
ENDBRANCH  16  17
ENDBRANCH  15  16
ENDBRANCH   1  15
BRANCH   9  30
HETATM   30  N7  UNL     1      -8.456  14.350 -40.554  1.00  0.00    -0.098 N 
ATOM     31  H7  UNL     1      -9.116  15.125 -40.618  1.00  0.00     0.213 HD
BRANCH  30  32
HETATM   32  O1  UNL     1      -7.489  14.158 -41.510  1.00  0.00    -0.276 OA
ATOM     33  H1  UNL     1      -7.607  14.589 -42.348  1.00  0.00     0.245 HD
ENDBRANCH  30  32
ENDBRANCH   9  30
TORSDOF 6
ENDMDL
MODEL 3
REMARK VINA RESULT: -8.289446018     10.154     13.977
REMARK  6 active torsions:
REMARK  status: ('A' for Active; 'I' for Inactive)
REMARK    1  A    between atoms: C2_3  and  N2_4 
REMARK    2  A    between atoms: C3_9  and  C4_10 
REMARK    3  A    between atoms: C4_10  and  S1_11 
REMARK    4  A    between atoms: S1_11  and  C5_12 
REMARK    5  A    between atoms: C7_20  and  N7_21 
REMARK    6  A    between atoms: N7_21  and  O1_23 
ROOT
HETATM    1  C5  UNL     1      -1.242   6.480 -33.323  1.00  0.00     0.104 A 
HETATM    2  N4  UNL     1      -2.317   7.170 -32.909  1.00  0.00    -0.291 N 
ATOM      3  H4  UNL     1      -2.988   6.836 -32.219  1.00  0.00     0.187 HD
HETATM    4  N5  UNL     1      -2.386   8.337 -33.518  1.00  0.00    -0.283 N 
ATOM      5  H5  UNL     1      -3.116   9.034 -33.366  1.00  0.00     0.188 HD
HETATM    6  C6  UNL     1      -1.356   8.475 -34.367  1.00  0.00     0.154 A 
HETATM    7  N6  UNL     1      -0.964   9.449 -35.210  1.00  0.00    -0.172 N 
ATOM      8  H6  UNL     1      -1.512  10.306 -35.284  1.00  0.00     0.186 HD
HETATM    9  C7  UNL     1       0.139   9.302 -35.952  1.00  0.00     0.708 A 
HETATM   10  N8  UNL     1       0.878   8.168 -35.862  1.00  0.00    -0.149 N 
HETATM   11  C8  UNL     1       2.077   7.980 -36.653  1.00  0.00     0.179 C 
HETATM   12  C9  UNL     1       0.518   7.168 -35.028  1.00  0.00     0.278 A 
HETATM   13  O2  UNL     1       1.217   6.116 -34.956  1.00  0.00    -0.266 OA
HETATM   14  C10 UNL     1      -0.620   7.290 -34.246  1.00  0.00     0.113 A 
ENDROOT
BRANCH   1  15
HETATM   15  S1  UNL     1      -0.658   4.864 -32.845  1.00  0.00    -0.102 SA
BRANCH  15  16
HETATM   16  C4  UNL     1       0.856   5.088 -31.871  1.00  0.00     0.158 C 
BRANCH  16  17
HETATM   17  C3  UNL     1       0.831   4.068 -30.787  1.00  0.00     0.111 A 
HETATM   18  N3  UNL     1       0.269   2.861 -30.918  1.00  0.00    -0.180 N 
HETATM   19  C2  UNL     1       0.279   1.968 -29.884  1.00  0.00     0.683 A 
ATOM     20  H3  UNL     1      -0.173   2.604 -31.800  1.00  0.00     0.185 HD
HETATM   21  N1  UNL     1       0.852   2.274 -28.706  1.00  0.00    -0.137 N 
HETATM   22  C1  UNL     1       0.867   1.329 -27.597  1.00  0.00     0.180 C 
HETATM   23  C11 UNL     1       1.416   3.488 -28.577  1.00  0.00     0.341 A 
HETATM   24  N9  UNL     1       1.403   4.361 -29.600  1.00  0.00    -0.296 N 
HETATM   25  O3  UNL     1       1.959   3.776 -27.459  1.00  0.00    -0.246 OA
ATOM     26  H9  UNL     1       1.839   5.275 -29.475  1.00  0.00     0.172 HD
BRANCH  19  27
HETATM   27  N2  UNL     1      -0.259   0.811 -30.017  1.00  0.00    -0.234 N 
ATOM     28  H22 UNL     1      -0.419   0.218 -29.202  1.00  0.00     0.174 HD
ATOM     29  H21 UNL     1      -0.523   0.504 -30.953  1.00  0.00     0.174 HD
ENDBRANCH  19  27
ENDBRANCH  16  17
ENDBRANCH  15  16
ENDBRANCH   1  15
BRANCH   9  30
HETATM   30  N7  UNL     1       0.564  10.207 -36.782  1.00  0.00    -0.098 N 
ATOM     31  H7  UNL     1       0.261  10.216 -37.756  1.00  0.00     0.213 HD
BRANCH  30  32
HETATM   32  O1  UNL     1       1.437  11.151 -36.299  1.00  0.00    -0.276 OA
ATOM     33  H1  UNL     1       1.318  11.441 -35.402  1.00  0.00     0.245 HD
ENDBRANCH  30  32
ENDBRANCH   9  30
TORSDOF 6
ENDMDL
MODEL 4
REMARK VINA RESULT: -8.152457052     10.101     13.852
REMARK  6 active torsions:
REMARK  status: ('A' for Active; 'I' for Inactive)
REMARK    1  A    between atoms: C2_3  and  N2_4 
REMARK    2  A    between atoms: C3_9  and  C4_10 
REMARK    3  A    between atoms: C4_10  and  S1_11 
REMARK    4  A    between atoms: S1_11  and  C5_12 
REMARK    5  A    between atoms: C7_20  and  N7_21 
REMARK    6  A    between atoms: N7_21  and  O1_23 
ROOT
HETATM    1  C5  UNL     1      -1.272   6.496 -33.290  1.00  0.00     0.104 A 
HETATM    2  N4  UNL     1      -2.346   7.192 -32.884  1.00  0.00    -0.291 N 
ATOM      3  H4  UNL     1      -3.020   6.866 -32.192  1.00  0.00     0.187 HD
HETATM    4  N5  UNL     1      -2.410   8.355 -33.503  1.00  0.00    -0.283 N 
ATOM      5  H5  UNL     1      -3.139   9.055 -33.357  1.00  0.00     0.188 HD
HETATM    6  C6  UNL     1      -1.378   8.483 -34.350  1.00  0.00     0.154 A 
HETATM    7  N6  UNL     1      -0.981   9.449 -35.200  1.00  0.00    -0.172 N 
ATOM      8  H6  UNL     1      -1.528  10.307 -35.281  1.00  0.00     0.186 HD
HETATM    9  C7  UNL     1       0.122   9.293 -35.939  1.00  0.00     0.708 A 
HETATM   10  N8  UNL     1       0.858   8.158 -35.838  1.00  0.00    -0.149 N 
HETATM   11  C8  UNL     1       2.058   7.961 -36.625  1.00  0.00     0.179 C 
HETATM   12  C9  UNL     1       0.493   7.166 -34.997  1.00  0.00     0.278 A 
HETATM   13  O2  UNL     1       1.189   6.112 -34.915  1.00  0.00    -0.266 OA
HETATM   14  C10 UNL     1      -0.646   7.297 -34.218  1.00  0.00     0.113 A 
ENDROOT
BRANCH   1  15
HETATM   15  S1  UNL     1      -0.693   4.882 -32.799  1.00  0.00    -0.102 SA
BRANCH  15  16
HETATM   16  C4  UNL     1       0.824   5.109 -31.830  1.00  0.00     0.158 C 
BRANCH  16  17
HETATM   17  C3  UNL     1       0.772   4.136 -30.706  1.00  0.00     0.111 A 
HETATM   18  N3  UNL     1       1.438   4.294 -29.556  1.00  0.00    -0.180 N 
HETATM   19  C2  UNL     1       1.349   3.364 -28.560  1.00  0.00     0.683 A 
ATOM     20  H3  UNL     1       2.021   5.121 -29.422  1.00  0.00     0.185 HD
HETATM   21  N1  UNL     1       0.591   2.262 -28.704  1.00  0.00    -0.137 N 
HETATM   22  C1  UNL     1       0.489   1.263 -27.648  1.00  0.00     0.180 C 
HETATM   23  C11 UNL     1      -0.078   2.104 -29.860  1.00  0.00     0.341 A 
HETATM   24  N9  UNL     1       0.015   3.026 -30.836  1.00  0.00    -0.296 N 
HETATM   25  O3  UNL     1      -0.796   1.058 -29.994  1.00  0.00    -0.246 OA
ATOM     26  H9  UNL     1      -0.504   2.881 -31.702  1.00  0.00     0.172 HD
BRANCH  19  27
HETATM   27  N2  UNL     1       1.989   3.524 -27.460  1.00  0.00    -0.234 N 
ATOM     28  H22 UNL     1       2.930   3.917 -27.461  1.00  0.00     0.174 HD
ATOM     29  H21 UNL     1       1.533   3.249 -26.590  1.00  0.00     0.174 HD
ENDBRANCH  19  27
ENDBRANCH  16  17
ENDBRANCH  15  16
ENDBRANCH   1  15
BRANCH   9  30
HETATM   30  N7  UNL     1       0.552  10.191 -36.775  1.00  0.00    -0.098 N 
ATOM     31  H7  UNL     1       0.243  10.199 -37.747  1.00  0.00     0.213 HD
BRANCH  30  32
HETATM   32  O1  UNL     1       1.436  11.128 -36.301  1.00  0.00    -0.276 OA
ATOM     33  H1  UNL     1       1.730  11.039 -35.402  1.00  0.00     0.245 HD
ENDBRANCH  30  32
ENDBRANCH   9  30
TORSDOF 6
ENDMDL
MODEL 5
REMARK VINA RESULT: -8.114247866      5.519      6.481
REMARK  6 active torsions:
REMARK  status: ('A' for Active; 'I' for Inactive)
REMARK    1  A    between atoms: C2_3  and  N2_4 
REMARK    2  A    between atoms: C3_9  and  C4_10 
REMARK    3  A    between atoms: C4_10  and  S1_11 
REMARK    4  A    between atoms: S1_11  and  C5_12 
REMARK    5  A    between atoms: C7_20  and  N7_21 
REMARK    6  A    between atoms: N7_21  and  O1_23 
ROOT
HETATM    1  C5  UNL     1      -5.773  10.215 -37.452  1.00  0.00     0.104 A 
HETATM    2  N4  UNL     1      -5.135   9.444 -38.347  1.00  0.00    -0.291 N 
ATOM      3  H4  UNL     1      -5.539   9.118 -39.224  1.00  0.00     0.187 HD
HETATM    4  N5  UNL     1      -3.913   9.167 -37.936  1.00  0.00    -0.283 N 
ATOM      5  H5  UNL     1      -3.239   8.597 -38.448  1.00  0.00     0.188 HD
HETATM    6  C6  UNL     1      -3.685   9.743 -36.746  1.00  0.00     0.154 A 
HETATM    7  N6  UNL     1      -2.630   9.775 -35.909  1.00  0.00    -0.172 N 
ATOM      8  H6  UNL     1      -1.774   9.280 -36.157  1.00  0.00     0.186 HD
HETATM    9  C7  UNL     1      -2.696  10.452 -34.758  1.00  0.00     0.708 A 
HETATM   10  N8  UNL     1      -3.830  11.116 -34.419  1.00  0.00    -0.149 N 
HETATM   11  C8  UNL     1      -3.930  11.858 -33.179  1.00  0.00     0.179 C 
HETATM   12  C9  UNL     1      -4.909  11.108 -35.231  1.00  0.00     0.278 A 
HETATM   13  O2  UNL     1      -5.959  11.732 -34.900  1.00  0.00    -0.266 OA
HETATM   14  C10 UNL     1      -4.872  10.415 -36.431  1.00  0.00     0.113 A 
ENDROOT
BRANCH   1  15
HETATM   15  S1  UNL     1      -7.426  10.887 -37.483  1.00  0.00    -0.102 SA
BRANCH  15  16
HETATM   16  C4  UNL     1      -7.289  12.686 -37.676  1.00  0.00     0.158 C 
BRANCH  16  17
HETATM   17  C3  UNL     1      -8.147  13.066 -38.831  1.00  0.00     0.111 A 
HETATM   18  N3  UNL     1      -9.329  12.497 -39.096  1.00  0.00    -0.180 N 
HETATM   19  C2  UNL     1     -10.070  12.891 -40.174  1.00  0.00     0.683 A 
ATOM     20  H3  UNL     1      -9.681  11.760 -38.486  1.00  0.00     0.185 HD
HETATM   21  N1  UNL     1      -9.635  13.859 -41.000  1.00  0.00    -0.137 N 
HETATM   22  C1  UNL     1     -10.418  14.286 -42.153  1.00  0.00     0.180 C 
HETATM   23  C11 UNL     1      -8.447  14.429 -40.732  1.00  0.00     0.341 A 
HETATM   24  N9  UNL     1      -7.724  14.036 -39.668  1.00  0.00    -0.296 N 
HETATM   25  O3  UNL     1      -8.037  15.348 -41.518  1.00  0.00    -0.246 OA
ATOM     26  H9  UNL     1      -6.826  14.486 -39.488  1.00  0.00     0.172 HD
BRANCH  19  27
HETATM   27  N2  UNL     1     -11.204  12.343 -40.421  1.00  0.00    -0.234 N 
ATOM     28  H22 UNL     1     -11.404  11.399 -40.092  1.00  0.00     0.174 HD
ATOM     29  H21 UNL     1     -11.894  12.875 -40.950  1.00  0.00     0.174 HD
ENDBRANCH  19  27
ENDBRANCH  16  17
ENDBRANCH  15  16
ENDBRANCH   1  15
BRANCH   9  30
HETATM   30  N7  UNL     1      -1.711  10.517 -33.914  1.00  0.00    -0.098 N 
ATOM     31  H7  UNL     1      -1.752  10.037 -33.015  1.00  0.00     0.213 HD
BRANCH  30  32
HETATM   32  O1  UNL     1      -0.613  11.257 -34.277  1.00  0.00    -0.276 OA
ATOM     33  H1  UNL     1       0.034  11.441 -33.606  1.00  0.00     0.245 HD
ENDBRANCH  30  32
ENDBRANCH   9  30
TORSDOF 6
ENDMDL
