MODEL 1
REMARK VINA RESULT: -8.628774491      0.000      0.000
REMARK  7 active torsions:
REMARK  status: ('A' for Active; 'I' for Inactive)
REMARK    1  A    between atoms: N1_1  and  C1_4 
REMARK    2  A    between atoms: C2_7  and  C3_8 
REMARK       I    between atoms: C3_8  and  N3_10 
REMARK    3  A    between atoms: N3_10  and  N4_12 
REMARK       I    between atoms: N4_12  and  C4_14 
REMARK    4  A    between atoms: C4_14  and  O3_16 
REMARK    5  A    between atoms: O3_16  and  C5_17 
REMARK    6  A    between atoms: C5_17  and  C6_18 
REMARK    7  A    between atoms: C7_26  and  S1_27 
ROOT
HETATM    1  C3  UNL     1      -5.505  11.007 -37.479  1.00  0.00     0.288 C 
HETATM    2  O1  UNL     1      -6.291  10.118 -37.954  1.00  0.00    -0.264 OA
HETATM    3  N3  UNL     1      -5.772  12.327 -37.797  1.00  0.00    -0.260 N 
ATOM      4  H3  UNL     1      -5.174  13.066 -37.427  1.00  0.00     0.190 HD
ENDROOT
BRANCH   3   5
HETATM    5  N4  UNL     1      -6.862  12.662 -38.627  1.00  0.00    -0.242 N 
HETATM    6  C4  UNL     1      -8.160  12.798 -38.088  1.00  0.00     0.379 C 
HETATM    7  O2  UNL     1      -8.370  12.627 -36.873  1.00  0.00    -0.237 OA
ATOM      8  H4  UNL     1      -6.711  12.808 -39.625  1.00  0.00     0.192 HD
BRANCH   6   9
HETATM    9  O3  UNL     1      -9.203  13.128 -38.932  1.00  0.00    -0.295 OA
BRANCH   9  10
HETATM   10  C5  UNL     1      -9.237  12.774 -40.315  1.00  0.00     0.259 C 
BRANCH  10  11
HETATM   11  C6  UNL     1      -8.924  13.959 -41.136  1.00  0.00     0.134 A 
HETATM   12  N5  UNL     1      -8.270  15.075 -40.731  1.00  0.00    -0.269 N 
HETATM   13  N6  UNL     1      -8.216  15.886 -41.775  1.00  0.00    -0.005 NA
ATOM     14  H5  UNL     1      -7.893  15.256 -39.801  1.00  0.00     0.185 HD
HETATM   15  N7  UNL     1      -8.813  15.324 -42.826  1.00  0.00    -0.225 N 
HETATM   16  N8  UNL     1      -9.237  14.158 -42.421  1.00  0.00    -0.273 N 
ATOM     17  H7  UNL     1      -8.917  15.724 -43.758  1.00  0.00     0.205 HD
ATOM     18  H8  UNL     1      -9.739  13.490 -43.004  1.00  0.00     0.189 HD
ENDBRANCH  10  11
ENDBRANCH   9  10
ENDBRANCH   6   9
ENDBRANCH   3   5
BRANCH   1  19
HETATM   19  C2  UNL     1      -4.385  10.527 -36.623  1.00  0.00     0.136 A 
HETATM   20  N2  UNL     1      -3.575   9.581 -37.060  1.00  0.00    -0.331 N 
HETATM   21  C1  UNL     1      -2.569   9.196 -36.300  1.00  0.00     0.144 A 
ATOM     22  H2  UNL     1      -3.726   9.154 -37.974  1.00  0.00     0.168 HD
HETATM   23  S2  UNL     1      -2.719  10.160 -34.918  1.00  0.00    -0.037 SA
HETATM   24  C7  UNL     1      -4.134  11.061 -35.398  1.00  0.00     0.157 A 
BRANCH  21  25
HETATM   25  N1  UNL     1      -1.663   8.279 -36.555  1.00  0.00    -0.380 N 
ATOM     26  H12 UNL     1      -1.221   8.061 -37.448  1.00  0.00     0.158 HD
ATOM     27  H11 UNL     1      -1.236   7.617 -35.907  1.00  0.00     0.158 HD
ENDBRANCH  21  25
BRANCH  24  28
HETATM   28  S1  UNL     1      -4.903  12.344 -34.463  1.00  0.00     0.147 S 
HETATM   29  O4  UNL     1      -4.177  12.651 -33.198  1.00  0.00    -0.591 OA
HETATM   30  O5  UNL     1      -6.284  11.772 -34.066  1.00  0.00    -0.591 OA
HETATM   31  O6  UNL     1      -5.279  13.682 -35.392  1.00  0.00    -0.591 OA
ENDBRANCH  24  28
ENDBRANCH   1  19
TORSDOF 7
ENDMDL
MODEL 2
REMARK VINA RESULT: -8.587049086      3.334      3.891
REMARK  7 active torsions:
REMARK  status: ('A' for Active; 'I' for Inactive)
REMARK    1  A    between atoms: N1_1  and  C1_4 
REMARK    2  A    between atoms: C2_7  and  C3_8 
REMARK       I    between atoms: C3_8  and  N3_10 
REMARK    3  A    between atoms: N3_10  and  N4_12 
REMARK       I    between atoms: N4_12  and  C4_14 
REMARK    4  A    between atoms: C4_14  and  O3_16 
REMARK    5  A    between atoms: O3_16  and  C5_17 
REMARK    6  A    between atoms: C5_17  and  C6_18 
REMARK    7  A    between atoms: C7_26  and  S1_27 
ROOT
HETATM    1  C3  UNL     1      -9.415  10.422 -35.842  1.00  0.00     0.288 C 
HETATM    2  O1  UNL     1     -10.041   9.503 -36.473  1.00  0.00    -0.264 OA
HETATM    3  N3  UNL     1      -9.478  11.704 -36.359  1.00  0.00    -0.260 N 
ATOM      4  H3  UNL     1      -9.001  12.466 -35.877  1.00  0.00     0.190 HD
ENDROOT
BRANCH   3   5
HETATM    5  N4  UNL     1     -10.195  11.969 -37.544  1.00  0.00    -0.242 N 
HETATM    6  C4  UNL     1      -9.971  13.161 -38.268  1.00  0.00     0.379 C 
HETATM    7  O2  UNL     1      -9.138  13.999 -37.877  1.00  0.00    -0.237 OA
ATOM      8  H4  UNL     1     -10.881  11.294 -37.881  1.00  0.00     0.192 HD
BRANCH   6   9
HETATM    9  O3  UNL     1     -10.692  13.385 -39.424  1.00  0.00    -0.295 OA
BRANCH   9  10
HETATM   10  C5  UNL     1     -10.253  12.972 -40.718  1.00  0.00     0.259 C 
BRANCH  10  11
HETATM   11  C6  UNL     1      -9.454  14.047 -41.336  1.00  0.00     0.134 A 
HETATM   12  N5  UNL     1      -8.556  14.849 -40.712  1.00  0.00    -0.269 N 
HETATM   13  N6  UNL     1      -8.082  15.675 -41.630  1.00  0.00    -0.005 NA
ATOM     14  H5  UNL     1      -8.295  14.820 -39.727  1.00  0.00     0.185 HD
HETATM   15  N7  UNL     1      -8.648  15.428 -42.810  1.00  0.00    -0.225 N 
HETATM   16  N8  UNL     1      -9.478  14.440 -42.614  1.00  0.00    -0.273 N 
ATOM     17  H7  UNL     1      -8.470  15.913 -43.690  1.00  0.00     0.205 HD
ATOM     18  H8  UNL     1     -10.065  14.024 -43.336  1.00  0.00     0.189 HD
ENDBRANCH  10  11
ENDBRANCH   9  10
ENDBRANCH   6   9
ENDBRANCH   3   5
BRANCH   1  19
HETATM   19  C2  UNL     1      -8.687  10.015 -34.608  1.00  0.00     0.136 A 
HETATM   20  N2  UNL     1      -9.331   9.409 -33.628  1.00  0.00    -0.331 N 
HETATM   21  C1  UNL     1      -8.659   9.026 -32.560  1.00  0.00     0.144 A 
ATOM     22  H2  UNL     1     -10.334   9.238 -33.697  1.00  0.00     0.168 HD
HETATM   23  S2  UNL     1      -7.072   9.507 -32.891  1.00  0.00    -0.037 SA
HETATM   24  C7  UNL     1      -7.349  10.212 -34.462  1.00  0.00     0.157 A 
BRANCH  21  25
HETATM   25  N1  UNL     1      -9.116   8.414 -31.490  1.00  0.00    -0.380 N 
ATOM     26  H12 UNL     1      -9.522   8.829 -30.651  1.00  0.00     0.158 HD
ATOM     27  H11 UNL     1      -9.148   7.412 -31.303  1.00  0.00     0.158 HD
ENDBRANCH  21  25
BRANCH  24  28
HETATM   28  S1  UNL     1      -6.115  10.916 -35.507  1.00  0.00     0.147 S 
HETATM   29  O4  UNL     1      -6.474  12.281 -35.985  1.00  0.00    -0.591 OA
HETATM   30  O5  UNL     1      -6.074   9.996 -36.749  1.00  0.00    -0.591 OA
HETATM   31  O6  UNL     1      -4.577  10.786 -34.864  1.00  0.00    -0.591 OA
ENDBRANCH  24  28
ENDBRANCH   1  19
TORSDOF 7
ENDMDL
MODEL 3
REMARK VINA RESULT: -8.530367467      3.274      3.896
REMARK  7 active torsions:
REMARK  status: ('A' for Active; 'I' for Inactive)
REMARK    1  A    between atoms: N1_1  and  C1_4 
REMARK    2  A    between atoms: C2_7  and  C3_8 
REMARK       I    between atoms: C3_8  and  N3_10 
REMARK    3  A    between atoms: N3_10  and  N4_12 
REMARK       I    between atoms: N4_12  and  C4_14 
REMARK    4  A    between atoms: C4_14  and  O3_16 
REMARK    5  A    between atoms: O3_16  and  C5_17 
REMARK    6  A    between atoms: C5_17  and  C6_18 
REMARK    7  A    between atoms: C7_26  and  S1_27 
ROOT
HETATM    1  C3  UNL     1      -9.342  10.481 -35.899  1.00  0.00     0.288 C 
HETATM    2  O1  UNL     1      -9.960   9.558 -36.532  1.00  0.00    -0.264 OA
HETATM    3  N3  UNL     1      -9.405  11.761 -36.421  1.00  0.00    -0.260 N 
ATOM      4  H3  UNL     1      -8.935  12.527 -35.938  1.00  0.00     0.190 HD
ENDROOT
BRANCH   3   5
HETATM    5  N4  UNL     1     -10.111  12.019 -37.614  1.00  0.00    -0.242 N 
HETATM    6  C4  UNL     1      -9.876  13.204 -38.346  1.00  0.00     0.379 C 
HETATM    7  O2  UNL     1      -9.043  14.042 -37.956  1.00  0.00    -0.237 OA
ATOM      8  H4  UNL     1     -10.797  11.344 -37.951  1.00  0.00     0.192 HD
BRANCH   6   9
HETATM    9  O3  UNL     1     -10.587  13.422 -39.510  1.00  0.00    -0.295 OA
BRANCH   9  10
HETATM   10  C5  UNL     1     -10.103  13.068 -40.806  1.00  0.00     0.259 C 
BRANCH  10  11
HETATM   11  C6  UNL     1      -9.468  14.242 -41.433  1.00  0.00     0.134 A 
HETATM   12  N5  UNL     1      -9.725  14.738 -42.669  1.00  0.00    -0.269 N 
HETATM   13  N6  UNL     1      -8.931  15.783 -42.832  1.00  0.00    -0.005 NA
ATOM     14  H5  UNL     1     -10.400  14.376 -43.342  1.00  0.00     0.185 HD
HETATM   15  N7  UNL     1      -8.181  15.967 -41.747  1.00  0.00    -0.225 N 
HETATM   16  N8  UNL     1      -8.518  15.024 -40.910  1.00  0.00    -0.273 N 
ATOM     17  H7  UNL     1      -7.483  16.697 -41.600  1.00  0.00     0.205 HD
ATOM     18  H8  UNL     1      -8.112  14.899 -39.983  1.00  0.00     0.189 HD
ENDBRANCH  10  11
ENDBRANCH   9  10
ENDBRANCH   6   9
ENDBRANCH   3   5
BRANCH   1  19
HETATM   19  C2  UNL     1      -8.625  10.082 -34.657  1.00  0.00     0.136 A 
HETATM   20  N2  UNL     1      -9.286   9.519 -33.662  1.00  0.00    -0.331 N 
HETATM   21  C1  UNL     1      -8.624   9.141 -32.585  1.00  0.00     0.144 A 
ATOM     22  H2  UNL     1     -10.294   9.378 -33.726  1.00  0.00     0.168 HD
HETATM   23  S2  UNL     1      -7.023   9.565 -32.929  1.00  0.00    -0.037 SA
HETATM   24  C7  UNL     1      -7.282  10.241 -34.517  1.00  0.00     0.157 A 
BRANCH  21  25
HETATM   25  N1  UNL     1      -9.098   8.570 -31.501  1.00  0.00    -0.380 N 
ATOM     26  H12 UNL     1      -8.711   8.590 -30.557  1.00  0.00     0.158 HD
ATOM     27  H11 UNL     1      -9.938   8.000 -31.405  1.00  0.00     0.158 HD
ENDBRANCH  21  25
BRANCH  24  28
HETATM   28  S1  UNL     1      -6.028  10.881 -35.579  1.00  0.00     0.147 S 
HETATM   29  O4  UNL     1      -5.688   9.953 -36.695  1.00  0.00    -0.591 OA
HETATM   30  O5  UNL     1      -4.771  10.997 -34.686  1.00  0.00    -0.591 OA
HETATM   31  O6  UNL     1      -6.327  12.457 -36.052  1.00  0.00    -0.591 OA
ENDBRANCH  24  28
ENDBRANCH   1  19
TORSDOF 7
ENDMDL
MODEL 4
REMARK VINA RESULT: -8.344195594      1.004      1.700
REMARK  7 active torsions:
REMARK  status: ('A' for Active; 'I' for Inactive)
REMARK    1  A    between atoms: N1_1  and  C1_4 
REMARK    2  A    between atoms: C2_7  and  C3_8 
REMARK       I    between atoms: C3_8  and  N3_10 
REMARK    3  A    between atoms: N3_10  and  N4_12 
REMARK       I    between atoms: N4_12  and  C4_14 
REMARK    4  A    between atoms: C4_14  and  O3_16 
REMARK    5  A    between atoms: O3_16  and  C5_17 
REMARK    6  A    between atoms: C5_17  and  C6_18 
REMARK    7  A    between atoms: C7_26  and  S1_27 
ROOT
HETATM    1  C3  UNL     1      -5.662  10.725 -37.581  1.00  0.00     0.288 C 
HETATM    2  O1  UNL     1      -6.452   9.961 -38.234  1.00  0.00    -0.264 OA
HETATM    3  N3  UNL     1      -5.845  12.090 -37.714  1.00  0.00    -0.260 N 
ATOM      4  H3  UNL     1      -5.241  12.732 -37.199  1.00  0.00     0.190 HD
ENDROOT
BRANCH   3   5
HETATM    5  N4  UNL     1      -6.855  12.604 -38.552  1.00  0.00    -0.242 N 
HETATM    6  C4  UNL     1      -8.170  12.781 -38.067  1.00  0.00     0.379 C 
HETATM    7  O2  UNL     1      -8.463  12.489 -36.894  1.00  0.00    -0.237 OA
ATOM      8  H4  UNL     1      -6.635  12.850 -39.517  1.00  0.00     0.192 HD
BRANCH   6   9
HETATM    9  O3  UNL     1      -9.133  13.288 -38.918  1.00  0.00    -0.295 OA
BRANCH   9  10
HETATM   10  C5  UNL     1      -9.252  12.905 -40.289  1.00  0.00     0.259 C 
BRANCH  10  11
HETATM   11  C6  UNL     1      -8.994  14.073 -41.152  1.00  0.00     0.134 A 
HETATM   12  N5  UNL     1      -9.393  14.233 -42.438  1.00  0.00    -0.269 N 
HETATM   13  N6  UNL     1      -8.942  15.412 -42.832  1.00  0.00    -0.005 NA
ATOM     14  H5  UNL     1      -9.936  13.572 -42.993  1.00  0.00     0.185 HD
HETATM   15  N7  UNL     1      -8.271  16.003 -41.845  1.00  0.00    -0.225 N 
HETATM   16  N8  UNL     1      -8.311  15.178 -40.835  1.00  0.00    -0.273 N 
ATOM     17  H7  UNL     1      -7.818  16.917 -41.872  1.00  0.00     0.205 HD
ATOM     18  H8  UNL     1      -7.880  15.351 -39.927  1.00  0.00     0.189 HD
ENDBRANCH  10  11
ENDBRANCH   9  10
ENDBRANCH   6   9
ENDBRANCH   3   5
BRANCH   1  19
HETATM   19  C2  UNL     1      -4.630  10.062 -36.737  1.00  0.00     0.136 A 
HETATM   20  N2  UNL     1      -3.481   9.686 -37.267  1.00  0.00    -0.331 N 
HETATM   21  C1  UNL     1      -2.567   9.133 -36.494  1.00  0.00     0.144 A 
ATOM     22  H2  UNL     1      -3.302   9.823 -38.262  1.00  0.00     0.168 HD
HETATM   23  S2  UNL     1      -3.293   9.118 -34.966  1.00  0.00    -0.037 SA
HETATM   24  C7  UNL     1      -4.811   9.858 -35.405  1.00  0.00     0.157 A 
BRANCH  21  25
HETATM   25  N1  UNL     1      -1.374   8.697 -36.830  1.00  0.00    -0.380 N 
ATOM     26  H12 UNL     1      -0.803   8.975 -37.629  1.00  0.00     0.158 HD
ATOM     27  H11 UNL     1      -0.801   8.001 -36.355  1.00  0.00     0.158 HD
ENDBRANCH  21  25
BRANCH  24  28
HETATM   28  S1  UNL     1      -6.130  10.236 -34.297  1.00  0.00     0.147 S 
HETATM   29  O4  UNL     1      -7.419   9.608 -34.699  1.00  0.00    -0.591 OA
HETATM   30  O5  UNL     1      -6.316  11.767 -34.410  1.00  0.00    -0.591 OA
HETATM   31  O6  UNL     1      -5.712  10.004 -32.695  1.00  0.00    -0.591 OA
ENDBRANCH  24  28
ENDBRANCH   1  19
TORSDOF 7
ENDMDL
MODEL 5
REMARK VINA RESULT: -8.316721481      4.825      5.547
REMARK  7 active torsions:
REMARK  status: ('A' for Active; 'I' for Inactive)
REMARK    1  A    between atoms: N1_1  and  C1_4 
REMARK    2  A    between atoms: C2_7  and  C3_8 
REMARK       I    between atoms: C3_8  and  N3_10 
REMARK    3  A    between atoms: N3_10  and  N4_12 
REMARK       I    between atoms: N4_12  and  C4_14 
REMARK    4  A    between atoms: C4_14  and  O3_16 
REMARK    5  A    between atoms: O3_16  and  C5_17 
REMARK    6  A    between atoms: C5_17  and  C6_18 
REMARK    7  A    between atoms: C7_26  and  S1_27 
ROOT
HETATM    1  C3  UNL     1      -9.493  10.003 -34.956  1.00  0.00     0.288 C 
HETATM    2  O1  UNL     1      -9.662  11.213 -34.581  1.00  0.00    -0.264 OA
HETATM    3  N3  UNL     1      -9.542   9.746 -36.315  1.00  0.00    -0.260 N 
ATOM      4  H3  UNL     1      -9.400   8.795 -36.654  1.00  0.00     0.190 HD
ENDROOT
BRANCH   3   5
HETATM    5  N4  UNL     1      -9.785  10.786 -37.237  1.00  0.00    -0.242 N 
HETATM    6  C4  UNL     1      -8.852  11.074 -38.257  1.00  0.00     0.379 C 
HETATM    7  O2  UNL     1      -7.799  10.419 -38.365  1.00  0.00    -0.237 OA
ATOM      8  H4  UNL     1     -10.642  11.334 -37.166  1.00  0.00     0.192 HD
BRANCH   6   9
HETATM    9  O3  UNL     1      -9.125  12.100 -39.141  1.00  0.00    -0.295 OA
BRANCH   9  10
HETATM   10  C5  UNL     1      -8.421  13.341 -39.147  1.00  0.00     0.259 C 
BRANCH  10  11
HETATM   11  C6  UNL     1      -8.617  14.014 -40.445  1.00  0.00     0.134 A 
HETATM   12  N5  UNL     1      -9.221  13.496 -41.543  1.00  0.00    -0.269 N 
HETATM   13  N6  UNL     1      -9.170  14.427 -42.481  1.00  0.00    -0.005 NA
ATOM     14  H5  UNL     1      -9.635  12.568 -41.629  1.00  0.00     0.185 HD
HETATM   15  N7  UNL     1      -8.555  15.515 -42.018  1.00  0.00    -0.225 N 
HETATM   16  N8  UNL     1      -8.226  15.247 -40.785  1.00  0.00    -0.273 N 
ATOM     17  H7  UNL     1      -8.378  16.382 -42.526  1.00  0.00     0.205 HD
ATOM     18  H8  UNL     1      -7.736  15.890 -40.163  1.00  0.00     0.189 HD
ENDBRANCH  10  11
ENDBRANCH   9  10
ENDBRANCH   6   9
ENDBRANCH   3   5
BRANCH   1  19
HETATM   19  C2  UNL     1      -9.253   8.994 -33.888  1.00  0.00     0.136 A 
HETATM   20  N2  UNL     1      -8.292   9.180 -33.004  1.00  0.00    -0.331 N 
HETATM   21  C1  UNL     1      -8.119   8.291 -32.045  1.00  0.00     0.144 A 
ATOM     22  H2  UNL     1      -7.690  10.002 -33.061  1.00  0.00     0.168 HD
HETATM   23  S2  UNL     1      -9.320   7.138 -32.348  1.00  0.00    -0.037 SA
HETATM   24  C7  UNL     1     -10.026   7.882 -33.759  1.00  0.00     0.157 A 
BRANCH  21  25
HETATM   25  N1  UNL     1      -7.226   8.299 -31.081  1.00  0.00    -0.380 N 
ATOM     26  H12 UNL     1      -7.021   9.047 -30.418  1.00  0.00     0.158 HD
ATOM     27  H11 UNL     1      -6.575   7.560 -30.820  1.00  0.00     0.158 HD
ENDBRANCH  21  25
BRANCH  24  28
HETATM   28  S1  UNL     1     -11.415   7.271 -34.658  1.00  0.00     0.147 S 
HETATM   29  O4  UNL     1     -12.659   8.049 -34.398  1.00  0.00    -0.591 OA
HETATM   30  O5  UNL     1     -11.648   5.845 -34.107  1.00  0.00    -0.591 OA
HETATM   31  O6  UNL     1     -11.076   7.021 -36.276  1.00  0.00    -0.591 OA
ENDBRANCH  24  28
ENDBRANCH   1  19
TORSDOF 7
ENDMDL
