MODEL 1
REMARK VINA RESULT: -5.880712145      0.000      0.000
REMARK  1 active torsions:
REMARK  status: ('A' for Active; 'I' for Inactive)
REMARK    1  A    between atoms: N1_5  and  N2_7 
ROOT
HETATM    1  N2  UNL     1      16.819   3.661  14.347  1.00  0.00    -0.326 N 
HETATM    2  C5  UNL     1      17.985   4.087  15.060  1.00  0.00     0.144 C 
HETATM    3  C6  UNL     1      18.885   5.001  14.266  1.00  0.00     0.049 C 
HETATM    4  C7  UNL     1      18.779   4.808  12.784  1.00  0.00     0.234 C 
HETATM    5  N3  UNL     1      18.937   3.371  12.565  1.00  0.00    -0.073 N 
ATOM      6  H31 UNL     1      19.332   2.888  13.371  1.00  0.00     0.277 HD
ATOM      7  H32 UNL     1      19.678   3.150  11.899  1.00  0.00     0.277 HD
HETATM    8  C8  UNL     1      17.670   2.853  12.175  1.00  0.00     0.253 C 
HETATM    9  C9  UNL     1      16.527   3.186  13.037  1.00  0.00     0.170 C 
ENDROOT
BRANCH   1  10
HETATM   10  N1  UNL     1      15.648   3.719  15.122  1.00  0.00    -0.311 N 
HETATM   11  C4  UNL     1      15.260   2.744  15.842  1.00  0.00     0.003 C 
HETATM   12  C3  UNL     1      15.830   1.399  16.078  1.00  0.00     0.054 C 
HETATM   13  C10 UNL     1      14.005   2.811  16.670  1.00  0.00     0.054 C 
HETATM   14  C2  UNL     1      15.399   1.119  17.509  1.00  0.00     0.006 C 
HETATM   15  C1  UNL     1      13.956   1.561  17.480  1.00  0.00     0.006 C 
ATOM     16  H1  UNL     1      15.089   4.573  15.107  1.00  0.00     0.186 HD
ENDBRANCH   1  10
TORSDOF 1
ENDMDL
MODEL 2
REMARK VINA RESULT: -5.807298958      1.762      4.881
REMARK  1 active torsions:
REMARK  status: ('A' for Active; 'I' for Inactive)
REMARK    1  A    between atoms: N1_5  and  N2_7 
ROOT
HETATM    1  N2  UNL     1      16.878   3.042  14.545  1.00  0.00    -0.326 N 
HETATM    2  C5  UNL     1      17.327   2.411  15.749  1.00  0.00     0.144 C 
HETATM    3  C6  UNL     1      16.250   1.642  16.472  1.00  0.00     0.049 C 
HETATM    4  C7  UNL     1      14.866   2.153  16.207  1.00  0.00     0.234 C 
HETATM    5  N3  UNL     1      14.928   3.593  16.453  1.00  0.00    -0.073 N 
ATOM      6  H31 UNL     1      15.757   3.871  16.978  1.00  0.00     0.277 HD
ATOM      7  H32 UNL     1      14.230   3.911  17.125  1.00  0.00     0.277 HD
HETATM    8  C8  UNL     1      14.825   4.250  15.195  1.00  0.00     0.253 C 
HETATM    9  C9  UNL     1      15.744   3.802  14.139  1.00  0.00     0.170 C 
ENDROOT
BRANCH   1  10
HETATM   10  N1  UNL     1      17.773   2.883  13.473  1.00  0.00    -0.311 N 
HETATM   11  C4  UNL     1      17.686   1.914  12.653  1.00  0.00     0.003 C 
HETATM   12  C3  UNL     1      16.742   0.777  12.560  1.00  0.00     0.054 C 
HETATM   13  C10 UNL     1      18.646   1.748  11.506  1.00  0.00     0.054 C 
HETATM   14  C2  UNL     1      16.687   0.535  11.059  1.00  0.00     0.006 C 
HETATM   15  C1  UNL     1      18.148   0.605  10.689  1.00  0.00     0.006 C 
ATOM     16  H1  UNL     1      18.518   3.568  13.348  1.00  0.00     0.186 HD
ENDBRANCH   1  10
TORSDOF 1
ENDMDL
MODEL 3
REMARK VINA RESULT: -5.694874632      1.731      2.403
REMARK  1 active torsions:
REMARK  status: ('A' for Active; 'I' for Inactive)
REMARK    1  A    between atoms: N1_5  and  N2_7 
ROOT
HETATM    1  N2  UNL     1      17.105   1.686  14.066  1.00  0.00    -0.326 N 
HETATM    2  C5  UNL     1      17.438   3.019  13.664  1.00  0.00     0.144 C 
HETATM    3  C6  UNL     1      16.613   3.532  12.511  1.00  0.00     0.049 C 
HETATM    4  C7  UNL     1      16.087   2.449  11.621  1.00  0.00     0.234 C 
HETATM    5  N3  UNL     1      17.244   1.621  11.287  1.00  0.00    -0.073 N 
ATOM      6  H31 UNL     1      18.132   2.081  11.486  1.00  0.00     0.277 HD
ATOM      7  H32 UNL     1      17.374   1.507  10.282  1.00  0.00     0.277 HD
HETATM    8  C8  UNL     1      17.098   0.381  11.970  1.00  0.00     0.253 C 
HETATM    9  C9  UNL     1      16.831   0.450  13.414  1.00  0.00     0.170 C 
ENDROOT
BRANCH   1  10
HETATM   10  N1  UNL     1      17.021   1.536  15.461  1.00  0.00    -0.311 N 
HETATM   11  C4  UNL     1      15.994   1.893  16.123  1.00  0.00     0.003 C 
HETATM   12  C3  UNL     1      14.712   2.505  15.707  1.00  0.00     0.054 C 
HETATM   13  C10 UNL     1      15.909   1.729  17.616  1.00  0.00     0.054 C 
HETATM   14  C2  UNL     1      13.744   1.937  16.733  1.00  0.00     0.006 C 
HETATM   15  C1  UNL     1      14.524   2.112  18.013  1.00  0.00     0.006 C 
ATOM     16  H1  UNL     1      17.811   1.126  15.961  1.00  0.00     0.186 HD
ENDBRANCH   1  10
TORSDOF 1
ENDMDL
MODEL 4
REMARK VINA RESULT: -5.660783424      1.753      2.898
REMARK  1 active torsions:
REMARK  status: ('A' for Active; 'I' for Inactive)
REMARK    1  A    between atoms: N1_5  and  N2_7 
ROOT
HETATM    1  N2  UNL     1      16.938   2.729  12.303  1.00  0.00    -0.326 N 
HETATM    2  C5  UNL     1      16.255   1.767  11.493  1.00  0.00     0.144 C 
HETATM    3  C6  UNL     1      17.019   0.482  11.298  1.00  0.00     0.049 C 
HETATM    4  C7  UNL     1      18.504   0.644  11.411  1.00  0.00     0.234 C 
HETATM    5  N3  UNL     1      18.845   1.755  10.525  1.00  0.00    -0.073 N 
ATOM      6  H31 UNL     1      18.101   1.978   9.864  1.00  0.00     0.277 HD
ATOM      7  H32 UNL     1      19.563   1.513   9.842  1.00  0.00     0.277 HD
HETATM    8  C8  UNL     1      19.209   2.862  11.342  1.00  0.00     0.253 C 
HETATM    9  C9  UNL     1      18.265   3.236  12.405  1.00  0.00     0.170 C 
ENDROOT
BRANCH   1  10
HETATM   10  N1  UNL     1      16.102   3.346  13.249  1.00  0.00    -0.311 N 
HETATM   11  C4  UNL     1      15.926   2.868  14.415  1.00  0.00     0.003 C 
HETATM   12  C3  UNL     1      16.468   1.664  15.084  1.00  0.00     0.054 C 
HETATM   13  C10 UNL     1      15.030   3.533  15.425  1.00  0.00     0.054 C 
HETATM   14  C2  UNL     1      16.530   2.110  16.536  1.00  0.00     0.006 C 
HETATM   15  C1  UNL     1      15.189   2.781  16.702  1.00  0.00     0.006 C 
ATOM     16  H1  UNL     1      15.618   4.207  12.992  1.00  0.00     0.186 HD
ENDBRANCH   1  10
TORSDOF 1
ENDMDL
MODEL 5
REMARK VINA RESULT: -5.651765209      1.489      2.456
REMARK  1 active torsions:
REMARK  status: ('A' for Active; 'I' for Inactive)
REMARK    1  A    between atoms: N1_5  and  N2_7 
ROOT
HETATM    1  N2  UNL     1      17.174   2.167  13.823  1.00  0.00    -0.326 N 
HETATM    2  C5  UNL     1      16.890   1.060  12.963  1.00  0.00     0.144 C 
HETATM    3  C6  UNL     1      17.822   0.950  11.782  1.00  0.00     0.049 C 
HETATM    4  C7  UNL     1      18.419   2.260  11.365  1.00  0.00     0.234 C 
HETATM    5  N3  UNL     1      17.289   3.179  11.233  1.00  0.00    -0.073 N 
ATOM      6  H31 UNL     1      16.391   2.700  11.183  1.00  0.00     0.277 HD
ATOM      7  H32 UNL     1      17.251   3.632  10.320  1.00  0.00     0.277 HD
HETATM    8  C8  UNL     1      17.363   4.108  12.309  1.00  0.00     0.253 C 
HETATM    9  C9  UNL     1      17.496   3.544  13.660  1.00  0.00     0.170 C 
ENDROOT
BRANCH   1  10
HETATM   10  N1  UNL     1      17.129   1.831  15.187  1.00  0.00    -0.311 N 
HETATM   11  C4  UNL     1      16.129   2.110  15.924  1.00  0.00     0.003 C 
HETATM   12  C3  UNL     1      14.847   2.790  15.636  1.00  0.00     0.054 C 
HETATM   13  C10 UNL     1      16.086   1.747  17.383  1.00  0.00     0.054 C 
HETATM   14  C2  UNL     1      13.900   2.102  16.607  1.00  0.00     0.006 C 
HETATM   15  C1  UNL     1      14.721   2.092  17.873  1.00  0.00     0.006 C 
ATOM     16  H1  UNL     1      17.926   1.347  15.602  1.00  0.00     0.186 HD
ENDBRANCH   1  10
TORSDOF 1
ENDMDL
