MODEL 1
REMARK VINA RESULT: -5.830078286      0.000      0.000
REMARK  3 active torsions:
REMARK  status: ('A' for Active; 'I' for Inactive)
REMARK    1  A    between atoms: C2_2  and  C5_5 
REMARK    2  A    between atoms: C5_5  and  C6_6 
REMARK    3  A    between atoms: C6_6  and  N1_7 
ROOT
HETATM    1  N1  UNL     1      16.548   1.982  14.351  1.00  0.00    -0.354 N 
HETATM    2  C7  UNL     1      16.489   3.393  14.041  1.00  0.00     0.145 C 
HETATM    3  C8  UNL     1      17.827   3.499  13.289  1.00  0.00     0.142 C 
HETATM    4  N2  UNL     1      17.821   2.252  12.550  1.00  0.00    -0.363 N 
ATOM      5  H2  UNL     1      18.320   2.080  11.678  1.00  0.00     0.162 HD
HETATM    6  C9  UNL     1      17.082   1.389  13.175  1.00  0.00     0.186 C 
HETATM    7  N3  UNL     1      16.811   0.044  12.795  1.00  0.00    -0.064 NA
ENDROOT
BRANCH   1   8
HETATM    8  C6  UNL     1      16.143   1.371  15.583  1.00  0.00     0.126 C 
BRANCH   8   9
HETATM    9  C5  UNL     1      16.165   2.361  16.707  1.00  0.00     0.028 C 
BRANCH   9  10
HETATM   10  C2  UNL     1      14.801   2.560  17.323  1.00  0.00    -0.050 C 
HETATM   11  C1  UNL     1      14.289   3.918  16.911  1.00  0.00     0.014 C 
HETATM   12  C3  UNL     1      14.904   2.528  18.843  1.00  0.00     0.014 C 
HETATM   13  C4  UNL     1      13.802   1.516  16.920  1.00  0.00     0.014 C 
ENDBRANCH   9  10
ENDBRANCH   8   9
ENDBRANCH   1   8
TORSDOF 3
ENDMDL
MODEL 2
REMARK VINA RESULT: -5.820101721      2.098      4.551
REMARK  3 active torsions:
REMARK  status: ('A' for Active; 'I' for Inactive)
REMARK    1  A    between atoms: C2_2  and  C5_5 
REMARK    2  A    between atoms: C5_5  and  C6_6 
REMARK    3  A    between atoms: C6_6  and  N1_7 
ROOT
HETATM    1  N1  UNL     1      15.474   2.699  15.947  1.00  0.00    -0.354 N 
HETATM    2  C7  UNL     1      14.424   2.951  16.906  1.00  0.00     0.145 C 
HETATM    3  C8  UNL     1      14.104   1.487  17.257  1.00  0.00     0.142 C 
HETATM    4  N2  UNL     1      15.436   0.916  17.272  1.00  0.00    -0.363 N 
ATOM      5  H2  UNL     1      15.718   0.089  17.796  1.00  0.00     0.162 HD
HETATM    6  C9  UNL     1      16.212   1.625  16.512  1.00  0.00     0.186 C 
HETATM    7  N3  UNL     1      17.594   1.408  16.246  1.00  0.00    -0.064 NA
ENDROOT
BRANCH   1   8
HETATM    8  C6  UNL     1      15.683   3.407  14.717  1.00  0.00     0.126 C 
BRANCH   8   9
HETATM    9  C5  UNL     1      15.811   4.880  14.960  1.00  0.00     0.028 C 
BRANCH   9  10
HETATM   10  C2  UNL     1      17.049   5.461  14.318  1.00  0.00    -0.050 C 
HETATM   11  C1  UNL     1      16.825   5.523  12.827  1.00  0.00     0.014 C 
HETATM   12  C3  UNL     1      18.248   4.559  14.585  1.00  0.00     0.014 C 
HETATM   13  C4  UNL     1      17.398   6.830  14.820  1.00  0.00     0.014 C 
ENDBRANCH   9  10
ENDBRANCH   8   9
ENDBRANCH   1   8
TORSDOF 3
ENDMDL
MODEL 3
REMARK VINA RESULT: -5.819693578      0.043      1.227
REMARK  3 active torsions:
REMARK  status: ('A' for Active; 'I' for Inactive)
REMARK    1  A    between atoms: C2_2  and  C5_5 
REMARK    2  A    between atoms: C5_5  and  C6_6 
REMARK    3  A    between atoms: C6_6  and  N1_7 
ROOT
HETATM    1  N1  UNL     1      16.534   1.972  14.382  1.00  0.00    -0.354 N 
HETATM    2  C7  UNL     1      16.489   3.385  14.082  1.00  0.00     0.145 C 
HETATM    3  C8  UNL     1      17.835   3.486  13.342  1.00  0.00     0.142 C 
HETATM    4  N2  UNL     1      17.825   2.244  12.594  1.00  0.00    -0.363 N 
ATOM      5  H2  UNL     1      18.329   2.074  11.725  1.00  0.00     0.162 HD
HETATM    6  C9  UNL     1      17.072   1.383  13.206  1.00  0.00     0.186 C 
HETATM    7  N3  UNL     1      16.793   0.044  12.813  1.00  0.00    -0.064 NA
ENDROOT
BRANCH   1   8
HETATM    8  C6  UNL     1      16.113   1.355  15.606  1.00  0.00     0.126 C 
BRANCH   8   9
HETATM    9  C5  UNL     1      16.171   2.326  16.745  1.00  0.00     0.028 C 
BRANCH   9  10
HETATM   10  C2  UNL     1      14.808   2.600  17.336  1.00  0.00    -0.050 C 
HETATM   11  C1  UNL     1      14.922   2.536  18.839  1.00  0.00     0.014 C 
HETATM   12  C3  UNL     1      13.820   1.531  16.885  1.00  0.00     0.014 C 
HETATM   13  C4  UNL     1      14.240   3.930  16.942  1.00  0.00     0.014 C 
ENDBRANCH   9  10
ENDBRANCH   8   9
ENDBRANCH   1   8
TORSDOF 3
ENDMDL
MODEL 4
REMARK VINA RESULT: -5.815248949      0.053      1.226
REMARK  3 active torsions:
REMARK  status: ('A' for Active; 'I' for Inactive)
REMARK    1  A    between atoms: C2_2  and  C5_5 
REMARK    2  A    between atoms: C5_5  and  C6_6 
REMARK    3  A    between atoms: C6_6  and  N1_7 
ROOT
HETATM    1  N1  UNL     1      16.546   1.956  14.339  1.00  0.00    -0.354 N 
HETATM    2  C7  UNL     1      16.490   3.366  14.031  1.00  0.00     0.145 C 
HETATM    3  C8  UNL     1      17.826   3.470  13.275  1.00  0.00     0.142 C 
HETATM    4  N2  UNL     1      17.814   2.223  12.535  1.00  0.00    -0.363 N 
ATOM      5  H2  UNL     1      18.309   2.051  11.661  1.00  0.00     0.162 HD
HETATM    6  C9  UNL     1      17.074   1.362  13.161  1.00  0.00     0.186 C 
HETATM    7  N3  UNL     1      16.798   0.019  12.780  1.00  0.00    -0.064 NA
ENDROOT
BRANCH   1   8
HETATM    8  C6  UNL     1      16.143   1.343  15.572  1.00  0.00     0.126 C 
BRANCH   8   9
HETATM    9  C5  UNL     1      16.208   2.322  16.705  1.00  0.00     0.028 C 
BRANCH   9  10
HETATM   10  C2  UNL     1      14.859   2.551  17.343  1.00  0.00    -0.050 C 
HETATM   11  C1  UNL     1      13.918   1.474  16.861  1.00  0.00     0.014 C 
HETATM   12  C3  UNL     1      14.300   3.902  16.913  1.00  0.00     0.014 C 
HETATM   13  C4  UNL     1      14.894   2.538  18.842  1.00  0.00     0.014 C 
ENDBRANCH   9  10
ENDBRANCH   8   9
ENDBRANCH   1   8
TORSDOF 3
ENDMDL
MODEL 5
REMARK VINA RESULT: -5.801050494      2.101      4.570
REMARK  3 active torsions:
REMARK  status: ('A' for Active; 'I' for Inactive)
REMARK    1  A    between atoms: C2_2  and  C5_5 
REMARK    2  A    between atoms: C5_5  and  C6_6 
REMARK    3  A    between atoms: C6_6  and  N1_7 
ROOT
HETATM    1  N1  UNL     1      15.457   2.704  15.942  1.00  0.00    -0.354 N 
HETATM    2  C7  UNL     1      14.408   2.952  16.905  1.00  0.00     0.145 C 
HETATM    3  C8  UNL     1      14.099   1.487  17.261  1.00  0.00     0.142 C 
HETATM    4  N2  UNL     1      15.435   0.925  17.273  1.00  0.00    -0.363 N 
ATOM      5  H2  UNL     1      15.724   0.101  17.799  1.00  0.00     0.162 HD
HETATM    6  C9  UNL     1      16.204   1.636  16.509  1.00  0.00     0.186 C 
HETATM    7  N3  UNL     1      17.586   1.428  16.237  1.00  0.00    -0.064 NA
ENDROOT
BRANCH   1   8
HETATM    8  C6  UNL     1      15.656   3.409  14.709  1.00  0.00     0.126 C 
BRANCH   8   9
HETATM    9  C5  UNL     1      15.859   4.873  14.954  1.00  0.00     0.028 C 
BRANCH   9  10
HETATM   10  C2  UNL     1      17.117   5.394  14.302  1.00  0.00    -0.050 C 
HETATM   11  C1  UNL     1      17.351   6.805  14.784  1.00  0.00     0.014 C 
HETATM   12  C3  UNL     1      16.945   5.428  12.788  1.00  0.00     0.014 C 
HETATM   13  C4  UNL     1      18.333   4.567  14.596  1.00  0.00     0.014 C 
ENDBRANCH   9  10
ENDBRANCH   8   9
ENDBRANCH   1   8
TORSDOF 3
ENDMDL
