MODEL 1
REMARK VINA RESULT: -6.961449679      0.000      0.000
REMARK  4 active torsions:
REMARK  status: ('A' for Active; 'I' for Inactive)
REMARK    1  A    between atoms: C3_3  and  C4_4 
REMARK    2  A    between atoms: C4_4  and  C5_5 
REMARK    3  A    between atoms: N4_12  and  N5_13 
REMARK    4  A    between atoms: N5_13  and  C6_15 
ROOT
HETATM    1  C5  UNL     1      -4.814   2.619  15.930  1.00  0.00     0.139 A 
HETATM    2  N1  UNL     1      -5.580   2.265  16.997  1.00  0.00    -0.270 N 
ATOM      3  H1  UNL     1      -6.044   2.889  17.658  1.00  0.00     0.190 HD
HETATM    4  N2  UNL     1      -5.598   0.943  16.997  1.00  0.00    -0.225 N 
ATOM      5  H2  UNL     1      -6.091   0.368  17.680  1.00  0.00     0.210 HD
HETATM    6  N3  UNL     1      -4.893   0.474  15.998  1.00  0.00    -0.205 N 
ATOM      7  H3  UNL     1      -4.752  -0.512  15.780  1.00  0.00     0.212 HD
HETATM    8  N4  UNL     1      -4.394   1.494  15.320  1.00  0.00    -0.167 N 
ENDROOT
BRANCH   8   9
HETATM    9  N5  UNL     1      -3.583   1.500  14.183  1.00  0.00    -0.285 N 
ATOM     10  H5  UNL     1      -2.585   1.684  14.286  1.00  0.00     0.188 HD
BRANCH   9  11
HETATM   11  C6  UNL     1      -4.063   1.282  13.013  1.00  0.00     0.009 C 
HETATM   12  C7  UNL     1      -4.073  -0.105  12.482  1.00  0.00     0.087 C 
HETATM   13  C8  UNL     1      -4.119  -0.029  10.959  1.00  0.00     0.193 C 
HETATM   14  C9  UNL     1      -3.211   1.091  10.495  1.00  0.00     0.066 C 
HETATM   15  N6  UNL     1      -5.237   0.740  10.485  1.00  0.00    -0.066 N 
HETATM   16  C10 UNL     1      -4.439   1.942  10.703  1.00  0.00     0.193 C 
HETATM   17  C11 UNL     1      -4.614   2.350  12.146  1.00  0.00     0.087 C 
ATOM     18  H62 UNL     1      -5.656   0.548   9.575  1.00  0.00     0.278 HD
ATOM     19  H61 UNL     1      -6.159   0.641  10.911  1.00  0.00     0.278 HD
ENDBRANCH   9  11
ENDBRANCH   8   9
BRANCH   1  20
HETATM   20  C4  UNL     1      -4.505   4.014  15.525  1.00  0.00     0.086 C 
BRANCH  20  21
HETATM   21  C3  UNL     1      -5.694   4.661  14.859  1.00  0.00    -0.007 A 
HETATM   22  C1  UNL     1      -6.194   5.964  15.341  1.00  0.00     0.005 A 
HETATM   23  C2  UNL     1      -5.455   5.813  13.981  1.00  0.00     0.005 A 
ENDBRANCH  20  21
ENDBRANCH   1  20
TORSDOF 4
ENDMDL
MODEL 2
REMARK VINA RESULT: -6.957986769      1.983      5.530
REMARK  4 active torsions:
REMARK  status: ('A' for Active; 'I' for Inactive)
REMARK    1  A    between atoms: C3_3  and  C4_4 
REMARK    2  A    between atoms: C4_4  and  C5_5 
REMARK    3  A    between atoms: N4_12  and  N5_13 
REMARK    4  A    between atoms: N5_13  and  C6_15 
ROOT
HETATM    1  C5  UNL     1      -3.091   3.128  12.808  1.00  0.00     0.139 A 
HETATM    2  N1  UNL     1      -1.904   3.793  12.865  1.00  0.00    -0.270 N 
ATOM      3  H1  UNL     1      -1.246   3.948  12.101  1.00  0.00     0.190 HD
HETATM    4  N2  UNL     1      -1.783   4.194  14.119  1.00  0.00    -0.225 N 
ATOM      5  H2  UNL     1      -0.992   4.724  14.486  1.00  0.00     0.210 HD
HETATM    6  N3  UNL     1      -2.821   3.818  14.824  1.00  0.00    -0.205 N 
ATOM      7  H3  UNL     1      -2.967   4.006  15.815  1.00  0.00     0.212 HD
HETATM    8  N4  UNL     1      -3.647   3.154  14.034  1.00  0.00    -0.167 N 
ENDROOT
BRANCH   8   9
HETATM    9  N5  UNL     1      -4.877   2.560  14.324  1.00  0.00    -0.285 N 
ATOM     10  H5  UNL     1      -5.409   2.123  13.571  1.00  0.00     0.188 HD
BRANCH   9  11
HETATM   11  C6  UNL     1      -5.356   2.549  15.515  1.00  0.00     0.009 C 
HETATM   12  C7  UNL     1      -5.005   1.432  16.427  1.00  0.00     0.087 C 
HETATM   13  C8  UNL     1      -6.094   1.327  17.490  1.00  0.00     0.193 C 
HETATM   14  C9  UNL     1      -7.442   1.547  16.835  1.00  0.00     0.066 C 
HETATM   15  N6  UNL     1      -6.285   2.563  18.198  1.00  0.00    -0.066 N 
HETATM   16  C10 UNL     1      -7.143   3.000  17.101  1.00  0.00     0.193 C 
HETATM   17  C11 UNL     1      -6.254   3.605  16.041  1.00  0.00     0.087 C 
ATOM     18  H62 UNL     1      -6.624   2.568  19.161  1.00  0.00     0.278 HD
ATOM     19  H61 UNL     1      -5.487   3.126  18.494  1.00  0.00     0.278 HD
ENDBRANCH   9  11
ENDBRANCH   8   9
BRANCH   1  20
HETATM   20  C4  UNL     1      -3.656   2.492  11.591  1.00  0.00     0.086 C 
BRANCH  20  21
HETATM   21  C3  UNL     1      -3.217   1.053  11.479  1.00  0.00    -0.007 A 
HETATM   22  C1  UNL     1      -4.138  -0.034  11.869  1.00  0.00     0.005 A 
HETATM   23  C2  UNL     1      -3.768   0.244  10.385  1.00  0.00     0.005 A 
ENDBRANCH  20  21
ENDBRANCH   1  20
TORSDOF 4
ENDMDL
MODEL 3
REMARK VINA RESULT: -6.843173484      2.386      3.187
REMARK  4 active torsions:
REMARK  status: ('A' for Active; 'I' for Inactive)
REMARK    1  A    between atoms: C3_3  and  C4_4 
REMARK    2  A    between atoms: C4_4  and  C5_5 
REMARK    3  A    between atoms: N4_12  and  N5_13 
REMARK    4  A    between atoms: N5_13  and  C6_15 
ROOT
HETATM    1  C5  UNL     1      -3.450   3.637  14.310  1.00  0.00     0.139 A 
HETATM    2  N1  UNL     1      -2.614   3.891  15.354  1.00  0.00    -0.270 N 
ATOM      3  H1  UNL     1      -2.821   3.795  16.348  1.00  0.00     0.190 HD
HETATM    4  N2  UNL     1      -1.477   4.290  14.808  1.00  0.00    -0.225 N 
ATOM      5  H2  UNL     1      -0.644   4.559  15.331  1.00  0.00     0.210 HD
HETATM    6  N3  UNL     1      -1.570   4.292  13.502  1.00  0.00    -0.205 N 
ATOM      7  H3  UNL     1      -0.831   4.557  12.853  1.00  0.00     0.212 HD
HETATM    8  N4  UNL     1      -2.785   3.891  13.166  1.00  0.00    -0.167 N 
ENDROOT
BRANCH   8   9
HETATM    9  N5  UNL     1      -3.356   3.731  11.902  1.00  0.00    -0.285 N 
ATOM     10  H5  UNL     1      -3.668   4.556  11.390  1.00  0.00     0.188 HD
BRANCH   9  11
HETATM   11  C6  UNL     1      -3.497   2.572  11.368  1.00  0.00     0.009 C 
HETATM   12  C7  UNL     1      -4.836   2.160  10.876  1.00  0.00     0.087 C 
HETATM   13  C8  UNL     1      -4.882   0.635  10.848  1.00  0.00     0.193 C 
HETATM   14  C9  UNL     1      -4.189   0.101  12.084  1.00  0.00     0.066 C 
HETATM   15  N6  UNL     1      -3.819   0.072  10.062  1.00  0.00    -0.066 N 
HETATM   16  C10 UNL     1      -2.952   0.207  11.227  1.00  0.00     0.193 C 
HETATM   17  C11 UNL     1      -2.384   1.605  11.214  1.00  0.00     0.087 C 
ATOM     18  H62 UNL     1      -3.933  -0.829   9.596  1.00  0.00     0.278 HD
ATOM     19  H61 UNL     1      -3.557   0.483   9.165  1.00  0.00     0.278 HD
ENDBRANCH   9  11
ENDBRANCH   8   9
BRANCH   1  20
HETATM   20  C4  UNL     1      -4.851   3.161  14.433  1.00  0.00     0.086 C 
BRANCH  20  21
HETATM   21  C3  UNL     1      -5.273   3.089  15.880  1.00  0.00    -0.007 A 
HETATM   22  C1  UNL     1      -6.586   3.622  16.295  1.00  0.00     0.005 A 
HETATM   23  C2  UNL     1      -6.287   2.097  16.258  1.00  0.00     0.005 A 
ENDBRANCH  20  21
ENDBRANCH   1  20
TORSDOF 4
ENDMDL
MODEL 4
REMARK VINA RESULT: -6.747568965      1.700      2.640
REMARK  4 active torsions:
REMARK  status: ('A' for Active; 'I' for Inactive)
REMARK    1  A    between atoms: C3_3  and  C4_4 
REMARK    2  A    between atoms: C4_4  and  C5_5 
REMARK    3  A    between atoms: N4_12  and  N5_13 
REMARK    4  A    between atoms: N5_13  and  C6_15 
ROOT
HETATM    1  C5  UNL     1      -4.934   3.627  15.079  1.00  0.00     0.139 A 
HETATM    2  N1  UNL     1      -4.366   4.834  15.355  1.00  0.00    -0.270 N 
ATOM      3  H1  UNL     1      -4.814   5.642  15.787  1.00  0.00     0.190 HD
HETATM    4  N2  UNL     1      -3.113   4.737  14.945  1.00  0.00    -0.225 N 
ATOM      5  H2  UNL     1      -2.420   5.483  15.012  1.00  0.00     0.210 HD
HETATM    6  N3  UNL     1      -2.885   3.550  14.441  1.00  0.00    -0.205 N 
ATOM      7  H3  UNL     1      -1.997   3.227  14.059  1.00  0.00     0.212 HD
HETATM    8  N4  UNL     1      -3.999   2.842  14.512  1.00  0.00    -0.167 N 
ENDROOT
BRANCH   8   9
HETATM    9  N5  UNL     1      -4.251   1.530  14.104  1.00  0.00    -0.285 N 
ATOM     10  H5  UNL     1      -4.311   0.794  14.807  1.00  0.00     0.188 HD
BRANCH   9  11
HETATM   11  C6  UNL     1      -4.409   1.228  12.866  1.00  0.00     0.009 C 
HETATM   12  C7  UNL     1      -4.103  -0.152  12.413  1.00  0.00     0.087 C 
HETATM   13  C8  UNL     1      -3.803  -0.104  10.918  1.00  0.00     0.193 C 
HETATM   14  C9  UNL     1      -2.977   1.130  10.622  1.00  0.00     0.066 C 
HETATM   15  N6  UNL     1      -4.876   0.487  10.166  1.00  0.00    -0.066 N 
HETATM   16  C10 UNL     1      -4.325   1.795  10.504  1.00  0.00     0.193 C 
HETATM   17  C11 UNL     1      -4.886   2.193  11.847  1.00  0.00     0.087 C 
ATOM     18  H62 UNL     1      -5.040   0.224   9.194  1.00  0.00     0.278 HD
ATOM     19  H61 UNL     1      -5.848   0.260  10.374  1.00  0.00     0.278 HD
ENDBRANCH   9  11
ENDBRANCH   8   9
BRANCH   1  20
HETATM   20  C4  UNL     1      -6.345   3.261  15.364  1.00  0.00     0.086 C 
BRANCH  20  21
HETATM   21  C3  UNL     1      -6.541   2.958  16.829  1.00  0.00    -0.007 A 
HETATM   22  C1  UNL     1      -7.212   1.710  17.243  1.00  0.00     0.005 A 
HETATM   23  C2  UNL     1      -5.687   1.935  17.445  1.00  0.00     0.005 A 
ENDBRANCH  20  21
ENDBRANCH   1  20
TORSDOF 4
ENDMDL
MODEL 5
REMARK VINA RESULT: -6.664884976      2.886      4.905
REMARK  4 active torsions:
REMARK  status: ('A' for Active; 'I' for Inactive)
REMARK    1  A    between atoms: C3_3  and  C4_4 
REMARK    2  A    between atoms: C4_4  and  C5_5 
REMARK    3  A    between atoms: N4_12  and  N5_13 
REMARK    4  A    between atoms: N5_13  and  C6_15 
ROOT
HETATM    1  C5  UNL     1      -2.619   3.924  13.676  1.00  0.00     0.139 A 
HETATM    2  N1  UNL     1      -2.350   3.477  12.418  1.00  0.00    -0.270 N 
ATOM      3  H1  UNL     1      -1.816   3.958  11.694  1.00  0.00     0.190 HD
HETATM    4  N2  UNL     1      -2.927   2.290  12.334  1.00  0.00    -0.225 N 
ATOM      5  H2  UNL     1      -2.908   1.693  11.507  1.00  0.00     0.210 HD
HETATM    6  N3  UNL     1      -3.525   1.989  13.458  1.00  0.00    -0.205 N 
ATOM      7  H3  UNL     1      -4.040   1.129  13.647  1.00  0.00     0.212 HD
HETATM    8  N4  UNL     1      -3.350   2.986  14.309  1.00  0.00    -0.167 N 
ENDROOT
BRANCH   8   9
HETATM    9  N5  UNL     1      -3.798   3.129  15.624  1.00  0.00    -0.285 N 
ATOM     10  H5  UNL     1      -3.210   3.620  16.298  1.00  0.00     0.188 HD
BRANCH   9  11
HETATM   11  C6  UNL     1      -4.929   2.656  16.006  1.00  0.00     0.009 C 
HETATM   12  C7  UNL     1      -6.129   3.529  15.962  1.00  0.00     0.087 C 
HETATM   13  C8  UNL     1      -7.146   2.985  16.961  1.00  0.00     0.193 C 
HETATM   14  C9  UNL     1      -6.417   2.542  18.212  1.00  0.00     0.066 C 
HETATM   15  N6  UNL     1      -7.469   1.607  16.713  1.00  0.00    -0.066 N 
HETATM   16  C10 UNL     1      -6.270   1.243  17.460  1.00  0.00     0.193 C 
HETATM   17  C11 UNL     1      -5.108   1.269  16.496  1.00  0.00     0.087 C 
ATOM     18  H62 UNL     1      -8.381   1.229  16.972  1.00  0.00     0.278 HD
ATOM     19  H61 UNL     1      -7.618   1.266  15.763  1.00  0.00     0.278 HD
ENDBRANCH   9  11
ENDBRANCH   8   9
BRANCH   1  20
HETATM   20  C4  UNL     1      -2.173   5.226  14.235  1.00  0.00     0.086 C 
BRANCH  20  21
HETATM   21  C3  UNL     1      -3.189   6.307  13.966  1.00  0.00    -0.007 A 
HETATM   22  C1  UNL     1      -4.199   6.645  14.989  1.00  0.00     0.005 A 
HETATM   23  C2  UNL     1      -3.022   7.599  14.642  1.00  0.00     0.005 A 
ENDBRANCH  20  21
ENDBRANCH   1  20
TORSDOF 4
ENDMDL
