MODEL 1
REMARK VINA RESULT: -7.452663258      0.000      0.000
REMARK  3 active torsions:
REMARK  status: ('A' for Active; 'I' for Inactive)
REMARK    1  A    between atoms: N1_4  and  C4_5 
REMARK    2  A    between atoms: C4_5  and  C5_6 
REMARK       I    between atoms: C5_6  and  N2_8 
REMARK    3  A    between atoms: N2_8  and  N3_10 
ROOT
HETATM    1  C5  UNL     1      -3.855   1.554  12.483  1.00  0.00     0.255 C 
HETATM    2  O1  UNL     1      -4.878   0.943  12.061  1.00  0.00    -0.270 OA
HETATM    3  N2  UNL     1      -3.628   1.590  13.865  1.00  0.00    -0.269 N 
ATOM      4  H2  UNL     1      -2.805   2.081  14.213  1.00  0.00     0.190 HD
ENDROOT
BRANCH   1   5
HETATM    5  C4  UNL     1      -2.917   2.216  11.541  1.00  0.00     0.254 C 
BRANCH   5   6
HETATM    6  N1  UNL     1      -2.315   3.349  12.201  1.00  0.00    -0.278 N 
HETATM    7  C3  UNL     1      -2.951   4.396  12.764  1.00  0.00     0.138 A 
HETATM    8  C2  UNL     1      -2.027   5.271  13.292  1.00  0.00     0.040 A 
HETATM    9  C1  UNL     1      -2.244   6.558  14.006  1.00  0.00     0.071 C 
HETATM   10  N5  UNL     1      -0.820   4.703  13.022  1.00  0.00    -0.289 N 
HETATM   11  N4  UNL     1      -1.013   3.571  12.379  1.00  0.00    -0.240 N 
ATOM     12  H5  UNL     1       0.088   5.091  13.278  1.00  0.00     0.188 HD
ATOM     13  H4  UNL     1      -0.270   2.951  12.060  1.00  0.00     0.208 HD
ENDBRANCH   5   6
ENDBRANCH   1   5
BRANCH   3  14
HETATM   14  N3  UNL     1      -4.480   0.982  14.786  1.00  0.00    -0.306 N 
HETATM   15  C6  UNL     1      -5.134   1.664  15.662  1.00  0.00     0.004 C 
HETATM   16  C7  UNL     1      -6.027   1.018  16.625  1.00  0.00     0.054 C 
HETATM   17  C11 UNL     1      -4.966   3.138  15.682  1.00  0.00     0.054 C 
HETATM   18  C8  UNL     1      -7.184   1.846  17.064  1.00  0.00     0.006 C 
HETATM   19  C9  UNL     1      -6.921   3.314  17.118  1.00  0.00     0.001 C 
HETATM   20  C10 UNL     1      -6.375   3.728  15.752  1.00  0.00     0.006 C 
ATOM     21  H3  UNL     1      -4.590  -0.032  14.766  1.00  0.00     0.186 HD
ENDBRANCH   3  14
TORSDOF 3
ENDMDL
MODEL 2
REMARK VINA RESULT: -7.334853123      1.065      1.115
REMARK  3 active torsions:
REMARK  status: ('A' for Active; 'I' for Inactive)
REMARK    1  A    between atoms: N1_4  and  C4_5 
REMARK    2  A    between atoms: C4_5  and  C5_6 
REMARK       I    between atoms: C5_6  and  N2_8 
REMARK    3  A    between atoms: N2_8  and  N3_10 
ROOT
HETATM    1  C5  UNL     1      -3.787   0.869  12.826  1.00  0.00     0.255 C 
HETATM    2  O1  UNL     1      -4.679   0.032  12.508  1.00  0.00    -0.270 OA
HETATM    3  N2  UNL     1      -3.671   1.233  14.174  1.00  0.00    -0.269 N 
ATOM      4  H2  UNL     1      -2.954   1.908  14.438  1.00  0.00     0.190 HD
ENDROOT
BRANCH   1   5
HETATM    5  C4  UNL     1      -2.885   1.453  11.801  1.00  0.00     0.254 C 
BRANCH   5   6
HETATM    6  N1  UNL     1      -2.856   2.885  11.965  1.00  0.00    -0.278 N 
HETATM    7  C3  UNL     1      -3.860   3.753  11.721  1.00  0.00     0.138 A 
HETATM    8  C2  UNL     1      -3.441   5.036  12.001  1.00  0.00     0.040 A 
HETATM    9  C1  UNL     1      -4.187   6.318  11.889  1.00  0.00     0.071 C 
HETATM   10  N5  UNL     1      -2.154   4.896  12.420  1.00  0.00    -0.289 N 
HETATM   11  N4  UNL     1      -1.830   3.621  12.391  1.00  0.00    -0.240 N 
ATOM     12  H5  UNL     1      -1.539   5.657  12.710  1.00  0.00     0.188 HD
ATOM     13  H4  UNL     1      -0.919   3.247  12.657  1.00  0.00     0.208 HD
ENDBRANCH   5   6
ENDBRANCH   1   5
BRANCH   3  14
HETATM   14  N3  UNL     1      -4.494   0.711  15.171  1.00  0.00    -0.306 N 
HETATM   15  C6  UNL     1      -5.151   1.470  15.978  1.00  0.00     0.004 C 
HETATM   16  C7  UNL     1      -6.013   0.914  17.022  1.00  0.00     0.054 C 
HETATM   17  C11 UNL     1      -5.018   2.940  15.834  1.00  0.00     0.054 C 
HETATM   18  C8  UNL     1      -7.184   1.758  17.387  1.00  0.00     0.006 C 
HETATM   19  C9  UNL     1      -6.955   3.229  17.277  1.00  0.00     0.001 C 
HETATM   20  C10 UNL     1      -6.440   3.503  15.865  1.00  0.00     0.006 C 
ATOM     21  H3  UNL     1      -4.580  -0.302  15.263  1.00  0.00     0.186 HD
ENDBRANCH   3  14
TORSDOF 3
ENDMDL
MODEL 3
REMARK VINA RESULT: -7.256427883      2.359      3.904
REMARK  3 active torsions:
REMARK  status: ('A' for Active; 'I' for Inactive)
REMARK    1  A    between atoms: N1_4  and  C4_5 
REMARK    2  A    between atoms: C4_5  and  C5_6 
REMARK       I    between atoms: C5_6  and  N2_8 
REMARK    3  A    between atoms: N2_8  and  N3_10 
ROOT
HETATM    1  C5  UNL     1      -4.469   4.249  12.391  1.00  0.00     0.255 C 
HETATM    2  O1  UNL     1      -5.175   5.263  12.125  1.00  0.00    -0.270 OA
HETATM    3  N2  UNL     1      -4.576   3.684  13.669  1.00  0.00    -0.269 N 
ATOM      4  H2  UNL     1      -4.009   2.866  13.891  1.00  0.00     0.190 HD
ENDROOT
BRANCH   1   5
HETATM    5  C4  UNL     1      -3.550   3.670  11.378  1.00  0.00     0.254 C 
BRANCH   5   6
HETATM    6  N1  UNL     1      -3.889   2.282  11.179  1.00  0.00    -0.278 N 
HETATM    7  C3  UNL     1      -3.160   1.206  11.536  1.00  0.00     0.138 A 
HETATM    8  C2  UNL     1      -3.824   0.054  11.174  1.00  0.00     0.040 A 
HETATM    9  C1  UNL     1      -3.421  -1.366  11.357  1.00  0.00     0.071 C 
HETATM   10  N5  UNL     1      -4.974   0.488  10.590  1.00  0.00    -0.289 N 
HETATM   11  N4  UNL     1      -4.992   1.804  10.604  1.00  0.00    -0.240 N 
ATOM     12  H5  UNL     1      -5.705  -0.110  10.204  1.00  0.00     0.188 HD
ATOM     13  H4  UNL     1      -5.745   2.378  10.226  1.00  0.00     0.208 HD
ENDBRANCH   5   6
ENDBRANCH   1   5
BRANCH   3  14
HETATM   14  N3  UNL     1      -5.425   4.193  14.651  1.00  0.00    -0.306 N 
HETATM   15  C6  UNL     1      -5.930   3.445  15.569  1.00  0.00     0.004 C 
HETATM   16  C7  UNL     1      -6.821   3.987  16.595  1.00  0.00     0.054 C 
HETATM   17  C11 UNL     1      -5.593   2.000  15.570  1.00  0.00     0.054 C 
HETATM   18  C8  UNL     1      -6.771   3.285  17.907  1.00  0.00     0.006 C 
HETATM   19  C9  UNL     1      -6.488   1.822  17.825  1.00  0.00     0.001 C 
HETATM   20  C10 UNL     1      -5.207   1.652  17.009  1.00  0.00     0.006 C 
ATOM     21  H3  UNL     1      -5.652   5.188  14.642  1.00  0.00     0.186 HD
ENDBRANCH   3  14
TORSDOF 3
ENDMDL
MODEL 4
REMARK VINA RESULT: -7.084571844      2.008      3.369
REMARK  3 active torsions:
REMARK  status: ('A' for Active; 'I' for Inactive)
REMARK    1  A    between atoms: N1_4  and  C4_5 
REMARK    2  A    between atoms: C4_5  and  C5_6 
REMARK       I    between atoms: C5_6  and  N2_8 
REMARK    3  A    between atoms: N2_8  and  N3_10 
ROOT
HETATM    1  C5  UNL     1      -4.138   4.616  12.683  1.00  0.00     0.255 C 
HETATM    2  O1  UNL     1      -5.214   5.151  12.291  1.00  0.00    -0.270 OA
HETATM    3  N2  UNL     1      -4.024   4.271  14.036  1.00  0.00    -0.269 N 
ATOM      4  H2  UNL     1      -3.158   3.839  14.360  1.00  0.00     0.190 HD
ENDROOT
BRANCH   1   5
HETATM    5  C4  UNL     1      -3.023   4.359  11.736  1.00  0.00     0.254 C 
BRANCH   5   6
HETATM    6  N1  UNL     1      -2.820   2.935  11.629  1.00  0.00    -0.278 N 
HETATM    7  C3  UNL     1      -3.767   1.986  11.491  1.00  0.00     0.138 A 
HETATM    8  C2  UNL     1      -3.173   0.744  11.423  1.00  0.00     0.040 A 
HETATM    9  C1  UNL     1      -3.800  -0.596  11.271  1.00  0.00     0.071 C 
HETATM   10  N5  UNL     1      -1.839   0.994  11.525  1.00  0.00    -0.289 N 
HETATM   11  N4  UNL     1      -1.653   2.291  11.646  1.00  0.00    -0.240 N 
ATOM     12  H5  UNL     1      -1.101   0.289  11.510  1.00  0.00     0.188 HD
ATOM     13  H4  UNL     1      -0.743   2.740  11.740  1.00  0.00     0.208 HD
ENDBRANCH   5   6
ENDBRANCH   1   5
BRANCH   3  14
HETATM   14  N3  UNL     1      -5.044   4.492  14.960  1.00  0.00    -0.306 N 
HETATM   15  C6  UNL     1      -5.643   3.522  15.559  1.00  0.00     0.004 C 
HETATM   16  C7  UNL     1      -6.713   3.764  16.528  1.00  0.00     0.054 C 
HETATM   17  C11 UNL     1      -5.227   2.133  15.248  1.00  0.00     0.054 C 
HETATM   18  C8  UNL     1      -6.828   2.744  17.606  1.00  0.00     0.006 C 
HETATM   19  C9  UNL     1      -6.451   1.358  17.201  1.00  0.00     0.001 C 
HETATM   20  C10 UNL     1      -5.051   1.427  16.594  1.00  0.00     0.006 C 
ATOM     21  H3  UNL     1      -5.325   5.451  15.168  1.00  0.00     0.186 HD
ENDBRANCH   3  14
TORSDOF 3
ENDMDL
MODEL 5
REMARK VINA RESULT: -7.078101439      1.495      1.725
REMARK  3 active torsions:
REMARK  status: ('A' for Active; 'I' for Inactive)
REMARK    1  A    between atoms: N1_4  and  C4_5 
REMARK    2  A    between atoms: C4_5  and  C5_6 
REMARK       I    between atoms: C5_6  and  N2_8 
REMARK    3  A    between atoms: N2_8  and  N3_10 
ROOT
HETATM    1  C5  UNL     1      -3.773   0.800  12.658  1.00  0.00     0.255 C 
HETATM    2  O1  UNL     1      -4.570  -0.144  12.392  1.00  0.00    -0.270 OA
HETATM    3  N2  UNL     1      -3.750   1.297  13.968  1.00  0.00    -0.269 N 
ATOM      4  H2  UNL     1      -3.110   2.060  14.190  1.00  0.00     0.190 HD
ENDROOT
BRANCH   1   5
HETATM    5  C4  UNL     1      -2.885   1.370  11.613  1.00  0.00     0.254 C 
BRANCH   5   6
HETATM    6  N1  UNL     1      -3.245   2.750  11.396  1.00  0.00    -0.278 N 
HETATM    7  C3  UNL     1      -2.480   3.836  11.626  1.00  0.00     0.138 A 
HETATM    8  C2  UNL     1      -3.180   4.976  11.292  1.00  0.00     0.040 A 
HETATM    9  C1  UNL     1      -2.760   6.400  11.371  1.00  0.00     0.071 C 
HETATM   10  N5  UNL     1      -4.387   4.523  10.855  1.00  0.00    -0.289 N 
HETATM   11  N4  UNL     1      -4.403   3.209  10.924  1.00  0.00    -0.240 N 
ATOM     12  H5  UNL     1      -5.156   5.108  10.525  1.00  0.00     0.188 HD
ATOM     13  H4  UNL     1      -5.194   2.623  10.655  1.00  0.00     0.208 HD
ENDBRANCH   5   6
ENDBRANCH   1   5
BRANCH   3  14
HETATM   14  N3  UNL     1      -4.564   0.794  14.981  1.00  0.00    -0.306 N 
HETATM   15  C6  UNL     1      -5.183   1.567  15.805  1.00  0.00     0.004 C 
HETATM   16  C7  UNL     1      -6.036   1.030  16.866  1.00  0.00     0.054 C 
HETATM   17  C11 UNL     1      -5.016   3.033  15.661  1.00  0.00     0.054 C 
HETATM   18  C8  UNL     1      -7.176   1.903  17.259  1.00  0.00     0.006 C 
HETATM   19  C9  UNL     1      -6.913   3.367  17.147  1.00  0.00     0.001 C 
HETATM   20  C10 UNL     1      -6.422   3.633  15.724  1.00  0.00     0.006 C 
ATOM     21  H3  UNL     1      -4.673  -0.217  15.073  1.00  0.00     0.186 HD
ENDBRANCH   3  14
TORSDOF 3
ENDMDL
