MODEL 1
REMARK VINA RESULT: -9.996530778      0.000      0.000
REMARK  10 active torsions:
REMARK  status: ('A' for Active; 'I' for Inactive)
REMARK    1  A    between atoms: N1_2  and  O1_3 
REMARK    2  A    between atoms: N1_2  and  C18_31 
REMARK    3  A    between atoms: O1_3  and  C2_4 
REMARK    4  A    between atoms: C2_4  and  C3_5 
REMARK    5  A    between atoms: C6_8  and  C7_9 
REMARK    6  A    between atoms: C8_13  and  C9_14 
REMARK    7  A    between atoms: C8_13  and  C15_24 
REMARK    8  A    between atoms: C9_14  and  O3_15 
REMARK    9  A    between atoms: O3_15  and  C10_16 
REMARK   10  A    between atoms: C10_16  and  C11_17 
ROOT
HETATM    1  C7  UNL     1      65.968  35.902  40.526  1.00  0.00     0.042 A 
HETATM    2  N2  UNL     1      64.787  36.362  40.666  1.00  0.00    -0.271 N 
ATOM      3  H2  UNL     1      64.485  37.258  40.284  1.00  0.00     0.193 HD
HETATM    4  O2  UNL     1      63.980  35.544  41.367  1.00  0.00    -0.257 OA
HETATM    5  C8  UNL     1      64.701  34.407  41.780  1.00  0.00     0.211 A 
HETATM    6  C16 UNL     1      66.056  34.587  41.202  1.00  0.00     0.109 A 
ENDROOT
BRANCH   5   7
HETATM    7  C9  UNL     1      63.994  33.129  41.565  1.00  0.00     0.218 C 
BRANCH   7   8
HETATM    8  O3  UNL     1      62.677  33.026  41.625  1.00  0.00    -0.383 OA
BRANCH   8   9
HETATM    9  C10 UNL     1      62.028  31.886  41.891  1.00  0.00     0.214 C 
BRANCH   9  10
HETATM   10  C11 UNL     1      62.746  31.066  42.951  1.00  0.00     0.009 A 
HETATM   11  C12 UNL     1      62.355  30.821  44.234  1.00  0.00     0.042 A 
HETATM   12  C13 UNL     1      63.164  30.063  44.987  1.00  0.00     0.063 A 
HETATM   13 CL1  UNL     1      62.803  29.646  46.686  1.00  0.00    -0.082 Cl
HETATM   14  C14 UNL     1      64.312  29.595  44.408  1.00  0.00     0.096 A 
HETATM   15 CL2  UNL     1      65.572  28.581  45.125  1.00  0.00    -0.074 Cl
HETATM   16  S1  UNL     1      64.219  30.240  42.821  1.00  0.00    -0.079 SA
ENDBRANCH   9  10
ENDBRANCH   8   9
ENDBRANCH   7   8
ENDBRANCH   5   7
BRANCH   5  17
HETATM   17  C15 UNL     1      64.870  34.636  43.319  1.00  0.00     0.423 C 
HETATM   18  F1  UNL     1      64.109  33.768  44.033  1.00  0.00    -0.168 F 
HETATM   19  F2  UNL     1      64.513  35.936  43.608  1.00  0.00    -0.168 F 
HETATM   20  F3  UNL     1      66.205  34.484  43.569  1.00  0.00    -0.168 F 
ENDBRANCH   5  17
BRANCH   1  21
HETATM   21  C6  UNL     1      67.069  36.579  39.804  1.00  0.00     0.168 C 
HETATM   22  C5  UNL     1      67.932  35.471  39.190  1.00  0.00     0.039 C 
HETATM   23  C4  UNL     1      69.109  36.170  38.543  1.00  0.00     0.012 C 
HETATM   24  C3  UNL     1      68.548  37.111  37.488  1.00  0.00     0.036 C 
HETATM   25  C17 UNL     1      67.490  38.029  38.060  1.00  0.00     0.175 C 
HETATM   26  O4  UNL     1      66.548  37.377  38.818  1.00  0.00    -0.380 OA
BRANCH  24  27
HETATM   27  C2  UNL     1      69.647  37.988  36.934  1.00  0.00     0.207 C 
BRANCH  27  28
HETATM   28  O1  UNL     1      69.811  39.054  37.782  1.00  0.00    -0.278 OA
BRANCH  28  29
HETATM   29  N1  UNL     1      71.069  39.315  38.138  1.00  0.00    -0.239 N 
HETATM   30  C1  UNL     1      72.060  38.989  37.160  1.00  0.00     0.184 C 
BRANCH  29  31
HETATM   31  C18 UNL     1      71.411  38.953  39.482  1.00  0.00     0.479 C 
HETATM   32  F4  UNL     1      70.321  38.721  40.290  1.00  0.00    -0.189 F 
HETATM   33  F5  UNL     1      72.148  37.777  39.466  1.00  0.00    -0.189 F 
ENDBRANCH  29  31
ENDBRANCH  28  29
ENDBRANCH  27  28
ENDBRANCH  24  27
ENDBRANCH   1  21
TORSDOF 10
ENDMDL
MODEL 2
REMARK VINA RESULT: -9.953558399      1.067      1.658
REMARK  10 active torsions:
REMARK  status: ('A' for Active; 'I' for Inactive)
REMARK    1  A    between atoms: N1_2  and  O1_3 
REMARK    2  A    between atoms: N1_2  and  C18_31 
REMARK    3  A    between atoms: O1_3  and  C2_4 
REMARK    4  A    between atoms: C2_4  and  C3_5 
REMARK    5  A    between atoms: C6_8  and  C7_9 
REMARK    6  A    between atoms: C8_13  and  C9_14 
REMARK    7  A    between atoms: C8_13  and  C15_24 
REMARK    8  A    between atoms: C9_14  and  O3_15 
REMARK    9  A    between atoms: O3_15  and  C10_16 
REMARK   10  A    between atoms: C10_16  and  C11_17 
ROOT
HETATM    1  C7  UNL     1      66.351  35.119  40.792  1.00  0.00     0.042 A 
HETATM    2  N2  UNL     1      65.168  35.375  41.192  1.00  0.00    -0.271 N 
ATOM      3  H2  UNL     1      64.690  36.256  41.003  1.00  0.00     0.193 HD
HETATM    4  O2  UNL     1      64.614  34.365  41.888  1.00  0.00    -0.257 OA
HETATM    5  C8  UNL     1      65.535  33.307  42.003  1.00  0.00     0.211 A 
HETATM    6  C16 UNL     1      66.727  33.758  41.241  1.00  0.00     0.109 A 
ENDROOT
BRANCH   5   7
HETATM    7  C9  UNL     1      64.967  31.973  41.721  1.00  0.00     0.218 C 
BRANCH   7   8
HETATM    8  O3  UNL     1      63.727  31.805  41.295  1.00  0.00    -0.383 OA
BRANCH   8   9
HETATM    9  C10 UNL     1      62.673  31.658  42.107  1.00  0.00     0.214 C 
BRANCH   9  10
HETATM   10  C11 UNL     1      63.025  30.846  43.343  1.00  0.00     0.009 A 
HETATM   11  C12 UNL     1      64.045  29.954  43.501  1.00  0.00     0.042 A 
HETATM   12  C13 UNL     1      64.155  29.355  44.695  1.00  0.00     0.063 A 
HETATM   13 CL1  UNL     1      65.431  28.163  45.070  1.00  0.00    -0.082 Cl
HETATM   14  C14 UNL     1      63.239  29.687  45.656  1.00  0.00     0.096 A 
HETATM   15 CL2  UNL     1      63.114  29.081  47.314  1.00  0.00    -0.074 Cl
HETATM   16  S1  UNL     1      62.249  30.832  44.848  1.00  0.00    -0.079 SA
ENDBRANCH   9  10
ENDBRANCH   8   9
ENDBRANCH   7   8
ENDBRANCH   5   7
BRANCH   5  17
HETATM   17  C15 UNL     1      65.956  33.367  43.510  1.00  0.00     0.423 C 
HETATM   18  F1  UNL     1      66.915  34.304  43.717  1.00  0.00    -0.168 F 
HETATM   19  F2  UNL     1      66.414  32.121  43.884  1.00  0.00    -0.168 F 
HETATM   20  F3  UNL     1      64.808  33.635  44.201  1.00  0.00    -0.168 F 
ENDBRANCH   5  17
BRANCH   1  21
HETATM   21  C6  UNL     1      67.206  36.037  40.006  1.00  0.00     0.168 C 
HETATM   22  C5  UNL     1      68.293  35.172  39.358  1.00  0.00     0.039 C 
HETATM   23  C4  UNL     1      69.219  36.132  38.643  1.00  0.00     0.012 C 
HETATM   24  C3  UNL     1      68.385  36.874  37.610  1.00  0.00     0.036 C 
HETATM   25  C17 UNL     1      67.156  37.506  38.228  1.00  0.00     0.175 C 
HETATM   26  O4  UNL     1      66.451  36.652  39.041  1.00  0.00    -0.380 OA
BRANCH  24  27
HETATM   27  C2  UNL     1      69.195  37.990  36.990  1.00  0.00     0.207 C 
BRANCH  27  28
HETATM   28  O1  UNL     1      69.412  38.945  37.950  1.00  0.00    -0.278 OA
BRANCH  28  29
HETATM   29  N1  UNL     1      70.676  39.346  38.086  1.00  0.00    -0.239 N 
HETATM   30  C1  UNL     1      71.521  39.089  36.961  1.00  0.00     0.184 C 
BRANCH  29  31
HETATM   31  C18 UNL     1      71.271  39.067  39.359  1.00  0.00     0.479 C 
HETATM   32  F4  UNL     1      70.360  38.759  40.343  1.00  0.00    -0.189 F 
HETATM   33  F5  UNL     1      72.112  37.969  39.241  1.00  0.00    -0.189 F 
ENDBRANCH  29  31
ENDBRANCH  28  29
ENDBRANCH  27  28
ENDBRANCH  24  27
ENDBRANCH   1  21
TORSDOF 10
ENDMDL
MODEL 3
REMARK VINA RESULT: -9.916833788      1.988      2.547
REMARK  10 active torsions:
REMARK  status: ('A' for Active; 'I' for Inactive)
REMARK    1  A    between atoms: N1_2  and  O1_3 
REMARK    2  A    between atoms: N1_2  and  C18_31 
REMARK    3  A    between atoms: O1_3  and  C2_4 
REMARK    4  A    between atoms: C2_4  and  C3_5 
REMARK    5  A    between atoms: C6_8  and  C7_9 
REMARK    6  A    between atoms: C8_13  and  C9_14 
REMARK    7  A    between atoms: C8_13  and  C15_24 
REMARK    8  A    between atoms: C9_14  and  O3_15 
REMARK    9  A    between atoms: O3_15  and  C10_16 
REMARK   10  A    between atoms: C10_16  and  C11_17 
ROOT
HETATM    1  C7  UNL     1      67.507  35.519  40.394  1.00  0.00     0.042 A 
HETATM    2  N2  UNL     1      66.349  35.441  40.921  1.00  0.00    -0.271 N 
ATOM      3  H2  UNL     1      65.760  36.253  41.105  1.00  0.00     0.193 HD
HETATM    4  O2  UNL     1      65.982  34.179  41.211  1.00  0.00    -0.257 OA
HETATM    5  C8  UNL     1      67.022  33.293  40.870  1.00  0.00     0.211 A 
HETATM    6  C16 UNL     1      68.074  34.156  40.275  1.00  0.00     0.109 A 
ENDROOT
BRANCH   5   7
HETATM    7  C9  UNL     1      66.580  32.092  40.134  1.00  0.00     0.218 C 
BRANCH   7   8
HETATM    8  O3  UNL     1      65.705  31.235  40.633  1.00  0.00    -0.383 OA
BRANCH   8   9
HETATM    9  C10 UNL     1      64.437  31.548  40.925  1.00  0.00     0.214 C 
BRANCH   9  10
HETATM   10  C11 UNL     1      64.026  31.010  42.286  1.00  0.00     0.009 A 
HETATM   11  C12 UNL     1      64.686  30.109  43.068  1.00  0.00     0.042 A 
HETATM   12  C13 UNL     1      64.120  29.785  44.239  1.00  0.00     0.063 A 
HETATM   13 CL1  UNL     1      64.849  28.624  45.383  1.00  0.00    -0.082 Cl
HETATM   14  C14 UNL     1      62.931  30.384  44.555  1.00  0.00     0.096 A 
HETATM   15 CL2  UNL     1      61.942  30.173  46.007  1.00  0.00    -0.074 Cl
HETATM   16  S1  UNL     1      62.644  31.385  43.190  1.00  0.00    -0.079 SA
ENDBRANCH   9  10
ENDBRANCH   8   9
ENDBRANCH   7   8
ENDBRANCH   5   7
BRANCH   5  17
HETATM   17  C15 UNL     1      67.582  32.852  42.263  1.00  0.00     0.423 C 
HETATM   18  F1  UNL     1      66.620  32.899  43.219  1.00  0.00    -0.168 F 
HETATM   19  F2  UNL     1      68.629  33.685  42.596  1.00  0.00    -0.168 F 
HETATM   20  F3  UNL     1      68.071  31.589  42.079  1.00  0.00    -0.168 F 
ENDBRANCH   5  17
BRANCH   1  21
HETATM   21  C6  UNL     1      68.171  36.772  39.972  1.00  0.00     0.168 C 
HETATM   22  C5  UNL     1      68.833  36.480  38.620  1.00  0.00     0.039 C 
HETATM   23  C4  UNL     1      69.595  37.733  38.248  1.00  0.00     0.012 C 
HETATM   24  C3  UNL     1      68.580  38.863  38.157  1.00  0.00     0.036 C 
HETATM   25  C17 UNL     1      67.742  38.969  39.412  1.00  0.00     0.175 C 
HETATM   26  O4  UNL     1      67.235  37.764  39.836  1.00  0.00    -0.380 OA
BRANCH  24  27
HETATM   27  C2  UNL     1      69.289  40.188  37.983  1.00  0.00     0.207 C 
BRANCH  27  28
HETATM   28  O1  UNL     1      70.279  40.022  37.049  1.00  0.00    -0.278 OA
BRANCH  28  29
HETATM   29  N1  UNL     1      71.328  40.835  37.173  1.00  0.00    -0.239 N 
HETATM   30  C1  UNL     1      71.521  41.751  36.092  1.00  0.00     0.184 C 
BRANCH  29  31
HETATM   31  C18 UNL     1      72.526  40.215  37.655  1.00  0.00     0.479 C 
HETATM   32  F4  UNL     1      72.620  40.177  39.028  1.00  0.00    -0.189 F 
HETATM   33  F5  UNL     1      72.569  38.898  37.219  1.00  0.00    -0.189 F 
ENDBRANCH  29  31
ENDBRANCH  28  29
ENDBRANCH  27  28
ENDBRANCH  24  27
ENDBRANCH   1  21
TORSDOF 10
ENDMDL
MODEL 4
REMARK VINA RESULT: -9.851106015      6.814     11.848
REMARK  10 active torsions:
REMARK  status: ('A' for Active; 'I' for Inactive)
REMARK    1  A    between atoms: N1_2  and  O1_3 
REMARK    2  A    between atoms: N1_2  and  C18_31 
REMARK    3  A    between atoms: O1_3  and  C2_4 
REMARK    4  A    between atoms: C2_4  and  C3_5 
REMARK    5  A    between atoms: C6_8  and  C7_9 
REMARK    6  A    between atoms: C8_13  and  C9_14 
REMARK    7  A    between atoms: C8_13  and  C15_24 
REMARK    8  A    between atoms: C9_14  and  O3_15 
REMARK    9  A    between atoms: O3_15  and  C10_16 
REMARK   10  A    between atoms: C10_16  and  C11_17 
ROOT
HETATM    1  C7  UNL     1      69.156  37.894  37.570  1.00  0.00     0.042 A 
HETATM    2  N2  UNL     1      69.529  37.813  36.354  1.00  0.00    -0.271 N 
ATOM      3  H2  UNL     1      69.172  37.113  35.703  1.00  0.00     0.193 HD
HETATM    4  O2  UNL     1      70.440  38.744  36.015  1.00  0.00    -0.257 OA
HETATM    5  C8  UNL     1      70.748  39.535  37.138  1.00  0.00     0.211 A 
HETATM    6  C16 UNL     1      69.871  39.017  38.219  1.00  0.00     0.109 A 
ENDROOT
BRANCH   5   7
HETATM    7  C9  UNL     1      70.772  40.987  36.869  1.00  0.00     0.218 C 
BRANCH   7   8
HETATM    8  O3  UNL     1      71.084  41.485  35.685  1.00  0.00    -0.383 OA
BRANCH   8   9
HETATM    9  C10 UNL     1      70.908  42.768  35.344  1.00  0.00     0.214 C 
BRANCH   9  10
HETATM   10  C11 UNL     1      72.032  43.647  35.867  1.00  0.00     0.009 A 
HETATM   11  C12 UNL     1      73.357  43.340  35.981  1.00  0.00     0.042 A 
HETATM   12  C13 UNL     1      74.164  44.288  36.476  1.00  0.00     0.063 A 
HETATM   13 CL1  UNL     1      75.922  44.053  36.690  1.00  0.00    -0.082 Cl
HETATM   14  C14 UNL     1      73.597  45.484  36.825  1.00  0.00     0.096 A 
HETATM   15 CL2  UNL     1      74.382  46.920  37.498  1.00  0.00    -0.074 Cl
HETATM   16  S1  UNL     1      71.942  45.235  36.447  1.00  0.00    -0.079 SA
ENDBRANCH   9  10
ENDBRANCH   8   9
ENDBRANCH   7   8
ENDBRANCH   5   7
BRANCH   5  17
HETATM   17  C15 UNL     1      72.194  39.069  37.514  1.00  0.00     0.423 C 
HETATM   18  F1  UNL     1      72.181  38.238  38.587  1.00  0.00    -0.168 F 
HETATM   19  F2  UNL     1      72.956  40.186  37.782  1.00  0.00    -0.168 F 
HETATM   20  F3  UNL     1      72.688  38.463  36.393  1.00  0.00    -0.168 F 
ENDBRANCH   5  17
BRANCH   1  21
HETATM   21  C6  UNL     1      68.167  37.007  38.223  1.00  0.00     0.168 C 
HETATM   22  C5  UNL     1      68.908  35.709  38.566  1.00  0.00     0.039 C 
HETATM   23  C4  UNL     1      67.866  34.772  39.137  1.00  0.00     0.012 C 
HETATM   24  C3  UNL     1      67.286  35.446  40.372  1.00  0.00     0.036 C 
HETATM   25  C17 UNL     1      66.797  36.846  40.071  1.00  0.00     0.175 C 
HETATM   26  O4  UNL     1      67.700  37.603  39.366  1.00  0.00    -0.380 OA
BRANCH  24  27
HETATM   27  C2  UNL     1      66.101  34.661  40.887  1.00  0.00     0.207 C 
BRANCH  27  28
HETATM   28  O1  UNL     1      66.429  34.151  42.117  1.00  0.00    -0.278 OA
BRANCH  28  29
HETATM   29  N1  UNL     1      66.214  32.844  42.272  1.00  0.00    -0.239 N 
HETATM   30  C1  UNL     1      65.615  32.468  43.515  1.00  0.00     0.184 C 
BRANCH  29  31
HETATM   31  C18 UNL     1      67.284  31.995  41.841  1.00  0.00     0.479 C 
HETATM   32  F4  UNL     1      67.210  31.635  40.515  1.00  0.00    -0.189 F 
HETATM   33  F5  UNL     1      68.492  32.660  42.004  1.00  0.00    -0.189 F 
ENDBRANCH  29  31
ENDBRANCH  28  29
ENDBRANCH  27  28
ENDBRANCH  24  27
ENDBRANCH   1  21
TORSDOF 10
ENDMDL
MODEL 5
REMARK VINA RESULT: -9.796362899      1.811      2.439
REMARK  10 active torsions:
REMARK  status: ('A' for Active; 'I' for Inactive)
REMARK    1  A    between atoms: N1_2  and  O1_3 
REMARK    2  A    between atoms: N1_2  and  C18_31 
REMARK    3  A    between atoms: O1_3  and  C2_4 
REMARK    4  A    between atoms: C2_4  and  C3_5 
REMARK    5  A    between atoms: C6_8  and  C7_9 
REMARK    6  A    between atoms: C8_13  and  C9_14 
REMARK    7  A    between atoms: C8_13  and  C15_24 
REMARK    8  A    between atoms: C9_14  and  O3_15 
REMARK    9  A    between atoms: O3_15  and  C10_16 
REMARK   10  A    between atoms: C10_16  and  C11_17 
ROOT
HETATM    1  C7  UNL     1      67.384  35.433  40.177  1.00  0.00     0.042 A 
HETATM    2  N2  UNL     1      66.350  35.924  40.735  1.00  0.00    -0.271 N 
ATOM      3  H2  UNL     1      66.069  36.900  40.638  1.00  0.00     0.193 HD
HETATM    4  O2  UNL     1      65.664  35.025  41.466  1.00  0.00    -0.257 OA
HETATM    5  C8  UNL     1      66.323  33.782  41.427  1.00  0.00     0.211 A 
HETATM    6  C16 UNL     1      67.487  33.998  40.531  1.00  0.00     0.109 A 
ENDROOT
BRANCH   5   7
HETATM    7  C9  UNL     1      65.433  32.629  41.180  1.00  0.00     0.218 C 
BRANCH   7   8
HETATM    8  O3  UNL     1      64.139  32.661  41.448  1.00  0.00    -0.383 OA
BRANCH   8   9
HETATM    9  C10 UNL     1      63.358  31.574  41.492  1.00  0.00     0.214 C 
BRANCH   9  10
HETATM   10  C11 UNL     1      63.484  30.847  42.821  1.00  0.00     0.009 A 
HETATM   11  C12 UNL     1      64.453  29.970  43.212  1.00  0.00     0.042 A 
HETATM   12  C13 UNL     1      64.348  29.451  44.443  1.00  0.00     0.063 A 
HETATM   13 CL1  UNL     1      65.529  28.291  45.112  1.00  0.00    -0.082 Cl
HETATM   14  C14 UNL     1      63.282  29.843  45.206  1.00  0.00     0.096 A 
HETATM   15 CL2  UNL     1      62.865  29.348  46.853  1.00  0.00    -0.074 Cl
HETATM   16  S1  UNL     1      62.458  30.930  44.165  1.00  0.00    -0.079 SA
ENDBRANCH   9  10
ENDBRANCH   8   9
ENDBRANCH   7   8
ENDBRANCH   5   7
BRANCH   5  17
HETATM   17  C15 UNL     1      66.923  33.654  42.867  1.00  0.00     0.423 C 
HETATM   18  F1  UNL     1      68.235  34.000  42.887  1.00  0.00    -0.168 F 
HETATM   19  F2  UNL     1      66.764  32.352  43.291  1.00  0.00    -0.168 F 
HETATM   20  F3  UNL     1      66.158  34.466  43.657  1.00  0.00    -0.168 F 
ENDBRANCH   5  17
BRANCH   1  21
HETATM   21  C6  UNL     1      68.328  36.181  39.316  1.00  0.00     0.168 C 
HETATM   22  C5  UNL     1      67.534  36.620  38.080  1.00  0.00     0.039 C 
HETATM   23  C4  UNL     1      68.531  37.293  37.161  1.00  0.00     0.012 C 
HETATM   24  C3  UNL     1      69.112  38.476  37.920  1.00  0.00     0.036 C 
HETATM   25  C17 UNL     1      69.658  38.065  39.270  1.00  0.00     0.175 C 
HETATM   26  O4  UNL     1      68.796  37.277  39.993  1.00  0.00    -0.380 OA
BRANCH  24  27
HETATM   27  C2  UNL     1      70.259  39.082  37.143  1.00  0.00     0.207 C 
BRANCH  27  28
HETATM   28  O1  UNL     1      70.118  40.446  37.168  1.00  0.00    -0.278 OA
BRANCH  28  29
HETATM   29  N1  UNL     1      71.253  41.141  37.095  1.00  0.00    -0.239 N 
HETATM   30  C1  UNL     1      71.381  41.980  35.944  1.00  0.00     0.184 C 
BRANCH  29  31
HETATM   31  C18 UNL     1      72.438  40.414  37.442  1.00  0.00     0.479 C 
HETATM   32  F4  UNL     1      73.386  40.387  36.445  1.00  0.00    -0.189 F 
HETATM   33  F5  UNL     1      73.037  41.010  38.542  1.00  0.00    -0.189 F 
ENDBRANCH  29  31
ENDBRANCH  28  29
ENDBRANCH  27  28
ENDBRANCH  24  27
ENDBRANCH   1  21
TORSDOF 10
ENDMDL
