MODEL 1
REMARK VINA RESULT: -6.791595205      0.000      0.000
REMARK  3 active torsions:
REMARK  status: ('A' for Active; 'I' for Inactive)
REMARK    1  A    between atoms: C2_2  and  C4_4 
REMARK    2  A    between atoms: C4_4  and  N1_5 
REMARK    3  A    between atoms: N1_5  and  C5_7 
ROOT
HETATM    1  C5  UNL     1      -3.179   3.545  13.744  1.00  0.00     0.123 C 
HETATM    2  C6  UNL     1      -3.459   4.527  14.859  1.00  0.00     0.031 C 
HETATM    3  C7  UNL     1      -4.782   5.186  14.610  1.00  0.00     0.036 C 
HETATM    4  C8  UNL     1      -5.860   4.106  14.515  1.00  0.00     0.148 C 
HETATM    5  C9  UNL     1      -6.043   3.535  15.890  1.00  0.00     0.222 C 
HETATM    6  O1  UNL     1      -5.763   2.209  16.043  1.00  0.00    -0.271 OA
HETATM    7  S1  UNL     1      -4.468   1.625  15.182  1.00  0.00     0.295 S 
HETATM    8  O2  UNL     1      -3.188   1.585  15.942  1.00  0.00    -0.196 OA
HETATM    9  O3  UNL     1      -4.791   0.209  14.774  1.00  0.00    -0.196 OA
HETATM   10  C10 UNL     1      -4.348   2.578  13.684  1.00  0.00     0.293 C 
HETATM   11  O4  UNL     1      -5.556   3.212  13.529  1.00  0.00    -0.359 OA
ENDROOT
BRANCH   1  12
HETATM   12  N1  UNL     1      -3.057   4.242  12.514  1.00  0.00    -0.410 N 
ATOM     13  H1  UNL     1      -2.940   5.255  12.474  1.00  0.00     0.154 HD
BRANCH  12  14
HETATM   14  C4  UNL     1      -3.109   3.429  11.320  1.00  0.00     0.147 C 
BRANCH  14  15
HETATM   15  C2  UNL     1      -1.749   2.784  11.217  1.00  0.00    -0.076 C 
HETATM   16  C1  UNL     1      -1.625   1.469  11.110  1.00  0.00     0.015 C 
HETATM   17  C3  UNL     1      -0.503   3.595  11.236  1.00  0.00     0.044 C 
ENDBRANCH  14  15
ENDBRANCH  12  14
ENDBRANCH   1  12
TORSDOF 3
ENDMDL
MODEL 2
REMARK VINA RESULT: -6.778480296      2.399      4.978
REMARK  3 active torsions:
REMARK  status: ('A' for Active; 'I' for Inactive)
REMARK    1  A    between atoms: C2_2  and  C4_4 
REMARK    2  A    between atoms: C4_4  and  N1_5 
REMARK    3  A    between atoms: N1_5  and  C5_7 
ROOT
HETATM    1  C5  UNL     1      -5.066   3.349  13.708  1.00  0.00     0.123 C 
HETATM    2  C6  UNL     1      -4.629   4.640  13.055  1.00  0.00     0.031 C 
HETATM    3  C7  UNL     1      -3.145   4.788  13.205  1.00  0.00     0.036 C 
HETATM    4  C8  UNL     1      -2.464   3.570  12.578  1.00  0.00     0.148 C 
HETATM    5  C9  UNL     1      -2.645   3.673  11.093  1.00  0.00     0.222 C 
HETATM    6  O1  UNL     1      -3.349   2.671  10.492  1.00  0.00    -0.271 OA
HETATM    7  S1  UNL     1      -4.645   2.071  11.341  1.00  0.00     0.295 S 
HETATM    8  O2  UNL     1      -5.955   2.680  10.981  1.00  0.00    -0.196 OA
HETATM    9  O3  UNL     1      -4.742   0.595  11.045  1.00  0.00    -0.196 OA
HETATM   10  C10 UNL     1      -4.268   2.225  13.073  1.00  0.00     0.293 C 
HETATM   11  O4  UNL     1      -2.912   2.419  13.160  1.00  0.00    -0.359 OA
ENDROOT
BRANCH   1  12
HETATM   12  N1  UNL     1      -4.806   3.407  15.102  1.00  0.00    -0.410 N 
ATOM     13  H1  UNL     1      -4.350   4.210  15.535  1.00  0.00     0.154 HD
BRANCH  12  14
HETATM   14  C4  UNL     1      -5.227   2.258  15.871  1.00  0.00     0.147 C 
BRANCH  14  15
HETATM   15  C2  UNL     1      -6.547   2.651  16.486  1.00  0.00    -0.076 C 
HETATM   16  C1  UNL     1      -7.414   1.731  16.883  1.00  0.00     0.015 C 
HETATM   17  C3  UNL     1      -6.925   4.078  16.664  1.00  0.00     0.044 C 
ENDBRANCH  14  15
ENDBRANCH  12  14
ENDBRANCH   1  12
TORSDOF 3
ENDMDL
MODEL 3
REMARK VINA RESULT: -6.662160725      2.246      4.983
REMARK  3 active torsions:
REMARK  status: ('A' for Active; 'I' for Inactive)
REMARK    1  A    between atoms: C2_2  and  C4_4 
REMARK    2  A    between atoms: C4_4  and  N1_5 
REMARK    3  A    between atoms: N1_5  and  C5_7 
ROOT
HETATM    1  C5  UNL     1      -5.702   3.521  14.686  1.00  0.00     0.123 C 
HETATM    2  C6  UNL     1      -5.214   4.832  14.110  1.00  0.00     0.031 C 
HETATM    3  C7  UNL     1      -3.939   5.223  14.793  1.00  0.00     0.036 C 
HETATM    4  C8  UNL     1      -2.917   4.100  14.607  1.00  0.00     0.148 C 
HETATM    5  C9  UNL     1      -2.515   4.097  13.162  1.00  0.00     0.222 C 
HETATM    6  O1  UNL     1      -2.794   2.966  12.453  1.00  0.00    -0.271 OA
HETATM    7  S1  UNL     1      -4.229   2.209  12.808  1.00  0.00     0.295 S 
HETATM    8  O2  UNL     1      -5.362   2.582  11.915  1.00  0.00    -0.196 OA
HETATM    9  O3  UNL     1      -4.013   0.723  12.660  1.00  0.00    -0.196 OA
HETATM   10  C10 UNL     1      -4.582   2.509  14.526  1.00  0.00     0.293 C 
HETATM   11  O4  UNL     1      -3.404   2.923  15.097  1.00  0.00    -0.359 OA
ENDROOT
BRANCH   1  12
HETATM   12  N1  UNL     1      -6.016   3.691  16.059  1.00  0.00    -0.410 N 
ATOM     13  H1  UNL     1      -5.527   4.366  16.647  1.00  0.00     0.154 HD
BRANCH  12  14
HETATM   14  C4  UNL     1      -7.072   2.850  16.573  1.00  0.00     0.147 C 
BRANCH  14  15
HETATM   15  C2  UNL     1      -6.459   2.102  17.731  1.00  0.00    -0.076 C 
HETATM   16  C1  UNL     1      -6.378   2.653  18.932  1.00  0.00     0.015 C 
HETATM   17  C3  UNL     1      -5.923   0.725  17.566  1.00  0.00     0.044 C 
ENDBRANCH  14  15
ENDBRANCH  12  14
ENDBRANCH   1  12
TORSDOF 3
ENDMDL
MODEL 4
REMARK VINA RESULT: -6.585359010      2.389      5.006
REMARK  3 active torsions:
REMARK  status: ('A' for Active; 'I' for Inactive)
REMARK    1  A    between atoms: C2_2  and  C4_4 
REMARK    2  A    between atoms: C4_4  and  N1_5 
REMARK    3  A    between atoms: N1_5  and  C5_7 
ROOT
HETATM    1  C5  UNL     1      -5.256   3.332  14.322  1.00  0.00     0.123 C 
HETATM    2  C6  UNL     1      -5.039   4.747  13.836  1.00  0.00     0.031 C 
HETATM    3  C7  UNL     1      -3.634   5.164  14.155  1.00  0.00     0.036 C 
HETATM    4  C8  UNL     1      -2.667   4.179  13.498  1.00  0.00     0.148 C 
HETATM    5  C9  UNL     1      -2.737   4.405  12.017  1.00  0.00     0.222 C 
HETATM    6  O1  UNL     1      -3.167   3.356  11.258  1.00  0.00    -0.271 OA
HETATM    7  S1  UNL     1      -4.380   2.426  11.908  1.00  0.00     0.295 S 
HETATM    8  O2  UNL     1      -5.752   2.803  11.467  1.00  0.00    -0.196 OA
HETATM    9  O3  UNL     1      -4.146   1.000  11.472  1.00  0.00    -0.196 OA
HETATM   10  C10 UNL     1      -4.193   2.461  13.677  1.00  0.00     0.293 C 
HETATM   11  O4  UNL     1      -2.918   2.906  13.924  1.00  0.00    -0.359 OA
ENDROOT
BRANCH   1  12
HETATM   12  N1  UNL     1      -5.134   3.288  15.735  1.00  0.00    -0.410 N 
ATOM     13  H1  UNL     1      -5.030   4.133  16.296  1.00  0.00     0.154 HD
BRANCH  12  14
HETATM   14  C4  UNL     1      -5.164   1.972  16.330  1.00  0.00     0.147 C 
BRANCH  14  15
HETATM   15  C2  UNL     1      -6.350   1.982  17.262  1.00  0.00    -0.076 C 
HETATM   16  C1  UNL     1      -7.578   1.789  16.805  1.00  0.00     0.015 C 
HETATM   17  C3  UNL     1      -6.186   2.213  18.722  1.00  0.00     0.044 C 
ENDBRANCH  14  15
ENDBRANCH  12  14
ENDBRANCH   1  12
TORSDOF 3
ENDMDL
MODEL 5
REMARK VINA RESULT: -6.572354195      2.720      5.028
REMARK  3 active torsions:
REMARK  status: ('A' for Active; 'I' for Inactive)
REMARK    1  A    between atoms: C2_2  and  C4_4 
REMARK    2  A    between atoms: C4_4  and  N1_5 
REMARK    3  A    between atoms: N1_5  and  C5_7 
ROOT
HETATM    1  C5  UNL     1      -4.920   2.851  14.572  1.00  0.00     0.123 C 
HETATM    2  C6  UNL     1      -5.352   4.294  14.439  1.00  0.00     0.031 C 
HETATM    3  C7  UNL     1      -4.189   5.185  14.755  1.00  0.00     0.036 C 
HETATM    4  C8  UNL     1      -3.036   4.844  13.810  1.00  0.00     0.148 C 
HETATM    5  C9  UNL     1      -3.429   5.309  12.439  1.00  0.00     0.222 C 
HETATM    6  O1  UNL     1      -3.536   4.350  11.475  1.00  0.00    -0.271 OA
HETATM    7  S1  UNL     1      -4.168   2.891  11.955  1.00  0.00     0.295 S 
HETATM    8  O2  UNL     1      -5.630   2.742  11.716  1.00  0.00    -0.196 OA
HETATM    9  O3  UNL     1      -3.473   1.809  11.165  1.00  0.00    -0.196 OA
HETATM   10  C10 UNL     1      -3.722   2.649  13.661  1.00  0.00     0.293 C 
HETATM   11  O4  UNL     1      -2.699   3.525  13.922  1.00  0.00    -0.359 OA
ENDROOT
BRANCH   1  12
HETATM   12  N1  UNL     1      -4.561   2.582  15.918  1.00  0.00    -0.410 N 
ATOM     13  H1  UNL     1      -3.959   3.209  16.453  1.00  0.00     0.154 HD
BRANCH  12  14
HETATM   14  C4  UNL     1      -5.100   1.367  16.484  1.00  0.00     0.147 C 
BRANCH  14  15
HETATM   15  C2  UNL     1      -6.287   1.802  17.307  1.00  0.00    -0.076 C 
HETATM   16  C1  UNL     1      -6.140   2.187  18.566  1.00  0.00     0.015 C 
HETATM   17  C3  UNL     1      -7.661   1.812  16.739  1.00  0.00     0.044 C 
ENDBRANCH  14  15
ENDBRANCH  12  14
ENDBRANCH   1  12
TORSDOF 3
ENDMDL
