MODEL 1
REMARK VINA RESULT: -7.423474503      0.000      0.000
REMARK  3 active torsions:
REMARK  status: ('A' for Active; 'I' for Inactive)
REMARK    1  A    between atoms: N1_2  and  O1_3 
REMARK    2  A    between atoms: N1_2  and  C2_5 
REMARK    3  A    between atoms: C3_6  and  C4_7 
ROOT
HETATM    1  C2  UNL     1      -4.764   2.719  15.483  1.00  0.00     0.122 C 
HETATM    2  C3  UNL     1      -6.201   3.038  15.652  1.00  0.00     0.072 C 
HETATM    3  C5  UNL     1      -6.296   4.456  16.145  1.00  0.00     0.014 C 
HETATM    4  C6  UNL     1      -6.228   5.539  15.170  1.00  0.00     0.006 C 
HETATM    5  C7  UNL     1      -5.317   5.464  14.033  1.00  0.00    -0.006 C 
HETATM    6  C8  UNL     1      -5.084   4.129  13.411  1.00  0.00     0.012 C 
HETATM    7  C9  UNL     1      -4.122   3.490  14.344  1.00  0.00     0.012 C 
HETATM    8  C10 UNL     1      -3.277   4.658  14.850  1.00  0.00     0.015 C 
HETATM    9  C11 UNL     1      -3.887   5.908  14.292  1.00  0.00    -0.044 C 
HETATM   10  C12 UNL     1      -3.295   6.234  12.914  1.00  0.00     0.015 C 
HETATM   11  C13 UNL     1      -3.769   7.096  15.164  1.00  0.00     0.015 C 
ENDROOT
BRANCH   1  12
HETATM   12  N1  UNL     1      -4.367   1.377  15.362  1.00  0.00    -0.295 N 
HETATM   13  C1  UNL     1      -4.373   0.727  14.115  1.00  0.00     0.178 C 
BRANCH  12  14
HETATM   14  O1  UNL     1      -3.312   1.063  16.146  1.00  0.00    -0.292 OA
ATOM     15  H1  UNL     1      -2.923   1.805  16.592  1.00  0.00     0.244 HD
ENDBRANCH  12  14
ENDBRANCH   1  12
BRANCH   2  16
HETATM   16  C4  UNL     1      -6.795   2.194  16.712  1.00  0.00     0.237 C 
HETATM   17  O2  UNL     1      -7.369   1.118  16.489  1.00  0.00    -0.306 OA
ENDBRANCH   2  16
TORSDOF 3
ENDMDL
MODEL 2
REMARK VINA RESULT: -6.785330165      2.665      4.274
REMARK  3 active torsions:
REMARK  status: ('A' for Active; 'I' for Inactive)
REMARK    1  A    between atoms: N1_2  and  O1_3 
REMARK    2  A    between atoms: N1_2  and  C2_5 
REMARK    3  A    between atoms: C3_6  and  C4_7 
ROOT
HETATM    1  C2  UNL     1      -4.409   2.951  12.449  1.00  0.00     0.122 C 
HETATM    2  C3  UNL     1      -3.012   3.378  12.691  1.00  0.00     0.072 C 
HETATM    3  C5  UNL     1      -3.055   4.756  13.292  1.00  0.00     0.014 C 
HETATM    4  C6  UNL     1      -3.284   4.884  14.727  1.00  0.00     0.006 C 
HETATM    5  C7  UNL     1      -4.227   4.007  15.414  1.00  0.00    -0.006 C 
HETATM    6  C8  UNL     1      -4.334   2.595  14.948  1.00  0.00     0.012 C 
HETATM    7  C9  UNL     1      -5.180   2.708  13.733  1.00  0.00     0.012 C 
HETATM    8  C10 UNL     1      -6.129   3.861  14.057  1.00  0.00     0.015 C 
HETATM    9  C11 UNL     1      -5.686   4.431  15.371  1.00  0.00    -0.044 C 
HETATM   10  C12 UNL     1      -6.365   3.703  16.537  1.00  0.00     0.015 C 
HETATM   11  C13 UNL     1      -5.900   5.887  15.517  1.00  0.00     0.015 C 
ENDROOT
BRANCH   1  12
HETATM   12  N1  UNL     1      -4.659   1.864  11.594  1.00  0.00    -0.295 N 
HETATM   13  C1  UNL     1      -4.368   0.547  11.990  1.00  0.00     0.178 C 
BRANCH  12  14
HETATM   14  O1  UNL     1      -5.808   1.993  10.894  1.00  0.00    -0.292 OA
ATOM     15  H1  UNL     1      -5.800   2.698  10.258  1.00  0.00     0.244 HD
ENDBRANCH  12  14
ENDBRANCH   1  12
BRANCH   2  16
HETATM   16  C4  UNL     1      -2.284   3.511  11.410  1.00  0.00     0.237 C 
HETATM   17  O2  UNL     1      -1.359   2.761  11.066  1.00  0.00    -0.306 OA
ENDBRANCH   2  16
TORSDOF 3
ENDMDL
MODEL 3
REMARK VINA RESULT: -6.377977173      2.754      4.199
REMARK  3 active torsions:
REMARK  status: ('A' for Active; 'I' for Inactive)
REMARK    1  A    between atoms: N1_2  and  O1_3 
REMARK    2  A    between atoms: N1_2  and  C2_5 
REMARK    3  A    between atoms: C3_6  and  C4_7 
ROOT
HETATM    1  C2  UNL     1      -4.861   3.021  12.672  1.00  0.00     0.122 C 
HETATM    2  C3  UNL     1      -3.920   4.162  12.586  1.00  0.00     0.072 C 
HETATM    3  C5  UNL     1      -4.487   5.282  13.414  1.00  0.00     0.014 C 
HETATM    4  C6  UNL     1      -4.254   5.271  14.854  1.00  0.00     0.006 C 
HETATM    5  C7  UNL     1      -4.292   4.022  15.607  1.00  0.00    -0.006 C 
HETATM    6  C8  UNL     1      -3.779   2.790  14.943  1.00  0.00     0.012 C 
HETATM    7  C9  UNL     1      -4.902   2.398  14.054  1.00  0.00     0.012 C 
HETATM    8  C10 UNL     1      -6.147   2.820  14.835  1.00  0.00     0.015 C 
HETATM    9  C11 UNL     1      -5.667   3.552  16.052  1.00  0.00    -0.044 C 
HETATM   10  C12 UNL     1      -5.419   2.577  17.210  1.00  0.00     0.015 C 
HETATM   11  C13 UNL     1      -6.560   4.636  16.513  1.00  0.00     0.015 C 
ENDROOT
BRANCH   1  12
HETATM   12  N1  UNL     1      -4.761   1.975  11.739  1.00  0.00    -0.295 N 
HETATM   13  C1  UNL     1      -4.277   0.710  12.116  1.00  0.00     0.178 C 
BRANCH  12  14
HETATM   14  O1  UNL     1      -5.797   1.937  10.872  1.00  0.00    -0.292 OA
ATOM     15  H1  UNL     1      -5.701   1.296  10.178  1.00  0.00     0.244 HD
ENDBRANCH  12  14
ENDBRANCH   1  12
BRANCH   2  16
HETATM   16  C4  UNL     1      -3.852   4.671  11.198  1.00  0.00     0.237 C 
HETATM   17  O2  UNL     1      -4.849   4.851  10.485  1.00  0.00    -0.306 OA
ENDBRANCH   2  16
TORSDOF 3
ENDMDL
MODEL 4
REMARK VINA RESULT: -6.328946583      1.532      2.830
REMARK  3 active torsions:
REMARK  status: ('A' for Active; 'I' for Inactive)
REMARK    1  A    between atoms: N1_2  and  O1_3 
REMARK    2  A    between atoms: N1_2  and  C2_5 
REMARK    3  A    between atoms: C3_6  and  C4_7 
ROOT
HETATM    1  C2  UNL     1      -4.446   2.789  14.893  1.00  0.00     0.122 C 
HETATM    2  C3  UNL     1      -3.811   2.230  13.678  1.00  0.00     0.072 C 
HETATM    3  C5  UNL     1      -4.274   3.049  12.504  1.00  0.00     0.014 C 
HETATM    4  C6  UNL     1      -3.588   4.305  12.218  1.00  0.00     0.006 C 
HETATM    5  C7  UNL     1      -3.149   5.180  13.299  1.00  0.00    -0.006 C 
HETATM    6  C8  UNL     1      -2.663   4.546  14.557  1.00  0.00     0.012 C 
HETATM    7  C9  UNL     1      -3.921   4.167  15.249  1.00  0.00     0.012 C 
HETATM    8  C10 UNL     1      -4.900   5.272  14.851  1.00  0.00     0.015 C 
HETATM    9  C11 UNL     1      -4.194   6.137  13.850  1.00  0.00    -0.044 C 
HETATM   10  C12 UNL     1      -3.408   7.252  14.553  1.00  0.00     0.015 C 
HETATM   11  C13 UNL     1      -5.072   6.735  12.822  1.00  0.00     0.015 C 
ENDROOT
BRANCH   1  12
HETATM   12  N1  UNL     1      -4.465   2.027  16.073  1.00  0.00    -0.295 N 
HETATM   13  C1  UNL     1      -5.629   1.354  16.485  1.00  0.00     0.178 C 
BRANCH  12  14
HETATM   14  O1  UNL     1      -3.323   1.334  16.276  1.00  0.00    -0.292 OA
ATOM     15  H1  UNL     1      -2.596   1.862  16.584  1.00  0.00     0.244 HD
ENDBRANCH  12  14
ENDBRANCH   1  12
BRANCH   2  16
HETATM   16  C4  UNL     1      -4.292   0.852  13.432  1.00  0.00     0.237 C 
HETATM   17  O2  UNL     1      -4.669   0.446  12.323  1.00  0.00    -0.306 OA
ENDBRANCH   2  16
TORSDOF 3
ENDMDL
MODEL 5
REMARK VINA RESULT: -6.284860601      1.432      3.010
REMARK  3 active torsions:
REMARK  status: ('A' for Active; 'I' for Inactive)
REMARK    1  A    between atoms: N1_2  and  O1_3 
REMARK    2  A    between atoms: N1_2  and  C2_5 
REMARK    3  A    between atoms: C3_6  and  C4_7 
ROOT
HETATM    1  C2  UNL     1      -5.083   2.299  15.209  1.00  0.00     0.122 C 
HETATM    2  C3  UNL     1      -4.046   1.695  14.340  1.00  0.00     0.072 C 
HETATM    3  C5  UNL     1      -4.068   2.430  13.027  1.00  0.00     0.014 C 
HETATM    4  C6  UNL     1      -3.342   3.691  12.923  1.00  0.00     0.006 C 
HETATM    5  C7  UNL     1      -3.332   4.641  14.030  1.00  0.00    -0.006 C 
HETATM    6  C8  UNL     1      -3.321   4.097  15.417  1.00  0.00     0.012 C 
HETATM    7  C9  UNL     1      -4.739   3.714  15.636  1.00  0.00     0.012 C 
HETATM    8  C10 UNL     1      -5.524   4.757  14.843  1.00  0.00     0.015 C 
HETATM    9  C11 UNL     1      -4.518   5.589  14.107  1.00  0.00    -0.044 C 
HETATM   10  C12 UNL     1      -4.052   6.770  14.969  1.00  0.00     0.015 C 
HETATM   11  C13 UNL     1      -4.976   6.096  12.796  1.00  0.00     0.015 C 
ENDROOT
BRANCH   1  12
HETATM   12  N1  UNL     1      -5.514   1.605  16.351  1.00  0.00    -0.295 N 
HETATM   13  C1  UNL     1      -5.504   2.214  17.618  1.00  0.00     0.178 C 
BRANCH  12  14
HETATM   14  O1  UNL     1      -6.590   0.820  16.122  1.00  0.00    -0.292 OA
ATOM     15  H1  UNL     1      -6.931   0.876  15.237  1.00  0.00     0.244 HD
ENDBRANCH  12  14
ENDBRANCH   1  12
BRANCH   2  16
HETATM   16  C4  UNL     1      -4.389   0.290  14.029  1.00  0.00     0.237 C 
HETATM   17  O2  UNL     1      -4.528  -0.143  12.877  1.00  0.00    -0.306 OA
ENDBRANCH   2  16
TORSDOF 3
ENDMDL
