MODEL 1
REMARK VINA RESULT: -6.653444612      0.000      0.000
REMARK  3 active torsions:
REMARK  status: ('A' for Active; 'I' for Inactive)
REMARK    1  A    between atoms: C2_2  and  S1_4 
REMARK    2  A    between atoms: C2_2  and  C5_8 
REMARK    3  A    between atoms: S1_4  and  C4_5 
REMARK       I    between atoms: C5_8  and  N2_10 
ROOT
HETATM    1  C1  UNL     1      -3.449   3.738  15.331  1.00  0.00     0.037 C 
HETATM    2  C2  UNL     1      -4.748   3.077  15.022  1.00  0.00     0.090 C 
HETATM    3  C3  UNL     1      -5.839   3.859  15.754  1.00  0.00     0.037 C 
ENDROOT
BRANCH   2   4
HETATM    4  S1  UNL     1      -4.713   1.405  15.710  1.00  0.00    -0.053 SA
BRANCH   4   5
HETATM    5  C4  UNL     1      -6.017   1.197  16.908  1.00  0.00     0.294 C 
HETATM    6  N1  UNL     1      -5.702   1.377  18.285  1.00  0.00    -0.051 NA
HETATM    7  O1  UNL     1      -7.202   0.899  16.609  1.00  0.00    -0.264 OA
ENDBRANCH   4   5
ENDBRANCH   2   4
BRANCH   2   8
HETATM    8  C5  UNL     1      -5.133   3.028  13.621  1.00  0.00     0.238 C 
HETATM    9  O2  UNL     1      -5.914   3.945  13.248  1.00  0.00    -0.272 OA
HETATM   10  N2  UNL     1      -4.703   2.048  12.679  1.00  0.00    -0.351 N 
HETATM   11  C6  UNL     1      -3.834   0.922  12.851  1.00  0.00     0.126 C 
HETATM   12  C9  UNL     1      -5.127   2.062  11.291  1.00  0.00     0.126 C 
HETATM   13  C7  UNL     1      -4.150  -0.011  11.686  1.00  0.00     0.021 C 
HETATM   14  C8  UNL     1      -4.393   0.982  10.580  1.00  0.00     0.021 C 
ENDBRANCH   2   8
TORSDOF 3
ENDMDL
MODEL 2
REMARK VINA RESULT: -6.605705644      2.342      4.791
REMARK  3 active torsions:
REMARK  status: ('A' for Active; 'I' for Inactive)
REMARK    1  A    between atoms: C2_2  and  S1_4 
REMARK    2  A    between atoms: C2_2  and  C5_8 
REMARK    3  A    between atoms: S1_4  and  C4_5 
REMARK       I    between atoms: C5_8  and  N2_10 
ROOT
HETATM    1  C1  UNL     1      -4.953   5.233  15.043  1.00  0.00     0.037 C 
HETATM    2  C2  UNL     1      -4.154   4.007  14.760  1.00  0.00     0.090 C 
HETATM    3  C3  UNL     1      -2.695   4.440  14.622  1.00  0.00     0.037 C 
ENDROOT
BRANCH   2   4
HETATM    4  S1  UNL     1      -4.683   3.340  13.164  1.00  0.00    -0.053 SA
BRANCH   4   5
HETATM    5  C4  UNL     1      -3.807   1.831  12.799  1.00  0.00     0.294 C 
HETATM    6  N1  UNL     1      -4.431   0.593  13.124  1.00  0.00    -0.051 NA
HETATM    7  O1  UNL     1      -2.666   1.794  12.271  1.00  0.00    -0.264 OA
ENDBRANCH   4   5
ENDBRANCH   2   4
BRANCH   2   8
HETATM    8  C5  UNL     1      -4.190   2.962  15.770  1.00  0.00     0.238 C 
HETATM    9  O2  UNL     1      -3.072   2.452  16.053  1.00  0.00    -0.272 OA
HETATM   10  N2  UNL     1      -5.361   2.495  16.435  1.00  0.00    -0.351 N 
HETATM   11  C6  UNL     1      -6.727   2.904  16.294  1.00  0.00     0.126 C 
HETATM   12  C9  UNL     1      -5.323   1.447  17.438  1.00  0.00     0.126 C 
HETATM   13  C7  UNL     1      -7.552   1.746  16.848  1.00  0.00     0.021 C 
HETATM   14  C8  UNL     1      -6.691   1.307  18.003  1.00  0.00     0.021 C 
ENDBRANCH   2   8
TORSDOF 3
ENDMDL
MODEL 3
REMARK VINA RESULT: -6.561075487      1.862      2.080
REMARK  3 active torsions:
REMARK  status: ('A' for Active; 'I' for Inactive)
REMARK    1  A    between atoms: C2_2  and  S1_4 
REMARK    2  A    between atoms: C2_2  and  C5_8 
REMARK    3  A    between atoms: S1_4  and  C4_5 
REMARK       I    between atoms: C5_8  and  N2_10 
ROOT
HETATM    1  C1  UNL     1      -3.296   3.287  15.060  1.00  0.00     0.037 C 
HETATM    2  C2  UNL     1      -4.522   2.440  15.062  1.00  0.00     0.090 C 
HETATM    3  C3  UNL     1      -5.641   3.263  14.424  1.00  0.00     0.037 C 
ENDROOT
BRANCH   2   4
HETATM    4  S1  UNL     1      -4.987   2.118  16.780  1.00  0.00    -0.053 SA
BRANCH   4   5
HETATM    5  C4  UNL     1      -6.710   2.498  17.041  1.00  0.00     0.294 C 
HETATM    6  N1  UNL     1      -7.657   1.441  16.930  1.00  0.00    -0.051 NA
HETATM    7  O1  UNL     1      -7.140   3.647  17.316  1.00  0.00    -0.264 OA
ENDBRANCH   4   5
ENDBRANCH   2   4
BRANCH   2   8
HETATM    8  C5  UNL     1      -4.447   1.189  14.326  1.00  0.00     0.238 C 
HETATM    9  O2  UNL     1      -4.838   0.171  14.960  1.00  0.00    -0.272 OA
HETATM   10  N2  UNL     1      -3.979   1.044  12.988  1.00  0.00    -0.351 N 
HETATM   11  C6  UNL     1      -3.488   2.029  12.070  1.00  0.00     0.126 C 
HETATM   12  C9  UNL     1      -3.934  -0.240  12.313  1.00  0.00     0.126 C 
HETATM   13  C7  UNL     1      -2.684   1.248  11.035  1.00  0.00     0.021 C 
HETATM   14  C8  UNL     1      -3.517   0.001  10.905  1.00  0.00     0.021 C 
ENDBRANCH   2   8
TORSDOF 3
ENDMDL
MODEL 4
REMARK VINA RESULT: -6.504303544      1.391      1.403
REMARK  3 active torsions:
REMARK  status: ('A' for Active; 'I' for Inactive)
REMARK    1  A    between atoms: C2_2  and  S1_4 
REMARK    2  A    between atoms: C2_2  and  C5_8 
REMARK    3  A    between atoms: S1_4  and  C4_5 
REMARK       I    between atoms: C5_8  and  N2_10 
ROOT
HETATM    1  C1  UNL     1      -3.193   4.717  14.438  1.00  0.00     0.037 C 
HETATM    2  C2  UNL     1      -4.407   3.890  14.691  1.00  0.00     0.090 C 
HETATM    3  C3  UNL     1      -5.434   4.791  15.376  1.00  0.00     0.037 C 
ENDROOT
BRANCH   2   4
HETATM    4  S1  UNL     1      -3.965   2.576  15.853  1.00  0.00    -0.053 SA
BRANCH   4   5
HETATM    5  C4  UNL     1      -5.101   1.210  15.708  1.00  0.00     0.294 C 
HETATM    6  N1  UNL     1      -4.666   0.042  15.020  1.00  0.00    -0.051 NA
HETATM    7  O1  UNL     1      -6.268   1.215  16.178  1.00  0.00    -0.264 OA
ENDBRANCH   4   5
ENDBRANCH   2   4
BRANCH   2   8
HETATM    8  C5  UNL     1      -5.058   3.320  13.524  1.00  0.00     0.238 C 
HETATM    9  O2  UNL     1      -6.284   3.591  13.408  1.00  0.00    -0.272 OA
HETATM   10  N2  UNL     1      -4.426   2.506  12.539  1.00  0.00    -0.351 N 
HETATM   11  C6  UNL     1      -3.068   2.060  12.444  1.00  0.00     0.126 C 
HETATM   12  C9  UNL     1      -5.139   1.971  11.394  1.00  0.00     0.126 C 
HETATM   13  C7  UNL     1      -3.106   0.850  11.515  1.00  0.00     0.021 C 
HETATM   14  C8  UNL     1      -4.150   1.284  10.522  1.00  0.00     0.021 C 
ENDBRANCH   2   8
TORSDOF 3
ENDMDL
MODEL 5
REMARK VINA RESULT: -6.339972933      2.279      2.473
REMARK  3 active torsions:
REMARK  status: ('A' for Active; 'I' for Inactive)
REMARK    1  A    between atoms: C2_2  and  S1_4 
REMARK    2  A    between atoms: C2_2  and  C5_8 
REMARK    3  A    between atoms: S1_4  and  C4_5 
REMARK       I    between atoms: C5_8  and  N2_10 
ROOT
HETATM    1  C1  UNL     1      -3.550   4.915  14.967  1.00  0.00     0.037 C 
HETATM    2  C2  UNL     1      -4.146   4.032  13.924  1.00  0.00     0.090 C 
HETATM    3  C3  UNL     1      -5.036   4.908  13.044  1.00  0.00     0.037 C 
ENDROOT
BRANCH   2   4
HETATM    4  S1  UNL     1      -5.206   2.819  14.745  1.00  0.00    -0.053 SA
BRANCH   4   5
HETATM    5  C4  UNL     1      -4.226   1.491  15.421  1.00  0.00     0.294 C 
HETATM    6  N1  UNL     1      -4.647   0.153  15.181  1.00  0.00    -0.051 NA
HETATM    7  O1  UNL     1      -3.183   1.667  16.101  1.00  0.00    -0.264 OA
ENDBRANCH   4   5
ENDBRANCH   2   4
BRANCH   2   8
HETATM    8  C5  UNL     1      -3.213   3.355  13.039  1.00  0.00     0.238 C 
HETATM    9  O2  UNL     1      -2.020   3.758  13.108  1.00  0.00    -0.272 OA
HETATM   10  N2  UNL     1      -3.546   2.306  12.132  1.00  0.00    -0.351 N 
HETATM   11  C6  UNL     1      -4.807   1.681  11.868  1.00  0.00     0.126 C 
HETATM   12  C9  UNL     1      -2.560   1.673  11.277  1.00  0.00     0.126 C 
HETATM   13  C7  UNL     1      -4.654   1.028  10.497  1.00  0.00     0.021 C 
HETATM   14  C8  UNL     1      -3.228   0.550  10.566  1.00  0.00     0.021 C 
ENDBRANCH   2   8
TORSDOF 3
ENDMDL
