MODEL 1
REMARK VINA RESULT: -7.572461901      0.000      0.000
REMARK  5 active torsions:
REMARK  status: ('A' for Active; 'I' for Inactive)
REMARK    1  A    between atoms: C3_5  and  C4_6 
REMARK    2  A    between atoms: C4_6  and  N2_7 
REMARK    3  A    between atoms: N4_14  and  C9_15 
REMARK    4  A    between atoms: C9_15  and  C10_16 
REMARK    5  A    between atoms: C15_21  and  O1_22 
ROOT
HETATM    1  C1  UNL     1      17.064  -0.674  11.649  1.00  0.00     0.091 C 
HETATM    2  C2  UNL     1      17.152   0.330  12.746  1.00  0.00     0.095 A 
HETATM    3  N1  UNL     1      16.710   0.136  13.999  1.00  0.00    -0.332 N 
ATOM      4  H1  UNL     1      16.271  -0.719  14.339  1.00  0.00     0.168 HD
HETATM    5  C3  UNL     1      16.932   1.232  14.734  1.00  0.00     0.126 A 
HETATM    6  N3  UNL     1      17.521   2.112  13.910  1.00  0.00    -0.284 N 
ATOM      7  H3  UNL     1      17.818   3.053  14.169  1.00  0.00     0.188 HD
HETATM    8  N4  UNL     1      17.656   1.573  12.710  1.00  0.00    -0.279 N 
ENDROOT
BRANCH   8   9
HETATM    9  C9  UNL     1      18.249   2.238  11.602  1.00  0.00     0.157 C 
BRANCH   9  10
HETATM   10  C10 UNL     1      18.090   3.719  11.558  1.00  0.00     0.034 C 
HETATM   11  C11 UNL     1      19.349   4.513  11.587  1.00  0.00     0.009 C 
HETATM   12  C12 UNL     1      18.984   5.975  11.419  1.00  0.00     0.001 C 
HETATM   13  C13 UNL     1      17.511   6.228  11.584  1.00  0.00     0.002 C 
HETATM   14  C14 UNL     1      16.672   5.455  10.596  1.00  0.00     0.032 C 
HETATM   15  C15 UNL     1      17.319   4.141  10.307  1.00  0.00     0.123 C 
BRANCH  15  16
HETATM   16  O1  UNL     1      16.363   3.133  10.096  1.00  0.00    -0.395 OA
ATOM     17  H1  UNL     1      16.146   3.178   9.173  1.00  0.00     0.210 HD
ENDBRANCH  15  16
ENDBRANCH   9  10
ENDBRANCH   8   9
BRANCH   5  18
HETATM   18  C4  UNL     1      16.613   1.460  16.141  1.00  0.00     0.349 C 
BRANCH  18  19
HETATM   19  N2  UNL     1      15.308   0.969  16.528  1.00  0.00     0.095 N 
HETATM   20  C5  UNL     1      14.364   2.059  16.243  1.00  0.00     0.273 C 
HETATM   21  C6  UNL     1      14.610   3.082  17.336  1.00  0.00     0.032 C 
HETATM   22  C7  UNL     1      15.122   2.266  18.499  1.00  0.00     0.032 C 
HETATM   23  C8  UNL     1      15.165   0.854  17.963  1.00  0.00     0.273 C 
ENDBRANCH  18  19
ENDBRANCH   5  18
TORSDOF 5
ENDMDL
MODEL 2
REMARK VINA RESULT: -7.572027967      2.407      6.141
REMARK  5 active torsions:
REMARK  status: ('A' for Active; 'I' for Inactive)
REMARK    1  A    between atoms: C3_5  and  C4_6 
REMARK    2  A    between atoms: C4_6  and  N2_7 
REMARK    3  A    between atoms: N4_14  and  C9_15 
REMARK    4  A    between atoms: C9_15  and  C10_16 
REMARK    5  A    between atoms: C15_21  and  O1_22 
ROOT
HETATM    1  C1  UNL     1      16.418   5.792  13.489  1.00  0.00     0.091 C 
HETATM    2  C2  UNL     1      17.054   4.461  13.292  1.00  0.00     0.095 A 
HETATM    3  N1  UNL     1      17.329   3.912  12.099  1.00  0.00    -0.332 N 
ATOM      4  H1  UNL     1      17.137   4.346  11.196  1.00  0.00     0.168 HD
HETATM    5  C3  UNL     1      17.893   2.710  12.269  1.00  0.00     0.126 A 
HETATM    6  N3  UNL     1      17.961   2.523  13.596  1.00  0.00    -0.284 N 
ATOM      7  H3  UNL     1      18.343   1.696  14.055  1.00  0.00     0.188 HD
HETATM    8  N4  UNL     1      17.457   3.576  14.218  1.00  0.00    -0.279 N 
ENDROOT
BRANCH   8   9
HETATM    9  C9  UNL     1      17.385   3.705  15.632  1.00  0.00     0.157 C 
BRANCH   9  10
HETATM   10  C10 UNL     1      16.255   3.000  16.302  1.00  0.00     0.034 C 
HETATM   11  C11 UNL     1      14.894   3.303  15.781  1.00  0.00     0.009 C 
HETATM   12  C12 UNL     1      13.906   2.411  16.507  1.00  0.00     0.001 C 
HETATM   13  C13 UNL     1      14.507   1.737  17.709  1.00  0.00     0.002 C 
HETATM   14  C14 UNL     1      15.696   0.875  17.361  1.00  0.00     0.032 C 
HETATM   15  C15 UNL     1      16.442   1.484  16.221  1.00  0.00     0.123 C 
BRANCH  15  16
HETATM   16  O1  UNL     1      17.825   1.268  16.339  1.00  0.00    -0.395 OA
ATOM     17  H1  UNL     1      18.173   1.368  15.461  1.00  0.00     0.210 HD
ENDBRANCH  15  16
ENDBRANCH   9  10
ENDBRANCH   8   9
BRANCH   5  18
HETATM   18  C4  UNL     1      18.348   1.769  11.249  1.00  0.00     0.349 C 
BRANCH  18  19
HETATM   19  N2  UNL     1      17.272   1.103  10.549  1.00  0.00     0.095 N 
HETATM   20  C5  UNL     1      16.357   0.608  11.589  1.00  0.00     0.273 C 
HETATM   21  C6  UNL     1      17.071  -0.585  12.197  1.00  0.00     0.032 C 
HETATM   22  C7  UNL     1      17.946  -1.102  11.081  1.00  0.00     0.032 C 
HETATM   23  C8  UNL     1      17.693  -0.140   9.943  1.00  0.00     0.273 C 
ENDBRANCH  18  19
ENDBRANCH   5  18
TORSDOF 5
ENDMDL
MODEL 3
REMARK VINA RESULT: -7.564348958      2.497      6.010
REMARK  5 active torsions:
REMARK  status: ('A' for Active; 'I' for Inactive)
REMARK    1  A    between atoms: C3_5  and  C4_6 
REMARK    2  A    between atoms: C4_6  and  N2_7 
REMARK    3  A    between atoms: N4_14  and  C9_15 
REMARK    4  A    between atoms: C9_15  and  C10_16 
REMARK    5  A    between atoms: C15_21  and  O1_22 
ROOT
HETATM    1  C1  UNL     1      16.483   0.992  11.849  1.00  0.00     0.091 C 
HETATM    2  C2  UNL     1      17.166   2.020  12.681  1.00  0.00     0.095 A 
HETATM    3  N1  UNL     1      17.924   3.017  12.197  1.00  0.00    -0.332 N 
ATOM      4  H1  UNL     1      18.113   3.183  11.209  1.00  0.00     0.168 HD
HETATM    5  C3  UNL     1      18.395   3.761  13.205  1.00  0.00     0.126 A 
HETATM    6  N3  UNL     1      17.914   3.203  14.327  1.00  0.00    -0.284 N 
ATOM      7  H3  UNL     1      18.094   3.537  15.274  1.00  0.00     0.188 HD
HETATM    8  N4  UNL     1      17.172   2.154  14.016  1.00  0.00    -0.279 N 
ENDROOT
BRANCH   8   9
HETATM    9  C9  UNL     1      16.507   1.340  14.973  1.00  0.00     0.157 C 
BRANCH   9  10
HETATM   10  C10 UNL     1      15.802   2.056  16.075  1.00  0.00     0.034 C 
HETATM   11  C11 UNL     1      15.046   3.277  15.682  1.00  0.00     0.009 C 
HETATM   12  C12 UNL     1      14.315   3.788  16.908  1.00  0.00     0.001 C 
HETATM   13  C13 UNL     1      14.789   3.141  18.179  1.00  0.00     0.002 C 
HETATM   14  C14 UNL     1      14.620   1.640  18.167  1.00  0.00     0.032 C 
HETATM   15  C15 UNL     1      14.818   1.123  16.781  1.00  0.00     0.123 C 
BRANCH  15  16
HETATM   16  O1  UNL     1      15.435  -0.139  16.788  1.00  0.00    -0.395 OA
ATOM     17  H1  UNL     1      15.555  -0.358  17.704  1.00  0.00     0.210 HD
ENDBRANCH  15  16
ENDBRANCH   9  10
ENDBRANCH   8   9
BRANCH   5  18
HETATM   18  C4  UNL     1      19.257   4.938  13.138  1.00  0.00     0.349 C 
BRANCH  18  19
HETATM   19  N2  UNL     1      18.602   6.109  12.599  1.00  0.00     0.095 N 
HETATM   20  C5  UNL     1      19.517   7.234  12.844  1.00  0.00     0.273 C 
HETATM   21  C6  UNL     1      19.400   7.512  14.331  1.00  0.00     0.032 C 
HETATM   22  C7  UNL     1      18.006   7.053  14.685  1.00  0.00     0.032 C 
HETATM   23  C8  UNL     1      17.457   6.513  13.385  1.00  0.00     0.273 C 
ENDBRANCH  18  19
ENDBRANCH   5  18
TORSDOF 5
ENDMDL
MODEL 4
REMARK VINA RESULT: -7.396176306      0.903      1.292
REMARK  5 active torsions:
REMARK  status: ('A' for Active; 'I' for Inactive)
REMARK    1  A    between atoms: C3_5  and  C4_6 
REMARK    2  A    between atoms: C4_6  and  N2_7 
REMARK    3  A    between atoms: N4_14  and  C9_15 
REMARK    4  A    between atoms: C9_15  and  C10_16 
REMARK    5  A    between atoms: C15_21  and  O1_22 
ROOT
HETATM    1  C1  UNL     1      17.137  -0.712  11.791  1.00  0.00     0.091 C 
HETATM    2  C2  UNL     1      16.903   0.356  12.801  1.00  0.00     0.095 A 
HETATM    3  N1  UNL     1      16.831   0.154  14.126  1.00  0.00    -0.332 N 
ATOM      4  H1  UNL     1      16.932  -0.750  14.588  1.00  0.00     0.168 HD
HETATM    5  C3  UNL     1      16.606   1.316  14.752  1.00  0.00     0.126 A 
HETATM    6  N3  UNL     1      16.540   2.244  13.786  1.00  0.00    -0.284 N 
ATOM      7  H3  UNL     1      16.375   3.240  13.937  1.00  0.00     0.188 HD
HETATM    8  N4  UNL     1      16.718   1.671  12.608  1.00  0.00    -0.279 N 
ENDROOT
BRANCH   8   9
HETATM    9  C9  UNL     1      16.714   2.375  11.373  1.00  0.00     0.157 C 
BRANCH   9  10
HETATM   10  C10 UNL     1      17.911   3.217  11.088  1.00  0.00     0.034 C 
HETATM   11  C11 UNL     1      19.126   2.491  10.626  1.00  0.00     0.009 C 
HETATM   12  C12 UNL     1      20.184   3.521  10.283  1.00  0.00     0.001 C 
HETATM   13  C13 UNL     1      19.839   4.896  10.782  1.00  0.00     0.002 C 
HETATM   14  C14 UNL     1      18.535   5.410  10.222  1.00  0.00     0.032 C 
HETATM   15  C15 UNL     1      17.587   4.273  10.030  1.00  0.00     0.123 C 
BRANCH  15  16
HETATM   16  O1  UNL     1      16.261   4.662  10.281  1.00  0.00    -0.395 OA
ATOM     17  H1  UNL     1      15.723   4.082   9.756  1.00  0.00     0.210 HD
ENDBRANCH  15  16
ENDBRANCH   9  10
ENDBRANCH   8   9
BRANCH   5  18
HETATM   18  C4  UNL     1      16.457   1.560  16.184  1.00  0.00     0.349 C 
BRANCH  18  19
HETATM   19  N2  UNL     1      15.289   0.934  16.763  1.00  0.00     0.095 N 
HETATM   20  C5  UNL     1      14.149   1.790  16.403  1.00  0.00     0.273 C 
HETATM   21  C6  UNL     1      14.281   3.008  17.298  1.00  0.00     0.032 C 
HETATM   22  C7  UNL     1      15.005   2.494  18.519  1.00  0.00     0.032 C 
HETATM   23  C8  UNL     1      15.263   1.038  18.205  1.00  0.00     0.273 C 
ENDBRANCH  18  19
ENDBRANCH   5  18
TORSDOF 5
ENDMDL
MODEL 5
REMARK VINA RESULT: -7.383857206      1.709      3.514
REMARK  5 active torsions:
REMARK  status: ('A' for Active; 'I' for Inactive)
REMARK    1  A    between atoms: C3_5  and  C4_6 
REMARK    2  A    between atoms: C4_6  and  N2_7 
REMARK    3  A    between atoms: N4_14  and  C9_15 
REMARK    4  A    between atoms: C9_15  and  C10_16 
REMARK    5  A    between atoms: C15_21  and  O1_22 
ROOT
HETATM    1  C1  UNL     1      19.518   5.324  13.062  1.00  0.00     0.091 C 
HETATM    2  C2  UNL     1      18.432   4.472  13.621  1.00  0.00     0.095 A 
HETATM    3  N1  UNL     1      18.159   4.338  14.928  1.00  0.00    -0.332 N 
ATOM      4  H1  UNL     1      18.661   4.806  15.682  1.00  0.00     0.168 HD
HETATM    5  C3  UNL     1      17.131   3.498  15.094  1.00  0.00     0.126 A 
HETATM    6  N3  UNL     1      16.770   3.112  13.861  1.00  0.00    -0.284 N 
ATOM      7  H3  UNL     1      16.011   2.466  13.645  1.00  0.00     0.188 HD
HETATM    8  N4  UNL     1      17.551   3.697  12.969  1.00  0.00    -0.279 N 
ENDROOT
BRANCH   8   9
HETATM    9  C9  UNL     1      17.433   3.509  11.564  1.00  0.00     0.157 C 
BRANCH   9  10
HETATM   10  C10 UNL     1      17.630   2.119  11.065  1.00  0.00     0.034 C 
HETATM   11  C11 UNL     1      18.812   1.391  11.604  1.00  0.00     0.009 C 
HETATM   12  C12 UNL     1      18.772  -0.027  11.070  1.00  0.00     0.001 C 
HETATM   13  C13 UNL     1      17.782  -0.198   9.951  1.00  0.00     0.002 C 
HETATM   14  C14 UNL     1      16.372   0.152  10.361  1.00  0.00     0.032 C 
HETATM   15  C15 UNL     1      16.399   1.261  11.359  1.00  0.00     0.123 C 
BRANCH  15  16
HETATM   16  O1  UNL     1      15.297   2.118  11.203  1.00  0.00    -0.395 OA
ATOM     17  H1  UNL     1      14.852   2.115  12.042  1.00  0.00     0.210 HD
ENDBRANCH  15  16
ENDBRANCH   9  10
ENDBRANCH   8   9
BRANCH   5  18
HETATM   18  C4  UNL     1      16.506   3.065  16.342  1.00  0.00     0.349 C 
BRANCH  18  19
HETATM   19  N2  UNL     1      15.147   2.596  16.180  1.00  0.00     0.095 N 
HETATM   20  C5  UNL     1      14.382   3.176  17.294  1.00  0.00     0.273 C 
HETATM   21  C6  UNL     1      14.807   2.378  18.513  1.00  0.00     0.032 C 
HETATM   22  C7  UNL     1      15.203   1.033  17.955  1.00  0.00     0.032 C 
HETATM   23  C8  UNL     1      15.013   1.184  16.464  1.00  0.00     0.273 C 
ENDBRANCH  18  19
ENDBRANCH   5  18
TORSDOF 5
ENDMDL
