MODEL 1
REMARK VINA RESULT: -5.722708651      0.000      0.000
REMARK  7 active torsions:
REMARK  status: ('A' for Active; 'I' for Inactive)
REMARK    1  A    between atoms: C2_2  and  C4_4 
REMARK    2  A    between atoms: C4_4  and  O1_5 
REMARK    3  A    between atoms: C4_4  and  C5_7 
REMARK    4  A    between atoms: C5_7  and  C6_8 
REMARK    5  A    between atoms: C7_9  and  O2_10 
REMARK    6  A    between atoms: C8_12  and  O3_13 
REMARK    7  A    between atoms: N1_18  and  O5_19 
ROOT
HETATM    1  C6  UNL     1       5.061  -4.629  25.561  1.00  0.00     0.150 C 
HETATM    2  C7  UNL     1       3.993  -4.508  24.530  1.00  0.00     0.171 C 
HETATM    3  C8  UNL     1       4.451  -3.919  23.229  1.00  0.00     0.179 C 
HETATM    4  C9  UNL     1       5.628  -3.022  23.333  1.00  0.00     0.175 C 
HETATM    5  C10 UNL     1       5.225  -1.559  23.211  1.00  0.00     0.044 C 
HETATM    6  O4  UNL     1       6.361  -3.151  24.493  1.00  0.00    -0.271 OA
HETATM    7  N1  UNL     1       6.349  -4.382  25.010  1.00  0.00    -0.064 NA
ENDROOT
BRANCH   1   8
HETATM    8  C5  UNL     1       4.925  -5.930  26.281  1.00  0.00     0.059 C 
BRANCH   8   9
HETATM    9  C4  UNL     1       4.467  -5.773  27.713  1.00  0.00     0.123 C 
BRANCH   9  10
HETATM   10  C2  UNL     1       5.624  -6.019  28.656  1.00  0.00     0.006 C 
HETATM   11  C1  UNL     1       6.720  -6.814  28.027  1.00  0.00     0.012 C 
HETATM   12  C3  UNL     1       6.118  -4.748  29.300  1.00  0.00     0.012 C 
ENDBRANCH   9  10
BRANCH   9  13
HETATM   13  O1  UNL     1       3.472  -6.698  28.028  1.00  0.00    -0.395 OA
ATOM     14  H1  UNL     1       2.979  -6.864  27.232  1.00  0.00     0.210 HD
ENDBRANCH   9  13
ENDBRANCH   8   9
ENDBRANCH   1   8
BRANCH   2  15
HETATM   15  O2  UNL     1       2.888  -3.820  25.038  1.00  0.00    -0.391 OA
ATOM     16  H2  UNL     1       2.125  -3.956  24.490  1.00  0.00     0.210 HD
ENDBRANCH   2  15
BRANCH   7  17
HETATM   17  O5  UNL     1       6.778  -5.261  24.121  1.00  0.00    -0.288 OA
ATOM     18  H5  UNL     1       7.664  -5.133  23.801  1.00  0.00     0.239 HD
ENDBRANCH   7  17
BRANCH   3  19
HETATM   19  O3  UNL     1       4.613  -4.914  22.236  1.00  0.00    -0.390 OA
ATOM     20  H3  UNL     1       4.030  -4.771  21.499  1.00  0.00     0.210 HD
ENDBRANCH   3  19
TORSDOF 7
ENDMDL
MODEL 2
REMARK VINA RESULT: -5.651804733      1.109      1.524
REMARK  7 active torsions:
REMARK  status: ('A' for Active; 'I' for Inactive)
REMARK    1  A    between atoms: C2_2  and  C4_4 
REMARK    2  A    between atoms: C4_4  and  O1_5 
REMARK    3  A    between atoms: C4_4  and  C5_7 
REMARK    4  A    between atoms: C5_7  and  C6_8 
REMARK    5  A    between atoms: C7_9  and  O2_10 
REMARK    6  A    between atoms: C8_12  and  O3_13 
REMARK    7  A    between atoms: N1_18  and  O5_19 
ROOT
HETATM    1  C6  UNL     1       5.324  -4.523  25.473  1.00  0.00     0.150 C 
HETATM    2  C7  UNL     1       4.075  -4.545  24.662  1.00  0.00     0.171 C 
HETATM    3  C8  UNL     1       4.230  -4.007  23.270  1.00  0.00     0.179 C 
HETATM    4  C9  UNL     1       5.326  -3.022  23.103  1.00  0.00     0.175 C 
HETATM    5  C10 UNL     1       4.787  -1.602  22.991  1.00  0.00     0.044 C 
HETATM    6  O4  UNL     1       6.272  -3.025  24.105  1.00  0.00    -0.271 OA
HETATM    7  N1  UNL     1       6.460  -4.218  24.674  1.00  0.00    -0.064 NA
ENDROOT
BRANCH   1   8
HETATM    8  C5  UNL     1       5.434  -5.784  26.267  1.00  0.00     0.059 C 
BRANCH   8   9
HETATM    9  C4  UNL     1       6.427  -5.686  27.403  1.00  0.00     0.123 C 
BRANCH   9  10
HETATM   10  C2  UNL     1       5.724  -5.904  28.724  1.00  0.00     0.006 C 
HETATM   11  C1  UNL     1       5.975  -4.802  29.699  1.00  0.00     0.012 C 
HETATM   12  C3  UNL     1       4.257  -6.207  28.549  1.00  0.00     0.012 C 
ENDBRANCH   9  10
BRANCH   9  13
HETATM   13  O1  UNL     1       7.014  -4.422  27.450  1.00  0.00    -0.395 OA
ATOM     14  H1  UNL     1       6.320  -3.783  27.334  1.00  0.00     0.210 HD
ENDBRANCH   9  13
ENDBRANCH   8   9
ENDBRANCH   1   8
BRANCH   2  15
HETATM   15  O2  UNL     1       3.032  -3.908  25.339  1.00  0.00    -0.391 OA
ATOM     16  H2  UNL     1       2.450  -3.472  24.728  1.00  0.00     0.210 HD
ENDBRANCH   2  15
BRANCH   7  17
HETATM   17  O5  UNL     1       6.786  -5.118  23.761  1.00  0.00    -0.288 OA
ATOM     18  H5  UNL     1       7.194  -5.913  24.085  1.00  0.00     0.239 HD
ENDBRANCH   7  17
BRANCH   3  19
HETATM   19  O3  UNL     1       4.284  -5.048  22.313  1.00  0.00    -0.390 OA
ATOM     20  H3  UNL     1       4.115  -4.725  21.436  1.00  0.00     0.210 HD
ENDBRANCH   3  19
TORSDOF 7
ENDMDL
MODEL 3
REMARK VINA RESULT: -5.553941433      1.732      2.585
REMARK  7 active torsions:
REMARK  status: ('A' for Active; 'I' for Inactive)
REMARK    1  A    between atoms: C2_2  and  C4_4 
REMARK    2  A    between atoms: C4_4  and  O1_5 
REMARK    3  A    between atoms: C4_4  and  C5_7 
REMARK    4  A    between atoms: C5_7  and  C6_8 
REMARK    5  A    between atoms: C7_9  and  O2_10 
REMARK    6  A    between atoms: C8_12  and  O3_13 
REMARK    7  A    between atoms: N1_18  and  O5_19 
ROOT
HETATM    1  C6  UNL     1       4.183  -4.822  25.565  1.00  0.00     0.150 C 
HETATM    2  C7  UNL     1       5.097  -5.716  24.801  1.00  0.00     0.171 C 
HETATM    3  C8  UNL     1       5.471  -5.205  23.441  1.00  0.00     0.179 C 
HETATM    4  C9  UNL     1       4.479  -4.290  22.827  1.00  0.00     0.175 C 
HETATM    5  C10 UNL     1       3.683  -4.986  21.731  1.00  0.00     0.044 C 
HETATM    6  O4  UNL     1       3.572  -3.736  23.704  1.00  0.00    -0.271 OA
HETATM    7  N1  UNL     1       4.049  -3.553  24.938  1.00  0.00    -0.064 NA
ENDROOT
BRANCH   1   8
HETATM    8  C5  UNL     1       4.602  -4.774  26.998  1.00  0.00     0.059 C 
BRANCH   8   9
HETATM    9  C4  UNL     1       6.086  -4.991  27.191  1.00  0.00     0.123 C 
BRANCH   9  10
HETATM   10  C2  UNL     1       6.324  -5.916  28.363  1.00  0.00     0.006 C 
HETATM   11  C1  UNL     1       5.056  -6.352  29.021  1.00  0.00     0.012 C 
HETATM   12  C3  UNL     1       7.225  -7.072  28.007  1.00  0.00     0.012 C 
ENDBRANCH   9  10
BRANCH   9  13
HETATM   13  O1  UNL     1       6.737  -3.791  27.471  1.00  0.00    -0.395 OA
ATOM     14  H1  UNL     1       7.670  -3.971  27.480  1.00  0.00     0.210 HD
ENDBRANCH   9  13
ENDBRANCH   8   9
ENDBRANCH   1   8
BRANCH   2  15
HETATM   15  O2  UNL     1       4.579  -7.012  24.731  1.00  0.00    -0.391 OA
ATOM     16  H2  UNL     1       4.295  -7.308  25.588  1.00  0.00     0.210 HD
ENDBRANCH   2  15
BRANCH   7  17
HETATM   17  O5  UNL     1       5.139  -2.804  24.903  1.00  0.00    -0.288 OA
ATOM     18  H5  UNL     1       5.680  -2.890  24.127  1.00  0.00     0.239 HD
ENDBRANCH   7  17
BRANCH   3  19
HETATM   19  O3  UNL     1       6.782  -4.672  23.429  1.00  0.00    -0.390 OA
ATOM     20  H3  UNL     1       6.777  -3.729  23.550  1.00  0.00     0.210 HD
ENDBRANCH   3  19
TORSDOF 7
ENDMDL
MODEL 4
REMARK VINA RESULT: -5.464307745      1.719      2.145
REMARK  7 active torsions:
REMARK  status: ('A' for Active; 'I' for Inactive)
REMARK    1  A    between atoms: C2_2  and  C4_4 
REMARK    2  A    between atoms: C4_4  and  O1_5 
REMARK    3  A    between atoms: C4_4  and  C5_7 
REMARK    4  A    between atoms: C5_7  and  C6_8 
REMARK    5  A    between atoms: C7_9  and  O2_10 
REMARK    6  A    between atoms: C8_12  and  O3_13 
REMARK    7  A    between atoms: N1_18  and  O5_19 
ROOT
HETATM    1  C6  UNL     1       5.770  -4.382  25.332  1.00  0.00     0.150 C 
HETATM    2  C7  UNL     1       4.640  -3.936  24.469  1.00  0.00     0.171 C 
HETATM    3  C8  UNL     1       4.594  -4.591  23.120  1.00  0.00     0.179 C 
HETATM    4  C9  UNL     1       5.905  -5.064  22.614  1.00  0.00     0.175 C 
HETATM    5  C10 UNL     1       6.448  -4.143  21.529  1.00  0.00     0.044 C 
HETATM    6  O4  UNL     1       6.889  -5.196  23.571  1.00  0.00    -0.271 OA
HETATM    7  N1  UNL     1       6.429  -5.516  24.783  1.00  0.00    -0.064 NA
ENDROOT
BRANCH   1   8
HETATM    8  C5  UNL     1       5.297  -4.550  26.739  1.00  0.00     0.059 C 
BRANCH   8   9
HETATM    9  C4  UNL     1       6.427  -4.639  27.739  1.00  0.00     0.123 C 
BRANCH   9  10
HETATM   10  C2  UNL     1       6.299  -5.907  28.552  1.00  0.00     0.006 C 
HETATM   11  C1  UNL     1       4.878  -6.306  28.778  1.00  0.00     0.012 C 
HETATM   12  C3  UNL     1       7.140  -7.030  27.997  1.00  0.00     0.012 C 
ENDBRANCH   9  10
BRANCH   9  13
HETATM   13  O1  UNL     1       6.391  -3.569  28.633  1.00  0.00    -0.395 OA
ATOM     14  H1  UNL     1       6.201  -2.786  28.129  1.00  0.00     0.210 HD
ENDBRANCH   9  13
ENDBRANCH   8   9
ENDBRANCH   1   8
BRANCH   2  15
HETATM   15  O2  UNL     1       4.620  -2.544  24.359  1.00  0.00    -0.391 OA
ATOM     16  H2  UNL     1       3.778  -2.196  24.629  1.00  0.00     0.210 HD
ENDBRANCH   2  15
BRANCH   7  17
HETATM   17  O5  UNL     1       5.720  -6.630  24.727  1.00  0.00    -0.288 OA
ATOM     18  H5  UNL     1       6.079  -7.378  25.191  1.00  0.00     0.239 HD
ENDBRANCH   7  17
BRANCH   3  19
HETATM   19  O3  UNL     1       3.596  -5.593  23.062  1.00  0.00    -0.390 OA
ATOM     20  H3  UNL     1       3.885  -6.344  22.558  1.00  0.00     0.210 HD
ENDBRANCH   3  19
TORSDOF 7
ENDMDL
MODEL 5
REMARK VINA RESULT: -5.443550406      1.801      1.880
REMARK  7 active torsions:
REMARK  status: ('A' for Active; 'I' for Inactive)
REMARK    1  A    between atoms: C2_2  and  C4_4 
REMARK    2  A    between atoms: C4_4  and  O1_5 
REMARK    3  A    between atoms: C4_4  and  C5_7 
REMARK    4  A    between atoms: C5_7  and  C6_8 
REMARK    5  A    between atoms: C7_9  and  O2_10 
REMARK    6  A    between atoms: C8_12  and  O3_13 
REMARK    7  A    between atoms: N1_18  and  O5_19 
ROOT
HETATM    1  C6  UNL     1       5.301  -4.874  24.733  1.00  0.00     0.150 C 
HETATM    2  C7  UNL     1       4.238  -5.413  23.839  1.00  0.00     0.171 C 
HETATM    3  C8  UNL     1       4.603  -5.432  22.384  1.00  0.00     0.179 C 
HETATM    4  C9  UNL     1       5.609  -4.418  21.982  1.00  0.00     0.175 C 
HETATM    5  C10 UNL     1       4.964  -3.261  21.231  1.00  0.00     0.044 C 
HETATM    6  O4  UNL     1       6.341  -3.879  23.017  1.00  0.00    -0.271 OA
HETATM    7  N1  UNL     1       6.533  -4.715  24.041  1.00  0.00    -0.064 NA
ENDROOT
BRANCH   1   8
HETATM    8  C5  UNL     1       5.381  -5.696  25.977  1.00  0.00     0.059 C 
BRANCH   8   9
HETATM    9  C4  UNL     1       6.139  -5.015  27.093  1.00  0.00     0.123 C 
BRANCH   9  10
HETATM   10  C2  UNL     1       5.285  -4.957  28.339  1.00  0.00     0.006 C 
HETATM   11  C1  UNL     1       4.452  -6.182  28.524  1.00  0.00     0.012 C 
HETATM   12  C3  UNL     1       6.086  -4.604  29.567  1.00  0.00     0.012 C 
ENDBRANCH   9  10
BRANCH   9  13
HETATM   13  O1  UNL     1       6.464  -3.702  26.752  1.00  0.00    -0.395 OA
ATOM     14  H1  UNL     1       7.407  -3.614  26.829  1.00  0.00     0.210 HD
ENDBRANCH   9  13
ENDBRANCH   8   9
ENDBRANCH   1   8
BRANCH   2  15
HETATM   15  O2  UNL     1       3.028  -4.748  24.051  1.00  0.00    -0.391 OA
ATOM     16  H2  UNL     1       3.177  -3.832  24.253  1.00  0.00     0.210 HD
ENDBRANCH   2  15
BRANCH   7  17
HETATM   17  O5  UNL     1       7.115  -5.827  23.626  1.00  0.00    -0.288 OA
ATOM     18  H5  UNL     1       6.648  -6.635  23.806  1.00  0.00     0.239 HD
ENDBRANCH   7  17
BRANCH   3  19
HETATM   19  O3  UNL     1       4.941  -6.735  21.950  1.00  0.00    -0.390 OA
ATOM     20  H3  UNL     1       5.876  -6.893  22.014  1.00  0.00     0.210 HD
ENDBRANCH   3  19
TORSDOF 7
ENDMDL
