MODEL 1
REMARK VINA RESULT: -5.963243558      0.000      0.000
REMARK  7 active torsions:
REMARK  status: ('A' for Active; 'I' for Inactive)
REMARK    1  A    between atoms: O1_1  and  C1_3 
REMARK    2  A    between atoms: C1_3  and  C2_4 
REMARK    3  A    between atoms: C4_6  and  O2_7 
REMARK    4  A    between atoms: O2_7  and  C5_8 
REMARK    5  A    between atoms: C7_10  and  O3_11 
REMARK    6  A    between atoms: C10_15  and  O4_16 
REMARK    7  A    between atoms: C11_19  and  O6_20 
ROOT
HETATM    1  O2  UNL     1       5.999  -7.122  25.498  1.00  0.00    -0.353 OA
ENDROOT
BRANCH   1   2
HETATM    2  C4  UNL     1       6.220  -6.804  26.835  1.00  0.00     0.264 C 
HETATM    3  C3  UNL     1       5.729  -5.433  27.198  1.00  0.00     0.072 C 
HETATM    4  C2  UNL     1       6.734  -4.994  28.242  1.00  0.00     0.069 C 
HETATM    5  C11 UNL     1       7.714  -6.149  28.256  1.00  0.00     0.266 C 
HETATM    6  O5  UNL     1       7.613  -6.636  26.969  1.00  0.00    -0.331 OA
BRANCH   4   7
HETATM    7  C1  UNL     1       6.120  -4.925  29.629  1.00  0.00     0.173 C 
BRANCH   7   8
HETATM    8  O1  UNL     1       5.836  -3.567  29.856  1.00  0.00    -0.400 OA
ATOM      9  H1  UNL     1       5.322  -3.539  30.655  1.00  0.00     0.209 HD
ENDBRANCH   7   8
ENDBRANCH   4   7
BRANCH   5  10
HETATM   10  O6  UNL     1       9.017  -5.724  28.488  1.00  0.00    -0.371 OA
ATOM     11  H6  UNL     1       9.558  -6.415  28.850  1.00  0.00     0.212 HD
ENDBRANCH   5  10
ENDBRANCH   1   2
BRANCH   1  12
HETATM   12  C5  UNL     1       5.453  -6.066  24.783  1.00  0.00     0.159 C 
HETATM   13  C6  UNL     1       6.423  -5.718  23.647  1.00  0.00     0.070 C 
HETATM   14  C7  UNL     1       6.019  -4.377  23.092  1.00  0.00     0.143 C 
HETATM   15  C8  UNL     1       4.527  -4.270  22.959  1.00  0.00     0.003 C 
HETATM   16  C9  UNL     1       3.676  -5.164  23.426  1.00  0.00     0.005 C 
HETATM   17  C10 UNL     1       4.144  -6.382  24.142  1.00  0.00     0.170 C 
BRANCH  14  18
HETATM   18  O3  UNL     1       6.504  -3.393  23.972  1.00  0.00    -0.392 OA
ATOM     19  H3  UNL     1       7.349  -3.108  23.642  1.00  0.00     0.210 HD
ENDBRANCH  14  18
BRANCH  17  20
HETATM   20  O4  UNL     1       3.159  -6.719  25.067  1.00  0.00    -0.389 OA
ATOM     21  H4  UNL     1       3.501  -7.210  25.805  1.00  0.00     0.210 HD
ENDBRANCH  17  20
ENDBRANCH   1  12
TORSDOF 7
ENDMDL
MODEL 2
REMARK VINA RESULT: -5.961552233      1.838      2.372
REMARK  7 active torsions:
REMARK  status: ('A' for Active; 'I' for Inactive)
REMARK    1  A    between atoms: O1_1  and  C1_3 
REMARK    2  A    between atoms: C1_3  and  C2_4 
REMARK    3  A    between atoms: C4_6  and  O2_7 
REMARK    4  A    between atoms: O2_7  and  C5_8 
REMARK    5  A    between atoms: C7_10  and  O3_11 
REMARK    6  A    between atoms: C10_15  and  O4_16 
REMARK    7  A    between atoms: C11_19  and  O6_20 
ROOT
HETATM    1  O2  UNL     1       6.394  -5.799  25.800  1.00  0.00    -0.353 OA
ENDROOT
BRANCH   1   2
HETATM    2  C4  UNL     1       5.848  -5.305  26.982  1.00  0.00     0.264 C 
HETATM    3  C3  UNL     1       6.889  -4.983  28.015  1.00  0.00     0.072 C 
HETATM    4  C2  UNL     1       6.174  -5.310  29.308  1.00  0.00     0.069 C 
HETATM    5  C11 UNL     1       4.852  -5.864  28.819  1.00  0.00     0.266 C 
HETATM    6  O5  UNL     1       5.192  -6.394  27.591  1.00  0.00    -0.331 OA
BRANCH   4   7
HETATM    7  C1  UNL     1       5.854  -4.062  30.112  1.00  0.00     0.173 C 
BRANCH   7   8
HETATM    8  O1  UNL     1       5.771  -4.479  31.452  1.00  0.00    -0.400 OA
ATOM      9  H1  UNL     1       5.223  -3.839  31.891  1.00  0.00     0.209 HD
ENDBRANCH   7   8
ENDBRANCH   4   7
BRANCH   5  10
HETATM   10  O6  UNL     1       4.374  -6.876  29.642  1.00  0.00    -0.371 OA
ATOM     11  H6  UNL     1       4.249  -7.691  29.170  1.00  0.00     0.212 HD
ENDBRANCH   5  10
ENDBRANCH   1   2
BRANCH   1  12
HETATM   12  C5  UNL     1       5.716  -5.357  24.674  1.00  0.00     0.159 C 
HETATM   13  C6  UNL     1       5.703  -3.823  24.708  1.00  0.00     0.070 C 
HETATM   14  C7  UNL     1       4.690  -3.350  23.700  1.00  0.00     0.143 C 
HETATM   15  C8  UNL     1       4.777  -4.142  22.427  1.00  0.00     0.003 C 
HETATM   16  C9  UNL     1       5.523  -5.219  22.275  1.00  0.00     0.005 C 
HETATM   17  C10 UNL     1       6.360  -5.748  23.388  1.00  0.00     0.170 C 
BRANCH  14  18
HETATM   18  O3  UNL     1       3.417  -3.494  24.280  1.00  0.00    -0.392 OA
ATOM     19  H3  UNL     1       2.925  -2.704  24.088  1.00  0.00     0.210 HD
ENDBRANCH  14  18
BRANCH  17  20
HETATM   20  O4  UNL     1       6.438  -7.128  23.223  1.00  0.00    -0.389 OA
ATOM     21  H4  UNL     1       7.334  -7.444  23.193  1.00  0.00     0.210 HD
ENDBRANCH  17  20
ENDBRANCH   1  12
TORSDOF 7
ENDMDL
MODEL 3
REMARK VINA RESULT: -5.940342374      1.842      2.721
REMARK  7 active torsions:
REMARK  status: ('A' for Active; 'I' for Inactive)
REMARK    1  A    between atoms: O1_1  and  C1_3 
REMARK    2  A    between atoms: C1_3  and  C2_4 
REMARK    3  A    between atoms: C4_6  and  O2_7 
REMARK    4  A    between atoms: O2_7  and  C5_8 
REMARK    5  A    between atoms: C7_10  and  O3_11 
REMARK    6  A    between atoms: C10_15  and  O4_16 
REMARK    7  A    between atoms: C11_19  and  O6_20 
ROOT
HETATM    1  O2  UNL     1       4.640  -5.904  25.073  1.00  0.00    -0.353 OA
ENDROOT
BRANCH   1   2
HETATM    2  C4  UNL     1       5.427  -5.751  26.211  1.00  0.00     0.264 C 
HETATM    3  C3  UNL     1       6.562  -6.732  26.271  1.00  0.00     0.072 C 
HETATM    4  C2  UNL     1       6.694  -6.984  27.758  1.00  0.00     0.069 C 
HETATM    5  C11 UNL     1       5.546  -6.177  28.328  1.00  0.00     0.266 C 
HETATM    6  O5  UNL     1       4.635  -6.188  27.292  1.00  0.00    -0.331 OA
BRANCH   4   7
HETATM    7  C1  UNL     1       7.970  -6.389  28.325  1.00  0.00     0.173 C 
BRANCH   7   8
HETATM    8  O1  UNL     1       8.916  -7.428  28.316  1.00  0.00    -0.400 OA
ATOM      9  H1  UNL     1       9.422  -7.327  29.114  1.00  0.00     0.209 HD
ENDBRANCH   7   8
ENDBRANCH   4   7
BRANCH   5  10
HETATM   10  O6  UNL     1       4.984  -6.787  29.444  1.00  0.00    -0.371 OA
ATOM     11  H6  UNL     1       4.526  -6.165  29.998  1.00  0.00     0.212 HD
ENDBRANCH   5  10
ENDBRANCH   1   2
BRANCH   1  12
HETATM   12  C5  UNL     1       4.933  -4.968  24.092  1.00  0.00     0.159 C 
HETATM   13  C6  UNL     1       5.654  -3.794  24.766  1.00  0.00     0.070 C 
HETATM   14  C7  UNL     1       5.664  -2.642  23.795  1.00  0.00     0.143 C 
HETATM   15  C8  UNL     1       5.977  -3.107  22.402  1.00  0.00     0.003 C 
HETATM   16  C9  UNL     1       6.062  -4.375  22.046  1.00  0.00     0.005 C 
HETATM   17  C10 UNL     1       5.847  -5.474  23.028  1.00  0.00     0.170 C 
BRANCH  14  18
HETATM   18  O3  UNL     1       4.393  -2.044  23.838  1.00  0.00    -0.392 OA
ATOM     19  H3  UNL     1       4.286  -1.545  23.036  1.00  0.00     0.210 HD
ENDBRANCH  14  18
BRANCH  17  20
HETATM   20  O4  UNL     1       5.313  -6.552  22.327  1.00  0.00    -0.389 OA
ATOM     21  H4  UNL     1       5.482  -7.385  22.750  1.00  0.00     0.210 HD
ENDBRANCH  17  20
ENDBRANCH   1  12
TORSDOF 7
ENDMDL
MODEL 4
REMARK VINA RESULT: -5.926721634      4.771      6.379
REMARK  7 active torsions:
REMARK  status: ('A' for Active; 'I' for Inactive)
REMARK    1  A    between atoms: O1_1  and  C1_3 
REMARK    2  A    between atoms: C1_3  and  C2_4 
REMARK    3  A    between atoms: C4_6  and  O2_7 
REMARK    4  A    between atoms: O2_7  and  C5_8 
REMARK    5  A    between atoms: C7_10  and  O3_11 
REMARK    6  A    between atoms: C10_15  and  O4_16 
REMARK    7  A    between atoms: C11_19  and  O6_20 
ROOT
HETATM    1  O2  UNL     1       7.362  -0.863  23.763  1.00  0.00    -0.353 OA
ENDROOT
BRANCH   1   2
HETATM    2  C4  UNL     1       8.698  -0.634  24.077  1.00  0.00     0.264 C 
HETATM    3  C3  UNL     1       8.873   0.170  25.333  1.00  0.00     0.072 C 
HETATM    4  C2  UNL     1      10.120   0.973  25.034  1.00  0.00     0.069 C 
HETATM    5  C11 UNL     1      10.427   0.578  23.604  1.00  0.00     0.266 C 
HETATM    6  O5  UNL     1       9.175   0.273  23.109  1.00  0.00    -0.331 OA
BRANCH   4   7
HETATM    7  C1  UNL     1      11.302   0.523  25.874  1.00  0.00     0.173 C 
BRANCH   7   8
HETATM    8  O1  UNL     1      11.798   1.683  26.493  1.00  0.00    -0.400 OA
ATOM      9  H1  UNL     1      12.668   1.461  26.804  1.00  0.00     0.209 HD
ENDBRANCH   7   8
ENDBRANCH   4   7
BRANCH   5  10
HETATM   10  O6  UNL     1      10.966   1.632  22.876  1.00  0.00    -0.371 OA
ATOM     11  H6  UNL     1      11.347   2.297  23.439  1.00  0.00     0.212 HD
ENDBRANCH   5  10
ENDBRANCH   1   2
BRANCH   1  12
HETATM   12  C5  UNL     1       6.903  -2.080  24.242  1.00  0.00     0.159 C 
HETATM   13  C6  UNL     1       6.021  -1.799  25.465  1.00  0.00     0.070 C 
HETATM   14  C7  UNL     1       5.808  -3.104  26.188  1.00  0.00     0.143 C 
HETATM   15  C8  UNL     1       5.541  -4.223  25.223  1.00  0.00     0.003 C 
HETATM   16  C9  UNL     1       5.649  -4.113  23.913  1.00  0.00     0.005 C 
HETATM   17  C10 UNL     1       6.056  -2.832  23.272  1.00  0.00     0.170 C 
BRANCH  14  18
HETATM   18  O3  UNL     1       6.970  -3.367  26.934  1.00  0.00    -0.392 OA
ATOM     19  H3  UNL     1       7.694  -2.934  26.497  1.00  0.00     0.210 HD
ENDBRANCH  14  18
BRANCH  17  20
HETATM   20  O4  UNL     1       6.738  -3.157  22.102  1.00  0.00    -0.389 OA
ATOM     21  H4  UNL     1       7.635  -2.844  22.100  1.00  0.00     0.210 HD
ENDBRANCH  17  20
ENDBRANCH   1  12
TORSDOF 7
ENDMDL
MODEL 5
REMARK VINA RESULT: -5.866581165      2.124      3.127
REMARK  7 active torsions:
REMARK  status: ('A' for Active; 'I' for Inactive)
REMARK    1  A    between atoms: O1_1  and  C1_3 
REMARK    2  A    between atoms: C1_3  and  C2_4 
REMARK    3  A    between atoms: C4_6  and  O2_7 
REMARK    4  A    between atoms: O2_7  and  C5_8 
REMARK    5  A    between atoms: C7_10  and  O3_11 
REMARK    6  A    between atoms: C10_15  and  O4_16 
REMARK    7  A    between atoms: C11_19  and  O6_20 
ROOT
HETATM    1  O2  UNL     1       6.358  -3.196  24.949  1.00  0.00    -0.353 OA
ENDROOT
BRANCH   1   2
HETATM    2  C4  UNL     1       5.846  -4.065  25.908  1.00  0.00     0.264 C 
HETATM    3  C3  UNL     1       6.389  -3.803  27.283  1.00  0.00     0.072 C 
HETATM    4  C2  UNL     1       6.439  -5.192  27.882  1.00  0.00     0.069 C 
HETATM    5  C11 UNL     1       6.002  -6.063  26.723  1.00  0.00     0.266 C 
HETATM    6  O5  UNL     1       6.412  -5.326  25.630  1.00  0.00    -0.331 OA
BRANCH   4   7
HETATM    7  C1  UNL     1       5.406  -5.375  28.980  1.00  0.00     0.173 C 
BRANCH   7   8
HETATM    8  O1  UNL     1       5.154  -6.756  29.044  1.00  0.00    -0.400 OA
ATOM      9  H1  UNL     1       5.509  -7.048  29.875  1.00  0.00     0.209 HD
ENDBRANCH   7   8
ENDBRANCH   4   7
BRANCH   5  10
HETATM   10  O6  UNL     1       6.651  -7.292  26.720  1.00  0.00    -0.371 OA
ATOM     11  H6  UNL     1       6.892  -7.567  25.843  1.00  0.00     0.212 HD
ENDBRANCH   5  10
ENDBRANCH   1   2
BRANCH   1  12
HETATM   12  C5  UNL     1       5.589  -3.161  23.796  1.00  0.00     0.159 C 
HETATM   13  C6  UNL     1       5.190  -1.702  23.542  1.00  0.00     0.070 C 
HETATM   14  C7  UNL     1       4.088  -1.698  22.515  1.00  0.00     0.143 C 
HETATM   15  C8  UNL     1       4.370  -2.676  21.411  1.00  0.00     0.003 C 
HETATM   16  C9  UNL     1       5.363  -3.545  21.426  1.00  0.00     0.005 C 
HETATM   17  C10 UNL     1       6.308  -3.624  22.575  1.00  0.00     0.170 C 
BRANCH  14  18
HETATM   18  O3  UNL     1       2.894  -2.036  23.176  1.00  0.00    -0.392 OA
ATOM     19  H3  UNL     1       2.650  -2.910  22.893  1.00  0.00     0.210 HD
ENDBRANCH  14  18
BRANCH  17  20
HETATM   20  O4  UNL     1       6.731  -4.947  22.668  1.00  0.00    -0.389 OA
ATOM     21  H4  UNL     1       6.521  -5.455  21.893  1.00  0.00     0.210 HD
ENDBRANCH  17  20
ENDBRANCH   1  12
TORSDOF 7
ENDMDL
