MODEL 1
REMARK VINA RESULT: -6.020215210      0.000      0.000
REMARK  8 active torsions:
REMARK  status: ('A' for Active; 'I' for Inactive)
REMARK    1  A    between atoms: C2_2  and  C4_5 
REMARK    2  A    between atoms: C5_6  and  O1_7 
REMARK    3  A    between atoms: C6_9  and  C7_10 
REMARK    4  A    between atoms: C7_10  and  O2_11 
REMARK    5  A    between atoms: C8_14  and  N2_15 
REMARK    6  A    between atoms: N2_15  and  N3_17 
REMARK    7  A    between atoms: N3_17  and  N4_18 
REMARK    8  A    between atoms: C9_21  and  O4_22 
ROOT
HETATM    1  C1  UNL     1       6.110  -4.866  29.383  1.00  0.00     0.026 C 
HETATM    2  C2  UNL     1       6.006  -5.890  28.312  1.00  0.00     0.098 C 
HETATM    3  C3  UNL     1       7.190  -6.715  28.162  1.00  0.00     0.064 C 
HETATM    4  N1  UNL     1       8.129  -7.390  28.054  1.00  0.00    -0.197 NA
ENDROOT
BRANCH   2   5
HETATM    5  C4  UNL     1       5.581  -5.307  26.984  1.00  0.00     0.067 C 
HETATM    6  C5  UNL     1       4.077  -5.373  26.817  1.00  0.00     0.157 C 
HETATM    7  C6  UNL     1       3.743  -4.369  25.704  1.00  0.00     0.177 C 
HETATM    8  O3  UNL     1       4.788  -4.227  24.818  1.00  0.00    -0.352 OA
HETATM    9  C8  UNL     1       5.804  -3.472  25.406  1.00  0.00     0.279 C 
HETATM   10  C9  UNL     1       5.972  -3.854  26.868  1.00  0.00     0.177 C 
BRANCH   6  11
HETATM   11  O1  UNL     1       3.458  -4.914  27.958  1.00  0.00    -0.392 OA
ATOM     12  H1  UNL     1       2.699  -5.452  28.153  1.00  0.00     0.210 HD
ENDBRANCH   6  11
BRANCH   7  13
HETATM   13  C7  UNL     1       2.477  -4.854  25.060  1.00  0.00     0.198 C 
BRANCH  13  14
HETATM   14  O2  UNL     1       1.382  -4.192  25.602  1.00  0.00    -0.398 OA
ATOM     15  H2  UNL     1       0.579  -4.633  25.354  1.00  0.00     0.209 HD
ENDBRANCH  13  14
ENDBRANCH   7  13
BRANCH   9  16
HETATM   16  N2  UNL     1       5.540  -2.040  25.282  1.00  0.00    -0.220 N 
ATOM     17  H2  UNL     1       5.745  -1.382  26.034  1.00  0.00     0.200 HD
BRANCH  16  18
HETATM   18  N3  UNL     1       5.050  -1.680  24.203  1.00  0.00    -0.246 NA
BRANCH  18  19
HETATM   19  N4  UNL     1       4.297  -1.514  23.240  1.00  0.00    -0.261 N 
ATOM     20  H42 UNL     1       3.633  -0.944  23.764  1.00  0.00     0.193 HD
ATOM     21  H41 UNL     1       3.871  -1.538  22.313  1.00  0.00     0.193 HD
ENDBRANCH  18  19
ENDBRANCH  16  18
ENDBRANCH   9  16
BRANCH  10  22
HETATM   22  O4  UNL     1       7.240  -3.592  27.334  1.00  0.00    -0.391 OA
ATOM     23  H4  UNL     1       7.735  -4.376  27.540  1.00  0.00     0.210 HD
ENDBRANCH  10  22
ENDBRANCH   2   5
TORSDOF 8
ENDMDL
MODEL 2
REMARK VINA RESULT: -6.000666435      0.664      1.098
REMARK  8 active torsions:
REMARK  status: ('A' for Active; 'I' for Inactive)
REMARK    1  A    between atoms: C2_2  and  C4_5 
REMARK    2  A    between atoms: C5_6  and  O1_7 
REMARK    3  A    between atoms: C6_9  and  C7_10 
REMARK    4  A    between atoms: C7_10  and  O2_11 
REMARK    5  A    between atoms: C8_14  and  N2_15 
REMARK    6  A    between atoms: N2_15  and  N3_17 
REMARK    7  A    between atoms: N3_17  and  N4_18 
REMARK    8  A    between atoms: C9_21  and  O4_22 
ROOT
HETATM    1  C1  UNL     1       6.094  -4.891  29.386  1.00  0.00     0.026 C 
HETATM    2  C2  UNL     1       5.999  -5.949  28.348  1.00  0.00     0.098 C 
HETATM    3  C3  UNL     1       7.200  -6.752  28.205  1.00  0.00     0.064 C 
HETATM    4  N1  UNL     1       8.153  -7.408  28.104  1.00  0.00    -0.197 NA
ENDROOT
BRANCH   2   5
HETATM    5  C4  UNL     1       5.542  -5.417  27.009  1.00  0.00     0.067 C 
HETATM    6  C5  UNL     1       4.034  -5.484  26.883  1.00  0.00     0.157 C 
HETATM    7  C6  UNL     1       3.674  -4.523  25.741  1.00  0.00     0.177 C 
HETATM    8  O3  UNL     1       4.696  -4.420  24.823  1.00  0.00    -0.352 OA
HETATM    9  C8  UNL     1       5.730  -3.647  25.355  1.00  0.00     0.279 C 
HETATM   10  C9  UNL     1       5.935  -3.972  26.826  1.00  0.00     0.177 C 
BRANCH   6  11
HETATM   11  O1  UNL     1       3.446  -4.978  28.021  1.00  0.00    -0.392 OA
ATOM     12  H1  UNL     1       2.947  -4.197  27.807  1.00  0.00     0.210 HD
ENDBRANCH   6  11
BRANCH   7  13
HETATM   13  C7  UNL     1       2.391  -5.028  25.150  1.00  0.00     0.198 C 
BRANCH  13  14
HETATM   14  O2  UNL     1       1.307  -4.477  25.822  1.00  0.00    -0.398 OA
ATOM     15  H2  UNL     1       1.496  -4.415  26.750  1.00  0.00     0.209 HD
ENDBRANCH  13  14
ENDBRANCH   7  13
BRANCH   9  16
HETATM   16  N2  UNL     1       5.467  -2.220  25.182  1.00  0.00    -0.220 N 
ATOM     17  H2  UNL     1       4.544  -1.862  24.932  1.00  0.00     0.200 HD
BRANCH  16  18
HETATM   18  N3  UNL     1       6.440  -1.474  25.359  1.00  0.00    -0.246 NA
BRANCH  18  19
HETATM   19  N4  UNL     1       7.534  -1.012  25.695  1.00  0.00    -0.261 N 
ATOM     20  H42 UNL     1       7.586  -1.564  26.551  1.00  0.00     0.193 HD
ATOM     21  H41 UNL     1       8.406  -0.484  25.728  1.00  0.00     0.193 HD
ENDBRANCH  18  19
ENDBRANCH  16  18
ENDBRANCH   9  16
BRANCH  10  22
HETATM   22  O4  UNL     1       7.215  -3.697  27.249  1.00  0.00    -0.391 OA
ATOM     23  H4  UNL     1       7.341  -2.790  27.501  1.00  0.00     0.210 HD
ENDBRANCH  10  22
ENDBRANCH   2   5
TORSDOF 8
ENDMDL
MODEL 3
REMARK VINA RESULT: -5.821706018      3.015      3.838
REMARK  8 active torsions:
REMARK  status: ('A' for Active; 'I' for Inactive)
REMARK    1  A    between atoms: C2_2  and  C4_5 
REMARK    2  A    between atoms: C5_6  and  O1_7 
REMARK    3  A    between atoms: C6_9  and  C7_10 
REMARK    4  A    between atoms: C7_10  and  O2_11 
REMARK    5  A    between atoms: C8_14  and  N2_15 
REMARK    6  A    between atoms: N2_15  and  N3_17 
REMARK    7  A    between atoms: N3_17  and  N4_18 
REMARK    8  A    between atoms: C9_21  and  O4_22 
ROOT
HETATM    1  C1  UNL     1       6.174  -4.404  29.677  1.00  0.00     0.026 C 
HETATM    2  C2  UNL     1       5.514  -5.494  28.914  1.00  0.00     0.098 C 
HETATM    3  C3  UNL     1       6.425  -6.514  28.426  1.00  0.00     0.064 C 
HETATM    4  N1  UNL     1       7.150  -7.341  28.053  1.00  0.00    -0.197 NA
ENDROOT
BRANCH   2   5
HETATM    5  C4  UNL     1       4.633  -4.978  27.799  1.00  0.00     0.067 C 
HETATM    6  C5  UNL     1       5.465  -4.448  26.649  1.00  0.00     0.157 C 
HETATM    7  C6  UNL     1       4.515  -4.400  25.444  1.00  0.00     0.177 C 
HETATM    8  O3  UNL     1       3.208  -4.207  25.834  1.00  0.00    -0.352 OA
HETATM    9  C8  UNL     1       2.702  -5.387  26.382  1.00  0.00     0.279 C 
HETATM   10  C9  UNL     1       3.755  -6.070  27.239  1.00  0.00     0.177 C 
BRANCH   6  11
HETATM   11  O1  UNL     1       6.455  -5.350  26.333  1.00  0.00    -0.392 OA
ATOM     12  H1  UNL     1       6.235  -5.802  25.527  1.00  0.00     0.210 HD
ENDBRANCH   6  11
BRANCH   7  13
HETATM   13  C7  UNL     1       5.033  -3.321  24.538  1.00  0.00     0.198 C 
BRANCH  13  14
HETATM   14  O2  UNL     1       6.421  -3.361  24.494  1.00  0.00    -0.398 OA
ATOM     15  H2  UNL     1       6.752  -2.623  23.997  1.00  0.00     0.209 HD
ENDBRANCH  13  14
ENDBRANCH   7  13
BRANCH   9  16
HETATM   16  N2  UNL     1       2.228  -6.295  25.339  1.00  0.00    -0.220 N 
ATOM     17  H2  UNL     1       2.453  -6.157  24.353  1.00  0.00     0.200 HD
BRANCH  16  18
HETATM   18  N3  UNL     1       1.536  -7.244  25.734  1.00  0.00    -0.246 NA
BRANCH  18  19
HETATM   19  N4  UNL     1       0.787  -7.972  26.389  1.00  0.00    -0.261 N 
ATOM     20  H42 UNL     1       0.770  -8.710  25.686  1.00  0.00     0.193 HD
ATOM     21  H41 UNL     1       0.184  -8.357  27.117  1.00  0.00     0.193 HD
ENDBRANCH  18  19
ENDBRANCH  16  18
ENDBRANCH   9  16
BRANCH  10  22
HETATM   22  O4  UNL     1       3.200  -6.874  28.208  1.00  0.00    -0.391 OA
ATOM     23  H4  UNL     1       2.287  -6.678  28.383  1.00  0.00     0.210 HD
ENDBRANCH  10  22
ENDBRANCH   2   5
TORSDOF 8
ENDMDL
MODEL 4
REMARK VINA RESULT: -5.695781196      6.983      8.822
REMARK  8 active torsions:
REMARK  status: ('A' for Active; 'I' for Inactive)
REMARK    1  A    between atoms: C2_2  and  C4_5 
REMARK    2  A    between atoms: C5_6  and  O1_7 
REMARK    3  A    between atoms: C6_9  and  C7_10 
REMARK    4  A    between atoms: C7_10  and  O2_11 
REMARK    5  A    between atoms: C8_14  and  N2_15 
REMARK    6  A    between atoms: N2_15  and  N3_17 
REMARK    7  A    between atoms: N3_17  and  N4_18 
REMARK    8  A    between atoms: C9_21  and  O4_22 
ROOT
HETATM    1  C1  UNL     1       4.213  -2.674  21.119  1.00  0.00     0.026 C 
HETATM    2  C2  UNL     1       3.600  -1.329  21.264  1.00  0.00     0.098 C 
HETATM    3  C3  UNL     1       2.616  -1.235  22.327  1.00  0.00     0.064 C 
HETATM    4  N1  UNL     1       1.844  -1.153  23.191  1.00  0.00    -0.197 NA
ENDROOT
BRANCH   2   5
HETATM    5  C4  UNL     1       3.043  -0.797  19.964  1.00  0.00     0.067 C 
HETATM    6  C5  UNL     1       1.944  -1.695  19.434  1.00  0.00     0.157 C 
HETATM    7  C6  UNL     1       1.169  -0.841  18.420  1.00  0.00     0.177 C 
HETATM    8  O3  UNL     1       1.976   0.112  17.836  1.00  0.00    -0.352 OA
HETATM    9  C8  UNL     1       2.222   1.140  18.746  1.00  0.00     0.279 C 
HETATM   10  C9  UNL     1       2.442   0.576  20.141  1.00  0.00     0.177 C 
BRANCH   6  11
HETATM   11  O1  UNL     1       1.060  -1.999  20.445  1.00  0.00    -0.392 OA
ATOM     12  H1  UNL     1       1.418  -1.723  21.281  1.00  0.00     0.210 HD
ENDBRANCH   6  11
BRANCH   7  13
HETATM   13  C7  UNL     1       0.567  -1.797  17.433  1.00  0.00     0.198 C 
BRANCH  13  14
HETATM   14  O2  UNL     1       1.540  -2.666  16.956  1.00  0.00    -0.398 OA
ATOM     15  H2  UNL     1       1.942  -2.308  16.174  1.00  0.00     0.209 HD
ENDBRANCH  13  14
ENDBRANCH   7  13
BRANCH   9  16
HETATM   16  N2  UNL     1       1.130   2.111  18.758  1.00  0.00    -0.220 N 
ATOM     17  H2  UNL     1       0.362   2.059  19.428  1.00  0.00     0.200 HD
BRANCH  16  18
HETATM   18  N3  UNL     1       1.199   3.001  17.898  1.00  0.00    -0.246 NA
BRANCH  18  19
HETATM   19  N4  UNL     1       1.533   3.990  17.241  1.00  0.00    -0.261 N 
ATOM     20  H42 UNL     1       2.092   3.451  16.579  1.00  0.00     0.193 HD
ATOM     21  H41 UNL     1       1.648   4.941  16.892  1.00  0.00     0.193 HD
ENDBRANCH  18  19
ENDBRANCH  16  18
ENDBRANCH   9  16
BRANCH  10  22
HETATM   22  O4  UNL     1       3.205   1.408  20.928  1.00  0.00    -0.391 OA
ATOM     23  H4  UNL     1       3.871   1.880  20.442  1.00  0.00     0.210 HD
ENDBRANCH  10  22
ENDBRANCH   2   5
TORSDOF 8
ENDMDL
MODEL 5
REMARK VINA RESULT: -5.673899230      1.700      2.006
REMARK  8 active torsions:
REMARK  status: ('A' for Active; 'I' for Inactive)
REMARK    1  A    between atoms: C2_2  and  C4_5 
REMARK    2  A    between atoms: C5_6  and  O1_7 
REMARK    3  A    between atoms: C6_9  and  C7_10 
REMARK    4  A    between atoms: C7_10  and  O2_11 
REMARK    5  A    between atoms: C8_14  and  N2_15 
REMARK    6  A    between atoms: N2_15  and  N3_17 
REMARK    7  A    between atoms: N3_17  and  N4_18 
REMARK    8  A    between atoms: C9_21  and  O4_22 
ROOT
HETATM    1  C1  UNL     1       6.716  -6.897  28.018  1.00  0.00     0.026 C 
HETATM    2  C2  UNL     1       6.462  -5.530  27.493  1.00  0.00     0.098 C 
HETATM    3  C3  UNL     1       6.169  -4.545  28.518  1.00  0.00     0.064 C 
HETATM    4  N1  UNL     1       5.956  -3.751  29.338  1.00  0.00    -0.197 NA
ENDROOT
BRANCH   2   5
HETATM    5  C4  UNL     1       5.414  -5.506  26.405  1.00  0.00     0.067 C 
HETATM    6  C5  UNL     1       4.040  -5.814  26.965  1.00  0.00     0.157 C 
HETATM    7  C6  UNL     1       3.045  -5.312  25.910  1.00  0.00     0.177 C 
HETATM    8  O3  UNL     1       3.581  -5.360  24.642  1.00  0.00    -0.352 OA
HETATM    9  C8  UNL     1       4.506  -4.327  24.483  1.00  0.00     0.279 C 
HETATM   10  C9  UNL     1       5.328  -4.150  25.750  1.00  0.00     0.177 C 
BRANCH   6  11
HETATM   11  O1  UNL     1       3.819  -5.065  28.099  1.00  0.00    -0.392 OA
ATOM     12  H1  UNL     1       3.268  -4.319  27.892  1.00  0.00     0.210 HD
ENDBRANCH   6  11
BRANCH   7  13
HETATM   13  C7  UNL     1       1.806  -6.145  26.065  1.00  0.00     0.198 C 
BRANCH  13  14
HETATM   14  O2  UNL     1       2.005  -7.118  27.037  1.00  0.00    -0.398 OA
ATOM     15  H2  UNL     1       1.701  -7.960  26.722  1.00  0.00     0.209 HD
ENDBRANCH  13  14
ENDBRANCH   7  13
BRANCH   9  16
HETATM   16  N2  UNL     1       3.845  -3.073  24.127  1.00  0.00    -0.220 N 
ATOM     17  H2  UNL     1       2.832  -2.961  24.170  1.00  0.00     0.200 HD
BRANCH  16  18
HETATM   18  N3  UNL     1       4.599  -2.157  23.770  1.00  0.00    -0.246 NA
BRANCH  18  19
HETATM   19  N4  UNL     1       5.579  -1.503  23.404  1.00  0.00    -0.261 N 
ATOM     20  H42 UNL     1       5.840  -2.166  22.675  1.00  0.00     0.193 HD
ATOM     21  H41 UNL     1       6.300  -0.788  23.310  1.00  0.00     0.193 HD
ENDBRANCH  18  19
ENDBRANCH  16  18
ENDBRANCH   9  16
BRANCH  10  22
HETATM   22  O4  UNL     1       6.558  -3.585  25.501  1.00  0.00    -0.391 OA
ATOM     23  H4  UNL     1       6.661  -3.287  24.605  1.00  0.00     0.210 HD
ENDBRANCH  10  22
ENDBRANCH   2   5
TORSDOF 8
ENDMDL
