MODEL 1
REMARK VINA RESULT: -6.896891579      0.000      0.000
REMARK  9 active torsions:
REMARK  status: ('A' for Active; 'I' for Inactive)
REMARK    1  A    between atoms: N1_4  and  C4_5 
REMARK    2  A    between atoms: C4_5  and  C5_6 
REMARK    3  A    between atoms: C6_7  and  C7_8 
REMARK    4  A    between atoms: C7_8  and  C8_9 
REMARK    5  A    between atoms: C8_9  and  C9_10 
REMARK    6  A    between atoms: C9_10  and  O1_11 
REMARK    7  A    between atoms: C16_22  and  C17_23 
REMARK    8  A    between atoms: C17_23  and  O2_24 
REMARK    9  A    between atoms: N3_26  and  O3_28 
ROOT
HETATM    1  C4  UNL     1       4.577  -2.703  21.037  1.00  0.00     0.365 C 
ENDROOT
BRANCH   1   2
HETATM    2  N1  UNL     1       3.271  -2.238  21.431  1.00  0.00     0.099 N 
HETATM    3  C3  UNL     1       3.257  -1.003  22.115  1.00  0.00     0.278 C 
HETATM    4  C2  UNL     1       2.799   0.204  21.399  1.00  0.00     0.022 C 
HETATM    5  C1  UNL     1       3.935   1.232  21.283  1.00  0.00     0.012 C 
HETATM    6  C16 UNL     1       2.089  -0.011  20.113  1.00  0.00     0.069 C 
HETATM    7  C15 UNL     1       2.573  -1.257  19.387  1.00  0.00     0.043 C 
HETATM    8  C14 UNL     1       2.301  -2.391  20.383  1.00  0.00     0.274 C 
BRANCH   6   9
HETATM    9  C17 UNL     1       2.205   1.118  19.194  1.00  0.00     0.140 C 
HETATM   10  N3  UNL     1       1.333   2.058  19.221  1.00  0.00    -0.251 N 
ATOM     11  H3  UNL     1       0.557   2.024  19.881  1.00  0.00     0.196 HD
BRANCH   9  12
HETATM   12  O2  UNL     1       3.246   1.179  18.293  1.00  0.00    -0.348 OA
ATOM     13  H2  UNL     1       3.604   2.018  18.029  1.00  0.00     0.219 HD
ENDBRANCH   9  12
BRANCH  10  14
HETATM   14  O3  UNL     1       1.459   3.107  18.353  1.00  0.00    -0.288 OA
ATOM     15  H3  UNL     1       0.937   3.115  17.559  1.00  0.00     0.244 HD
ENDBRANCH  10  14
ENDBRANCH   6   9
ENDBRANCH   1   2
BRANCH   1  16
HETATM   16  C5  UNL     1       5.253  -3.143  22.260  1.00  0.00    -0.076 C 
HETATM   17  C6  UNL     1       5.796  -3.503  23.291  1.00  0.00    -0.104 C 
BRANCH  17  18
HETATM   18  C7  UNL     1       6.423  -3.924  24.542  1.00  0.00     0.105 C 
BRANCH  18  19
HETATM   19  C8  UNL     1       5.757  -3.315  25.736  1.00  0.00    -0.006 C 
HETATM   20  C10 UNL     1       5.987  -1.820  25.675  1.00  0.00     0.040 C 
HETATM   21  C11 UNL     1       7.308  -1.422  26.277  1.00  0.00     0.233 C 
HETATM   22  N2  UNL     1       7.477  -1.917  27.616  1.00  0.00    -0.075 N 
HETATM   23  C12 UNL     1       6.381  -2.803  28.022  1.00  0.00     0.233 C 
ATOM     24  H22 UNL     1       8.382  -2.374  27.728  1.00  0.00     0.277 HD
ATOM     25  H21 UNL     1       7.597  -1.152  28.279  1.00  0.00     0.277 HD
HETATM   26  C13 UNL     1       6.336  -3.918  26.991  1.00  0.00     0.040 C 
BRANCH  19  27
HETATM   27  C9  UNL     1       4.261  -3.518  25.763  1.00  0.00     0.174 C 
BRANCH  27  28
HETATM   28  O1  UNL     1       3.795  -4.124  26.912  1.00  0.00    -0.400 OA
ATOM     29  H1  UNL     1       3.208  -4.854  26.755  1.00  0.00     0.209 HD
ENDBRANCH  27  28
ENDBRANCH  19  27
ENDBRANCH  18  19
ENDBRANCH  17  18
ENDBRANCH   1  16
TORSDOF 9
ENDMDL
MODEL 2
REMARK VINA RESULT: -6.702972599      2.629      8.707
REMARK  9 active torsions:
REMARK  status: ('A' for Active; 'I' for Inactive)
REMARK    1  A    between atoms: N1_4  and  C4_5 
REMARK    2  A    between atoms: C4_5  and  C5_6 
REMARK    3  A    between atoms: C6_7  and  C7_8 
REMARK    4  A    between atoms: C7_8  and  C8_9 
REMARK    5  A    between atoms: C8_9  and  C9_10 
REMARK    6  A    between atoms: C9_10  and  O1_11 
REMARK    7  A    between atoms: C16_22  and  C17_23 
REMARK    8  A    between atoms: C17_23  and  O2_24 
REMARK    9  A    between atoms: N3_26  and  O3_28 
ROOT
HETATM    1  C4  UNL     1       4.008  -3.663  25.511  1.00  0.00     0.365 C 
ENDROOT
BRANCH   1   2
HETATM    2  N1  UNL     1       5.302  -4.282  25.650  1.00  0.00     0.099 N 
HETATM    3  C3  UNL     1       6.268  -3.505  26.327  1.00  0.00     0.278 C 
HETATM    4  C2  UNL     1       6.626  -3.860  27.714  1.00  0.00     0.022 C 
HETATM    5  C1  UNL     1       6.252  -2.727  28.681  1.00  0.00     0.012 C 
HETATM    6  C16 UNL     1       6.184  -5.193  28.197  1.00  0.00     0.069 C 
HETATM    7  C15 UNL     1       4.883  -5.640  27.550  1.00  0.00     0.043 C 
HETATM    8  C14 UNL     1       5.205  -5.659  26.051  1.00  0.00     0.274 C 
BRANCH   6   9
HETATM    9  C17 UNL     1       6.009  -5.252  29.646  1.00  0.00     0.140 C 
HETATM   10  N3  UNL     1       6.582  -4.384  30.396  1.00  0.00    -0.251 N 
ATOM     11  H3  UNL     1       7.161  -3.650  29.989  1.00  0.00     0.196 HD
BRANCH   9  12
HETATM   12  O2  UNL     1       5.232  -6.240  30.214  1.00  0.00    -0.348 OA
ATOM     13  H2  UNL     1       5.573  -6.769  30.924  1.00  0.00     0.219 HD
ENDBRANCH   9  12
BRANCH  10  14
HETATM   14  O3  UNL     1       6.405  -4.456  31.750  1.00  0.00    -0.288 OA
ATOM     15  H3  UNL     1       5.680  -3.988  32.148  1.00  0.00     0.244 HD
ENDBRANCH  10  14
ENDBRANCH   6   9
ENDBRANCH   1   2
BRANCH   1  16
HETATM   16  C5  UNL     1       4.179  -2.534  24.595  1.00  0.00    -0.076 C 
HETATM   17  C6  UNL     1       4.345  -1.594  23.835  1.00  0.00    -0.104 C 
BRANCH  17  18
HETATM   18  C7  UNL     1       4.575  -0.469  22.932  1.00  0.00     0.105 C 
BRANCH  18  19
HETATM   19  C8  UNL     1       3.296   0.073  22.372  1.00  0.00    -0.006 C 
HETATM   20  C10 UNL     1       2.594  -1.060  21.654  1.00  0.00     0.040 C 
HETATM   21  C11 UNL     1       3.080  -1.225  20.239  1.00  0.00     0.233 C 
HETATM   22  N2  UNL     1       3.001  -0.006  19.482  1.00  0.00    -0.075 N 
HETATM   23  C12 UNL     1       2.594   1.135  20.310  1.00  0.00     0.233 C 
ATOM     24  H22 UNL     1       3.878   0.185  18.997  1.00  0.00     0.277 HD
ATOM     25  H21 UNL     1       2.388  -0.112  18.675  1.00  0.00     0.277 HD
HETATM   26  C13 UNL     1       3.606   1.218  21.441  1.00  0.00     0.040 C 
BRANCH  19  27
HETATM   27  C9  UNL     1       2.338   0.571  23.428  1.00  0.00     0.174 C 
BRANCH  27  28
HETATM   28  O1  UNL     1       1.232  -0.234  23.608  1.00  0.00    -0.400 OA
ATOM     29  H1  UNL     1       1.238  -0.725  24.421  1.00  0.00     0.209 HD
ENDBRANCH  27  28
ENDBRANCH  19  27
ENDBRANCH  18  19
ENDBRANCH  17  18
ENDBRANCH   1  16
TORSDOF 9
ENDMDL
MODEL 3
REMARK VINA RESULT: -6.567717475      2.118      8.144
REMARK  9 active torsions:
REMARK  status: ('A' for Active; 'I' for Inactive)
REMARK    1  A    between atoms: N1_4  and  C4_5 
REMARK    2  A    between atoms: C4_5  and  C5_6 
REMARK    3  A    between atoms: C6_7  and  C7_8 
REMARK    4  A    between atoms: C7_8  and  C8_9 
REMARK    5  A    between atoms: C8_9  and  C9_10 
REMARK    6  A    between atoms: C9_10  and  O1_11 
REMARK    7  A    between atoms: C16_22  and  C17_23 
REMARK    8  A    between atoms: C17_23  and  O2_24 
REMARK    9  A    between atoms: N3_26  and  O3_28 
ROOT
HETATM    1  C4  UNL     1       2.930  -3.182  24.411  1.00  0.00     0.365 C 
ENDROOT
BRANCH   1   2
HETATM    2  N1  UNL     1       3.921  -4.229  24.445  1.00  0.00     0.099 N 
HETATM    3  C3  UNL     1       5.255  -3.797  24.279  1.00  0.00     0.278 C 
HETATM    4  C2  UNL     1       6.144  -3.754  25.457  1.00  0.00     0.022 C 
HETATM    5  C1  UNL     1       6.594  -2.315  25.749  1.00  0.00     0.012 C 
HETATM    6  C16 UNL     1       5.674  -4.465  26.673  1.00  0.00     0.069 C 
HETATM    7  C15 UNL     1       4.158  -4.465  26.794  1.00  0.00     0.043 C 
HETATM    8  C14 UNL     1       3.688  -5.162  25.512  1.00  0.00     0.274 C 
BRANCH   6   9
HETATM    9  C17 UNL     1       6.223  -3.915  27.910  1.00  0.00     0.140 C 
HETATM   10  N3  UNL     1       5.487  -3.193  28.672  1.00  0.00    -0.251 N 
ATOM     11  H3  UNL     1       4.518  -2.999  28.422  1.00  0.00     0.196 HD
BRANCH   9  12
HETATM   12  O2  UNL     1       7.532  -4.166  28.263  1.00  0.00    -0.348 OA
ATOM     13  H2  UNL     1       8.221  -3.564  28.009  1.00  0.00     0.219 HD
ENDBRANCH   9  12
BRANCH  10  14
HETATM   14  O3  UNL     1       6.019  -2.688  29.826  1.00  0.00    -0.288 OA
ATOM     15  H3  UNL     1       6.671  -2.000  29.772  1.00  0.00     0.244 HD
ENDBRANCH  10  14
ENDBRANCH   6   9
ENDBRANCH   1   2
BRANCH   1  16
HETATM   16  C5  UNL     1       3.138  -2.449  23.160  1.00  0.00    -0.076 C 
HETATM   17  C6  UNL     1       3.310  -1.859  22.106  1.00  0.00    -0.104 C 
BRANCH  17  18
HETATM   18  C7  UNL     1       3.520  -1.180  20.830  1.00  0.00     0.105 C 
BRANCH  18  19
HETATM   19  C8  UNL     1       3.055   0.242  20.866  1.00  0.00    -0.006 C 
HETATM   20  C10 UNL     1       1.679   0.257  21.498  1.00  0.00     0.040 C 
HETATM   21  C11 UNL     1       0.589  -0.017  20.496  1.00  0.00     0.233 C 
HETATM   22  N2  UNL     1       0.647   0.864  19.362  1.00  0.00    -0.075 N 
HETATM   23  C12 UNL     1       1.833   1.727  19.390  1.00  0.00     0.233 C 
ATOM     24  H22 UNL     1       0.590   0.343  18.487  1.00  0.00     0.277 HD
ATOM     25  H21 UNL     1      -0.207   1.415  19.279  1.00  0.00     0.277 HD
HETATM   26  C13 UNL     1       3.031   0.795  19.463  1.00  0.00     0.040 C 
BRANCH  19  27
HETATM   27  C9  UNL     1       3.925   1.141  21.712  1.00  0.00     0.174 C 
BRANCH  27  28
HETATM   28  O1  UNL     1       3.222   2.071  22.451  1.00  0.00    -0.400 OA
ATOM     29  H1  UNL     1       3.763   2.753  22.830  1.00  0.00     0.209 HD
ENDBRANCH  27  28
ENDBRANCH  19  27
ENDBRANCH  18  19
ENDBRANCH  17  18
ENDBRANCH   1  16
TORSDOF 9
ENDMDL
MODEL 4
REMARK VINA RESULT: -6.551696267      1.826      2.294
REMARK  9 active torsions:
REMARK  status: ('A' for Active; 'I' for Inactive)
REMARK    1  A    between atoms: N1_4  and  C4_5 
REMARK    2  A    between atoms: C4_5  and  C5_6 
REMARK    3  A    between atoms: C6_7  and  C7_8 
REMARK    4  A    between atoms: C7_8  and  C8_9 
REMARK    5  A    between atoms: C8_9  and  C9_10 
REMARK    6  A    between atoms: C9_10  and  O1_11 
REMARK    7  A    between atoms: C16_22  and  C17_23 
REMARK    8  A    between atoms: C17_23  and  O2_24 
REMARK    9  A    between atoms: N3_26  and  O3_28 
ROOT
HETATM    1  C4  UNL     1       2.568  -2.541  23.020  1.00  0.00     0.365 C 
ENDROOT
BRANCH   1   2
HETATM    2  N1  UNL     1       1.874  -1.338  23.404  1.00  0.00     0.099 N 
HETATM    3  C3  UNL     1       2.659  -0.164  23.391  1.00  0.00     0.278 C 
HETATM    4  C2  UNL     1       2.474   0.807  22.295  1.00  0.00     0.022 C 
HETATM    5  C1  UNL     1       3.756   0.940  21.460  1.00  0.00     0.012 C 
HETATM    6  C16 UNL     1       1.260   0.642  21.455  1.00  0.00     0.069 C 
HETATM    7  C15 UNL     1       0.831  -0.812  21.339  1.00  0.00     0.043 C 
HETATM    8  C14 UNL     1       0.579  -1.238  22.790  1.00  0.00     0.274 C 
BRANCH   6   9
HETATM    9  C17 UNL     1       1.417   1.173  20.104  1.00  0.00     0.140 C 
HETATM   10  N3  UNL     1       1.037   2.368  19.837  1.00  0.00    -0.251 N 
ATOM     11  H3  UNL     1       0.624   2.954  20.563  1.00  0.00     0.196 HD
BRANCH   9  12
HETATM   12  O2  UNL     1       1.971   0.395  19.109  1.00  0.00    -0.348 OA
ATOM     13  H2  UNL     1       1.815  -0.541  19.090  1.00  0.00     0.219 HD
ENDBRANCH   9  12
BRANCH  10  14
HETATM   14  O3  UNL     1       1.193   2.848  18.567  1.00  0.00    -0.288 OA
ATOM     15  H3  UNL     1       1.465   3.750  18.443  1.00  0.00     0.244 HD
ENDBRANCH  10  14
ENDBRANCH   6   9
ENDBRANCH   1   2
BRANCH   1  16
HETATM   16  C5  UNL     1       3.152  -3.097  24.242  1.00  0.00    -0.076 C 
HETATM   17  C6  UNL     1       3.660  -3.556  25.251  1.00  0.00    -0.104 C 
BRANCH  17  18
HETATM   18  C7  UNL     1       4.298  -4.106  26.446  1.00  0.00     0.105 C 
BRANCH  18  19
HETATM   19  C8  UNL     1       5.766  -3.815  26.485  1.00  0.00    -0.006 C 
HETATM   20  C10 UNL     1       6.272  -4.199  27.859  1.00  0.00     0.040 C 
HETATM   21  C11 UNL     1       6.082  -3.095  28.864  1.00  0.00     0.233 C 
HETATM   22  N2  UNL     1       6.654  -1.849  28.432  1.00  0.00    -0.075 N 
HETATM   23  C12 UNL     1       7.165  -1.921  27.059  1.00  0.00     0.233 C 
ATOM     24  H22 UNL     1       5.991  -1.082  28.540  1.00  0.00     0.277 HD
ATOM     25  H21 UNL     1       7.377  -1.532  29.078  1.00  0.00     0.277 HD
HETATM   26  C13 UNL     1       5.992  -2.353  26.195  1.00  0.00     0.040 C 
BRANCH  19  27
HETATM   27  C9  UNL     1       6.568  -4.622  25.491  1.00  0.00     0.174 C 
BRANCH  27  28
HETATM   28  O1  UNL     1       6.928  -3.922  24.358  1.00  0.00    -0.400 OA
ATOM     29  H1  UNL     1       7.122  -4.472  23.608  1.00  0.00     0.209 HD
ENDBRANCH  27  28
ENDBRANCH  19  27
ENDBRANCH  18  19
ENDBRANCH  17  18
ENDBRANCH   1  16
TORSDOF 9
ENDMDL
MODEL 5
REMARK VINA RESULT: -6.530350390      2.593      7.520
REMARK  9 active torsions:
REMARK  status: ('A' for Active; 'I' for Inactive)
REMARK    1  A    between atoms: N1_4  and  C4_5 
REMARK    2  A    between atoms: C4_5  and  C5_6 
REMARK    3  A    between atoms: C6_7  and  C7_8 
REMARK    4  A    between atoms: C7_8  and  C8_9 
REMARK    5  A    between atoms: C8_9  and  C9_10 
REMARK    6  A    between atoms: C9_10  and  O1_11 
REMARK    7  A    between atoms: C16_22  and  C17_23 
REMARK    8  A    between atoms: C17_23  and  O2_24 
REMARK    9  A    between atoms: N3_26  and  O3_28 
ROOT
HETATM    1  C4  UNL     1       2.443  -4.636  25.324  1.00  0.00     0.365 C 
ENDROOT
BRANCH   1   2
HETATM    2  N1  UNL     1       3.768  -5.192  25.222  1.00  0.00     0.099 N 
HETATM    3  C3  UNL     1       4.744  -4.321  24.688  1.00  0.00     0.278 C 
HETATM    4  C2  UNL     1       5.731  -3.711  25.600  1.00  0.00     0.022 C 
HETATM    5  C1  UNL     1       5.582  -2.182  25.622  1.00  0.00     0.012 C 
HETATM    6  C16 UNL     1       5.833  -4.294  26.962  1.00  0.00     0.069 C 
HETATM    7  C15 UNL     1       4.506  -4.854  27.451  1.00  0.00     0.043 C 
HETATM    8  C14 UNL     1       4.146  -5.915  26.405  1.00  0.00     0.274 C 
BRANCH   6   9
HETATM    9  C17 UNL     1       6.316  -3.345  27.961  1.00  0.00     0.140 C 
HETATM   10  N3  UNL     1       5.594  -3.069  28.984  1.00  0.00    -0.251 N 
ATOM     11  H3  UNL     1       4.682  -3.508  29.107  1.00  0.00     0.196 HD
BRANCH   9  12
HETATM   12  O2  UNL     1       7.546  -2.740  27.810  1.00  0.00    -0.348 OA
ATOM     13  H2  UNL     1       8.076  -2.535  28.570  1.00  0.00     0.219 HD
ENDBRANCH   9  12
BRANCH  10  14
HETATM   14  O3  UNL     1       6.064  -2.179  29.909  1.00  0.00    -0.288 OA
ATOM     15  H3  UNL     1       5.605  -2.085  30.736  1.00  0.00     0.244 HD
ENDBRANCH  10  14
ENDBRANCH   6   9
ENDBRANCH   1   2
BRANCH   1  16
HETATM   16  C5  UNL     1       2.291  -3.705  24.204  1.00  0.00    -0.076 C 
HETATM   17  C6  UNL     1       2.180  -2.914  23.281  1.00  0.00    -0.104 C 
BRANCH  17  18
HETATM   18  C7  UNL     1       2.065  -1.947  22.192  1.00  0.00     0.105 C 
BRANCH  18  19
HETATM   19  C8  UNL     1       3.305  -1.122  22.039  1.00  0.00    -0.006 C 
HETATM   20  C10 UNL     1       3.466  -0.301  23.301  1.00  0.00     0.040 C 
HETATM   21  C11 UNL     1       2.673   0.978  23.253  1.00  0.00     0.233 C 
HETATM   22  N2  UNL     1       2.963   1.764  22.085  1.00  0.00    -0.075 N 
HETATM   23  C12 UNL     1       3.858   1.066  21.156  1.00  0.00     0.233 C 
ATOM     24  H22 UNL     1       2.106   2.061  21.618  1.00  0.00     0.277 HD
ATOM     25  H21 UNL     1       3.336   2.679  22.338  1.00  0.00     0.277 HD
HETATM   26  C13 UNL     1       3.174  -0.248  20.818  1.00  0.00     0.040 C 
BRANCH  19  27
HETATM   27  C9  UNL     1       4.564  -1.944  21.899  1.00  0.00     0.174 C 
BRANCH  27  28
HETATM   28  O1  UNL     1       4.602  -2.724  20.761  1.00  0.00    -0.400 OA
ATOM     29  H1  UNL     1       3.810  -2.686  20.238  1.00  0.00     0.209 HD
ENDBRANCH  27  28
ENDBRANCH  19  27
ENDBRANCH  18  19
ENDBRANCH  17  18
ENDBRANCH   1  16
TORSDOF 9
ENDMDL
