MODEL 1
REMARK VINA RESULT: -6.174340014      0.000      0.000
REMARK  9 active torsions:
REMARK  status: ('A' for Active; 'I' for Inactive)
REMARK    1  A    between atoms: C2_2  and  O1_4 
REMARK    2  A    between atoms: O1_4  and  C4_5 
REMARK    3  A    between atoms: C5_6  and  O2_7 
REMARK    4  A    between atoms: C6_9  and  O3_10 
REMARK    5  A    between atoms: C7_12  and  O4_13 
REMARK    6  A    between atoms: C8_15  and  N1_16 
REMARK    7  A    between atoms: N1_16  and  N2_18 
REMARK    8  A    between atoms: N2_18  and  N3_19 
REMARK    9  A    between atoms: C9_22  and  O5_23 
ROOT
HETATM    1  C4  UNL     1       6.753  -3.249  26.089  1.00  0.00     0.184 C 
HETATM    2  C5  UNL     1       7.234  -2.786  27.438  1.00  0.00     0.181 C 
HETATM    3  C6  UNL     1       6.267  -3.342  28.471  1.00  0.00     0.180 C 
HETATM    4  C7  UNL     1       6.617  -4.830  28.523  1.00  0.00     0.177 C 
HETATM    5  C8  UNL     1       6.265  -5.457  27.231  1.00  0.00     0.177 C 
HETATM    6  C9  UNL     1       6.117  -4.575  26.065  1.00  0.00     0.177 C 
ENDROOT
BRANCH   5   7
HETATM    7  N1  UNL     1       7.315  -6.444  26.925  1.00  0.00    -0.243 N 
ATOM      8  H1  UNL     1       7.169  -7.131  26.185  1.00  0.00     0.197 HD
BRANCH   7   9
HETATM    9  N2  UNL     1       8.365  -6.440  27.561  1.00  0.00    -0.248 NA
BRANCH   9  10
HETATM   10  N3  UNL     1       9.494  -6.693  27.975  1.00  0.00    -0.261 N 
ATOM     11  H32 UNL     1       9.929  -6.618  27.056  1.00  0.00     0.193 HD
ATOM     12  H31 UNL     1      10.289  -6.919  28.571  1.00  0.00     0.193 HD
ENDBRANCH   9  10
ENDBRANCH   7   9
ENDBRANCH   5   7
BRANCH   4  13
HETATM   13  O4  UNL     1       5.956  -5.414  29.575  1.00  0.00    -0.391 OA
ATOM     14  H4  UNL     1       5.169  -5.838  29.254  1.00  0.00     0.210 HD
ENDBRANCH   4  13
BRANCH   6  15
HETATM   15  O5  UNL     1       6.542  -5.250  24.897  1.00  0.00    -0.391 OA
ATOM     16  H5  UNL     1       7.182  -5.904  25.148  1.00  0.00     0.210 HD
ENDBRANCH   6  15
BRANCH   3  17
HETATM   17  O3  UNL     1       6.423  -2.746  29.709  1.00  0.00    -0.390 OA
ATOM     18  H3  UNL     1       5.867  -1.982  29.814  1.00  0.00     0.210 HD
ENDBRANCH   3  17
BRANCH   1  19
HETATM   19  O1  UNL     1       5.933  -2.235  25.583  1.00  0.00    -0.376 OA
BRANCH  19  20
HETATM   20  C2  UNL     1       6.110  -1.986  24.254  1.00  0.00     0.114 C 
HETATM   21  C1  UNL     1       4.792  -1.395  23.735  1.00  0.00     0.039 C 
HETATM   22  C3  UNL     1       7.173  -0.955  23.959  1.00  0.00     0.039 C 
ENDBRANCH  19  20
ENDBRANCH   1  19
BRANCH   2  23
HETATM   23  O2  UNL     1       7.259  -1.393  27.468  1.00  0.00    -0.390 OA
ATOM     24  H2  UNL     1       7.769  -1.070  26.733  1.00  0.00     0.210 HD
ENDBRANCH   2  23
TORSDOF 9
ENDMDL
MODEL 2
REMARK VINA RESULT: -5.903303271      3.675      5.417
REMARK  9 active torsions:
REMARK  status: ('A' for Active; 'I' for Inactive)
REMARK    1  A    between atoms: C2_2  and  O1_4 
REMARK    2  A    between atoms: O1_4  and  C4_5 
REMARK    3  A    between atoms: C5_6  and  O2_7 
REMARK    4  A    between atoms: C6_9  and  O3_10 
REMARK    5  A    between atoms: C7_12  and  O4_13 
REMARK    6  A    between atoms: C8_15  and  N1_16 
REMARK    7  A    between atoms: N1_16  and  N2_18 
REMARK    8  A    between atoms: N2_18  and  N3_19 
REMARK    9  A    between atoms: C9_22  and  O5_23 
ROOT
HETATM    1  C4  UNL     1       4.154  -1.713  22.484  1.00  0.00     0.184 C 
HETATM    2  C5  UNL     1       4.637  -3.008  21.886  1.00  0.00     0.181 C 
HETATM    3  C6  UNL     1       6.023  -3.271  22.453  1.00  0.00     0.180 C 
HETATM    4  C7  UNL     1       5.743  -3.695  23.896  1.00  0.00     0.177 C 
HETATM    5  C8  UNL     1       5.191  -2.543  24.642  1.00  0.00     0.177 C 
HETATM    6  C9  UNL     1       4.599  -1.448  23.860  1.00  0.00     0.177 C 
ENDROOT
BRANCH   5   7
HETATM    7  N1  UNL     1       4.155  -3.068  25.548  1.00  0.00    -0.243 N 
ATOM      8  H1  UNL     1       3.178  -3.078  25.254  1.00  0.00     0.197 HD
BRANCH   7   9
HETATM    9  N2  UNL     1       4.467  -3.492  26.658  1.00  0.00    -0.248 NA
BRANCH   9  10
HETATM   10  N3  UNL     1       4.994  -3.642  27.757  1.00  0.00    -0.261 N 
ATOM     11  H32 UNL     1       5.013  -2.645  27.967  1.00  0.00     0.193 HD
ATOM     12  H31 UNL     1       5.417  -4.046  28.593  1.00  0.00     0.193 HD
ENDBRANCH   9  10
ENDBRANCH   7   9
ENDBRANCH   5   7
BRANCH   4  13
HETATM   13  O4  UNL     1       6.901  -4.165  24.462  1.00  0.00    -0.391 OA
ATOM     14  H4  UNL     1       7.005  -5.085  24.248  1.00  0.00     0.210 HD
ENDBRANCH   4  13
BRANCH   6  15
HETATM   15  O5  UNL     1       3.517  -0.881  24.575  1.00  0.00    -0.391 OA
ATOM     16  H5  UNL     1       3.576  -1.165  25.479  1.00  0.00     0.210 HD
ENDBRANCH   6  15
BRANCH   3  17
HETATM   17  O3  UNL     1       6.694  -4.262  21.761  1.00  0.00    -0.390 OA
ATOM     18  H3  UNL     1       6.959  -4.980  22.325  1.00  0.00     0.210 HD
ENDBRANCH   3  17
BRANCH   1  19
HETATM   19  O1  UNL     1       4.503  -0.699  21.587  1.00  0.00    -0.376 OA
BRANCH  19  20
HETATM   20  C2  UNL     1       3.517   0.218  21.372  1.00  0.00     0.114 C 
HETATM   21  C1  UNL     1       4.115   1.595  21.692  1.00  0.00     0.039 C 
HETATM   22  C3  UNL     1       3.048   0.291  19.938  1.00  0.00     0.039 C 
ENDBRANCH  19  20
ENDBRANCH   1  19
BRANCH   2  23
HETATM   23  O2  UNL     1       4.675  -2.891  20.498  1.00  0.00    -0.390 OA
ATOM     24  H2  UNL     1       3.811  -3.067  20.143  1.00  0.00     0.210 HD
ENDBRANCH   2  23
TORSDOF 9
ENDMDL
MODEL 3
REMARK VINA RESULT: -5.888727294      1.174      1.242
REMARK  9 active torsions:
REMARK  status: ('A' for Active; 'I' for Inactive)
REMARK    1  A    between atoms: C2_2  and  O1_4 
REMARK    2  A    between atoms: O1_4  and  C4_5 
REMARK    3  A    between atoms: C5_6  and  O2_7 
REMARK    4  A    between atoms: C6_9  and  O3_10 
REMARK    5  A    between atoms: C7_12  and  O4_13 
REMARK    6  A    between atoms: C8_15  and  N1_16 
REMARK    7  A    between atoms: N1_16  and  N2_18 
REMARK    8  A    between atoms: N2_18  and  N3_19 
REMARK    9  A    between atoms: C9_22  and  O5_23 
ROOT
HETATM    1  C4  UNL     1       6.035  -3.676  25.534  1.00  0.00     0.184 C 
HETATM    2  C5  UNL     1       6.927  -2.764  26.334  1.00  0.00     0.181 C 
HETATM    3  C6  UNL     1       6.492  -2.876  27.786  1.00  0.00     0.180 C 
HETATM    4  C7  UNL     1       7.013  -4.251  28.209  1.00  0.00     0.177 C 
HETATM    5  C8  UNL     1       6.281  -5.298  27.464  1.00  0.00     0.177 C 
HETATM    6  C9  UNL     1       5.602  -4.900  26.223  1.00  0.00     0.177 C 
ENDROOT
BRANCH   5   7
HETATM    7  N1  UNL     1       7.251  -6.356  27.134  1.00  0.00    -0.243 N 
ATOM      8  H1  UNL     1       6.996  -7.093  26.476  1.00  0.00     0.197 HD
BRANCH   7   9
HETATM    9  N2  UNL     1       8.365  -6.351  27.650  1.00  0.00    -0.248 NA
BRANCH   9  10
HETATM   10  N3  UNL     1       9.489  -6.666  28.032  1.00  0.00    -0.261 N 
ATOM     11  H32 UNL     1       9.182  -7.546  28.447  1.00  0.00     0.193 HD
ATOM     12  H31 UNL     1      10.490  -6.676  28.227  1.00  0.00     0.193 HD
ENDBRANCH   9  10
ENDBRANCH   7   9
ENDBRANCH   5   7
BRANCH   4  13
HETATM   13  O4  UNL     1       6.869  -4.391  29.567  1.00  0.00    -0.391 OA
ATOM     14  H4  UNL     1       6.221  -5.062  29.747  1.00  0.00     0.210 HD
ENDBRANCH   4  13
BRANCH   6  15
HETATM   15  O5  UNL     1       5.637  -5.967  25.295  1.00  0.00    -0.391 OA
ATOM     16  H5  UNL     1       6.395  -6.506  25.489  1.00  0.00     0.210 HD
ENDBRANCH   6  15
BRANCH   3  17
HETATM   17  O3  UNL     1       7.027  -1.873  28.574  1.00  0.00    -0.390 OA
ATOM     18  H3  UNL     1       7.070  -2.119  29.491  1.00  0.00     0.210 HD
ENDBRANCH   3  17
BRANCH   1  19
HETATM   19  O1  UNL     1       4.970  -2.895  25.074  1.00  0.00    -0.376 OA
BRANCH  19  20
HETATM   20  C2  UNL     1       4.723  -3.023  23.738  1.00  0.00     0.114 C 
HETATM   21  C1  UNL     1       4.130  -1.687  23.268  1.00  0.00     0.039 C 
HETATM   22  C3  UNL     1       5.961  -3.246  22.904  1.00  0.00     0.039 C 
ENDBRANCH  19  20
ENDBRANCH   1  19
BRANCH   2  23
HETATM   23  O2  UNL     1       6.793  -1.458  25.867  1.00  0.00    -0.390 OA
ATOM     24  H2  UNL     1       7.652  -1.104  25.665  1.00  0.00     0.210 HD
ENDBRANCH   2  23
TORSDOF 9
ENDMDL
MODEL 4
REMARK VINA RESULT: -5.887579124      3.710      5.294
REMARK  9 active torsions:
REMARK  status: ('A' for Active; 'I' for Inactive)
REMARK    1  A    between atoms: C2_2  and  O1_4 
REMARK    2  A    between atoms: O1_4  and  C4_5 
REMARK    3  A    between atoms: C5_6  and  O2_7 
REMARK    4  A    between atoms: C6_9  and  O3_10 
REMARK    5  A    between atoms: C7_12  and  O4_13 
REMARK    6  A    between atoms: C8_15  and  N1_16 
REMARK    7  A    between atoms: N1_16  and  N2_18 
REMARK    8  A    between atoms: N2_18  and  N3_19 
REMARK    9  A    between atoms: C9_22  and  O5_23 
ROOT
HETATM    1  C4  UNL     1       4.622  -1.700  22.937  1.00  0.00     0.184 C 
HETATM    2  C5  UNL     1       4.367  -3.102  22.452  1.00  0.00     0.181 C 
HETATM    3  C6  UNL     1       5.722  -3.718  22.139  1.00  0.00     0.180 C 
HETATM    4  C7  UNL     1       6.323  -3.982  23.520  1.00  0.00     0.177 C 
HETATM    5  C8  UNL     1       6.588  -2.691  24.190  1.00  0.00     0.177 C 
HETATM    6  C9  UNL     1       5.865  -1.509  23.698  1.00  0.00     0.177 C 
ENDROOT
BRANCH   5   7
HETATM    7  N1  UNL     1       6.262  -2.864  25.616  1.00  0.00    -0.243 N 
ATOM      8  H1  UNL     1       5.439  -3.402  25.889  1.00  0.00     0.197 HD
BRANCH   7   9
HETATM    9  N2  UNL     1       6.980  -2.361  26.475  1.00  0.00    -0.248 NA
BRANCH   9  10
HETATM   10  N3  UNL     1       7.453  -1.612  27.327  1.00  0.00    -0.261 N 
ATOM     11  H32 UNL     1       7.108  -2.166  28.111  1.00  0.00     0.193 HD
ATOM     12  H31 UNL     1       7.934  -0.848  27.799  1.00  0.00     0.193 HD
ENDBRANCH   9  10
ENDBRANCH   7   9
ENDBRANCH   5   7
BRANCH   4  13
HETATM   13  O4  UNL     1       7.463  -4.733  23.382  1.00  0.00    -0.391 OA
ATOM     14  H4  UNL     1       8.136  -4.391  23.960  1.00  0.00     0.210 HD
ENDBRANCH   4  13
BRANCH   6  15
HETATM   15  O5  UNL     1       5.595  -0.631  24.775  1.00  0.00    -0.391 OA
ATOM     16  H5  UNL     1       6.386  -0.142  24.964  1.00  0.00     0.210 HD
ENDBRANCH   6  15
BRANCH   3  17
HETATM   17  O3  UNL     1       5.611  -4.886  21.408  1.00  0.00    -0.390 OA
ATOM     18  H3  UNL     1       5.733  -5.661  21.945  1.00  0.00     0.210 HD
ENDBRANCH   3  17
BRANCH   1  19
HETATM   19  O1  UNL     1       4.526  -0.864  21.819  1.00  0.00    -0.376 OA
BRANCH  19  20
HETATM   20  C2  UNL     1       4.102   0.400  22.104  1.00  0.00     0.114 C 
HETATM   21  C1  UNL     1       3.791   1.077  20.761  1.00  0.00     0.039 C 
HETATM   22  C3  UNL     1       2.821   0.452  22.903  1.00  0.00     0.039 C 
ENDBRANCH  19  20
ENDBRANCH   1  19
BRANCH   2  23
HETATM   23  O2  UNL     1       3.557  -3.062  21.320  1.00  0.00    -0.390 OA
ATOM     24  H2  UNL     1       2.864  -3.707  21.404  1.00  0.00     0.210 HD
ENDBRANCH   2  23
TORSDOF 9
ENDMDL
MODEL 5
REMARK VINA RESULT: -5.810508600      2.586      3.002
REMARK  9 active torsions:
REMARK  status: ('A' for Active; 'I' for Inactive)
REMARK    1  A    between atoms: C2_2  and  O1_4 
REMARK    2  A    between atoms: O1_4  and  C4_5 
REMARK    3  A    between atoms: C5_6  and  O2_7 
REMARK    4  A    between atoms: C6_9  and  O3_10 
REMARK    5  A    between atoms: C7_12  and  O4_13 
REMARK    6  A    between atoms: C8_15  and  N1_16 
REMARK    7  A    between atoms: N1_16  and  N2_18 
REMARK    8  A    between atoms: N2_18  and  N3_19 
REMARK    9  A    between atoms: C9_22  and  O5_23 
ROOT
HETATM    1  C4  UNL     1       6.471  -3.359  23.987  1.00  0.00     0.184 C 
HETATM    2  C5  UNL     1       5.642  -2.765  25.095  1.00  0.00     0.181 C 
HETATM    3  C6  UNL     1       4.368  -3.590  25.189  1.00  0.00     0.180 C 
HETATM    4  C7  UNL     1       4.836  -4.896  25.833  1.00  0.00     0.177 C 
HETATM    5  C8  UNL     1       5.733  -5.606  24.896  1.00  0.00     0.177 C 
HETATM    6  C9  UNL     1       6.361  -4.816  23.827  1.00  0.00     0.177 C 
ENDROOT
BRANCH   5   7
HETATM    7  N1  UNL     1       6.805  -6.220  25.698  1.00  0.00    -0.243 N 
ATOM      8  H1  UNL     1       7.372  -6.970  25.303  1.00  0.00     0.197 HD
BRANCH   7   9
HETATM    9  N2  UNL     1       7.015  -5.828  26.843  1.00  0.00    -0.248 NA
BRANCH   9  10
HETATM   10  N3  UNL     1       7.340  -5.762  28.026  1.00  0.00    -0.261 N 
ATOM     11  H32 UNL     1       6.497  -6.229  28.360  1.00  0.00     0.193 HD
ATOM     12  H31 UNL     1       7.841  -5.578  28.895  1.00  0.00     0.193 HD
ENDBRANCH   9  10
ENDBRANCH   7   9
ENDBRANCH   5   7
BRANCH   4  13
HETATM   13  O4  UNL     1       3.741  -5.653  26.168  1.00  0.00    -0.391 OA
ATOM     14  H4  UNL     1       3.111  -5.626  25.458  1.00  0.00     0.210 HD
ENDBRANCH   4  13
BRANCH   6  15
HETATM   15  O5  UNL     1       7.650  -5.330  23.546  1.00  0.00    -0.391 OA
ATOM     16  H5  UNL     1       7.741  -6.163  23.992  1.00  0.00     0.210 HD
ENDBRANCH   6  15
BRANCH   3  17
HETATM   17  O3  UNL     1       3.398  -2.972  25.956  1.00  0.00    -0.390 OA
ATOM     18  H3  UNL     1       2.668  -3.550  26.148  1.00  0.00     0.210 HD
ENDBRANCH   3  17
BRANCH   1  19
HETATM   19  O1  UNL     1       6.156  -2.650  22.823  1.00  0.00    -0.376 OA
BRANCH  19  20
HETATM   20  C2  UNL     1       5.495  -3.387  21.885  1.00  0.00     0.114 C 
HETATM   21  C1  UNL     1       4.185  -2.645  21.582  1.00  0.00     0.039 C 
HETATM   22  C3  UNL     1       6.224  -3.500  20.568  1.00  0.00     0.039 C 
ENDBRANCH  19  20
ENDBRANCH   1  19
BRANCH   2  23
HETATM   23  O2  UNL     1       5.359  -1.433  24.798  1.00  0.00    -0.390 OA
ATOM     24  H2  UNL     1       5.146  -0.970  25.600  1.00  0.00     0.210 HD
ENDBRANCH   2  23
TORSDOF 9
ENDMDL
