MODEL 1
REMARK VINA RESULT: -6.522179058      0.000      0.000
REMARK  7 active torsions:
REMARK  status: ('A' for Active; 'I' for Inactive)
REMARK    1  A    between atoms: O1_1  and  C1_3 
REMARK    2  A    between atoms: C4_6  and  O2_7 
REMARK    3  A    between atoms: O2_7  and  C5_8 
REMARK    4  A    between atoms: C5_8  and  C6_9 
REMARK    5  A    between atoms: C8_12  and  O4_13 
REMARK    6  A    between atoms: C9_15  and  O5_16 
REMARK    7  A    between atoms: C10_18  and  O6_19 
ROOT
HETATM    1  O2  UNL     1       6.866  -3.126  24.629  1.00  0.00    -0.381 OA
ENDROOT
BRANCH   1   2
HETATM    2  C4  UNL     1       5.919  -4.078  24.886  1.00  0.00     0.150 C 
HETATM    3  C3  UNL     1       4.735  -3.325  25.512  1.00  0.00     0.037 C 
HETATM    4  C2  UNL     1       3.836  -4.305  26.241  1.00  0.00     0.034 C 
HETATM    5  C1  UNL     1       4.545  -4.809  27.481  1.00  0.00     0.120 C 
HETATM    6  C11 UNL     1       6.048  -4.838  27.282  1.00  0.00     0.066 C 
HETATM    7  C10 UNL     1       6.399  -5.157  25.837  1.00  0.00     0.149 C 
BRANCH   5   8
HETATM    8  O1  UNL     1       4.046  -6.080  27.760  1.00  0.00    -0.395 OA
ATOM      9  H1  UNL     1       4.745  -6.703  27.596  1.00  0.00     0.210 HD
ENDBRANCH   5   8
BRANCH   7  10
HETATM   10  O6  UNL     1       5.896  -6.415  25.483  1.00  0.00    -0.393 OA
ATOM     11  H6  UNL     1       6.295  -7.107  25.997  1.00  0.00     0.210 HD
ENDBRANCH   7  10
ENDBRANCH   1   2
BRANCH   1  12
HETATM   12  C5  UNL     1       6.441  -1.847  24.476  1.00  0.00     0.203 C 
BRANCH  12  13
HETATM   13  C6  UNL     1       7.379  -0.778  24.891  1.00  0.00     0.176 C 
HETATM   14  O3  UNL     1       8.246  -0.278  23.985  1.00  0.00    -0.378 OA
HETATM   15  C7  UNL     1       9.376   0.182  24.603  1.00  0.00     0.202 C 
HETATM   16  C8  UNL     1       9.228  -0.037  26.081  1.00  0.00     0.173 C 
HETATM   17  C9  UNL     1       8.219  -1.167  26.115  1.00  0.00     0.180 C 
BRANCH  16  18
HETATM   18  O4  UNL     1      10.417  -0.362  26.712  1.00  0.00    -0.391 OA
ATOM     19  H4  UNL     1      10.297  -0.870  27.506  1.00  0.00     0.210 HD
ENDBRANCH  16  18
BRANCH  17  20
HETATM   20  O5  UNL     1       7.443  -1.130  27.271  1.00  0.00    -0.390 OA
ATOM     21  H5  UNL     1       7.912  -0.693  27.972  1.00  0.00     0.210 HD
ENDBRANCH  17  20
ENDBRANCH  12  13
ENDBRANCH   1  12
TORSDOF 7
ENDMDL
MODEL 2
REMARK VINA RESULT: -6.380652150      3.843      6.384
REMARK  7 active torsions:
REMARK  status: ('A' for Active; 'I' for Inactive)
REMARK    1  A    between atoms: O1_1  and  C1_3 
REMARK    2  A    between atoms: C4_6  and  O2_7 
REMARK    3  A    between atoms: O2_7  and  C5_8 
REMARK    4  A    between atoms: C5_8  and  C6_9 
REMARK    5  A    between atoms: C8_12  and  O4_13 
REMARK    6  A    between atoms: C9_15  and  O5_16 
REMARK    7  A    between atoms: C10_18  and  O6_19 
ROOT
HETATM    1  O2  UNL     1       5.041  -1.710  22.625  1.00  0.00    -0.381 OA
ENDROOT
BRANCH   1   2
HETATM    2  C4  UNL     1       3.845  -1.075  22.437  1.00  0.00     0.150 C 
HETATM    3  C3  UNL     1       3.603  -1.089  20.920  1.00  0.00     0.037 C 
HETATM    4  C2  UNL     1       2.568  -0.042  20.560  1.00  0.00     0.034 C 
HETATM    5  C1  UNL     1       3.164   1.339  20.744  1.00  0.00     0.120 C 
HETATM    6  C11 UNL     1       4.204   1.345  21.848  1.00  0.00     0.066 C 
HETATM    7  C10 UNL     1       3.841   0.354  22.943  1.00  0.00     0.149 C 
BRANCH   5   8
HETATM    8  O1  UNL     1       2.117   2.212  21.030  1.00  0.00    -0.395 OA
ATOM      9  H1  UNL     1       2.343   2.677  21.827  1.00  0.00     0.210 HD
ENDBRANCH   5   8
BRANCH   7  10
HETATM   10  O6  UNL     1       2.609   0.693  23.515  1.00  0.00    -0.393 OA
ATOM     11  H6  UNL     1       2.660   1.514  23.990  1.00  0.00     0.210 HD
ENDBRANCH   7  10
ENDBRANCH   1   2
BRANCH   1  12
HETATM   12  C5  UNL     1       5.674  -1.515  23.809  1.00  0.00     0.203 C 
BRANCH  12  13
HETATM   13  C6  UNL     1       5.885  -2.710  24.658  1.00  0.00     0.176 C 
HETATM   14  O3  UNL     1       6.815  -3.618  24.293  1.00  0.00    -0.378 OA
HETATM   15  C7  UNL     1       6.482  -4.861  24.754  1.00  0.00     0.202 C 
HETATM   16  C8  UNL     1       5.190  -4.753  25.511  1.00  0.00     0.173 C 
HETATM   17  C9  UNL     1       4.593  -3.501  24.903  1.00  0.00     0.180 C 
BRANCH  16  18
HETATM   18  O4  UNL     1       4.372  -5.861  25.367  1.00  0.00    -0.391 OA
ATOM     19  H4  UNL     1       3.457  -5.681  25.546  1.00  0.00     0.210 HD
ENDBRANCH  16  18
BRANCH  17  20
HETATM   20  O5  UNL     1       3.774  -2.829  25.807  1.00  0.00    -0.390 OA
ATOM     21  H5  UNL     1       2.859  -2.978  25.601  1.00  0.00     0.210 HD
ENDBRANCH  17  20
ENDBRANCH  12  13
ENDBRANCH   1  12
TORSDOF 7
ENDMDL
MODEL 3
REMARK VINA RESULT: -6.357779561      2.533      4.203
REMARK  7 active torsions:
REMARK  status: ('A' for Active; 'I' for Inactive)
REMARK    1  A    between atoms: O1_1  and  C1_3 
REMARK    2  A    between atoms: C4_6  and  O2_7 
REMARK    3  A    between atoms: O2_7  and  C5_8 
REMARK    4  A    between atoms: C5_8  and  C6_9 
REMARK    5  A    between atoms: C8_12  and  O4_13 
REMARK    6  A    between atoms: C9_15  and  O5_16 
REMARK    7  A    between atoms: C10_18  and  O6_19 
ROOT
HETATM    1  O2  UNL     1       6.845  -3.318  25.009  1.00  0.00    -0.381 OA
ENDROOT
BRANCH   1   2
HETATM    2  C4  UNL     1       6.058  -3.734  26.047  1.00  0.00     0.150 C 
HETATM    3  C3  UNL     1       6.784  -3.280  27.323  1.00  0.00     0.037 C 
HETATM    4  C2  UNL     1       6.261  -4.061  28.512  1.00  0.00     0.034 C 
HETATM    5  C1  UNL     1       6.726  -5.499  28.413  1.00  0.00     0.120 C 
HETATM    6  C11 UNL     1       6.883  -5.927  26.966  1.00  0.00     0.066 C 
HETATM    7  C10 UNL     1       5.858  -5.236  26.080  1.00  0.00     0.149 C 
BRANCH   5   8
HETATM    8  O1  UNL     1       5.789  -6.289  29.075  1.00  0.00    -0.395 OA
ATOM      9  H1  UNL     1       5.379  -6.849  28.427  1.00  0.00     0.210 HD
ENDBRANCH   5   8
BRANCH   7  10
HETATM   10  O6  UNL     1       4.561  -5.572  26.487  1.00  0.00    -0.393 OA
ATOM     11  H6  UNL     1       4.476  -6.505  26.643  1.00  0.00     0.210 HD
ENDBRANCH   7  10
ENDBRANCH   1   2
BRANCH   1  12
HETATM   12  C5  UNL     1       6.426  -2.242  24.298  1.00  0.00     0.203 C 
BRANCH  12  13
HETATM   13  C6  UNL     1       6.215  -2.442  22.846  1.00  0.00     0.176 C 
HETATM   14  O3  UNL     1       5.136  -1.884  22.256  1.00  0.00    -0.378 OA
HETATM   15  C7  UNL     1       4.748  -2.617  21.170  1.00  0.00     0.202 C 
HETATM   16  C8  UNL     1       5.684  -3.783  21.028  1.00  0.00     0.173 C 
HETATM   17  C9  UNL     1       6.200  -3.923  22.446  1.00  0.00     0.180 C 
BRANCH  16  18
HETATM   18  O4  UNL     1       5.065  -4.933  20.567  1.00  0.00    -0.391 OA
ATOM     19  H4  UNL     1       5.121  -5.661  21.175  1.00  0.00     0.210 HD
ENDBRANCH  16  18
BRANCH  17  20
HETATM   20  O5  UNL     1       7.489  -4.449  22.475  1.00  0.00    -0.390 OA
ATOM     21  H5  UNL     1       7.467  -5.370  22.704  1.00  0.00     0.210 HD
ENDBRANCH  17  20
ENDBRANCH  12  13
ENDBRANCH   1  12
TORSDOF 7
ENDMDL
MODEL 4
REMARK VINA RESULT: -6.340973786      2.641      3.878
REMARK  7 active torsions:
REMARK  status: ('A' for Active; 'I' for Inactive)
REMARK    1  A    between atoms: O1_1  and  C1_3 
REMARK    2  A    between atoms: C4_6  and  O2_7 
REMARK    3  A    between atoms: O2_7  and  C5_8 
REMARK    4  A    between atoms: C5_8  and  C6_9 
REMARK    5  A    between atoms: C8_12  and  O4_13 
REMARK    6  A    between atoms: C9_15  and  O5_16 
REMARK    7  A    between atoms: C10_18  and  O6_19 
ROOT
HETATM    1  O2  UNL     1       4.914  -2.989  26.265  1.00  0.00    -0.381 OA
ENDROOT
BRANCH   1   2
HETATM    2  C4  UNL     1       5.128  -3.822  27.329  1.00  0.00     0.150 C 
HETATM    3  C3  UNL     1       6.508  -3.437  27.884  1.00  0.00     0.037 C 
HETATM    4  C2  UNL     1       7.040  -4.562  28.751  1.00  0.00     0.034 C 
HETATM    5  C1  UNL     1       7.402  -5.743  27.874  1.00  0.00     0.120 C 
HETATM    6  C11 UNL     1       6.519  -5.804  26.642  1.00  0.00     0.066 C 
HETATM    7  C10 UNL     1       5.121  -5.289  26.949  1.00  0.00     0.149 C 
BRANCH   5   8
HETATM    8  O1  UNL     1       7.271  -6.894  28.648  1.00  0.00    -0.395 OA
ATOM      9  H1  UNL     1       7.510  -7.633  28.102  1.00  0.00     0.210 HD
ENDBRANCH   5   8
BRANCH   7  10
HETATM   10  O6  UNL     1       4.523  -6.074  27.943  1.00  0.00    -0.393 OA
ATOM     11  H6  UNL     1       5.131  -6.715  28.293  1.00  0.00     0.210 HD
ENDBRANCH   7  10
ENDBRANCH   1   2
BRANCH   1  12
HETATM   12  C5  UNL     1       4.367  -3.530  25.148  1.00  0.00     0.203 C 
BRANCH  12  13
HETATM   13  C6  UNL     1       4.915  -3.074  23.849  1.00  0.00     0.176 C 
HETATM   14  O3  UNL     1       4.363  -3.534  22.706  1.00  0.00    -0.378 OA
HETATM   15  C7  UNL     1       5.286  -3.551  21.698  1.00  0.00     0.202 C 
HETATM   16  C8  UNL     1       6.589  -3.038  22.242  1.00  0.00     0.173 C 
HETATM   17  C9  UNL     1       6.424  -3.319  23.722  1.00  0.00     0.180 C 
BRANCH  16  18
HETATM   18  O4  UNL     1       7.698  -3.662  21.697  1.00  0.00    -0.391 OA
ATOM     19  H4  UNL     1       8.462  -3.100  21.649  1.00  0.00     0.210 HD
ENDBRANCH  16  18
BRANCH  17  20
HETATM   20  O5  UNL     1       7.134  -2.409  24.501  1.00  0.00    -0.390 OA
ATOM     21  H5  UNL     1       7.468  -1.701  23.963  1.00  0.00     0.210 HD
ENDBRANCH  17  20
ENDBRANCH  12  13
ENDBRANCH   1  12
TORSDOF 7
ENDMDL
MODEL 5
REMARK VINA RESULT: -6.335514964      2.597      5.200
REMARK  7 active torsions:
REMARK  status: ('A' for Active; 'I' for Inactive)
REMARK    1  A    between atoms: O1_1  and  C1_3 
REMARK    2  A    between atoms: C4_6  and  O2_7 
REMARK    3  A    between atoms: O2_7  and  C5_8 
REMARK    4  A    between atoms: C5_8  and  C6_9 
REMARK    5  A    between atoms: C8_12  and  O4_13 
REMARK    6  A    between atoms: C9_15  and  O5_16 
REMARK    7  A    between atoms: C10_18  and  O6_19 
ROOT
HETATM    1  O2  UNL     1       6.737  -3.423  24.497  1.00  0.00    -0.381 OA
ENDROOT
BRANCH   1   2
HETATM    2  C4  UNL     1       6.023  -2.794  23.514  1.00  0.00     0.150 C 
HETATM    3  C3  UNL     1       6.300  -1.294  23.698  1.00  0.00     0.037 C 
HETATM    4  C2  UNL     1       5.234  -0.488  22.981  1.00  0.00     0.034 C 
HETATM    5  C1  UNL     1       3.917  -0.630  23.717  1.00  0.00     0.120 C 
HETATM    6  C11 UNL     1       3.814  -1.979  24.402  1.00  0.00     0.066 C 
HETATM    7  C10 UNL     1       4.532  -3.054  23.600  1.00  0.00     0.149 C 
BRANCH   5   8
HETATM    8  O1  UNL     1       2.897  -0.457  22.784  1.00  0.00    -0.395 OA
ATOM      9  H1  UNL     1       2.459  -1.293  22.682  1.00  0.00     0.210 HD
ENDBRANCH   5   8
BRANCH   7  10
HETATM   10  O6  UNL     1       3.958  -3.175  22.329  1.00  0.00    -0.393 OA
ATOM     11  H6  UNL     1       3.117  -3.616  22.367  1.00  0.00     0.210 HD
ENDBRANCH   7  10
ENDBRANCH   1   2
BRANCH   1  12
HETATM   12  C5  UNL     1       6.134  -4.447  25.149  1.00  0.00     0.203 C 
BRANCH  12  13
HETATM   13  C6  UNL     1       6.558  -4.689  26.548  1.00  0.00     0.176 C 
HETATM   14  O3  UNL     1       7.389  -5.720  26.813  1.00  0.00    -0.378 OA
HETATM   15  C7  UNL     1       7.193  -6.182  28.085  1.00  0.00     0.202 C 
HETATM   16  C8  UNL     1       6.115  -5.355  28.726  1.00  0.00     0.173 C 
HETATM   17  C9  UNL     1       5.372  -4.840  27.510  1.00  0.00     0.180 C 
BRANCH  16  18
HETATM   18  O4  UNL     1       5.303  -6.078  29.584  1.00  0.00    -0.391 OA
ATOM     19  H4  UNL     1       5.072  -5.604  30.374  1.00  0.00     0.210 HD
ENDBRANCH  16  18
BRANCH  17  20
HETATM   20  O5  UNL     1       4.782  -3.603  27.754  1.00  0.00    -0.390 OA
ATOM     21  H5  UNL     1       4.336  -3.606  28.594  1.00  0.00     0.210 HD
ENDBRANCH  17  20
ENDBRANCH  12  13
ENDBRANCH   1  12
TORSDOF 7
ENDMDL
