MODEL 1
REMARK VINA RESULT: -6.190841628      0.000      0.000
REMARK  6 active torsions:
REMARK  status: ('A' for Active; 'I' for Inactive)
REMARK    1  A    between atoms: C2_2  and  C3_3 
REMARK    2  A    between atoms: C3_3  and  C4_4 
REMARK    3  A    between atoms: C7_7  and  O1_8 
REMARK    4  A    between atoms: N1_10  and  C8_11 
REMARK    5  A    between atoms: C10_13  and  O2_14 
REMARK    6  A    between atoms: C11_16  and  O3_17 
REMARK       I    between atoms: N2_19  and  C12_20 
ROOT
HETATM    1  C4  UNL     1      -1.665 -11.081  71.354  1.00  0.00     0.129 C 
HETATM    2  C5  UNL     1      -0.586 -10.822  72.397  1.00  0.00     0.031 A 
HETATM    3  C6  UNL     1      -0.755 -11.815  73.361  1.00  0.00     0.054 A 
HETATM    4  C7  UNL     1       0.228 -11.580  74.283  1.00  0.00     0.155 A 
HETATM    5  N1  UNL     1       0.966 -10.502  73.914  1.00  0.00    -0.308 N 
HETATM    6  C10 UNL     1       0.466 -10.020  72.738  1.00  0.00     0.153 A 
HETATM    7  C11 UNL     1      -1.932 -12.640  72.919  1.00  0.00     0.264 C 
HETATM    8  N2  UNL     1      -2.692 -11.510  72.276  1.00  0.00    -0.299 N 
HETATM    9  C12 UNL     1      -3.951 -11.159  72.672  1.00  0.00     0.319 C 
HETATM   10  O4  UNL     1      -4.557 -10.161  72.230  1.00  0.00    -0.254 OA
HETATM   11 CL1  UNL     1      -4.827 -12.106  73.853  1.00  0.00    -0.020 Cl
ENDROOT
BRANCH   1  12
HETATM   12  C3  UNL     1      -1.844  -9.917  70.519  1.00  0.00     0.030 C 
BRANCH  12  13
HETATM   13  C2  UNL     1      -2.613  -9.981  69.262  1.00  0.00    -0.002 C 
HETATM   14  C1  UNL     1      -3.148  -8.560  68.999  1.00  0.00     0.005 C 
ENDBRANCH  12  13
ENDBRANCH   1  12
BRANCH   6  15
HETATM   15  O2  UNL     1       0.968  -8.903  72.036  1.00  0.00    -0.345 OA
ATOM     16  H2  UNL     1       1.747  -8.395  72.228  1.00  0.00     0.219 HD
ENDBRANCH   6  15
BRANCH   7  17
HETATM   17  O3  UNL     1      -2.594 -13.213  73.946  1.00  0.00    -0.372 OA
ATOM     18  H3  UNL     1      -2.776 -14.134  73.805  1.00  0.00     0.212 HD
ENDBRANCH   7  17
BRANCH   4  19
HETATM   19  O1  UNL     1       0.453 -12.338  75.448  1.00  0.00    -0.345 OA
ATOM     20  H1  UNL     1      -0.062 -12.291  76.245  1.00  0.00     0.219 HD
ENDBRANCH   4  19
BRANCH   5  21
HETATM   21  C8  UNL     1       2.078  -9.945  74.615  1.00  0.00     0.129 C 
HETATM   22  C9  UNL     1       3.359 -10.716  74.362  1.00  0.00     0.027 C 
ENDBRANCH   5  21
TORSDOF 6
ENDMDL
MODEL 2
REMARK VINA RESULT: -6.024861623      2.763      4.635
REMARK  6 active torsions:
REMARK  status: ('A' for Active; 'I' for Inactive)
REMARK    1  A    between atoms: C2_2  and  C3_3 
REMARK    2  A    between atoms: C3_3  and  C4_4 
REMARK    3  A    between atoms: C7_7  and  O1_8 
REMARK    4  A    between atoms: N1_10  and  C8_11 
REMARK    5  A    between atoms: C10_13  and  O2_14 
REMARK    6  A    between atoms: C11_16  and  O3_17 
REMARK       I    between atoms: N2_19  and  C12_20 
ROOT
HETATM    1  C4  UNL     1      -3.791 -11.286  72.413  1.00  0.00     0.129 C 
HETATM    2  C5  UNL     1      -2.509 -11.125  71.608  1.00  0.00     0.031 A 
HETATM    3  C6  UNL     1      -2.886 -10.473  70.435  1.00  0.00     0.054 A 
HETATM    4  C7  UNL     1      -1.724 -10.322  69.728  1.00  0.00     0.155 A 
HETATM    5  N1  UNL     1      -0.684 -10.850  70.423  1.00  0.00    -0.308 N 
HETATM    6  C10 UNL     1      -1.162 -11.355  71.599  1.00  0.00     0.153 A 
HETATM    7  C11 UNL     1      -4.373 -10.271  70.521  1.00  0.00     0.264 C 
HETATM    8  N2  UNL     1      -4.667 -11.532  71.290  1.00  0.00    -0.299 N 
HETATM    9  C12 UNL     1      -5.510 -12.496  70.816  1.00  0.00     0.319 C 
HETATM   10  O4  UNL     1      -5.684 -13.595  71.382  1.00  0.00    -0.254 OA
HETATM   11 CL1  UNL     1      -6.429 -12.255  69.347  1.00  0.00    -0.020 Cl
ENDROOT
BRANCH   1  12
HETATM   12  C3  UNL     1      -3.610 -12.270  73.453  1.00  0.00     0.030 C 
BRANCH  12  13
HETATM   13  C2  UNL     1      -4.662 -12.542  74.451  1.00  0.00    -0.002 C 
HETATM   14  C1  UNL     1      -4.618 -14.055  74.739  1.00  0.00     0.005 C 
ENDBRANCH  12  13
ENDBRANCH   1  12
BRANCH   6  15
HETATM   15  O2  UNL     1      -0.383 -11.986  72.591  1.00  0.00    -0.345 OA
ATOM     16  H2  UNL     1       0.415 -11.669  72.997  1.00  0.00     0.219 HD
ENDBRANCH   6  15
BRANCH   7  17
HETATM   17  O3  UNL     1      -4.974 -10.229  69.313  1.00  0.00    -0.372 OA
ATOM     18  H3  UNL     1      -5.918 -10.142  69.369  1.00  0.00     0.212 HD
ENDBRANCH   7  17
BRANCH   4  19
HETATM   19  O1  UNL     1      -1.610  -9.710  68.466  1.00  0.00    -0.345 OA
ATOM     20  H1  UNL     1      -1.033  -9.993  67.766  1.00  0.00     0.219 HD
ENDBRANCH   4  19
BRANCH   5  21
HETATM   21  C8  UNL     1       0.686 -10.886  70.019  1.00  0.00     0.129 C 
HETATM   22  C9  UNL     1       1.500  -9.779  70.658  1.00  0.00     0.027 C 
ENDBRANCH   5  21
TORSDOF 6
ENDMDL
MODEL 3
REMARK VINA RESULT: -5.970264786      2.616      5.285
REMARK  6 active torsions:
REMARK  status: ('A' for Active; 'I' for Inactive)
REMARK    1  A    between atoms: C2_2  and  C3_3 
REMARK    2  A    between atoms: C3_3  and  C4_4 
REMARK    3  A    between atoms: C7_7  and  O1_8 
REMARK    4  A    between atoms: N1_10  and  C8_11 
REMARK    5  A    between atoms: C10_13  and  O2_14 
REMARK    6  A    between atoms: C11_16  and  O3_17 
REMARK       I    between atoms: N2_19  and  C12_20 
ROOT
HETATM    1  C4  UNL     1      -1.804 -11.209  72.713  1.00  0.00     0.129 C 
HETATM    2  C5  UNL     1      -2.854 -11.777  71.769  1.00  0.00     0.031 A 
HETATM    3  C6  UNL     1      -3.810 -12.372  72.590  1.00  0.00     0.054 A 
HETATM    4  C7  UNL     1      -4.754 -12.865  71.731  1.00  0.00     0.155 A 
HETATM    5  N1  UNL     1      -4.404 -12.592  70.448  1.00  0.00    -0.308 N 
HETATM    6  C10 UNL     1      -3.219 -11.913  70.458  1.00  0.00     0.153 A 
HETATM    7  C11 UNL     1      -3.329 -12.189  74.002  1.00  0.00     0.264 C 
HETATM    8  N2  UNL     1      -1.859 -12.275  73.688  1.00  0.00    -0.299 N 
HETATM    9  C12 UNL     1      -1.045 -13.215  74.253  1.00  0.00     0.319 C 
HETATM   10  O4  UNL     1       0.149 -13.375  73.927  1.00  0.00    -0.254 OA
HETATM   11 CL1  UNL     1      -1.631 -14.288  75.504  1.00  0.00    -0.020 Cl
ENDROOT
BRANCH   1  12
HETATM   12  C3  UNL     1      -0.589 -10.913  71.992  1.00  0.00     0.030 C 
BRANCH  12  13
HETATM   13  C2  UNL     1       0.435 -10.007  72.545  1.00  0.00    -0.002 C 
HETATM   14  C1  UNL     1       0.702  -8.934  71.472  1.00  0.00     0.005 C 
ENDBRANCH  12  13
ENDBRANCH   1  12
BRANCH   6  15
HETATM   15  O2  UNL     1      -2.532 -11.455  69.315  1.00  0.00    -0.345 OA
ATOM     16  H2  UNL     1      -1.767 -11.837  68.901  1.00  0.00     0.219 HD
ENDBRANCH   6  15
BRANCH   7  17
HETATM   17  O3  UNL     1      -3.754 -13.161  74.838  1.00  0.00    -0.372 OA
ATOM     18  H3  UNL     1      -3.586 -12.967  75.752  1.00  0.00     0.212 HD
ENDBRANCH   7  17
BRANCH   4  19
HETATM   19  O1  UNL     1      -5.922 -13.555  72.108  1.00  0.00    -0.345 OA
ATOM     20  H1  UNL     1      -6.306 -14.286  71.639  1.00  0.00     0.219 HD
ENDBRANCH   4  19
BRANCH   5  21
HETATM   21  C8  UNL     1      -5.131 -12.942  69.269  1.00  0.00     0.129 C 
HETATM   22  C9  UNL     1      -5.970 -11.790  68.750  1.00  0.00     0.027 C 
ENDBRANCH   5  21
TORSDOF 6
ENDMDL
MODEL 4
REMARK VINA RESULT: -5.960303770      2.160      4.879
REMARK  6 active torsions:
REMARK  status: ('A' for Active; 'I' for Inactive)
REMARK    1  A    between atoms: C2_2  and  C3_3 
REMARK    2  A    between atoms: C3_3  and  C4_4 
REMARK    3  A    between atoms: C7_7  and  O1_8 
REMARK    4  A    between atoms: N1_10  and  C8_11 
REMARK    5  A    between atoms: C10_13  and  O2_14 
REMARK    6  A    between atoms: C11_16  and  O3_17 
REMARK       I    between atoms: N2_19  and  C12_20 
ROOT
HETATM    1  C4  UNL     1      -1.538 -12.072  73.126  1.00  0.00     0.129 C 
HETATM    2  C5  UNL     1      -2.242 -11.318  72.006  1.00  0.00     0.031 A 
HETATM    3  C6  UNL     1      -3.522 -11.047  72.487  1.00  0.00     0.054 A 
HETATM    4  C7  UNL     1      -4.137 -10.357  71.479  1.00  0.00     0.155 A 
HETATM    5  N1  UNL     1      -3.288 -10.208  70.430  1.00  0.00    -0.308 N 
HETATM    6  C10 UNL     1      -2.101 -10.804  70.747  1.00  0.00     0.153 A 
HETATM    7  C11 UNL     1      -3.595 -11.652  73.861  1.00  0.00     0.264 C 
HETATM    8  N2  UNL     1      -2.690 -12.821  73.575  1.00  0.00    -0.299 N 
HETATM    9  C12 UNL     1      -3.100 -14.116  73.724  1.00  0.00     0.319 C 
HETATM   10  O4  UNL     1      -2.406 -15.098  73.390  1.00  0.00    -0.254 OA
HETATM   11 CL1  UNL     1      -4.662 -14.499  74.409  1.00  0.00    -0.020 Cl
ENDROOT
BRANCH   1  12
HETATM   12  C3  UNL     1      -0.361 -12.737  72.620  1.00  0.00     0.030 C 
BRANCH  12  13
HETATM   13  C2  UNL     1       0.994 -12.326  73.032  1.00  0.00    -0.002 C 
HETATM   14  C1  UNL     1       0.825 -11.411  74.260  1.00  0.00     0.005 C 
ENDBRANCH  12  13
ENDBRANCH   1  12
BRANCH   6  15
HETATM   15  O2  UNL     1      -0.967 -10.860  69.910  1.00  0.00    -0.345 OA
ATOM     16  H2  UNL     1      -0.922 -10.689  68.977  1.00  0.00     0.219 HD
ENDBRANCH   6  15
BRANCH   7  17
HETATM   17  O3  UNL     1      -4.846 -12.019  74.213  1.00  0.00    -0.372 OA
ATOM     18  H3  UNL     1      -5.332 -11.324  74.641  1.00  0.00     0.212 HD
ENDBRANCH   7  17
BRANCH   4  19
HETATM   19  O1  UNL     1      -5.457  -9.868  71.511  1.00  0.00    -0.345 OA
ATOM     20  H1  UNL     1      -6.215 -10.346  71.824  1.00  0.00     0.219 HD
ENDBRANCH   4  19
BRANCH   5  21
HETATM   21  C8  UNL     1      -3.562  -9.546  69.194  1.00  0.00     0.129 C 
HETATM   22  C9  UNL     1      -3.140  -8.090  69.219  1.00  0.00     0.027 C 
ENDBRANCH   5  21
TORSDOF 6
ENDMDL
MODEL 5
REMARK VINA RESULT: -5.893029869      2.658      4.677
REMARK  6 active torsions:
REMARK  status: ('A' for Active; 'I' for Inactive)
REMARK    1  A    between atoms: C2_2  and  C3_3 
REMARK    2  A    between atoms: C3_3  and  C4_4 
REMARK    3  A    between atoms: C7_7  and  O1_8 
REMARK    4  A    between atoms: N1_10  and  C8_11 
REMARK    5  A    between atoms: C10_13  and  O2_14 
REMARK    6  A    between atoms: C11_16  and  O3_17 
REMARK       I    between atoms: N2_19  and  C12_20 
ROOT
HETATM    1  C4  UNL     1      -4.691 -12.146  72.345  1.00  0.00     0.129 C 
HETATM    2  C5  UNL     1      -3.209 -11.818  72.234  1.00  0.00     0.031 A 
HETATM    3  C6  UNL     1      -3.119 -10.831  71.255  1.00  0.00     0.054 A 
HETATM    4  C7  UNL     1      -1.786 -10.535  71.175  1.00  0.00     0.155 A 
HETATM    5  N1  UNL     1      -1.086 -11.295  72.055  1.00  0.00    -0.308 N 
HETATM    6  C10 UNL     1      -1.964 -12.102  72.722  1.00  0.00     0.153 A 
HETATM    7  C11 UNL     1      -4.520 -10.589  70.766  1.00  0.00     0.264 C 
HETATM    8  N2  UNL     1      -5.002 -12.004  70.941  1.00  0.00    -0.299 N 
HETATM    9  C12 UNL     1      -5.493 -12.742  69.902  1.00  0.00     0.319 C 
HETATM   10  O4  UNL     1      -5.796 -13.949  69.999  1.00  0.00    -0.254 OA
HETATM   11 CL1  UNL     1      -5.740 -12.032  68.323  1.00  0.00    -0.020 Cl
ENDROOT
BRANCH   1  12
HETATM   12  C3  UNL     1      -4.876 -13.402  73.032  1.00  0.00     0.030 C 
BRANCH  12  13
HETATM   13  C2  UNL     1      -5.085 -13.460  74.492  1.00  0.00    -0.002 C 
HETATM   14  C1  UNL     1      -4.466 -14.785  74.975  1.00  0.00     0.005 C 
ENDBRANCH  12  13
ENDBRANCH   1  12
BRANCH   6  15
HETATM   15  O2  UNL     1      -1.616 -13.037  73.719  1.00  0.00    -0.345 OA
ATOM     16  H2  UNL     1      -1.167 -12.875  74.541  1.00  0.00     0.219 HD
ENDBRANCH   6  15
BRANCH   7  17
HETATM   17  O3  UNL     1      -4.570 -10.162  69.487  1.00  0.00    -0.372 OA
ATOM     18  H3  UNL     1      -5.239 -10.598  68.973  1.00  0.00     0.212 HD
ENDBRANCH   7  17
BRANCH   4  19
HETATM   19  O1  UNL     1      -1.210  -9.583  70.312  1.00  0.00    -0.345 OA
ATOM     20  H1  UNL     1      -0.885  -9.757  69.437  1.00  0.00     0.219 HD
ENDBRANCH   4  19
BRANCH   5  21
HETATM   21  C8  UNL     1       0.327 -11.279  72.268  1.00  0.00     0.129 C 
HETATM   22  C9  UNL     1       0.733 -10.277  73.331  1.00  0.00     0.027 C 
ENDBRANCH   5  21
TORSDOF 6
ENDMDL
