MODEL 1
REMARK VINA RESULT: -7.977578750      0.000      0.000
REMARK  7 active torsions:
REMARK  status: ('A' for Active; 'I' for Inactive)
REMARK    1  A    between atoms: C2_3  and  C3_4 
REMARK    2  A    between atoms: C4_6  and  N2_7 
REMARK    3  A    between atoms: C9_12  and  C10_13 
REMARK       I    between atoms: C10_13  and  N3_15 
REMARK    4  A    between atoms: N3_15  and  C11_17 
REMARK    5  A    between atoms: C13_19  and  N4_20 
REMARK       I    between atoms: N4_20  and  C14_21 
REMARK    6  A    between atoms: C16_24  and  O4_25 
REMARK    7  A    between atoms: C17_27  and  O5_28 
ROOT
HETATM    1  C1  UNL     1      69.126  -5.069  98.050  1.00  0.00     0.227 C 
HETATM    2  N1  UNL     1      69.755  -4.577  98.844  1.00  0.00    -0.443 NA
HETATM    3  C2  UNL     1      70.519  -3.923  99.820  1.00  0.00     0.188 C 
ENDROOT
BRANCH   3   4
HETATM    4  C3  UNL     1      70.239  -4.361 101.192  1.00  0.00     0.207 C 
HETATM    5  O1  UNL     1      71.095  -3.970 102.176  1.00  0.00    -0.349 OA
HETATM    6  C4  UNL     1      70.652  -4.616 103.411  1.00  0.00     0.259 C 
HETATM    7  C16 UNL     1      69.649  -5.603 102.962  1.00  0.00     0.199 C 
HETATM    8  C17 UNL     1      70.130  -5.853 101.487  1.00  0.00     0.186 C 
BRANCH   6   9
HETATM    9  N2  UNL     1      70.250  -3.595 104.228  1.00  0.00    -0.330 N 
HETATM   10  C5  UNL     1      70.389  -3.628 105.628  1.00  0.00     0.067 C 
HETATM   11  C6  UNL     1      71.306  -2.619 106.175  1.00  0.00     0.045 C 
HETATM   12  C7  UNL     1      71.522  -1.391 105.428  1.00  0.00     0.011 C 
HETATM   13  C8  UNL     1      71.244  -1.481 103.904  1.00  0.00     0.063 C 
HETATM   14  C9  UNL     1      69.967  -2.288 103.812  1.00  0.00     0.081 C 
BRANCH  14  15
HETATM   15  C10 UNL     1      69.019  -1.943 102.796  1.00  0.00     0.264 C 
HETATM   16  O2  UNL     1      67.900  -2.498 102.795  1.00  0.00    -0.266 OA
HETATM   17  N3  UNL     1      69.252  -1.003 101.788  1.00  0.00    -0.348 N 
ATOM     18  H3  UNL     1      70.194  -0.612 101.763  1.00  0.00     0.163 HD
BRANCH  17  19
HETATM   19  C11 UNL     1      68.371  -0.522 100.804  1.00  0.00     0.123 A 
HETATM   20  C12 UNL     1      67.552   0.706 101.274  1.00  0.00     0.070 A 
HETATM   21  C13 UNL     1      68.365   0.679  99.968  1.00  0.00     0.191 A 
BRANCH  21  22
HETATM   22  N4  UNL     1      67.642   0.775  98.756  1.00  0.00    -0.408 NA
HETATM   23  C14 UNL     1      66.967   0.862  97.613  1.00  0.00     0.282 C 
HETATM   24  C15 UNL     1      65.717   1.849  97.654  1.00  0.00     0.134 C 
HETATM   25  O3  UNL     1      67.063   0.374  96.505  1.00  0.00    -0.258 OA
ENDBRANCH  21  22
ENDBRANCH  17  19
ENDBRANCH  14  15
ENDBRANCH   6   9
BRANCH   7  26
HETATM   26  O4  UNL     1      68.365  -5.164 102.832  1.00  0.00    -0.388 OA
ATOM     27  H4  UNL     1      67.720  -5.800 102.545  1.00  0.00     0.210 HD
ENDBRANCH   7  26
BRANCH   8  28
HETATM   28  O5  UNL     1      71.315  -6.518 101.587  1.00  0.00    -0.390 OA
ATOM     29  H5  UNL     1      71.919  -6.179 102.237  1.00  0.00     0.210 HD
ENDBRANCH   8  28
ENDBRANCH   3   4
TORSDOF 7
ENDMDL
MODEL 2
REMARK VINA RESULT: -7.822058726      1.078      1.220
REMARK  7 active torsions:
REMARK  status: ('A' for Active; 'I' for Inactive)
REMARK    1  A    between atoms: C2_3  and  C3_4 
REMARK    2  A    between atoms: C4_6  and  N2_7 
REMARK    3  A    between atoms: C9_12  and  C10_13 
REMARK       I    between atoms: C10_13  and  N3_15 
REMARK    4  A    between atoms: N3_15  and  C11_17 
REMARK    5  A    between atoms: C13_19  and  N4_20 
REMARK       I    between atoms: N4_20  and  C14_21 
REMARK    6  A    between atoms: C16_24  and  O4_25 
REMARK    7  A    between atoms: C17_27  and  O5_28 
ROOT
HETATM    1  C1  UNL     1      69.271  -4.190  98.091  1.00  0.00     0.227 C 
HETATM    2  N1  UNL     1      70.037  -4.174  98.917  1.00  0.00    -0.443 NA
HETATM    3  C2  UNL     1      70.994  -4.109  99.938  1.00  0.00     0.188 C 
ENDROOT
BRANCH   3   4
HETATM    4  C3  UNL     1      70.483  -4.477 101.262  1.00  0.00     0.207 C 
HETATM    5  O1  UNL     1      71.242  -4.168 102.350  1.00  0.00    -0.349 OA
HETATM    6  C4  UNL     1      70.563  -4.725 103.519  1.00  0.00     0.259 C 
HETATM    7  C16 UNL     1      69.515  -5.595 102.947  1.00  0.00     0.199 C 
HETATM    8  C17 UNL     1      70.153  -5.937 101.552  1.00  0.00     0.186 C 
BRANCH   6   9
HETATM    9  N2  UNL     1      70.184  -3.644 104.266  1.00  0.00    -0.330 N 
HETATM   10  C5  UNL     1      69.952  -3.709 105.653  1.00  0.00     0.067 C 
HETATM   11  C6  UNL     1      70.887  -2.919 106.466  1.00  0.00     0.045 C 
HETATM   12  C7  UNL     1      71.532  -1.763 105.866  1.00  0.00     0.011 C 
HETATM   13  C8  UNL     1      71.640  -1.789 104.318  1.00  0.00     0.063 C 
HETATM   14  C9  UNL     1      70.291  -2.305 103.867  1.00  0.00     0.081 C 
BRANCH  14  15
HETATM   15  C10 UNL     1      69.725  -1.765 102.668  1.00  0.00     0.264 C 
HETATM   16  O2  UNL     1      70.463  -1.147 101.872  1.00  0.00    -0.266 OA
HETATM   17  N3  UNL     1      68.380  -1.889 102.307  1.00  0.00    -0.348 N 
ATOM     18  H3  UNL     1      67.780  -2.335 103.000  1.00  0.00     0.163 HD
BRANCH  17  19
HETATM   19  C11 UNL     1      67.739  -1.485 101.123  1.00  0.00     0.123 A 
HETATM   20  C12 UNL     1      67.234  -0.021 101.178  1.00  0.00     0.070 A 
HETATM   21  C13 UNL     1      68.116  -0.572 100.044  1.00  0.00     0.191 A 
BRANCH  21  22
HETATM   22  N4  UNL     1      67.545  -0.624  98.750  1.00  0.00    -0.408 NA
HETATM   23  C14 UNL     1      67.010  -0.667  97.533  1.00  0.00     0.282 C 
HETATM   24  C15 UNL     1      66.319  -2.053  97.159  1.00  0.00     0.134 C 
HETATM   25  O3  UNL     1      66.899   0.106  96.602  1.00  0.00    -0.258 OA
ENDBRANCH  21  22
ENDBRANCH  17  19
ENDBRANCH  14  15
ENDBRANCH   6   9
BRANCH   7  26
HETATM   26  O4  UNL     1      68.323  -5.008 102.641  1.00  0.00    -0.388 OA
ATOM     27  H4  UNL     1      68.357  -4.179 102.179  1.00  0.00     0.210 HD
ENDBRANCH   7  26
BRANCH   8  28
HETATM   28  O5  UNL     1      71.224  -6.738 101.816  1.00  0.00    -0.390 OA
ATOM     29  H5  UNL     1      71.568  -6.681 102.700  1.00  0.00     0.210 HD
ENDBRANCH   8  28
ENDBRANCH   3   4
TORSDOF 7
ENDMDL
MODEL 3
REMARK VINA RESULT: -7.459814730      2.074      4.551
REMARK  7 active torsions:
REMARK  status: ('A' for Active; 'I' for Inactive)
REMARK    1  A    between atoms: C2_3  and  C3_4 
REMARK    2  A    between atoms: C4_6  and  N2_7 
REMARK    3  A    between atoms: C9_12  and  C10_13 
REMARK       I    between atoms: C10_13  and  N3_15 
REMARK    4  A    between atoms: N3_15  and  C11_17 
REMARK    5  A    between atoms: C13_19  and  N4_20 
REMARK       I    between atoms: N4_20  and  C14_21 
REMARK    6  A    between atoms: C16_24  and  O4_25 
REMARK    7  A    between atoms: C17_27  and  O5_28 
ROOT
HETATM    1  C1  UNL     1      71.383  -4.922 107.123  1.00  0.00     0.227 C 
HETATM    2  N1  UNL     1      71.066  -4.077 106.449  1.00  0.00    -0.443 NA
HETATM    3  C2  UNL     1      70.716  -3.014 105.606  1.00  0.00     0.188 C 
ENDROOT
BRANCH   3   4
HETATM    4  C3  UNL     1      70.009  -3.425 104.388  1.00  0.00     0.207 C 
HETATM    5  O1  UNL     1      69.502  -2.451 103.583  1.00  0.00    -0.349 OA
HETATM    6  C4  UNL     1      68.770  -3.121 102.508  1.00  0.00     0.259 C 
HETATM    7  C16 UNL     1      68.693  -4.528 102.948  1.00  0.00     0.199 C 
HETATM    8  C17 UNL     1      68.804  -4.352 104.506  1.00  0.00     0.186 C 
BRANCH   6   9
HETATM    9  N2  UNL     1      69.459  -2.826 101.364  1.00  0.00    -0.330 N 
HETATM   10  C5  UNL     1      70.863  -2.860 101.280  1.00  0.00     0.067 C 
HETATM   11  C6  UNL     1      71.395  -3.883 100.368  1.00  0.00     0.045 C 
HETATM   12  C7  UNL     1      70.565  -4.336  99.264  1.00  0.00     0.011 C 
HETATM   13  C8  UNL     1      69.037  -4.155  99.462  1.00  0.00     0.063 C 
HETATM   14  C9  UNL     1      68.910  -2.778 100.076  1.00  0.00     0.081 C 
BRANCH  14  15
HETATM   15  C10 UNL     1      67.792  -1.967  99.698  1.00  0.00     0.264 C 
HETATM   16  O2  UNL     1      66.725  -2.064 100.340  1.00  0.00    -0.266 OA
HETATM   17  N3  UNL     1      67.808  -1.046  98.646  1.00  0.00    -0.348 N 
ATOM     18  H3  UNL     1      68.663  -1.030  98.090  1.00  0.00     0.163 HD
BRANCH  17  19
HETATM   19  C11 UNL     1      66.811  -0.139  98.247  1.00  0.00     0.123 A 
HETATM   20  C12 UNL     1      67.355   1.005  97.355  1.00  0.00     0.070 A 
HETATM   21  C13 UNL     1      66.154   0.126  96.967  1.00  0.00     0.191 A 
BRANCH  21  22
HETATM   22  N4  UNL     1      64.896   0.764  96.859  1.00  0.00    -0.408 NA
HETATM   23  C14 UNL     1      63.716   1.370  96.756  1.00  0.00     0.282 C 
HETATM   24  C15 UNL     1      62.459   0.404  96.902  1.00  0.00     0.134 C 
HETATM   25  O3  UNL     1      63.335   2.510  96.583  1.00  0.00    -0.258 OA
ENDBRANCH  21  22
ENDBRANCH  17  19
ENDBRANCH  14  15
ENDBRANCH   6   9
BRANCH   7  26
HETATM   26  O4  UNL     1      69.741  -5.337 102.622  1.00  0.00    -0.388 OA
ATOM     27  H4  UNL     1      69.565  -6.269 102.568  1.00  0.00     0.210 HD
ENDBRANCH   7  26
BRANCH   8  28
HETATM   28  O5  UNL     1      67.644  -3.755 104.899  1.00  0.00    -0.390 OA
ATOM     29  H5  UNL     1      67.072  -4.290 105.437  1.00  0.00     0.210 HD
ENDBRANCH   8  28
ENDBRANCH   3   4
TORSDOF 7
ENDMDL
MODEL 4
REMARK VINA RESULT: -7.440165069      2.225      3.367
REMARK  7 active torsions:
REMARK  status: ('A' for Active; 'I' for Inactive)
REMARK    1  A    between atoms: C2_3  and  C3_4 
REMARK    2  A    between atoms: C4_6  and  N2_7 
REMARK    3  A    between atoms: C9_12  and  C10_13 
REMARK       I    between atoms: C10_13  and  N3_15 
REMARK    4  A    between atoms: N3_15  and  C11_17 
REMARK    5  A    between atoms: C13_19  and  N4_20 
REMARK       I    between atoms: N4_20  and  C14_21 
REMARK    6  A    between atoms: C16_24  and  O4_25 
REMARK    7  A    between atoms: C17_27  and  O5_28 
ROOT
HETATM    1  C1  UNL     1      65.178  -8.266 104.961  1.00  0.00     0.227 C 
HETATM    2  N1  UNL     1      66.140  -7.812 105.333  1.00  0.00    -0.443 NA
HETATM    3  C2  UNL     1      67.353  -7.290 105.801  1.00  0.00     0.188 C 
ENDROOT
BRANCH   3   4
HETATM    4  C3  UNL     1      68.059  -6.452 104.825  1.00  0.00     0.207 C 
HETATM    5  O1  UNL     1      67.457  -5.301 104.415  1.00  0.00    -0.349 OA
HETATM    6  C4  UNL     1      68.311  -4.715 103.383  1.00  0.00     0.259 C 
HETATM    7  C16 UNL     1      69.286  -5.780 103.074  1.00  0.00     0.199 C 
HETATM    8  C17 UNL     1      68.463  -7.054 103.483  1.00  0.00     0.186 C 
BRANCH   6   9
HETATM    9  N2  UNL     1      68.767  -3.540 103.916  1.00  0.00    -0.330 N 
HETATM   10  C5  UNL     1      68.882  -3.316 105.300  1.00  0.00     0.067 C 
HETATM   11  C6  UNL     1      70.259  -3.122 105.775  1.00  0.00     0.045 C 
HETATM   12  C7  UNL     1      71.254  -2.612 104.847  1.00  0.00     0.011 C 
HETATM   13  C8  UNL     1      70.951  -2.856 103.345  1.00  0.00     0.063 C 
HETATM   14  C9  UNL     1      69.474  -2.553 103.217  1.00  0.00     0.081 C 
BRANCH  14  15
HETATM   15  C10 UNL     1      69.014  -1.915 102.021  1.00  0.00     0.264 C 
HETATM   16  O2  UNL     1      69.333  -2.397 100.913  1.00  0.00    -0.266 OA
HETATM   17  N3  UNL     1      68.207  -0.774 101.997  1.00  0.00    -0.348 N 
ATOM     18  H3  UNL     1      68.013  -0.355 102.907  1.00  0.00     0.163 HD
BRANCH  17  19
HETATM   19  C11 UNL     1      67.624  -0.122 100.897  1.00  0.00     0.123 A 
HETATM   20  C12 UNL     1      67.616   1.420 101.041  1.00  0.00     0.070 A 
HETATM   21  C13 UNL     1      68.172   0.687  99.809  1.00  0.00     0.191 A 
BRANCH  21  22
HETATM   22  N4  UNL     1      67.501   0.890  98.579  1.00  0.00    -0.408 NA
HETATM   23  C14 UNL     1      66.875   1.078  97.421  1.00  0.00     0.282 C 
HETATM   24  C15 UNL     1      65.517   1.904  97.526  1.00  0.00     0.134 C 
HETATM   25  O3  UNL     1      67.081   0.781  96.261  1.00  0.00    -0.258 OA
ENDBRANCH  21  22
ENDBRANCH  17  19
ENDBRANCH  14  15
ENDBRANCH   6   9
BRANCH   7  26
HETATM   26  O4  UNL     1      70.407  -5.836 103.848  1.00  0.00    -0.388 OA
ATOM     27  H4  UNL     1      70.508  -6.599 104.405  1.00  0.00     0.210 HD
ENDBRANCH   7  26
BRANCH   8  28
HETATM   28  O5  UNL     1      67.461  -7.164 102.566  1.00  0.00    -0.390 OA
ATOM     29  H5  UNL     1      66.860  -7.887 102.703  1.00  0.00     0.210 HD
ENDBRANCH   8  28
ENDBRANCH   3   4
TORSDOF 7
ENDMDL
MODEL 5
REMARK VINA RESULT: -7.415950639      2.043      4.440
REMARK  7 active torsions:
REMARK  status: ('A' for Active; 'I' for Inactive)
REMARK    1  A    between atoms: C2_3  and  C3_4 
REMARK    2  A    between atoms: C4_6  and  N2_7 
REMARK    3  A    between atoms: C9_12  and  C10_13 
REMARK       I    between atoms: C10_13  and  N3_15 
REMARK    4  A    between atoms: N3_15  and  C11_17 
REMARK    5  A    between atoms: C13_19  and  N4_20 
REMARK       I    between atoms: N4_20  and  C14_21 
REMARK    6  A    between atoms: C16_24  and  O4_25 
REMARK    7  A    between atoms: C17_27  and  O5_28 
ROOT
HETATM    1  C1  UNL     1      73.620  -0.292 104.043  1.00  0.00     0.227 C 
HETATM    2  N1  UNL     1      72.765  -0.861 104.506  1.00  0.00    -0.443 NA
HETATM    3  C2  UNL     1      71.682  -1.528 105.093  1.00  0.00     0.188 C 
ENDROOT
BRANCH   3   4
HETATM    4  C3  UNL     1      70.923  -2.371 104.163  1.00  0.00     0.207 C 
HETATM    5  O1  UNL     1      70.111  -1.755 103.259  1.00  0.00    -0.349 OA
HETATM    6  C4  UNL     1      69.404  -2.808 102.531  1.00  0.00     0.259 C 
HETATM    7  C16 UNL     1      69.695  -4.035 103.299  1.00  0.00     0.199 C 
HETATM    8  C17 UNL     1      69.976  -3.427 104.720  1.00  0.00     0.186 C 
BRANCH   6   9
HETATM    9  N2  UNL     1      69.850  -2.718 101.241  1.00  0.00    -0.330 N 
HETATM   10  C5  UNL     1      71.210  -2.802 100.889  1.00  0.00     0.067 C 
HETATM   11  C6  UNL     1      71.557  -3.970 100.067  1.00  0.00     0.045 C 
HETATM   12  C7  UNL     1      70.527  -4.572  99.236  1.00  0.00     0.011 C 
HETATM   13  C8  UNL     1      69.067  -4.321  99.699  1.00  0.00     0.063 C 
HETATM   14  C9  UNL     1      69.056  -2.861 100.096  1.00  0.00     0.081 C 
BRANCH  14  15
HETATM   15  C10 UNL     1      67.880  -2.092  99.819  1.00  0.00     0.264 C 
HETATM   16  O2  UNL     1      66.872  -2.241 100.541  1.00  0.00    -0.266 OA
HETATM   17  N3  UNL     1      67.776  -1.158  98.784  1.00  0.00    -0.348 N 
ATOM     18  H3  UNL     1      68.583  -1.100  98.163  1.00  0.00     0.163 HD
BRANCH  17  19
HETATM   19  C11 UNL     1      66.715  -0.288  98.479  1.00  0.00     0.123 A 
HETATM   20  C12 UNL     1      66.858   1.100  99.153  1.00  0.00     0.070 A 
HETATM   21  C13 UNL     1      66.613   0.910  97.646  1.00  0.00     0.191 A 
BRANCH  21  22
HETATM   22  N4  UNL     1      65.388   1.391  97.126  1.00  0.00    -0.408 NA
HETATM   23  C14 UNL     1      64.239   1.849  96.636  1.00  0.00     0.282 C 
HETATM   24  C15 UNL     1      63.030   0.813  96.700  1.00  0.00     0.134 C 
HETATM   25  O3  UNL     1      63.856   2.890  96.143  1.00  0.00    -0.258 OA
ENDBRANCH  21  22
ENDBRANCH  17  19
ENDBRANCH  14  15
ENDBRANCH   6   9
BRANCH   7  26
HETATM   26  O4  UNL     1      70.841  -4.705 102.983  1.00  0.00    -0.388 OA
ATOM     27  H4  UNL     1      70.749  -5.489 102.456  1.00  0.00     0.210 HD
ENDBRANCH   7  26
BRANCH   8  28
HETATM   28  O5  UNL     1      68.778  -2.960 105.171  1.00  0.00    -0.390 OA
ATOM     29  H5  UNL     1      68.542  -3.225 106.053  1.00  0.00     0.210 HD
ENDBRANCH   8  28
ENDBRANCH   3   4
TORSDOF 7
ENDMDL
