MODEL 1
REMARK VINA RESULT: -7.030088151      0.000      0.000
REMARK  9 active torsions:
REMARK  status: ('A' for Active; 'I' for Inactive)
REMARK    1  A    between atoms: N1_2  and  C2_5 
REMARK    2  A    between atoms: C4_7  and  C5_8 
REMARK       I    between atoms: C5_8  and  N2_10 
REMARK    3  A    between atoms: N2_10  and  C6_12 
REMARK    4  A    between atoms: C6_12  and  C7_13 
REMARK    5  A    between atoms: C7_13  and  N3_14 
REMARK    6  A    between atoms: C14_21  and  C15_22 
REMARK    7  A    between atoms: C15_22  and  O2_23 
REMARK    8  A    between atoms: C17_27  and  O4_28 
REMARK    9  A    between atoms: C18_30  and  O5_31 
ROOT
HETATM    1  C2  UNL     1      68.927  -4.853 105.697  1.00  0.00     0.218 C 
HETATM    2  C3  UNL     1      68.247  -4.691 104.358  1.00  0.00     0.060 C 
HETATM    3  C4  UNL     1      69.345  -4.241 103.381  1.00  0.00     0.099 C 
HETATM    4  C14 UNL     1      70.413  -5.312 103.473  1.00  0.00     0.166 C 
HETATM    5  O3  UNL     1      71.083  -5.216 104.680  1.00  0.00    -0.372 OA
HETATM    6  C16 UNL     1      70.389  -4.510 105.643  1.00  0.00     0.183 C 
HETATM    7  C17 UNL     1      70.454  -3.026 105.263  1.00  0.00     0.179 C 
HETATM    8  C18 UNL     1      69.849  -2.908 103.901  1.00  0.00     0.170 C 
ENDROOT
BRANCH   3   9
HETATM    9  C5  UNL     1      68.806  -4.098 102.022  1.00  0.00     0.231 C 
HETATM   10  O1  UNL     1      68.252  -5.087 101.490  1.00  0.00    -0.273 OA
HETATM   11  N2  UNL     1      68.880  -2.897 101.279  1.00  0.00    -0.359 N 
ATOM     12  H2  UNL     1      69.337  -2.107 101.732  1.00  0.00     0.162 HD
BRANCH  11  13
HETATM   13  C6  UNL     1      68.380  -2.676  99.958  1.00  0.00     0.150 C 
BRANCH  13  14
HETATM   14  C7  UNL     1      67.020  -2.059  99.952  1.00  0.00     0.256 C 
BRANCH  14  15
HETATM   15  N3  UNL     1      66.686  -1.512  98.624  1.00  0.00    -0.069 N 
HETATM   16  C8  UNL     1      67.143  -0.108  98.611  1.00  0.00     0.272 C 
HETATM   17  C9  UNL     1      67.492  -2.186  97.669  1.00  0.00     0.237 C 
HETATM   18  C10 UNL     1      66.708  -3.261  96.979  1.00  0.00     0.028 C 
HETATM   19  C11 UNL     1      65.681  -2.503  96.138  1.00  0.00     0.003 C 
HETATM   20  C12 UNL     1      64.806  -1.639  97.008  1.00  0.00     0.028 C 
HETATM   21  C13 UNL     1      65.283  -1.483  98.408  1.00  0.00     0.237 C 
ENDBRANCH  14  15
ENDBRANCH  13  14
ENDBRANCH  11  13
ENDBRANCH   3   9
BRANCH   4  22
HETATM   22  C15 UNL     1      71.338  -5.301 102.287  1.00  0.00     0.197 C 
BRANCH  22  23
HETATM   23  O2  UNL     1      71.235  -6.447 101.512  1.00  0.00    -0.398 OA
ATOM     24  H2  UNL     1      71.642  -6.354 100.658  1.00  0.00     0.209 HD
ENDBRANCH  22  23
ENDBRANCH   4  22
BRANCH   8  25
HETATM   25  O5  UNL     1      68.722  -2.082 104.009  1.00  0.00    -0.392 OA
ATOM     26  H5  UNL     1      68.869  -1.357 103.414  1.00  0.00     0.210 HD
ENDBRANCH   8  25
BRANCH   1  27
HETATM   27  N1  UNL     1      68.681  -6.150 106.286  1.00  0.00    -0.072 N 
HETATM   28  C1  UNL     1      67.703  -6.880 105.500  1.00  0.00     0.267 C 
ATOM     29  H12 UNL     1      68.406  -6.078 107.266  1.00  0.00     0.277 HD
ATOM     30  H11 UNL     1      69.543  -6.682 106.412  1.00  0.00     0.277 HD
ENDBRANCH   1  27
BRANCH   7  31
HETATM   31  O4  UNL     1      71.719  -2.513 105.371  1.00  0.00    -0.390 OA
ATOM     32  H4  UNL     1      71.744  -1.713 105.882  1.00  0.00     0.210 HD
ENDBRANCH   7  31
TORSDOF 9
ENDMDL
MODEL 2
REMARK VINA RESULT: -6.980774024      0.863      1.512
REMARK  9 active torsions:
REMARK  status: ('A' for Active; 'I' for Inactive)
REMARK    1  A    between atoms: N1_2  and  C2_5 
REMARK    2  A    between atoms: C4_7  and  C5_8 
REMARK       I    between atoms: C5_8  and  N2_10 
REMARK    3  A    between atoms: N2_10  and  C6_12 
REMARK    4  A    between atoms: C6_12  and  C7_13 
REMARK    5  A    between atoms: C7_13  and  N3_14 
REMARK    6  A    between atoms: C14_21  and  C15_22 
REMARK    7  A    between atoms: C15_22  and  O2_23 
REMARK    8  A    between atoms: C17_27  and  O4_28 
REMARK    9  A    between atoms: C18_30  and  O5_31 
ROOT
HETATM    1  C2  UNL     1      69.137  -4.791 105.966  1.00  0.00     0.218 C 
HETATM    2  C3  UNL     1      68.348  -4.750 104.678  1.00  0.00     0.060 C 
HETATM    3  C4  UNL     1      69.348  -4.336 103.587  1.00  0.00     0.099 C 
HETATM    4  C14 UNL     1      70.462  -5.360 103.667  1.00  0.00     0.166 C 
HETATM    5  O3  UNL     1      71.220  -5.154 104.806  1.00  0.00    -0.372 OA
HETATM    6  C16 UNL     1      70.576  -4.404 105.771  1.00  0.00     0.183 C 
HETATM    7  C17 UNL     1      70.552  -2.950 105.284  1.00  0.00     0.179 C 
HETATM    8  C18 UNL     1      69.838  -2.952 103.970  1.00  0.00     0.170 C 
ENDROOT
BRANCH   3   9
HETATM    9  C5  UNL     1      68.700  -4.310 102.269  1.00  0.00     0.231 C 
HETATM   10  O1  UNL     1      68.032  -5.307 101.911  1.00  0.00    -0.273 OA
HETATM   11  N2  UNL     1      68.789  -3.215 101.380  1.00  0.00    -0.359 N 
ATOM     12  H2  UNL     1      69.340  -2.415 101.693  1.00  0.00     0.162 HD
BRANCH  11  13
HETATM   13  C6  UNL     1      68.188  -3.110 100.086  1.00  0.00     0.150 C 
BRANCH  13  14
HETATM   14  C7  UNL     1      68.445  -1.791  99.436  1.00  0.00     0.256 C 
BRANCH  14  15
HETATM   15  N3  UNL     1      67.188  -1.153  99.004  1.00  0.00    -0.069 N 
HETATM   16  C8  UNL     1      66.111  -1.715  99.844  1.00  0.00     0.272 C 
HETATM   17  C9  UNL     1      67.265   0.222  99.350  1.00  0.00     0.237 C 
HETATM   18  C10 UNL     1      67.627   1.049  98.153  1.00  0.00     0.028 C 
HETATM   19  C11 UNL     1      66.401   0.958  97.244  1.00  0.00     0.003 C 
HETATM   20  C12 UNL     1      66.113  -0.473  96.872  1.00  0.00     0.028 C 
HETATM   21  C13 UNL     1      66.868  -1.484  97.661  1.00  0.00     0.237 C 
ENDBRANCH  14  15
ENDBRANCH  13  14
ENDBRANCH  11  13
ENDBRANCH   3   9
BRANCH   4  22
HETATM   22  C15 UNL     1      71.290  -5.404 102.412  1.00  0.00     0.197 C 
BRANCH  22  23
HETATM   23  O2  UNL     1      71.328  -6.665 101.835  1.00  0.00    -0.398 OA
ATOM     24  H2  UNL     1      71.405  -7.363 102.475  1.00  0.00     0.209 HD
ENDBRANCH  22  23
ENDBRANCH   4  22
BRANCH   8  25
HETATM   25  O5  UNL     1      68.691  -2.159 104.111  1.00  0.00    -0.392 OA
ATOM     26  H5  UNL     1      68.074  -2.676 104.615  1.00  0.00     0.210 HD
ENDBRANCH   8  25
BRANCH   1  27
HETATM   27  N1  UNL     1      68.990  -6.050 106.662  1.00  0.00    -0.072 N 
HETATM   28  C1  UNL     1      67.978  -6.864 106.015  1.00  0.00     0.267 C 
ATOM     29  H12 UNL     1      68.794  -5.916 107.654  1.00  0.00     0.277 HD
ATOM     30  H11 UNL     1      69.878  -6.544 106.750  1.00  0.00     0.277 HD
ENDBRANCH   1  27
BRANCH   7  31
HETATM   31  O4  UNL     1      71.801  -2.388 105.253  1.00  0.00    -0.390 OA
ATOM     32  H4  UNL     1      71.878  -1.643 105.836  1.00  0.00     0.210 HD
ENDBRANCH   7  31
TORSDOF 9
ENDMDL
MODEL 3
REMARK VINA RESULT: -6.814391751      1.870      3.018
REMARK  9 active torsions:
REMARK  status: ('A' for Active; 'I' for Inactive)
REMARK    1  A    between atoms: N1_2  and  C2_5 
REMARK    2  A    between atoms: C4_7  and  C5_8 
REMARK       I    between atoms: C5_8  and  N2_10 
REMARK    3  A    between atoms: N2_10  and  C6_12 
REMARK    4  A    between atoms: C6_12  and  C7_13 
REMARK    5  A    between atoms: C7_13  and  N3_14 
REMARK    6  A    between atoms: C14_21  and  C15_22 
REMARK    7  A    between atoms: C15_22  and  O2_23 
REMARK    8  A    between atoms: C17_27  and  O4_28 
REMARK    9  A    between atoms: C18_30  and  O5_31 
ROOT
HETATM    1  C2  UNL     1      69.428  -5.797 102.712  1.00  0.00     0.218 C 
HETATM    2  C3  UNL     1      68.528  -4.682 102.234  1.00  0.00     0.060 C 
HETATM    3  C4  UNL     1      69.175  -3.379 102.732  1.00  0.00     0.099 C 
HETATM    4  C14 UNL     1      70.583  -3.403 102.172  1.00  0.00     0.166 C 
HETATM    5  O3  UNL     1      71.347  -4.344 102.839  1.00  0.00    -0.372 OA
HETATM    6  C16 UNL     1      70.598  -5.292 103.508  1.00  0.00     0.183 C 
HETATM    7  C17 UNL     1      69.996  -4.614 104.745  1.00  0.00     0.179 C 
HETATM    8  C18 UNL     1      69.178  -3.465 104.247  1.00  0.00     0.170 C 
ENDROOT
BRANCH   3   9
HETATM    9  C5  UNL     1      68.407  -2.211 102.280  1.00  0.00     0.231 C 
HETATM   10  O1  UNL     1      68.204  -1.279 103.091  1.00  0.00    -0.273 OA
HETATM   11  N2  UNL     1      67.884  -2.083 100.973  1.00  0.00    -0.359 N 
ATOM     12  H2  UNL     1      68.062  -2.856 100.332  1.00  0.00     0.162 HD
BRANCH  11  13
HETATM   13  C6  UNL     1      67.133  -0.982 100.456  1.00  0.00     0.150 C 
BRANCH  13  14
HETATM   14  C7  UNL     1      66.142  -1.396  99.419  1.00  0.00     0.256 C 
BRANCH  14  15
HETATM   15  N3  UNL     1      66.484  -0.837  98.098  1.00  0.00    -0.069 N 
HETATM   16  C8  UNL     1      66.907  -1.968  97.249  1.00  0.00     0.272 C 
HETATM   17  C9  UNL     1      65.284  -0.349  97.517  1.00  0.00     0.237 C 
HETATM   18  C10 UNL     1      65.184   1.138  97.675  1.00  0.00     0.028 C 
HETATM   19  C11 UNL     1      66.290   1.691  96.776  1.00  0.00     0.003 C 
HETATM   20  C12 UNL     1      67.638   1.169  97.199  1.00  0.00     0.028 C 
HETATM   21  C13 UNL     1      67.592   0.048  98.176  1.00  0.00     0.237 C 
ENDBRANCH  14  15
ENDBRANCH  13  14
ENDBRANCH  11  13
ENDBRANCH   3   9
BRANCH   4  22
HETATM   22  C15 UNL     1      71.215  -2.038 102.158  1.00  0.00     0.197 C 
BRANCH  22  23
HETATM   23  O2  UNL     1      72.008  -1.799 103.270  1.00  0.00    -0.398 OA
ATOM     24  H2  UNL     1      71.582  -2.034 104.086  1.00  0.00     0.209 HD
ENDBRANCH  22  23
ENDBRANCH   4  22
BRANCH   8  25
HETATM   25  O5  UNL     1      67.849  -3.696 104.626  1.00  0.00    -0.392 OA
ATOM     26  H5  UNL     1      67.427  -4.098 103.876  1.00  0.00     0.210 HD
ENDBRANCH   8  25
BRANCH   1  27
HETATM   27  N1  UNL     1      69.825  -6.683 101.640  1.00  0.00    -0.072 N 
HETATM   28  C1  UNL     1      69.147  -6.315 100.411  1.00  0.00     0.267 C 
ATOM     29  H12 UNL     1      69.676  -7.663 101.879  1.00  0.00     0.277 HD
ATOM     30  H11 UNL     1      70.838  -6.710 101.524  1.00  0.00     0.277 HD
ENDBRANCH   1  27
BRANCH   7  31
HETATM   31  O4  UNL     1      70.947  -4.276 105.671  1.00  0.00    -0.390 OA
ATOM     32  H4  UNL     1      70.654  -3.590 106.258  1.00  0.00     0.210 HD
ENDBRANCH   7  31
TORSDOF 9
ENDMDL
MODEL 4
REMARK VINA RESULT: -6.785037099      1.808      2.446
REMARK  9 active torsions:
REMARK  status: ('A' for Active; 'I' for Inactive)
REMARK    1  A    between atoms: N1_2  and  C2_5 
REMARK    2  A    between atoms: C4_7  and  C5_8 
REMARK       I    between atoms: C5_8  and  N2_10 
REMARK    3  A    between atoms: N2_10  and  C6_12 
REMARK    4  A    between atoms: C6_12  and  C7_13 
REMARK    5  A    between atoms: C7_13  and  N3_14 
REMARK    6  A    between atoms: C14_21  and  C15_22 
REMARK    7  A    between atoms: C15_22  and  O2_23 
REMARK    8  A    between atoms: C17_27  and  O4_28 
REMARK    9  A    between atoms: C18_30  and  O5_31 
ROOT
HETATM    1  C2  UNL     1      69.484  -5.701 102.836  1.00  0.00     0.218 C 
HETATM    2  C3  UNL     1      68.584  -4.646 102.235  1.00  0.00     0.060 C 
HETATM    3  C4  UNL     1      69.206  -3.295 102.623  1.00  0.00     0.099 C 
HETATM    4  C14 UNL     1      70.626  -3.353 102.099  1.00  0.00     0.166 C 
HETATM    5  O3  UNL     1      71.384  -4.218 102.867  1.00  0.00    -0.372 OA
HETATM    6  C16 UNL     1      70.630  -5.108 103.606  1.00  0.00     0.183 C 
HETATM    7  C17 UNL     1      69.993  -4.325 104.761  1.00  0.00     0.179 C 
HETATM    8  C18 UNL     1      69.175  -3.238 104.138  1.00  0.00     0.170 C 
ENDROOT
BRANCH   3   9
HETATM    9  C5  UNL     1      68.437  -2.184 102.047  1.00  0.00     0.231 C 
HETATM   10  O1  UNL     1      68.094  -1.241 102.795  1.00  0.00    -0.273 OA
HETATM   11  N2  UNL     1      68.061  -2.122 100.685  1.00  0.00    -0.359 N 
ATOM     12  H2  UNL     1      68.350  -2.903 100.095  1.00  0.00     0.162 HD
BRANCH  11  13
HETATM   13  C6  UNL     1      67.319  -1.079 100.047  1.00  0.00     0.150 C 
BRANCH  13  14
HETATM   14  C7  UNL     1      65.999  -1.545  99.528  1.00  0.00     0.256 C 
BRANCH  14  15
HETATM   15  N3  UNL     1      65.835  -1.208  98.103  1.00  0.00    -0.069 N 
HETATM   16  C8  UNL     1      66.101   0.238  97.970  1.00  0.00     0.272 C 
HETATM   17  C9  UNL     1      66.876  -1.856  97.388  1.00  0.00     0.237 C 
HETATM   18  C10 UNL     1      66.372  -3.108  96.736  1.00  0.00     0.028 C 
HETATM   19  C11 UNL     1      65.419  -2.613  95.648  1.00  0.00     0.003 C 
HETATM   20  C12 UNL     1      64.301  -1.798  96.243  1.00  0.00     0.028 C 
HETATM   21  C13 UNL     1      64.500  -1.415  97.666  1.00  0.00     0.237 C 
ENDBRANCH  14  15
ENDBRANCH  13  14
ENDBRANCH  11  13
ENDBRANCH   3   9
BRANCH   4  22
HETATM   22  C15 UNL     1      71.244  -1.988 101.970  1.00  0.00     0.197 C 
BRANCH  22  23
HETATM   23  O2  UNL     1      72.039  -1.650 103.055  1.00  0.00    -0.398 OA
ATOM     24  H2  UNL     1      71.537  -1.484 103.844  1.00  0.00     0.209 HD
ENDBRANCH  22  23
ENDBRANCH   4  22
BRANCH   8  25
HETATM   25  O5  UNL     1      67.840  -3.450 104.509  1.00  0.00    -0.392 OA
ATOM     26  H5  UNL     1      67.834  -4.244 105.029  1.00  0.00     0.210 HD
ENDBRANCH   8  25
BRANCH   1  27
HETATM   27  N1  UNL     1      69.915  -6.677 101.861  1.00  0.00    -0.072 N 
HETATM   28  C1  UNL     1      69.139  -6.544 100.642  1.00  0.00     0.267 C 
ATOM     29  H12 UNL     1      69.883  -7.627 102.231  1.00  0.00     0.277 HD
ATOM     30  H11 UNL     1      70.918  -6.621 101.682  1.00  0.00     0.277 HD
ENDBRANCH   1  27
BRANCH   7  31
HETATM   31  O4  UNL     1      70.919  -3.890 105.672  1.00  0.00    -0.390 OA
ATOM     32  H4  UNL     1      70.558  -3.260 106.283  1.00  0.00     0.210 HD
ENDBRANCH   7  31
TORSDOF 9
ENDMDL
MODEL 5
REMARK VINA RESULT: -6.699844183      2.080      2.648
REMARK  9 active torsions:
REMARK  status: ('A' for Active; 'I' for Inactive)
REMARK    1  A    between atoms: N1_2  and  C2_5 
REMARK    2  A    between atoms: C4_7  and  C5_8 
REMARK       I    between atoms: C5_8  and  N2_10 
REMARK    3  A    between atoms: N2_10  and  C6_12 
REMARK    4  A    between atoms: C6_12  and  C7_13 
REMARK    5  A    between atoms: C7_13  and  N3_14 
REMARK    6  A    between atoms: C14_21  and  C15_22 
REMARK    7  A    between atoms: C15_22  and  O2_23 
REMARK    8  A    between atoms: C17_27  and  O4_28 
REMARK    9  A    between atoms: C18_30  and  O5_31 
ROOT
HETATM    1  C2  UNL     1      69.431  -4.194 103.619  1.00  0.00     0.218 C 
HETATM    2  C3  UNL     1      68.516  -3.856 102.465  1.00  0.00     0.060 C 
HETATM    3  C4  UNL     1      69.395  -3.140 101.428  1.00  0.00     0.099 C 
HETATM    4  C14 UNL     1      70.524  -4.108 101.137  1.00  0.00     0.166 C 
HETATM    5  O3  UNL     1      71.390  -4.171 102.215  1.00  0.00    -0.372 OA
HETATM    6  C16 UNL     1      70.838  -3.716 103.395  1.00  0.00     0.183 C 
HETATM    7  C17 UNL     1      70.746  -2.187 103.303  1.00  0.00     0.179 C 
HETATM    8  C18 UNL     1      69.904  -1.882 102.106  1.00  0.00     0.170 C 
ENDROOT
BRANCH   3   9
HETATM    9  C5  UNL     1      68.617  -2.804 100.228  1.00  0.00     0.231 C 
HETATM   10  O1  UNL     1      68.159  -3.738  99.531  1.00  0.00    -0.273 OA
HETATM   11  N2  UNL     1      68.357  -1.477  99.817  1.00  0.00    -0.359 N 
ATOM     12  H2  UNL     1      68.742  -0.734 100.400  1.00  0.00     0.162 HD
BRANCH  11  13
HETATM   13  C6  UNL     1      67.609  -1.067  98.669  1.00  0.00     0.150 C 
BRANCH  13  14
HETATM   14  C7  UNL     1      66.935   0.252  98.860  1.00  0.00     0.256 C 
BRANCH  14  15
HETATM   15  N3  UNL     1      66.279   0.702  97.619  1.00  0.00    -0.069 N 
HETATM   16  C8  UNL     1      67.350   1.138  96.701  1.00  0.00     0.272 C 
HETATM   17  C9  UNL     1      65.691  -0.437  97.008  1.00  0.00     0.237 C 
HETATM   18  C10 UNL     1      64.220  -0.491  97.292  1.00  0.00     0.028 C 
HETATM   19  C11 UNL     1      63.641   0.693  96.518  1.00  0.00     0.003 C 
HETATM   20  C12 UNL     1      64.256   1.989  96.977  1.00  0.00     0.028 C 
HETATM   21  C13 UNL     1      65.454   1.835  97.845  1.00  0.00     0.237 C 
ENDBRANCH  14  15
ENDBRANCH  13  14
ENDBRANCH  11  13
ENDBRANCH   3   9
BRANCH   4  22
HETATM   22  C15 UNL     1      71.222  -3.801  99.841  1.00  0.00     0.197 C 
BRANCH  22  23
HETATM   23  O2  UNL     1      72.547  -3.430 100.016  1.00  0.00    -0.398 OA
ATOM     24  H2  UNL     1      72.735  -2.559  99.686  1.00  0.00     0.209 HD
ENDBRANCH  22  23
ENDBRANCH   4  22
BRANCH   8  25
HETATM   25  O5  UNL     1      68.768  -1.195 102.553  1.00  0.00    -0.392 OA
ATOM     26  H5  UNL     1      68.912  -0.281 102.340  1.00  0.00     0.210 HD
ENDBRANCH   8  25
BRANCH   1  27
HETATM   27  N1  UNL     1      69.369  -5.593 103.979  1.00  0.00    -0.072 N 
HETATM   28  C1  UNL     1      68.263  -6.237 103.296  1.00  0.00     0.267 C 
ATOM     29  H12 UNL     1      69.322  -5.725 104.989  1.00  0.00     0.277 HD
ATOM     30  H11 UNL     1      70.254  -6.070 103.807  1.00  0.00     0.277 HD
ENDBRANCH   1  27
BRANCH   7  31
HETATM   31  O4  UNL     1      71.979  -1.589 103.300  1.00  0.00    -0.390 OA
ATOM     32  H4  UNL     1      72.598  -2.038 102.737  1.00  0.00     0.210 HD
ENDBRANCH   7  31
TORSDOF 9
ENDMDL
