MODEL 1
REMARK VINA RESULT: -6.367128801      0.000      0.000
REMARK  4 active torsions:
REMARK  status: ('A' for Active; 'I' for Inactive)
REMARK    1  A    between atoms: O1_2  and  C2_3 
REMARK    2  A    between atoms: C2_3  and  C3_5 
REMARK    3  A    between atoms: C17_22  and  O6_23 
REMARK    4  A    between atoms: O6_23  and  C18_24 
ROOT
HETATM    1  C3  UNL     1     -15.690  -0.158   3.500  1.00  0.00     0.018 C 
HETATM    2  C4  UNL     1     -16.308  -1.335   2.736  1.00  0.00     0.055 C 
HETATM    3  C5  UNL     1     -14.497  -0.284   4.008  1.00  0.00    -0.037 C 
HETATM    4  C6  UNL     1     -13.821   0.785   4.761  1.00  0.00     0.038 C 
HETATM    5  C7  UNL     1     -14.089   0.797   6.241  1.00  0.00     0.013 C 
HETATM    6  C8  UNL     1     -12.811   0.940   7.080  1.00  0.00    -0.047 C 
HETATM    7  C9  UNL     1     -11.839   1.869   6.445  1.00  0.00     0.015 C 
HETATM    8  C10 UNL     1     -13.281   1.679   8.362  1.00  0.00     0.015 C 
HETATM    9  C11 UNL     1     -12.257  -0.389   7.508  1.00  0.00     0.018 C 
HETATM   10  C12 UNL     1     -11.011  -0.829   6.827  1.00  0.00     0.112 C 
HETATM   11  C13 UNL     1     -10.954  -2.333   6.695  1.00  0.00     0.261 C 
HETATM   12  O3  UNL     1      -9.928  -2.874   7.169  1.00  0.00    -0.265 OA
HETATM   13  O4  UNL     1     -12.012  -2.927   6.085  1.00  0.00    -0.281 OA
HETATM   14  C14 UNL     1     -12.521  -2.759   4.819  1.00  0.00     0.199 C 
HETATM   15  C15 UNL     1     -12.010  -3.697   3.743  1.00  0.00     0.082 C 
HETATM   16  O5  UNL     1     -12.510  -1.456   4.315  1.00  0.00    -0.340 OA
HETATM   17  C16 UNL     1     -13.808  -1.610   3.750  1.00  0.00     0.190 C 
HETATM   18  C17 UNL     1     -14.064  -2.640   4.784  1.00  0.00     0.227 C 
ENDROOT
BRANCH   1  19
HETATM   19  C2  UNL     1     -16.482   1.043   3.617  1.00  0.00     0.288 C 
HETATM   20  O2  UNL     1     -17.286   1.270   4.525  1.00  0.00    -0.260 OA
BRANCH  19  21
HETATM   21  O1  UNL     1     -16.362   2.060   2.640  1.00  0.00    -0.323 OA
HETATM   22  C1  UNL     1     -17.420   2.994   2.440  1.00  0.00     0.213 C 
ENDBRANCH  19  21
ENDBRANCH   1  19
BRANCH  18  23
HETATM   23  O6  UNL     1     -14.548  -3.901   4.391  1.00  0.00    -0.308 OA
BRANCH  23  24
HETATM   24  C18 UNL     1     -15.588  -4.514   5.062  1.00  0.00     0.255 C 
HETATM   25  C19 UNL     1     -15.264  -5.274   6.292  1.00  0.00     0.126 C 
HETATM   26  O7  UNL     1     -16.735  -4.378   4.577  1.00  0.00    -0.266 OA
ENDBRANCH  23  24
ENDBRANCH  18  23
TORSDOF 4
ENDMDL
MODEL 2
REMARK VINA RESULT: -5.639646400      4.042      6.905
REMARK  4 active torsions:
REMARK  status: ('A' for Active; 'I' for Inactive)
REMARK    1  A    between atoms: O1_2  and  C2_3 
REMARK    2  A    between atoms: C2_3  and  C3_5 
REMARK    3  A    between atoms: C17_22  and  O6_23 
REMARK    4  A    between atoms: O6_23  and  C18_24 
ROOT
HETATM    1  C3  UNL     1     -17.238   3.163   6.295  1.00  0.00     0.018 C 
HETATM    2  C4  UNL     1     -18.219   4.153   6.936  1.00  0.00     0.055 C 
HETATM    3  C5  UNL     1     -16.236   2.714   6.996  1.00  0.00    -0.037 C 
HETATM    4  C6  UNL     1     -15.240   1.767   6.470  1.00  0.00     0.038 C 
HETATM    5  C7  UNL     1     -14.054   2.393   5.789  1.00  0.00     0.013 C 
HETATM    6  C8  UNL     1     -12.715   1.802   6.253  1.00  0.00    -0.047 C 
HETATM    7  C9  UNL     1     -12.812   0.336   6.482  1.00  0.00     0.015 C 
HETATM    8  C10 UNL     1     -11.788   1.946   5.015  1.00  0.00     0.015 C 
HETATM    9  C11 UNL     1     -12.098   2.596   7.369  1.00  0.00     0.018 C 
HETATM   10  C12 UNL     1     -12.127   1.966   8.715  1.00  0.00     0.112 C 
HETATM   11  C13 UNL     1     -12.239   3.003   9.809  1.00  0.00     0.261 C 
HETATM   12  O3  UNL     1     -11.350   2.949  10.691  1.00  0.00    -0.265 OA
HETATM   13  O4  UNL     1     -13.279   3.871   9.716  1.00  0.00    -0.281 OA
HETATM   14  C14 UNL     1     -14.634   3.639   9.692  1.00  0.00     0.199 C 
HETATM   15  C15 UNL     1     -15.362   3.685  11.021  1.00  0.00     0.082 C 
HETATM   16  O5  UNL     1     -15.057   2.506   8.992  1.00  0.00    -0.340 OA
HETATM   17  C16 UNL     1     -16.162   3.206   8.429  1.00  0.00     0.190 C 
HETATM   18  C17 UNL     1     -15.381   4.451   8.606  1.00  0.00     0.227 C 
ENDROOT
BRANCH   1  19
HETATM   19  C2  UNL     1     -17.487   2.780   4.926  1.00  0.00     0.288 C 
HETATM   20  O2  UNL     1     -17.655   1.621   4.539  1.00  0.00    -0.260 OA
BRANCH  19  21
HETATM   21  O1  UNL     1     -17.549   3.774   3.920  1.00  0.00    -0.323 OA
HETATM   22  C1  UNL     1     -17.959   3.434   2.598  1.00  0.00     0.213 C 
ENDBRANCH  19  21
ENDBRANCH   1  19
BRANCH  18  23
HETATM   23  O6  UNL     1     -15.971   5.544   9.267  1.00  0.00    -0.308 OA
BRANCH  23  24
HETATM   24  C18 UNL     1     -15.532   6.836   9.056  1.00  0.00     0.255 C 
HETATM   25  C19 UNL     1     -14.117   7.029   8.660  1.00  0.00     0.126 C 
HETATM   26  O7  UNL     1     -16.370   7.754   9.216  1.00  0.00    -0.266 OA
ENDBRANCH  23  24
ENDBRANCH  18  23
TORSDOF 4
ENDMDL
MODEL 3
REMARK VINA RESULT: -5.607997121      5.876      9.167
REMARK  4 active torsions:
REMARK  status: ('A' for Active; 'I' for Inactive)
REMARK    1  A    between atoms: O1_2  and  C2_3 
REMARK    2  A    between atoms: C2_3  and  C3_5 
REMARK    3  A    between atoms: C17_22  and  O6_23 
REMARK    4  A    between atoms: O6_23  and  C18_24 
ROOT
HETATM    1  C3  UNL     1     -16.499   5.714  11.166  1.00  0.00     0.018 C 
HETATM    2  C4  UNL     1     -15.879   6.829  12.017  1.00  0.00     0.055 C 
HETATM    3  C5  UNL     1     -15.719   4.875  10.546  1.00  0.00    -0.037 C 
HETATM    4  C6  UNL     1     -16.217   3.777   9.703  1.00  0.00     0.038 C 
HETATM    5  C7  UNL     1     -16.441   4.126   8.257  1.00  0.00     0.013 C 
HETATM    6  C8  UNL     1     -15.841   3.093   7.292  1.00  0.00    -0.047 C 
HETATM    7  C9  UNL     1     -16.000   1.706   7.804  1.00  0.00     0.015 C 
HETATM    8  C10 UNL     1     -16.764   3.160   6.045  1.00  0.00     0.015 C 
HETATM    9  C11 UNL     1     -14.457   3.467   6.844  1.00  0.00     0.018 C 
HETATM   10  C12 UNL     1     -13.345   2.657   7.408  1.00  0.00     0.112 C 
HETATM   11  C13 UNL     1     -12.088   3.481   7.571  1.00  0.00     0.261 C 
HETATM   12  O3  UNL     1     -11.068   3.017   7.011  1.00  0.00    -0.265 OA
HETATM   13  O4  UNL     1     -12.203   4.623   8.298  1.00  0.00    -0.281 OA
HETATM   14  C14 UNL     1     -12.588   4.813   9.603  1.00  0.00     0.199 C 
HETATM   15  C15 UNL     1     -11.488   4.850  10.646  1.00  0.00     0.082 C 
HETATM   16  O5  UNL     1     -13.618   3.993  10.071  1.00  0.00    -0.340 OA
HETATM   17  C16 UNL     1     -14.231   5.074  10.766  1.00  0.00     0.190 C 
HETATM   18  C17 UNL     1     -13.587   5.982   9.789  1.00  0.00     0.227 C 
ENDROOT
BRANCH   1  19
HETATM   19  C2  UNL     1     -17.940   5.659  11.099  1.00  0.00     0.288 C 
HETATM   20  O2  UNL     1     -18.631   6.279  10.288  1.00  0.00    -0.260 OA
BRANCH  19  21
HETATM   21  O1  UNL     1     -18.654   4.847  12.013  1.00  0.00    -0.323 OA
HETATM   22  C1  UNL     1     -20.076   4.781  11.957  1.00  0.00     0.213 C 
ENDBRANCH  19  21
ENDBRANCH   1  19
BRANCH  18  23
HETATM   23  O6  UNL     1     -12.834   7.073  10.259  1.00  0.00    -0.308 OA
BRANCH  23  24
HETATM   24  C18 UNL     1     -12.914   8.315   9.658  1.00  0.00     0.255 C 
HETATM   25  C19 UNL     1     -12.404   9.482  10.415  1.00  0.00     0.126 C 
HETATM   26  O7  UNL     1     -13.413   8.359   8.510  1.00  0.00    -0.266 OA
ENDBRANCH  23  24
ENDBRANCH  18  23
TORSDOF 4
ENDMDL
MODEL 4
REMARK VINA RESULT: -5.491395837      2.082      3.283
REMARK  4 active torsions:
REMARK  status: ('A' for Active; 'I' for Inactive)
REMARK    1  A    between atoms: O1_2  and  C2_3 
REMARK    2  A    between atoms: C2_3  and  C3_5 
REMARK    3  A    between atoms: C17_22  and  O6_23 
REMARK    4  A    between atoms: O6_23  and  C18_24 
ROOT
HETATM    1  C3  UNL     1     -13.446  -0.606   4.839  1.00  0.00     0.018 C 
HETATM    2  C4  UNL     1     -14.571  -0.954   3.857  1.00  0.00     0.055 C 
HETATM    3  C5  UNL     1     -12.530  -1.494   5.101  1.00  0.00    -0.037 C 
HETATM    4  C6  UNL     1     -11.414  -1.256   6.032  1.00  0.00     0.038 C 
HETATM    5  C7  UNL     1     -11.691  -1.602   7.469  1.00  0.00     0.013 C 
HETATM    6  C8  UNL     1     -10.571  -2.434   8.111  1.00  0.00    -0.047 C 
HETATM    7  C9  UNL     1      -9.228  -1.996   7.648  1.00  0.00     0.015 C 
HETATM    8  C10 UNL     1     -10.618  -2.036   9.612  1.00  0.00     0.015 C 
HETATM    9  C11 UNL     1     -10.839  -3.910   8.031  1.00  0.00     0.018 C 
HETATM   10  C12 UNL     1     -10.001  -4.676   7.071  1.00  0.00     0.112 C 
HETATM   11  C13 UNL     1     -10.759  -5.844   6.485  1.00  0.00     0.261 C 
HETATM   12  O3  UNL     1     -10.206  -6.961   6.615  1.00  0.00    -0.265 OA
HETATM   13  O4  UNL     1     -11.946  -5.558   5.889  1.00  0.00    -0.281 OA
HETATM   14  C14 UNL     1     -12.234  -4.738   4.824  1.00  0.00     0.199 C 
HETATM   15  C15 UNL     1     -12.268  -5.382   3.451  1.00  0.00     0.082 C 
HETATM   16  O5  UNL     1     -11.502  -3.551   4.740  1.00  0.00    -0.340 OA
HETATM   17  C16 UNL     1     -12.655  -2.809   4.356  1.00  0.00     0.190 C 
HETATM   18  C17 UNL     1     -13.466  -3.831   5.057  1.00  0.00     0.227 C 
ENDROOT
BRANCH   1  19
HETATM   19  C2  UNL     1     -13.469   0.712   5.429  1.00  0.00     0.288 C 
HETATM   20  O2  UNL     1     -14.241   1.068   6.323  1.00  0.00    -0.260 OA
BRANCH  19  21
HETATM   21  O1  UNL     1     -12.559   1.698   4.980  1.00  0.00    -0.323 OA
HETATM   22  C1  UNL     1     -11.764   2.422   5.915  1.00  0.00     0.213 C 
ENDBRANCH  19  21
ENDBRANCH   1  19
BRANCH  18  23
HETATM   23  O6  UNL     1     -14.538  -4.440   4.380  1.00  0.00    -0.308 OA
BRANCH  23  24
HETATM   24  C18 UNL     1     -15.719  -4.744   5.028  1.00  0.00     0.255 C 
HETATM   25  C19 UNL     1     -15.632  -5.399   6.354  1.00  0.00     0.126 C 
HETATM   26  O7  UNL     1     -16.784  -4.440   4.440  1.00  0.00    -0.266 OA
ENDBRANCH  23  24
ENDBRANCH  18  23
TORSDOF 4
ENDMDL
MODEL 5
REMARK VINA RESULT: -5.468868813      3.161      7.037
REMARK  4 active torsions:
REMARK  status: ('A' for Active; 'I' for Inactive)
REMARK    1  A    between atoms: O1_2  and  C2_3 
REMARK    2  A    between atoms: C2_3  and  C3_5 
REMARK    3  A    between atoms: C17_22  and  O6_23 
REMARK    4  A    between atoms: O6_23  and  C18_24 
ROOT
HETATM    1  C3  UNL     1     -15.125  -6.440   5.073  1.00  0.00     0.018 C 
HETATM    2  C4  UNL     1     -15.820  -5.213   5.674  1.00  0.00     0.055 C 
HETATM    3  C5  UNL     1     -13.829  -6.440   4.944  1.00  0.00    -0.037 C 
HETATM    4  C6  UNL     1     -13.072  -7.567   4.375  1.00  0.00     0.038 C 
HETATM    5  C7  UNL     1     -12.889  -7.531   2.883  1.00  0.00     0.013 C 
HETATM    6  C8  UNL     1     -11.441  -7.803   2.450  1.00  0.00    -0.047 C 
HETATM    7  C9  UNL     1     -10.800  -8.840   3.300  1.00  0.00     0.015 C 
HETATM    8  C10 UNL     1     -11.582  -8.470   1.055  1.00  0.00     0.015 C 
HETATM    9  C11 UNL     1     -10.654  -6.537   2.263  1.00  0.00     0.018 C 
HETATM   10  C12 UNL     1      -9.628  -6.245   3.299  1.00  0.00     0.112 C 
HETATM   11  C13 UNL     1      -9.461  -4.758   3.508  1.00  0.00     0.261 C 
HETATM   12  O3  UNL     1      -8.291  -4.327   3.380  1.00  0.00    -0.265 OA
HETATM   13  O4  UNL     1     -10.587  -4.059   3.807  1.00  0.00    -0.281 OA
HETATM   14  C14 UNL     1     -11.462  -4.186   4.859  1.00  0.00     0.199 C 
HETATM   15  C15 UNL     1     -11.201  -3.323   6.078  1.00  0.00     0.082 C 
HETATM   16  O5  UNL     1     -11.732  -5.489   5.285  1.00  0.00    -0.340 OA
HETATM   17  C16 UNL     1     -13.117  -5.200   5.451  1.00  0.00     0.190 C 
HETATM   18  C17 UNL     1     -12.950  -4.136   4.435  1.00  0.00     0.227 C 
ENDROOT
BRANCH   1  19
HETATM   19  C2  UNL     1     -15.965  -7.546   4.676  1.00  0.00     0.288 C 
HETATM   20  O2  UNL     1     -16.190  -8.542   5.368  1.00  0.00    -0.260 OA
BRANCH  19  21
HETATM   21  O1  UNL     1     -16.594  -7.529   3.409  1.00  0.00    -0.323 OA
HETATM   22  C1  UNL     1     -17.758  -8.316   3.173  1.00  0.00     0.213 C 
ENDBRANCH  19  21
ENDBRANCH   1  19
BRANCH  18  23
HETATM   23  O6  UNL     1     -13.399  -2.835   4.724  1.00  0.00    -0.308 OA
BRANCH  23  24
HETATM   24  C18 UNL     1     -14.278  -2.174   3.888  1.00  0.00     0.255 C 
HETATM   25  C19 UNL     1     -14.378  -0.701   4.015  1.00  0.00     0.126 C 
HETATM   26  O7  UNL     1     -14.929  -2.876   3.080  1.00  0.00    -0.266 OA
ENDBRANCH  23  24
ENDBRANCH  18  23
TORSDOF 4
ENDMDL
