MODEL 1
REMARK VINA RESULT: -7.069129891      0.000      0.000
REMARK  5 active torsions:
REMARK  status: ('A' for Active; 'I' for Inactive)
REMARK    1  A    between atoms: C2_2  and  O1_5 
REMARK    2  A    between atoms: O1_5  and  C5_6 
REMARK    3  A    between atoms: C5_6  and  C6_8 
REMARK    4  A    between atoms: C6_8  and  C7_9 
REMARK    5  A    between atoms: C7_9  and  C8_11 
ROOT
HETATM    1  C8  UNL     1     -17.269   3.877   5.468  1.00  0.00     0.126 C 
HETATM    2  C9  UNL     1     -16.804   4.531   6.779  1.00  0.00     0.026 C 
HETATM    3  C10 UNL     1     -15.506   3.758   7.044  1.00  0.00     0.019 C 
HETATM    4  C11 UNL     1     -16.043   2.346   6.756  1.00  0.00     0.131 C 
HETATM    5  C12 UNL     1     -14.842   1.487   6.815  1.00  0.00     0.141 C 
HETATM    6  O4  UNL     1     -14.370   0.866   5.906  1.00  0.00    -0.297 OA
HETATM    7  C13 UNL     1     -14.191   1.422   8.172  1.00  0.00     0.115 C 
HETATM    8  C14 UNL     1     -14.595   2.534   9.066  1.00  0.00     0.178 C 
HETATM    9  O5  UNL     1     -13.493   2.883   9.847  1.00  0.00    -0.233 OA
HETATM   10  O6  UNL     1     -13.379   4.170   9.881  1.00  0.00    -0.229 OA
HETATM   11  C15 UNL     1     -13.694   4.610   8.572  1.00  0.00     0.099 C 
HETATM   12  C16 UNL     1     -13.900   6.087   8.527  1.00  0.00     0.050 C 
HETATM   13  C17 UNL     1     -12.566   4.169   7.708  1.00  0.00     0.050 C 
HETATM   14  C18 UNL     1     -14.977   3.827   8.390  1.00  0.00     0.024 C 
HETATM   15  C19 UNL     1     -16.007   4.490   9.316  1.00  0.00     0.022 C 
HETATM   16  C20 UNL     1     -16.572   2.576   5.403  1.00  0.00     0.149 C 
HETATM   17  O7  UNL     1     -16.458   1.855   4.449  1.00  0.00    -0.296 OA
ENDROOT
BRANCH   1  18
HETATM   18  C7  UNL     1     -18.730   3.613   5.522  1.00  0.00     0.147 C 
HETATM   19  O3  UNL     1     -19.412   4.084   6.414  1.00  0.00    -0.297 OA
BRANCH  18  20
HETATM   20  C6  UNL     1     -19.384   2.772   4.491  1.00  0.00     0.190 C 
BRANCH  20  21
HETATM   21  C5  UNL     1     -19.792   3.500   3.297  1.00  0.00     0.266 C 
HETATM   22  O2  UNL     1     -20.165   4.689   3.378  1.00  0.00    -0.265 OA
BRANCH  21  23
HETATM   23  O1  UNL     1     -19.772   2.888   2.064  1.00  0.00    -0.311 OA
BRANCH  23  24
HETATM   24  C2  UNL     1     -18.679   2.856   1.177  1.00  0.00     0.060 C 
HETATM   25  C1  UNL     1     -17.493   3.649   1.686  1.00  0.00     0.045 C 
HETATM   26  C3  UNL     1     -19.160   3.617  -0.071  1.00  0.00     0.045 C 
HETATM   27  C4  UNL     1     -18.293   1.483   0.726  1.00  0.00     0.045 C 
ENDBRANCH  23  24
ENDBRANCH  21  23
ENDBRANCH  20  21
ENDBRANCH  18  20
ENDBRANCH   1  18
TORSDOF 5
ENDMDL
MODEL 2
REMARK VINA RESULT: -6.912731967      1.431      3.008
REMARK  5 active torsions:
REMARK  status: ('A' for Active; 'I' for Inactive)
REMARK    1  A    between atoms: C2_2  and  O1_5 
REMARK    2  A    between atoms: O1_5  and  C5_6 
REMARK    3  A    between atoms: C5_6  and  C6_8 
REMARK    4  A    between atoms: C6_8  and  C7_9 
REMARK    5  A    between atoms: C7_9  and  C8_11 
ROOT
HETATM    1  C8  UNL     1     -17.200   2.052   4.500  1.00  0.00     0.126 C 
HETATM    2  C9  UNL     1     -15.739   1.770   4.884  1.00  0.00     0.026 C 
HETATM    3  C10 UNL     1     -15.697   2.342   6.307  1.00  0.00     0.019 C 
HETATM    4  C11 UNL     1     -16.429   3.664   6.021  1.00  0.00     0.131 C 
HETATM    5  C12 UNL     1     -16.612   4.269   7.357  1.00  0.00     0.141 C 
HETATM    6  O4  UNL     1     -17.658   4.477   7.901  1.00  0.00    -0.297 OA
HETATM    7  C13 UNL     1     -15.329   4.638   8.052  1.00  0.00     0.115 C 
HETATM    8  C14 UNL     1     -14.141   3.955   7.486  1.00  0.00     0.178 C 
HETATM    9  O5  UNL     1     -13.261   3.678   8.533  1.00  0.00    -0.233 OA
HETATM   10  O6  UNL     1     -12.821   2.468   8.417  1.00  0.00    -0.229 OA
HETATM   11  C15 UNL     1     -13.933   1.704   7.987  1.00  0.00     0.099 C 
HETATM   12  C16 UNL     1     -13.516   0.349   7.521  1.00  0.00     0.050 C 
HETATM   13  C17 UNL     1     -14.862   1.641   9.147  1.00  0.00     0.050 C 
HETATM   14  C18 UNL     1     -14.385   2.606   6.859  1.00  0.00     0.024 C 
HETATM   15  C19 UNL     1     -13.324   2.463   5.758  1.00  0.00     0.022 C 
HETATM   16  C20 UNL     1     -17.654   3.119   5.415  1.00  0.00     0.149 C 
HETATM   17  O7  UNL     1     -18.783   3.472   5.625  1.00  0.00    -0.296 OA
ENDROOT
BRANCH   1  18
HETATM   18  C7  UNL     1     -17.270   2.576   3.113  1.00  0.00     0.147 C 
HETATM   19  O3  UNL     1     -16.620   2.058   2.222  1.00  0.00    -0.297 OA
BRANCH  18  20
HETATM   20  C6  UNL     1     -18.131   3.738   2.786  1.00  0.00     0.190 C 
BRANCH  20  21
HETATM   21  C5  UNL     1     -19.442   3.381   2.260  1.00  0.00     0.266 C 
HETATM   22  O2  UNL     1     -20.450   4.049   2.571  1.00  0.00    -0.265 OA
BRANCH  21  23
HETATM   23  O1  UNL     1     -19.586   2.305   1.415  1.00  0.00    -0.311 OA
BRANCH  23  24
HETATM   24  C2  UNL     1     -19.485   2.339   0.011  1.00  0.00     0.060 C 
HETATM   25  C1  UNL     1     -19.045   3.693  -0.508  1.00  0.00     0.045 C 
HETATM   26  C3  UNL     1     -20.928   2.169  -0.495  1.00  0.00     0.045 C 
HETATM   27  C4  UNL     1     -18.685   1.220  -0.575  1.00  0.00     0.045 C 
ENDBRANCH  23  24
ENDBRANCH  21  23
ENDBRANCH  20  21
ENDBRANCH  18  20
ENDBRANCH   1  18
TORSDOF 5
ENDMDL
MODEL 3
REMARK VINA RESULT: -6.912381400      1.738      3.165
REMARK  5 active torsions:
REMARK  status: ('A' for Active; 'I' for Inactive)
REMARK    1  A    between atoms: C2_2  and  O1_5 
REMARK    2  A    between atoms: O1_5  and  C5_6 
REMARK    3  A    between atoms: C5_6  and  C6_8 
REMARK    4  A    between atoms: C6_8  and  C7_9 
REMARK    5  A    between atoms: C7_9  and  C8_11 
ROOT
HETATM    1  C8  UNL     1     -16.722   1.790   5.475  1.00  0.00     0.126 C 
HETATM    2  C9  UNL     1     -15.274   1.335   5.228  1.00  0.00     0.026 C 
HETATM    3  C10 UNL     1     -14.566   1.953   6.440  1.00  0.00     0.019 C 
HETATM    4  C11 UNL     1     -15.211   3.347   6.370  1.00  0.00     0.131 C 
HETATM    5  C12 UNL     1     -14.738   4.023   7.596  1.00  0.00     0.141 C 
HETATM    6  O4  UNL     1     -15.420   4.388   8.511  1.00  0.00    -0.297 OA
HETATM    7  C13 UNL     1     -13.250   4.250   7.645  1.00  0.00     0.115 C 
HETATM    8  C14 UNL     1     -12.499   3.395   6.695  1.00  0.00     0.178 C 
HETATM    9  O5  UNL     1     -11.286   3.047   7.292  1.00  0.00    -0.233 OA
HETATM   10  O6  UNL     1     -11.064   1.787   7.112  1.00  0.00    -0.229 OA
HETATM   11  C15 UNL     1     -12.323   1.157   7.266  1.00  0.00     0.099 C 
HETATM   12  C16 UNL     1     -12.288  -0.258   6.794  1.00  0.00     0.050 C 
HETATM   13  C17 UNL     1     -12.662   1.263   8.711  1.00  0.00     0.050 C 
HETATM   14  C18 UNL     1     -13.124   2.065   6.357  1.00  0.00     0.024 C 
HETATM   15  C19 UNL     1     -12.663   1.741   4.929  1.00  0.00     0.022 C 
HETATM   16  C20 UNL     1     -16.625   2.943   6.393  1.00  0.00     0.149 C 
HETATM   17  O7  UNL     1     -17.512   3.449   7.028  1.00  0.00    -0.296 OA
ENDROOT
BRANCH   1  18
HETATM   18  C7  UNL     1     -17.330   2.263   4.206  1.00  0.00     0.147 C 
HETATM   19  O3  UNL     1     -16.627   2.595   3.268  1.00  0.00    -0.297 OA
BRANCH  18  20
HETATM   20  C6  UNL     1     -18.803   2.339   4.056  1.00  0.00     0.190 C 
BRANCH  20  21
HETATM   21  C5  UNL     1     -19.253   3.292   3.050  1.00  0.00     0.266 C 
HETATM   22  O2  UNL     1     -19.068   4.516   3.213  1.00  0.00    -0.265 OA
BRANCH  21  23
HETATM   23  O1  UNL     1     -19.888   2.857   1.910  1.00  0.00    -0.311 OA
BRANCH  23  24
HETATM   24  C2  UNL     1     -19.282   2.653   0.655  1.00  0.00     0.060 C 
HETATM   25  C1  UNL     1     -18.714   3.929   0.068  1.00  0.00     0.045 C 
HETATM   26  C3  UNL     1     -20.437   2.263  -0.284  1.00  0.00     0.045 C 
HETATM   27  C4  UNL     1     -18.298   1.527   0.624  1.00  0.00     0.045 C 
ENDBRANCH  23  24
ENDBRANCH  21  23
ENDBRANCH  20  21
ENDBRANCH  18  20
ENDBRANCH   1  18
TORSDOF 5
ENDMDL
MODEL 4
REMARK VINA RESULT: -6.890873350      1.162      1.605
REMARK  5 active torsions:
REMARK  status: ('A' for Active; 'I' for Inactive)
REMARK    1  A    between atoms: C2_2  and  O1_5 
REMARK    2  A    between atoms: O1_5  and  C5_6 
REMARK    3  A    between atoms: C5_6  and  C6_8 
REMARK    4  A    between atoms: C6_8  and  C7_9 
REMARK    5  A    between atoms: C7_9  and  C8_11 
ROOT
HETATM    1  C8  UNL     1     -16.819   3.263   5.407  1.00  0.00     0.126 C 
HETATM    2  C9  UNL     1     -17.059   4.188   6.610  1.00  0.00     0.026 C 
HETATM    3  C10 UNL     1     -15.844   3.851   7.483  1.00  0.00     0.019 C 
HETATM    4  C11 UNL     1     -15.916   2.319   7.356  1.00  0.00     0.131 C 
HETATM    5  C12 UNL     1     -14.688   1.846   8.027  1.00  0.00     0.141 C 
HETATM    6  O4  UNL     1     -13.777   1.267   7.509  1.00  0.00    -0.297 OA
HETATM    7  C13 UNL     1     -14.632   2.144   9.502  1.00  0.00     0.115 C 
HETATM    8  C14 UNL     1     -15.579   3.207   9.918  1.00  0.00     0.178 C 
HETATM    9  O5  UNL     1     -14.976   3.949  10.935  1.00  0.00    -0.233 OA
HETATM   10  O6  UNL     1     -15.155   5.210  10.711  1.00  0.00    -0.229 OA
HETATM   11  C15 UNL     1     -15.007   5.368   9.311  1.00  0.00     0.099 C 
HETATM   12  C16 UNL     1     -15.480   6.709   8.860  1.00  0.00     0.050 C 
HETATM   13  C17 UNL     1     -13.564   5.150   9.023  1.00  0.00     0.050 C 
HETATM   14  C18 UNL     1     -15.919   4.241   8.876  1.00  0.00     0.024 C 
HETATM   15  C19 UNL     1     -17.346   4.706   9.204  1.00  0.00     0.022 C 
HETATM   16  C20 UNL     1     -15.900   2.212   5.889  1.00  0.00     0.149 C 
HETATM   17  O7  UNL     1     -15.270   1.432   5.228  1.00  0.00    -0.296 OA
ENDROOT
BRANCH   1  18
HETATM   18  C7  UNL     1     -18.091   2.612   5.004  1.00  0.00     0.147 C 
HETATM   19  O3  UNL     1     -18.121   1.425   4.734  1.00  0.00    -0.297 OA
BRANCH  18  20
HETATM   20  C6  UNL     1     -19.348   3.394   4.924  1.00  0.00     0.190 C 
BRANCH  20  21
HETATM   21  C5  UNL     1     -19.737   3.764   3.570  1.00  0.00     0.266 C 
HETATM   22  O2  UNL     1     -20.226   4.889   3.338  1.00  0.00    -0.265 OA
BRANCH  21  23
HETATM   23  O1  UNL     1     -19.571   2.879   2.529  1.00  0.00    -0.311 OA
BRANCH  23  24
HETATM   24  C2  UNL     1     -18.692   3.043   1.440  1.00  0.00     0.060 C 
HETATM   25  C1  UNL     1     -19.391   3.563   0.201  1.00  0.00     0.045 C 
HETATM   26  C3  UNL     1     -18.245   1.616   1.075  1.00  0.00     0.045 C 
HETATM   27  C4  UNL     1     -17.454   3.817   1.761  1.00  0.00     0.045 C 
ENDBRANCH  23  24
ENDBRANCH  21  23
ENDBRANCH  20  21
ENDBRANCH  18  20
ENDBRANCH   1  18
TORSDOF 5
ENDMDL
MODEL 5
REMARK VINA RESULT: -6.704080952      5.682      8.520
REMARK  5 active torsions:
REMARK  status: ('A' for Active; 'I' for Inactive)
REMARK    1  A    between atoms: C2_2  and  O1_5 
REMARK    2  A    between atoms: O1_5  and  C5_6 
REMARK    3  A    between atoms: C5_6  and  C6_8 
REMARK    4  A    between atoms: C6_8  and  C7_9 
REMARK    5  A    between atoms: C7_9  and  C8_11 
ROOT
HETATM    1  C8  UNL     1     -13.816  -2.161   3.651  1.00  0.00     0.126 C 
HETATM    2  C9  UNL     1     -12.849  -2.884   4.602  1.00  0.00     0.026 C 
HETATM    3  C10 UNL     1     -13.502  -4.269   4.683  1.00  0.00     0.019 C 
HETATM    4  C11 UNL     1     -14.954  -3.803   4.883  1.00  0.00     0.131 C 
HETATM    5  C12 UNL     1     -15.744  -5.050   4.817  1.00  0.00     0.141 C 
HETATM    6  O4  UNL     1     -16.558  -5.329   3.984  1.00  0.00    -0.297 OA
HETATM    7  C13 UNL     1     -15.457  -6.026   5.928  1.00  0.00     0.115 C 
HETATM    8  C14 UNL     1     -14.169  -5.766   6.615  1.00  0.00     0.178 C 
HETATM    9  O5  UNL     1     -13.613  -6.995   6.972  1.00  0.00    -0.233 OA
HETATM   10  O6  UNL     1     -12.355  -7.000   6.675  1.00  0.00    -0.229 OA
HETATM   11  C15 UNL     1     -12.259  -6.327   5.432  1.00  0.00     0.099 C 
HETATM   12  C16 UNL     1     -10.843  -5.989   5.103  1.00  0.00     0.050 C 
HETATM   13  C17 UNL     1     -12.872  -7.234   4.425  1.00  0.00     0.050 C 
HETATM   14  C18 UNL     1     -13.092  -5.114   5.786  1.00  0.00     0.024 C 
HETATM   15  C19 UNL     1     -12.245  -4.298   6.773  1.00  0.00     0.022 C 
HETATM   16  C20 UNL     1     -15.076  -2.930   3.705  1.00  0.00     0.149 C 
HETATM   17  O7  UNL     1     -16.007  -2.862   2.949  1.00  0.00    -0.296 OA
ENDROOT
BRANCH   1  18
HETATM   18  C7  UNL     1     -14.092  -0.791   4.152  1.00  0.00     0.147 C 
HETATM   19  O3  UNL     1     -14.932  -0.092   3.613  1.00  0.00    -0.297 OA
BRANCH  18  20
HETATM   20  C6  UNL     1     -13.353  -0.249   5.317  1.00  0.00     0.190 C 
BRANCH  20  21
HETATM   21  C5  UNL     1     -13.236   1.203   5.328  1.00  0.00     0.266 C 
HETATM   22  O2  UNL     1     -12.209   1.757   4.884  1.00  0.00    -0.265 OA
BRANCH  21  23
HETATM   23  O1  UNL     1     -14.255   1.983   5.826  1.00  0.00    -0.311 OA
BRANCH  23  24
HETATM   24  C2  UNL     1     -14.530   2.207   7.189  1.00  0.00     0.060 C 
HETATM   25  C1  UNL     1     -15.937   1.796   7.574  1.00  0.00     0.045 C 
HETATM   26  C3  UNL     1     -14.505   3.737   7.352  1.00  0.00     0.045 C 
HETATM   27  C4  UNL     1     -13.502   1.653   8.123  1.00  0.00     0.045 C 
ENDBRANCH  23  24
ENDBRANCH  21  23
ENDBRANCH  20  21
ENDBRANCH  18  20
ENDBRANCH   1  18
TORSDOF 5
ENDMDL
