MODEL 1
REMARK VINA RESULT: -5.497890624      0.000      0.000
REMARK  7 active torsions:
REMARK  status: ('A' for Active; 'I' for Inactive)
REMARK    1  A    between atoms: O1_2  and  C2_3 
REMARK       I    between atoms: C2_3  and  N1_5 
REMARK    2  A    between atoms: N1_5  and  C3_6 
REMARK    3  A    between atoms: N1_5  and  C13_21 
REMARK    4  A    between atoms: C3_6  and  S2_8 
REMARK    5  A    between atoms: S2_8  and  C4_9 
REMARK    6  A    between atoms: C10_16  and  O3_17 
REMARK    7  A    between atoms: O3_17  and  C11_18 
ROOT
HETATM    1  C4  UNL     1     -13.245  -2.163   5.080  1.00  0.00     0.118 C 
HETATM    2  C5  UNL     1     -11.817  -2.304   4.648  1.00  0.00     0.007 C 
HETATM    3  C6  UNL     1     -11.082  -3.084   5.710  1.00  0.00     0.036 C 
HETATM    4  C7  UNL     1     -12.005  -4.180   6.199  1.00  0.00     0.276 C 
HETATM    5  N2  UNL     1     -12.857  -4.567   5.069  1.00  0.00     0.118 N 
HETATM    6  C8  UNL     1     -12.066  -4.581   3.830  1.00  0.00     0.276 C 
HETATM    7  C9  UNL     1     -11.784  -3.162   3.386  1.00  0.00     0.036 C 
HETATM    8  C10 UNL     1     -13.887  -3.516   4.982  1.00  0.00     0.381 C 
ENDROOT
BRANCH   1   9
HETATM    9  S2  UNL     1     -14.168  -0.891   4.227  1.00  0.00    -0.090 SA
BRANCH   9  10
HETATM   10  C3  UNL     1     -13.885   0.748   4.964  1.00  0.00     0.146 C 
HETATM   11  S1  UNL     1     -12.323   1.204   4.993  1.00  0.00    -0.052 SA
BRANCH  10  12
HETATM   12  N1  UNL     1     -14.938   1.511   5.452  1.00  0.00    -0.270 N 
HETATM   13  C2  UNL     1     -15.971   1.863   4.467  1.00  0.00     0.368 C 
HETATM   14  O2  UNL     1     -15.928   1.521   3.280  1.00  0.00    -0.238 OA
BRANCH  13  15
HETATM   15  O1  UNL     1     -17.038   2.608   4.881  1.00  0.00    -0.309 OA
HETATM   16  C1  UNL     1     -18.192   2.829   4.103  1.00  0.00     0.215 C 
ENDBRANCH  13  15
BRANCH  12  17
HETATM   17  C13 UNL     1     -15.118   1.988   6.789  1.00  0.00     0.033 C 
HETATM   18  C14 UNL     1     -14.119   1.280   7.736  1.00  0.00     0.038 C 
HETATM   19  C15 UNL     1     -14.702   3.469   6.885  1.00  0.00     0.038 C 
HETATM   20  C16 UNL     1     -16.450   1.766   7.371  1.00  0.00     0.038 C 
ENDBRANCH  12  17
ENDBRANCH  10  12
ENDBRANCH   9  10
ENDBRANCH   1   9
BRANCH   8  21
HETATM   21  O3  UNL     1     -14.570  -3.724   3.767  1.00  0.00    -0.284 OA
BRANCH  21  22
HETATM   22  C11 UNL     1     -15.832  -4.319   3.806  1.00  0.00     0.256 C 
HETATM   23  C12 UNL     1     -16.017  -5.786   3.935  1.00  0.00     0.126 C 
HETATM   24  O4  UNL     1     -16.844  -3.583   3.728  1.00  0.00    -0.266 OA
ENDBRANCH  21  22
ENDBRANCH   8  21
TORSDOF 7
ENDMDL
MODEL 2
REMARK VINA RESULT: -5.375566425      5.775      7.915
REMARK  7 active torsions:
REMARK  status: ('A' for Active; 'I' for Inactive)
REMARK    1  A    between atoms: O1_2  and  C2_3 
REMARK       I    between atoms: C2_3  and  N1_5 
REMARK    2  A    between atoms: N1_5  and  C3_6 
REMARK    3  A    between atoms: N1_5  and  C13_21 
REMARK    4  A    between atoms: C3_6  and  S2_8 
REMARK    5  A    between atoms: S2_8  and  C4_9 
REMARK    6  A    between atoms: C10_16  and  O3_17 
REMARK    7  A    between atoms: O3_17  and  C11_18 
ROOT
HETATM    1  C4  UNL     1     -15.630   4.095   8.842  1.00  0.00     0.118 C 
HETATM    2  C5  UNL     1     -14.183   3.718   8.727  1.00  0.00     0.007 C 
HETATM    3  C6  UNL     1     -14.035   2.288   9.187  1.00  0.00     0.036 C 
HETATM    4  C7  UNL     1     -15.228   1.512   8.673  1.00  0.00     0.276 C 
HETATM    5  N2  UNL     1     -15.635   2.129   7.405  1.00  0.00     0.118 N 
HETATM    6  C8  UNL     1     -14.444   2.510   6.632  1.00  0.00     0.276 C 
HETATM    7  C9  UNL     1     -13.803   3.735   7.249  1.00  0.00     0.036 C 
HETATM    8  C10 UNL     1     -16.383   3.340   7.785  1.00  0.00     0.381 C 
ENDROOT
BRANCH   1   9
HETATM    9  S2  UNL     1     -15.955   5.853   8.808  1.00  0.00    -0.090 SA
BRANCH   9  10
HETATM   10  C3  UNL     1     -16.511   6.460  10.430  1.00  0.00     0.146 C 
HETATM   11  S1  UNL     1     -16.094   8.002  10.743  1.00  0.00    -0.052 SA
BRANCH  10  12
HETATM   12  N1  UNL     1     -17.225   5.646  11.300  1.00  0.00    -0.270 N 
HETATM   13  C2  UNL     1     -18.682   5.645  11.109  1.00  0.00     0.368 C 
HETATM   14  O2  UNL     1     -19.259   6.316  10.246  1.00  0.00    -0.238 OA
BRANCH  13  15
HETATM   15  O1  UNL     1     -19.445   4.861  11.926  1.00  0.00    -0.309 OA
HETATM   16  C1  UNL     1     -20.710   5.237  12.421  1.00  0.00     0.215 C 
ENDBRANCH  13  15
BRANCH  12  17
HETATM   17  C13 UNL     1     -16.701   4.826  12.348  1.00  0.00     0.033 C 
HETATM   18  C14 UNL     1     -15.157   4.934  12.375  1.00  0.00     0.038 C 
HETATM   19  C15 UNL     1     -17.116   5.389  13.721  1.00  0.00     0.038 C 
HETATM   20  C16 UNL     1     -17.001   3.390  12.244  1.00  0.00     0.038 C 
ENDBRANCH  12  17
ENDBRANCH  10  12
ENDBRANCH   9  10
ENDBRANCH   1   9
BRANCH   8  21
HETATM   21  O3  UNL     1     -16.575   4.080   6.601  1.00  0.00    -0.284 OA
BRANCH  21  22
HETATM   22  C11 UNL     1     -17.696   3.803   5.817  1.00  0.00     0.256 C 
HETATM   23  C12 UNL     1     -17.604   3.092   4.518  1.00  0.00     0.126 C 
HETATM   24  O4  UNL     1     -18.821   4.171   6.230  1.00  0.00    -0.266 OA
ENDBRANCH  21  22
ENDBRANCH   8  21
TORSDOF 7
ENDMDL
MODEL 3
REMARK VINA RESULT: -5.308256800      3.965      8.049
REMARK  7 active torsions:
REMARK  status: ('A' for Active; 'I' for Inactive)
REMARK    1  A    between atoms: O1_2  and  C2_3 
REMARK       I    between atoms: C2_3  and  N1_5 
REMARK    2  A    between atoms: N1_5  and  C3_6 
REMARK    3  A    between atoms: N1_5  and  C13_21 
REMARK    4  A    between atoms: C3_6  and  S2_8 
REMARK    5  A    between atoms: S2_8  and  C4_9 
REMARK    6  A    between atoms: C10_16  and  O3_17 
REMARK    7  A    between atoms: O3_17  and  C11_18 
ROOT
HETATM    1  C4  UNL     1     -12.647   4.463   7.958  1.00  0.00     0.118 C 
HETATM    2  C5  UNL     1     -11.908   3.522   8.863  1.00  0.00     0.007 C 
HETATM    3  C6  UNL     1     -10.429   3.713   8.628  1.00  0.00     0.036 C 
HETATM    4  C7  UNL     1     -10.180   5.195   8.444  1.00  0.00     0.276 C 
HETATM    5  N2  UNL     1     -11.175   5.908   9.253  1.00  0.00     0.118 N 
HETATM    6  C8  UNL     1     -11.372   5.209  10.531  1.00  0.00     0.276 C 
HETATM    7  C9  UNL     1     -12.172   3.944  10.306  1.00  0.00     0.036 C 
HETATM    8  C10 UNL     1     -12.421   5.857   8.468  1.00  0.00     0.381 C 
ENDROOT
BRANCH   1   9
HETATM    9  S2  UNL     1     -14.378   4.078   7.724  1.00  0.00    -0.090 SA
BRANCH   9  10
HETATM   10  C3  UNL     1     -14.635   2.299   7.447  1.00  0.00     0.146 C 
HETATM   11  S1  UNL     1     -15.206   1.498   8.744  1.00  0.00    -0.052 SA
BRANCH  10  12
HETATM   12  N1  UNL     1     -14.352   1.711   6.220  1.00  0.00    -0.270 N 
HETATM   13  C2  UNL     1     -15.435   1.773   5.228  1.00  0.00     0.368 C 
HETATM   14  O2  UNL     1     -16.532   2.300   5.445  1.00  0.00    -0.238 OA
BRANCH  13  15
HETATM   15  O1  UNL     1     -15.223   1.220   3.998  1.00  0.00    -0.309 OA
HETATM   16  C1  UNL     1     -16.030   1.473   2.871  1.00  0.00     0.215 C 
ENDBRANCH  13  15
BRANCH  12  17
HETATM   17  C13 UNL     1     -13.141   1.058   5.829  1.00  0.00     0.033 C 
HETATM   18  C14 UNL     1     -12.397   0.539   7.083  1.00  0.00     0.038 C 
HETATM   19  C15 UNL     1     -13.461  -0.234   5.052  1.00  0.00     0.038 C 
HETATM   20  C16 UNL     1     -12.172   1.893   5.105  1.00  0.00     0.038 C 
ENDBRANCH  12  17
ENDBRANCH  10  12
ENDBRANCH   9  10
ENDBRANCH   1   9
BRANCH   8  21
HETATM   21  O3  UNL     1     -13.449   6.313   9.318  1.00  0.00    -0.284 OA
BRANCH  21  22
HETATM   22  C11 UNL     1     -14.156   7.460   8.951  1.00  0.00     0.256 C 
HETATM   23  C12 UNL     1     -15.529   7.739   9.440  1.00  0.00     0.126 C 
HETATM   24  O4  UNL     1     -13.606   8.282   8.180  1.00  0.00    -0.266 OA
ENDBRANCH  21  22
ENDBRANCH   8  21
TORSDOF 7
ENDMDL
MODEL 4
REMARK VINA RESULT: -5.199929870      5.826      8.152
REMARK  7 active torsions:
REMARK  status: ('A' for Active; 'I' for Inactive)
REMARK    1  A    between atoms: O1_2  and  C2_3 
REMARK       I    between atoms: C2_3  and  N1_5 
REMARK    2  A    between atoms: N1_5  and  C3_6 
REMARK    3  A    between atoms: N1_5  and  C13_21 
REMARK    4  A    between atoms: C3_6  and  S2_8 
REMARK    5  A    between atoms: S2_8  and  C4_9 
REMARK    6  A    between atoms: C10_16  and  O3_17 
REMARK    7  A    between atoms: O3_17  and  C11_18 
ROOT
HETATM    1  C4  UNL     1     -15.848   3.955   8.968  1.00  0.00     0.118 C 
HETATM    2  C5  UNL     1     -14.354   3.832   8.981  1.00  0.00     0.007 C 
HETATM    3  C6  UNL     1     -14.005   2.408   9.337  1.00  0.00     0.036 C 
HETATM    4  C7  UNL     1     -14.994   1.501   8.636  1.00  0.00     0.276 C 
HETATM    5  N2  UNL     1     -15.380   2.164   7.385  1.00  0.00     0.118 N 
HETATM    6  C8  UNL     1     -14.206   2.808   6.779  1.00  0.00     0.276 C 
HETATM    7  C9  UNL     1     -13.846   4.055   7.559  1.00  0.00     0.036 C 
HETATM    8  C10 UNL     1     -16.358   3.194   7.778  1.00  0.00     0.381 C 
ENDROOT
BRANCH   1   9
HETATM    9  S2  UNL     1     -16.467   5.631   9.040  1.00  0.00    -0.090 SA
BRANCH   9  10
HETATM   10  C3  UNL     1     -16.754   6.163  10.756  1.00  0.00     0.146 C 
HETATM   11  S1  UNL     1     -15.405   6.602  11.552  1.00  0.00    -0.052 SA
BRANCH  10  12
HETATM   12  N1  UNL     1     -18.031   6.175  11.303  1.00  0.00    -0.270 N 
HETATM   13  C2  UNL     1     -18.851   7.346  10.962  1.00  0.00     0.368 C 
HETATM   14  O2  UNL     1     -18.456   8.272  10.244  1.00  0.00    -0.238 OA
BRANCH  13  15
HETATM   15  O1  UNL     1     -20.120   7.421  11.461  1.00  0.00    -0.309 OA
HETATM   16  C1  UNL     1     -21.202   8.009  10.777  1.00  0.00     0.215 C 
ENDBRANCH  13  15
BRANCH  12  17
HETATM   17  C13 UNL     1     -18.620   5.189  12.155  1.00  0.00     0.033 C 
HETATM   18  C14 UNL     1     -17.709   3.939  12.217  1.00  0.00     0.038 C 
HETATM   19  C15 UNL     1     -18.634   5.685  13.614  1.00  0.00     0.038 C 
HETATM   20  C16 UNL     1     -19.944   4.699  11.742  1.00  0.00     0.038 C 
ENDBRANCH  12  17
ENDBRANCH  10  12
ENDBRANCH   9  10
ENDBRANCH   1   9
BRANCH   8  21
HETATM   21  O3  UNL     1     -16.563   4.005   6.643  1.00  0.00    -0.284 OA
BRANCH  21  22
HETATM   22  C11 UNL     1     -17.653   3.730   5.817  1.00  0.00     0.256 C 
HETATM   23  C12 UNL     1     -17.530   2.924   4.577  1.00  0.00     0.126 C 
HETATM   24  O4  UNL     1     -18.778   4.183   6.138  1.00  0.00    -0.266 OA
ENDBRANCH  21  22
ENDBRANCH   8  21
TORSDOF 7
ENDMDL
MODEL 5
REMARK VINA RESULT: -5.198329675      5.418      7.355
REMARK  7 active torsions:
REMARK  status: ('A' for Active; 'I' for Inactive)
REMARK    1  A    between atoms: O1_2  and  C2_3 
REMARK       I    between atoms: C2_3  and  N1_5 
REMARK    2  A    between atoms: N1_5  and  C3_6 
REMARK    3  A    between atoms: N1_5  and  C13_21 
REMARK    4  A    between atoms: C3_6  and  S2_8 
REMARK    5  A    between atoms: S2_8  and  C4_9 
REMARK    6  A    between atoms: C10_16  and  O3_17 
REMARK    7  A    between atoms: O3_17  and  C11_18 
ROOT
HETATM    1  C4  UNL     1     -13.715  -6.047   4.444  1.00  0.00     0.118 C 
HETATM    2  C5  UNL     1     -13.804  -4.927   5.437  1.00  0.00     0.007 C 
HETATM    3  C6  UNL     1     -14.391  -3.727   4.736  1.00  0.00     0.036 C 
HETATM    4  C7  UNL     1     -15.482  -4.221   3.811  1.00  0.00     0.276 C 
HETATM    5  N2  UNL     1     -16.067  -5.417   4.429  1.00  0.00     0.118 N 
HETATM    6  C8  UNL     1     -16.176  -5.225   5.882  1.00  0.00     0.276 C 
HETATM    7  C9  UNL     1     -14.806  -5.327   6.517  1.00  0.00     0.036 C 
HETATM    8  C10 UNL     1     -15.114  -6.505   4.147  1.00  0.00     0.381 C 
ENDROOT
BRANCH   1   9
HETATM    9  S2  UNL     1     -12.629  -7.388   4.916  1.00  0.00    -0.090 SA
BRANCH   9  10
HETATM   10  C3  UNL     1     -10.905  -7.045   4.451  1.00  0.00     0.146 C 
HETATM   11  S1  UNL     1      -9.818  -8.044   5.137  1.00  0.00    -0.052 SA
BRANCH  10  12
HETATM   12  N1  UNL     1     -10.583  -6.008   3.584  1.00  0.00    -0.270 N 
HETATM   13  C2  UNL     1     -10.661  -6.336   2.153  1.00  0.00     0.368 C 
HETATM   14  O2  UNL     1     -10.982  -7.450   1.724  1.00  0.00    -0.238 OA
BRANCH  13  15
HETATM   15  O1  UNL     1     -10.364  -5.362   1.245  1.00  0.00    -0.309 OA
HETATM   16  C1  UNL     1      -9.436  -5.519   0.195  1.00  0.00     0.215 C 
ENDBRANCH  13  15
BRANCH  12  17
HETATM   17  C13 UNL     1     -10.186  -4.679   3.930  1.00  0.00     0.033 C 
HETATM   18  C14 UNL     1     -10.264  -4.492   5.465  1.00  0.00     0.038 C 
HETATM   19  C15 UNL     1      -8.688  -4.476   3.629  1.00  0.00     0.038 C 
HETATM   20  C16 UNL     1     -11.000  -3.599   3.353  1.00  0.00     0.038 C 
ENDBRANCH  12  17
ENDBRANCH  10  12
ENDBRANCH   9  10
ENDBRANCH   1   9
BRANCH   8  21
HETATM   21  O3  UNL     1     -15.519  -7.605   4.928  1.00  0.00    -0.284 OA
BRANCH  21  22
HETATM   22  C11 UNL     1     -16.298  -8.596   4.329  1.00  0.00     0.256 C 
HETATM   23  C12 UNL     1     -16.410  -8.739   2.856  1.00  0.00     0.126 C 
HETATM   24  O4  UNL     1     -16.924  -9.394   5.066  1.00  0.00    -0.266 OA
ENDBRANCH  21  22
ENDBRANCH   8  21
TORSDOF 7
ENDMDL
