MODEL 1
REMARK VINA RESULT: -7.598362369      0.000      0.000
REMARK  5 active torsions:
REMARK  status: ('A' for Active; 'I' for Inactive)
REMARK    1  A    between atoms: C7_7  and  N1_8 
REMARK    2  A    between atoms: N1_8  and  C8_10 
REMARK    3  A    between atoms: C10_12  and  C11_13 
REMARK    4  A    between atoms: C11_13  and  O1_14 
REMARK    5  A    between atoms: N2_16  and  O2_18 
ROOT
HETATM    1  C8  UNL     1      43.804  73.580  43.078  1.00  0.00     0.102 A 
HETATM    2  C9  UNL     1      43.704  73.129  41.781  1.00  0.00     0.064 A 
HETATM    3  C10 UNL     1      43.902  71.793  41.401  1.00  0.00     0.021 A 
HETATM    4  C12 UNL     1      44.206  70.909  42.380  1.00  0.00     0.033 A 
HETATM    5  C13 UNL     1      44.308  71.363  43.692  1.00  0.00     0.090 A 
HETATM    6  N3  UNL     1      44.110  72.633  43.985  1.00  0.00    -0.353 N 
ATOM      7  H3  UNL     1      44.195  72.917  44.962  1.00  0.00     0.166 HD
ENDROOT
BRANCH   1   8
HETATM    8  N1  UNL     1      43.608  74.944  43.419  1.00  0.00    -0.371 N 
ATOM      9  H1  UNL     1      43.287  75.158  44.363  1.00  0.00     0.161 HD
BRANCH   8  10
HETATM   10  C7  UNL     1      43.829  76.030  42.530  1.00  0.00     0.086 C 
HETATM   11  C2  UNL     1      43.406  77.339  43.181  1.00  0.00     0.004 C 
HETATM   12  C1  UNL     1      44.415  77.871  44.145  1.00  0.00     0.012 C 
HETATM   13  C3  UNL     1      43.250  78.348  42.063  1.00  0.00     0.006 C 
HETATM   14  C4  UNL     1      44.625  78.570  41.480  1.00  0.00     0.001 C 
HETATM   15  C5  UNL     1      45.298  77.314  41.060  1.00  0.00     0.002 C 
HETATM   16  C6  UNL     1      45.247  76.182  42.037  1.00  0.00     0.025 C 
ENDBRANCH   8  10
ENDBRANCH   1   8
BRANCH   3  17
HETATM   17  C11 UNL     1      43.771  71.429  39.999  1.00  0.00     0.170 C 
HETATM   18  N2  UNL     1      44.360  71.980  39.065  1.00  0.00    -0.247 N 
ATOM     19  H2  UNL     1      44.122  71.566  38.163  1.00  0.00     0.196 HD
BRANCH  17  20
HETATM   20  O1  UNL     1      42.904  70.359  39.642  1.00  0.00    -0.344 OA
ATOM     21  H1  UNL     1      43.232  69.669  39.077  1.00  0.00     0.219 HD
ENDBRANCH  17  20
BRANCH  18  22
HETATM   22  O2  UNL     1      45.225  72.978  38.941  1.00  0.00    -0.288 OA
ATOM     23  H2  UNL     1      45.857  73.256  38.289  1.00  0.00     0.244 HD
ENDBRANCH  18  22
ENDBRANCH   3  17
TORSDOF 5
ENDMDL
MODEL 2
REMARK VINA RESULT: -7.522064227      1.986      2.927
REMARK  5 active torsions:
REMARK  status: ('A' for Active; 'I' for Inactive)
REMARK    1  A    between atoms: C7_7  and  N1_8 
REMARK    2  A    between atoms: N1_8  and  C8_10 
REMARK    3  A    between atoms: C10_12  and  C11_13 
REMARK    4  A    between atoms: C11_13  and  O1_14 
REMARK    5  A    between atoms: N2_16  and  O2_18 
ROOT
HETATM    1  C8  UNL     1      45.263  73.903  41.212  1.00  0.00     0.102 A 
HETATM    2  C9  UNL     1      45.119  72.856  42.096  1.00  0.00     0.064 A 
HETATM    3  C10 UNL     1      44.735  71.561  41.716  1.00  0.00     0.021 A 
HETATM    4  C12 UNL     1      44.497  71.345  40.401  1.00  0.00     0.033 A 
HETATM    5  C13 UNL     1      44.641  72.402  39.507  1.00  0.00     0.090 A 
HETATM    6  N3  UNL     1      45.005  73.598  39.926  1.00  0.00    -0.353 N 
ATOM      7  H3  UNL     1      45.098  74.340  39.231  1.00  0.00     0.166 HD
ENDROOT
BRANCH   1   8
HETATM    8  N1  UNL     1      45.642  75.202  41.639  1.00  0.00    -0.371 N 
ATOM      9  H1  UNL     1      46.598  75.334  41.971  1.00  0.00     0.161 HD
BRANCH   8  10
HETATM   10  C7  UNL     1      44.778  76.329  41.634  1.00  0.00     0.086 C 
HETATM   11  C2  UNL     1      44.597  76.862  43.049  1.00  0.00     0.004 C 
HETATM   12  C1  UNL     1      45.746  77.694  43.516  1.00  0.00     0.012 C 
HETATM   13  C3  UNL     1      43.363  77.738  43.028  1.00  0.00     0.006 C 
HETATM   14  C4  UNL     1      43.683  78.923  42.148  1.00  0.00     0.001 C 
HETATM   15  C5  UNL     1      44.168  78.541  40.796  1.00  0.00     0.002 C 
HETATM   16  C6  UNL     1      45.212  77.472  40.750  1.00  0.00     0.025 C 
ENDBRANCH   8  10
ENDBRANCH   1   8
BRANCH   3  17
HETATM   17  C11 UNL     1      44.615  70.530  42.736  1.00  0.00     0.170 C 
HETATM   18  N2  UNL     1      44.302  70.730  43.913  1.00  0.00    -0.247 N 
ATOM     19  H2  UNL     1      44.278  69.867  44.456  1.00  0.00     0.196 HD
BRANCH  17  20
HETATM   20  O1  UNL     1      44.873  69.177  42.383  1.00  0.00    -0.344 OA
ATOM     21  H1  UNL     1      44.394  68.486  42.824  1.00  0.00     0.219 HD
ENDBRANCH  17  20
BRANCH  18  22
HETATM   22  O2  UNL     1      43.988  71.789  44.648  1.00  0.00    -0.288 OA
ATOM     23  H2  UNL     1      43.642  71.936  45.521  1.00  0.00     0.244 HD
ENDBRANCH  18  22
ENDBRANCH   3  17
TORSDOF 5
ENDMDL
MODEL 3
REMARK VINA RESULT: -7.521671046      1.295      2.000
REMARK  5 active torsions:
REMARK  status: ('A' for Active; 'I' for Inactive)
REMARK    1  A    between atoms: C7_7  and  N1_8 
REMARK    2  A    between atoms: N1_8  and  C8_10 
REMARK    3  A    between atoms: C10_12  and  C11_13 
REMARK    4  A    between atoms: C11_13  and  O1_14 
REMARK    5  A    between atoms: N2_16  and  O2_18 
ROOT
HETATM    1  C8  UNL     1      43.774  73.927  43.369  1.00  0.00     0.102 A 
HETATM    2  C9  UNL     1      43.918  72.876  42.490  1.00  0.00     0.064 A 
HETATM    3  C10 UNL     1      44.295  71.581  42.876  1.00  0.00     0.021 A 
HETATM    4  C12 UNL     1      44.527  71.369  44.192  1.00  0.00     0.033 A 
HETATM    5  C13 UNL     1      44.383  72.430  45.082  1.00  0.00     0.090 A 
HETATM    6  N3  UNL     1      44.025  73.625  44.657  1.00  0.00    -0.353 N 
ATOM      7  H3  UNL     1      43.931  74.370  45.349  1.00  0.00     0.166 HD
ENDROOT
BRANCH   1   8
HETATM    8  N1  UNL     1      43.401  75.225  42.936  1.00  0.00    -0.371 N 
ATOM      9  H1  UNL     1      42.450  75.358  42.588  1.00  0.00     0.161 HD
BRANCH   8  10
HETATM   10  C7  UNL     1      44.264  76.353  42.954  1.00  0.00     0.086 C 
HETATM   11  C2  UNL     1      44.436  76.909  41.548  1.00  0.00     0.004 C 
HETATM   12  C1  UNL     1      43.284  77.749  41.101  1.00  0.00     0.012 C 
HETATM   13  C3  UNL     1      45.670  77.786  41.575  1.00  0.00     0.006 C 
HETATM   14  C4  UNL     1      45.354  78.956  42.476  1.00  0.00     0.001 C 
HETATM   15  C5  UNL     1      44.878  78.552  43.825  1.00  0.00     0.002 C 
HETATM   16  C6  UNL     1      43.834  77.481  43.860  1.00  0.00     0.025 C 
ENDBRANCH   8  10
ENDBRANCH   1   8
BRANCH   3  17
HETATM   17  C11 UNL     1      44.416  70.547  41.860  1.00  0.00     0.170 C 
HETATM   18  N2  UNL     1      44.726  70.743  40.681  1.00  0.00    -0.247 N 
ATOM     19  H2  UNL     1      44.752  69.877  40.142  1.00  0.00     0.196 HD
BRANCH  17  20
HETATM   20  O1  UNL     1      44.164  69.194  42.219  1.00  0.00    -0.344 OA
ATOM     21  H1  UNL     1      44.275  68.929  43.124  1.00  0.00     0.219 HD
ENDBRANCH  17  20
BRANCH  18  22
HETATM   22  O2  UNL     1      45.035  71.799  39.941  1.00  0.00    -0.288 OA
ATOM     23  H2  UNL     1      45.670  71.995  39.262  1.00  0.00     0.244 HD
ENDBRANCH  18  22
ENDBRANCH   3  17
TORSDOF 5
ENDMDL
MODEL 4
REMARK VINA RESULT: -7.516738419      2.424      3.561
REMARK  5 active torsions:
REMARK  status: ('A' for Active; 'I' for Inactive)
REMARK    1  A    between atoms: C7_7  and  N1_8 
REMARK    2  A    between atoms: N1_8  and  C8_10 
REMARK    3  A    between atoms: C10_12  and  C11_13 
REMARK    4  A    between atoms: C11_13  and  O1_14 
REMARK    5  A    between atoms: N2_16  and  O2_18 
ROOT
HETATM    1  C8  UNL     1      45.198  73.674  41.344  1.00  0.00     0.102 A 
HETATM    2  C9  UNL     1      45.224  73.210  42.640  1.00  0.00     0.064 A 
HETATM    3  C10 UNL     1      45.025  71.866  42.993  1.00  0.00     0.021 A 
HETATM    4  C12 UNL     1      44.797  70.989  41.988  1.00  0.00     0.033 A 
HETATM    5  C13 UNL     1      44.770  71.457  40.677  1.00  0.00     0.090 A 
HETATM    6  N3  UNL     1      44.964  72.733  40.410  1.00  0.00    -0.353 N 
ATOM      7  H3  UNL     1      44.935  73.026  39.433  1.00  0.00     0.166 HD
ENDROOT
BRANCH   1   8
HETATM    8  N1  UNL     1      45.392  75.044  41.031  1.00  0.00    -0.371 N 
ATOM      9  H1  UNL     1      45.678  75.281  40.080  1.00  0.00     0.161 HD
BRANCH   8  10
HETATM   10  C7  UNL     1      45.213  76.109  41.954  1.00  0.00     0.086 C 
HETATM   11  C2  UNL     1      45.619  77.432  41.320  1.00  0.00     0.004 C 
HETATM   12  C1  UNL     1      44.577  77.994  40.410  1.00  0.00     0.012 C 
HETATM   13  C3  UNL     1      45.826  78.412  42.456  1.00  0.00     0.006 C 
HETATM   14  C4  UNL     1      44.476  78.627  43.097  1.00  0.00     0.001 C 
HETATM   15  C5  UNL     1      43.810  77.365  43.511  1.00  0.00     0.002 C 
HETATM   16  C6  UNL     1      43.816  76.258  42.506  1.00  0.00     0.025 C 
ENDBRANCH   8  10
ENDBRANCH   1   8
BRANCH   3  17
HETATM   17  C11 UNL     1      45.075  71.488  44.397  1.00  0.00     0.170 C 
HETATM   18  N2  UNL     1      44.452  72.046  45.304  1.00  0.00    -0.247 N 
ATOM     19  H2  UNL     1      44.633  71.619  46.213  1.00  0.00     0.196 HD
BRANCH  17  20
HETATM   20  O1  UNL     1      45.896  70.395  44.788  1.00  0.00    -0.344 OA
ATOM     21  H1  UNL     1      46.483  70.501  45.527  1.00  0.00     0.219 HD
ENDBRANCH  17  20
BRANCH  18  22
HETATM   22  O2  UNL     1      43.605  73.063  45.392  1.00  0.00    -0.288 OA
ATOM     23  H2  UNL     1      42.907  73.321  45.982  1.00  0.00     0.244 HD
ENDBRANCH  18  22
ENDBRANCH   3  17
TORSDOF 5
ENDMDL
MODEL 5
REMARK VINA RESULT: -7.417912479      2.001      3.234
REMARK  5 active torsions:
REMARK  status: ('A' for Active; 'I' for Inactive)
REMARK    1  A    between atoms: C7_7  and  N1_8 
REMARK    2  A    between atoms: N1_8  and  C8_10 
REMARK    3  A    between atoms: C10_12  and  C11_13 
REMARK    4  A    between atoms: C11_13  and  O1_14 
REMARK    5  A    between atoms: N2_16  and  O2_18 
ROOT
HETATM    1  C8  UNL     1      45.174  73.683  40.766  1.00  0.00     0.102 A 
HETATM    2  C9  UNL     1      45.142  72.716  41.747  1.00  0.00     0.064 A 
HETATM    3  C10 UNL     1      44.622  71.427  41.556  1.00  0.00     0.021 A 
HETATM    4  C12 UNL     1      44.126  71.133  40.331  1.00  0.00     0.033 A 
HETATM    5  C13 UNL     1      44.157  72.110  39.339  1.00  0.00     0.090 A 
HETATM    6  N3  UNL     1      44.660  73.304  39.581  1.00  0.00    -0.353 N 
ATOM      7  H3  UNL     1      44.660  73.985  38.820  1.00  0.00     0.166 HD
ENDROOT
BRANCH   1   8
HETATM    8  N1  UNL     1      45.699  74.979  41.004  1.00  0.00    -0.371 N 
ATOM      9  H1  UNL     1      46.437  75.316  40.384  1.00  0.00     0.161 HD
BRANCH   8  10
HETATM   10  C7  UNL     1      45.265  75.840  42.048  1.00  0.00     0.086 C 
HETATM   11  C2  UNL     1      45.605  77.286  41.716  1.00  0.00     0.004 C 
HETATM   12  C1  UNL     1      44.650  77.909  40.750  1.00  0.00     0.012 C 
HETATM   13  C3  UNL     1      45.527  78.059  43.015  1.00  0.00     0.006 C 
HETATM   14  C4  UNL     1      44.082  78.035  43.451  1.00  0.00     0.001 C 
HETATM   15  C5  UNL     1      43.513  76.665  43.537  1.00  0.00     0.002 C 
HETATM   16  C6  UNL     1      43.794  75.763  42.377  1.00  0.00     0.025 C 
ENDBRANCH   8  10
ENDBRANCH   1   8
BRANCH   3  17
HETATM   17  C11 UNL     1      44.640  70.485  42.665  1.00  0.00     0.170 C 
HETATM   18  N2  UNL     1      44.347  70.758  43.832  1.00  0.00    -0.247 N 
ATOM     19  H2  UNL     1      44.429  69.948  44.447  1.00  0.00     0.196 HD
BRANCH  17  20
HETATM   20  O1  UNL     1      45.022  69.137  42.418  1.00  0.00    -0.344 OA
ATOM     21  H1  UNL     1      45.743  68.765  42.912  1.00  0.00     0.219 HD
ENDBRANCH  17  20
BRANCH  18  22
HETATM   22  O2  UNL     1      43.952  71.842  44.486  1.00  0.00    -0.288 OA
ATOM     23  H2  UNL     1      43.881  72.769  44.290  1.00  0.00     0.244 HD
ENDBRANCH  18  22
ENDBRANCH   3  17
TORSDOF 5
ENDMDL
