MODEL 1
REMARK VINA RESULT: -7.751229359      0.000      0.000
REMARK  4 active torsions:
REMARK  status: ('A' for Active; 'I' for Inactive)
REMARK    1  A    between atoms: C8_10  and  O3_11 
REMARK    2  A    between atoms: C12_18  and  C13_19 
REMARK    3  A    between atoms: C15_23  and  C16_24 
REMARK    4  A    between atoms: C17_27  and  O6_28 
ROOT
HETATM    1  C1  UNL     1      -6.070 -12.999 -17.149  1.00  0.00     0.016 C 
HETATM    2  C2  UNL     1      -5.620 -13.289 -18.531  1.00  0.00     0.054 C 
HETATM    3  C3  UNL     1      -5.906 -14.746 -18.950  1.00  0.00     0.072 C 
HETATM    4  C4  UNL     1      -5.445 -15.609 -17.818  1.00  0.00     0.028 C 
HETATM    5  C5  UNL     1      -4.035 -15.329 -17.380  1.00  0.00     0.177 C 
HETATM    6  O1  UNL     1      -3.699 -13.987 -17.447  1.00  0.00    -0.354 OA
HETATM    7  C6  UNL     1      -4.090 -13.399 -18.646  1.00  0.00     0.168 C 
HETATM    8  C7  UNL     1      -3.459 -12.062 -18.826  1.00  0.00     0.079 C 
HETATM    9  O2  UNL     1      -3.838 -14.201 -19.735  1.00  0.00    -0.311 OA
HETATM   10  C8  UNL     1      -5.030 -14.781 -20.157  1.00  0.00     0.233 C 
HETATM   11  C9  UNL     1      -4.843 -16.102 -20.763  1.00  0.00     0.200 C 
HETATM   12  O4  UNL     1      -4.281 -15.988 -21.840  1.00  0.00    -0.291 OA
HETATM   13  C10 UNL     1      -5.143 -17.481 -20.424  1.00  0.00     0.059 C 
HETATM   14  C11 UNL     1      -4.012 -18.320 -21.078  1.00  0.00     0.186 C 
HETATM   15  O5  UNL     1      -4.197 -19.605 -20.550  1.00  0.00    -0.379 OA
HETATM   16  C12 UNL     1      -5.141 -20.209 -21.380  1.00  0.00     0.187 C 
HETATM   17  C14 UNL     1      -6.107 -19.239 -21.963  1.00  0.00     0.051 C 
HETATM   18  C15 UNL     1      -6.387 -18.031 -21.087  1.00  0.00     0.082 C 
HETATM   19  C19 UNL     1      -5.086 -17.844 -18.982  1.00  0.00     0.029 C 
HETATM   20  C20 UNL     1      -5.759 -17.049 -17.968  1.00  0.00    -0.040 C 
HETATM   21  C21 UNL     1      -5.296 -17.665 -16.617  1.00  0.00     0.015 C 
HETATM   22  C22 UNL     1      -7.271 -17.207 -17.888  1.00  0.00     0.015 C 
ENDROOT
BRANCH  18  23
HETATM   23  C16 UNL     1      -7.214 -17.083 -21.814  1.00  0.00     0.130 A 
HETATM   24  N1  UNL     1      -7.102 -16.724 -23.115  1.00  0.00    -0.319 N 
HETATM   25  C17 UNL     1      -8.030 -15.827 -23.453  1.00  0.00     0.164 A 
ATOM     26  H1  UNL     1      -6.398 -17.092 -23.756  1.00  0.00     0.169 HD
HETATM   27  C18 UNL     1      -8.757 -15.622 -22.287  1.00  0.00     0.199 A 
HETATM   28  O7  UNL     1      -8.233 -16.376 -21.385  1.00  0.00    -0.305 OA
BRANCH  25  29
HETATM   29  O6  UNL     1      -8.252 -15.211 -24.684  1.00  0.00    -0.345 OA
ATOM     30  H6  UNL     1      -8.255 -14.286 -24.900  1.00  0.00     0.219 HD
ENDBRANCH  25  29
ENDBRANCH  18  23
BRANCH  10  31
HETATM   31  O3  UNL     1      -5.613 -13.885 -21.087  1.00  0.00    -0.359 OA
ATOM     32  H3  UNL     1      -4.891 -13.405 -21.474  1.00  0.00     0.213 HD
ENDBRANCH  10  31
BRANCH  16  33
HETATM   33  C13 UNL     1      -5.809 -21.405 -20.759  1.00  0.00     0.381 C 
HETATM   34  F1  UNL     1      -7.142 -21.358 -21.058  1.00  0.00    -0.212 F 
HETATM   35  F2  UNL     1      -5.652 -21.318 -19.402  1.00  0.00    -0.212 F 
ENDBRANCH  16  33
TORSDOF 4
ENDMDL
MODEL 2
REMARK VINA RESULT: -7.550742310      1.132      1.343
REMARK  4 active torsions:
REMARK  status: ('A' for Active; 'I' for Inactive)
REMARK    1  A    between atoms: C8_10  and  O3_11 
REMARK    2  A    between atoms: C12_18  and  C13_19 
REMARK    3  A    between atoms: C15_23  and  C16_24 
REMARK    4  A    between atoms: C17_27  and  O6_28 
ROOT
HETATM    1  C1  UNL     1      -6.282 -12.465 -17.464  1.00  0.00     0.016 C 
HETATM    2  C2  UNL     1      -5.509 -12.825 -18.676  1.00  0.00     0.054 C 
HETATM    3  C3  UNL     1      -5.981 -14.153 -19.304  1.00  0.00     0.072 C 
HETATM    4  C4  UNL     1      -6.104 -15.131 -18.178  1.00  0.00     0.028 C 
HETATM    5  C5  UNL     1      -4.873 -15.225 -17.321  1.00  0.00     0.177 C 
HETATM    6  O1  UNL     1      -4.231 -14.009 -17.153  1.00  0.00    -0.354 OA
HETATM    7  C6  UNL     1      -4.086 -13.313 -18.349  1.00  0.00     0.168 C 
HETATM    8  C7  UNL     1      -3.139 -12.173 -18.203  1.00  0.00     0.079 C 
HETATM    9  O2  UNL     1      -3.704 -14.126 -19.391  1.00  0.00    -0.311 OA
HETATM   10  C8  UNL     1      -4.808 -14.378 -20.199  1.00  0.00     0.233 C 
HETATM   11  C9  UNL     1      -4.755 -15.688 -20.852  1.00  0.00     0.200 C 
HETATM   12  O4  UNL     1      -3.879 -15.692 -21.701  1.00  0.00    -0.291 OA
HETATM   13  C10 UNL     1      -5.456 -16.956 -20.755  1.00  0.00     0.059 C 
HETATM   14  C11 UNL     1      -4.405 -18.035 -21.130  1.00  0.00     0.186 C 
HETATM   15  O5  UNL     1      -5.036 -19.245 -20.809  1.00  0.00    -0.379 OA
HETATM   16  C12 UNL     1      -5.791 -19.572 -21.935  1.00  0.00     0.187 C 
HETATM   17  C14 UNL     1      -6.279 -18.378 -22.675  1.00  0.00     0.051 C 
HETATM   18  C15 UNL     1      -6.527 -17.159 -21.804  1.00  0.00     0.082 C 
HETATM   19  C19 UNL     1      -5.932 -17.356 -19.403  1.00  0.00     0.029 C 
HETATM   20  C20 UNL     1      -6.681 -16.442 -18.556  1.00  0.00    -0.040 C 
HETATM   21  C21 UNL     1      -6.812 -17.187 -17.197  1.00  0.00     0.015 C 
HETATM   22  C22 UNL     1      -8.137 -16.217 -18.938  1.00  0.00     0.015 C 
ENDROOT
BRANCH  18  23
HETATM   23  C16 UNL     1      -6.847 -16.017 -22.642  1.00  0.00     0.130 A 
HETATM   24  N1  UNL     1      -6.222 -15.632 -23.781  1.00  0.00    -0.319 N 
HETATM   25  C17 UNL     1      -6.779 -14.535 -24.294  1.00  0.00     0.164 A 
ATOM     26  H1  UNL     1      -5.426 -16.120 -24.193  1.00  0.00     0.169 HD
HETATM   27  C18 UNL     1      -7.811 -14.225 -23.417  1.00  0.00     0.199 A 
HETATM   28  O7  UNL     1      -7.792 -15.119 -22.491  1.00  0.00    -0.305 OA
BRANCH  25  29
HETATM   29  O6  UNL     1      -6.435 -13.829 -25.446  1.00  0.00    -0.345 OA
ATOM     30  H6  UNL     1      -6.533 -12.903 -25.634  1.00  0.00     0.219 HD
ENDBRANCH  25  29
ENDBRANCH  18  23
BRANCH  10  31
HETATM   31  O3  UNL     1      -4.853 -13.342 -21.164  1.00  0.00    -0.359 OA
ATOM     32  H3  UNL     1      -3.949 -13.117 -21.348  1.00  0.00     0.213 HD
ENDBRANCH  10  31
BRANCH  16  33
HETATM   33  C13 UNL     1      -6.876 -20.577 -21.659  1.00  0.00     0.381 C 
HETATM   34  F1  UNL     1      -6.396 -21.497 -20.769  1.00  0.00    -0.212 F 
HETATM   35  F2  UNL     1      -7.176 -21.207 -22.835  1.00  0.00    -0.212 F 
ENDBRANCH  16  33
TORSDOF 4
ENDMDL
MODEL 3
REMARK VINA RESULT: -7.216453885      3.197      5.446
REMARK  4 active torsions:
REMARK  status: ('A' for Active; 'I' for Inactive)
REMARK    1  A    between atoms: C8_10  and  O3_11 
REMARK    2  A    between atoms: C12_18  and  C13_19 
REMARK    3  A    between atoms: C15_23  and  C16_24 
REMARK    4  A    between atoms: C17_27  and  O6_28 
ROOT
HETATM    1  C1  UNL     1      -2.561 -17.718 -22.897  1.00  0.00     0.016 C 
HETATM    2  C2  UNL     1      -4.025 -17.861 -23.078  1.00  0.00     0.054 C 
HETATM    3  C3  UNL     1      -4.822 -16.782 -22.316  1.00  0.00     0.072 C 
HETATM    4  C4  UNL     1      -4.241 -16.725 -20.937  1.00  0.00     0.028 C 
HETATM    5  C5  UNL     1      -4.158 -18.065 -20.261  1.00  0.00     0.177 C 
HETATM    6  O1  UNL     1      -3.851 -19.098 -21.130  1.00  0.00    -0.354 OA
HETATM    7  C6  UNL     1      -4.606 -19.054 -22.298  1.00  0.00     0.168 C 
HETATM    8  C7  UNL     1      -4.485 -20.321 -23.071  1.00  0.00     0.079 C 
HETATM    9  O2  UNL     1      -5.928 -18.758 -22.061  1.00  0.00    -0.311 OA
HETATM   10  C8  UNL     1      -6.163 -17.429 -22.400  1.00  0.00     0.233 C 
HETATM   11  C9  UNL     1      -7.215 -16.808 -21.591  1.00  0.00     0.200 C 
HETATM   12  O4  UNL     1      -8.299 -17.285 -21.883  1.00  0.00    -0.291 OA
HETATM   13  C10 UNL     1      -7.303 -15.796 -20.554  1.00  0.00     0.059 C 
HETATM   14  C11 UNL     1      -8.503 -16.222 -19.665  1.00  0.00     0.186 C 
HETATM   15  O5  UNL     1      -8.422 -15.368 -18.558  1.00  0.00    -0.379 OA
HETATM   16  C12 UNL     1      -9.101 -14.211 -18.939  1.00  0.00     0.187 C 
HETATM   17  C14 UNL     1      -9.008 -13.937 -20.399  1.00  0.00     0.051 C 
HETATM   18  C15 UNL     1      -7.728 -14.431 -21.048  1.00  0.00     0.082 C 
HETATM   19  C19 UNL     1      -6.157 -15.703 -19.609  1.00  0.00     0.029 C 
HETATM   20  C20 UNL     1      -4.783 -15.645 -20.081  1.00  0.00    -0.040 C 
HETATM   21  C21 UNL     1      -3.922 -15.739 -18.789  1.00  0.00     0.015 C 
HETATM   22  C22 UNL     1      -4.332 -14.315 -20.667  1.00  0.00     0.015 C 
ENDROOT
BRANCH  18  23
HETATM   23  C16 UNL     1      -7.812 -14.253 -22.487  1.00  0.00     0.130 A 
HETATM   24  N1  UNL     1      -6.785 -14.099 -23.358  1.00  0.00    -0.319 N 
HETATM   25  C17 UNL     1      -7.226 -13.960 -24.609  1.00  0.00     0.164 A 
ATOM     26  H1  UNL     1      -5.801 -14.090 -23.091  1.00  0.00     0.169 HD
HETATM   27  C18 UNL     1      -8.609 -14.032 -24.502  1.00  0.00     0.199 A 
HETATM   28  O7  UNL     1      -8.876 -14.201 -23.254  1.00  0.00    -0.305 OA
BRANCH  25  29
HETATM   29  O6  UNL     1      -6.497 -13.780 -25.784  1.00  0.00    -0.345 OA
ATOM     30  H6  UNL     1      -6.665 -14.125 -26.653  1.00  0.00     0.219 HD
ENDBRANCH  25  29
ENDBRANCH  18  23
BRANCH  10  31
HETATM   31  O3  UNL     1      -6.516 -17.413 -23.772  1.00  0.00    -0.359 OA
ATOM     32  H3  UNL     1      -6.922 -18.254 -23.947  1.00  0.00     0.213 HD
ENDBRANCH  10  31
BRANCH  16  33
HETATM   33  C13 UNL     1      -8.768 -13.012 -18.093  1.00  0.00     0.381 C 
HETATM   34  F1  UNL     1      -7.416 -12.989 -17.892  1.00  0.00    -0.212 F 
HETATM   35  F2  UNL     1      -9.397 -13.159 -16.887  1.00  0.00    -0.212 F 
ENDBRANCH  16  33
TORSDOF 4
ENDMDL
MODEL 4
REMARK VINA RESULT: -7.200333824      2.497      4.894
REMARK  4 active torsions:
REMARK  status: ('A' for Active; 'I' for Inactive)
REMARK    1  A    between atoms: C8_10  and  O3_11 
REMARK    2  A    between atoms: C12_18  and  C13_19 
REMARK    3  A    between atoms: C15_23  and  C16_24 
REMARK    4  A    between atoms: C17_27  and  O6_28 
ROOT
HETATM    1  C1  UNL     1      -4.654 -13.144 -21.118  1.00  0.00     0.016 C 
HETATM    2  C2  UNL     1      -5.289 -14.030 -20.115  1.00  0.00     0.054 C 
HETATM    3  C3  UNL     1      -4.742 -15.472 -20.171  1.00  0.00     0.072 C 
HETATM    4  C4  UNL     1      -4.734 -15.863 -21.615  1.00  0.00     0.028 C 
HETATM    5  C5  UNL     1      -6.050 -15.645 -22.308  1.00  0.00     0.177 C 
HETATM    6  O1  UNL     1      -6.715 -14.512 -21.872  1.00  0.00    -0.354 OA
HETATM    7  C6  UNL     1      -6.735 -14.406 -20.485  1.00  0.00     0.168 C 
HETATM    8  C7  UNL     1      -7.701 -13.366 -20.034  1.00  0.00     0.079 C 
HETATM    9  O2  UNL     1      -6.996 -15.607 -19.867  1.00  0.00    -0.311 OA
HETATM   10  C8  UNL     1      -5.809 -16.122 -19.356  1.00  0.00     0.233 C 
HETATM   11  C9  UNL     1      -5.781 -17.586 -19.332  1.00  0.00     0.200 C 
HETATM   12  O4  UNL     1      -6.560 -18.002 -18.491  1.00  0.00    -0.291 OA
HETATM   13  C10 UNL     1      -5.085 -18.649 -20.034  1.00  0.00     0.059 C 
HETATM   14  C11 UNL     1      -6.080 -19.840 -20.066  1.00  0.00     0.186 C 
HETATM   15  O5  UNL     1      -5.479 -20.759 -20.937  1.00  0.00    -0.379 OA
HETATM   16  C12 UNL     1      -4.604 -21.497 -20.140  1.00  0.00     0.187 C 
HETATM   17  C14 UNL     1      -4.048 -20.712 -19.005  1.00  0.00     0.051 C 
HETATM   18  C15 UNL     1      -3.905 -19.226 -19.282  1.00  0.00     0.082 C 
HETATM   19  C19 UNL     1      -4.755 -18.404 -21.464  1.00  0.00     0.029 C 
HETATM   20  C20 UNL     1      -4.109 -17.176 -21.899  1.00  0.00    -0.040 C 
HETATM   21  C21 UNL     1      -4.119 -17.257 -23.451  1.00  0.00     0.015 C 
HETATM   22  C22 UNL     1      -2.622 -17.059 -21.596  1.00  0.00     0.015 C 
ENDROOT
BRANCH  18  23
HETATM   23  C16 UNL     1      -3.506 -18.539 -18.066  1.00  0.00     0.130 A 
HETATM   24  N1  UNL     1      -2.596 -17.542 -17.946  1.00  0.00    -0.319 N 
HETATM   25  C17 UNL     1      -2.476 -17.144 -16.679  1.00  0.00     0.164 A 
ATOM     26  H1  UNL     1      -2.070 -17.146 -18.726  1.00  0.00     0.169 HD
HETATM   27  C18 UNL     1      -3.367 -17.946 -15.976  1.00  0.00     0.199 A 
HETATM   28  O7  UNL     1      -3.924 -18.725 -16.836  1.00  0.00    -0.305 OA
BRANCH  25  29
HETATM   29  O6  UNL     1      -1.656 -16.153 -16.141  1.00  0.00    -0.345 OA
ATOM     30  H6  UNL     1      -1.205 -16.136 -15.306  1.00  0.00     0.219 HD
ENDBRANCH  25  29
ENDBRANCH  18  23
BRANCH  10  31
HETATM   31  O3  UNL     1      -5.668 -15.600 -18.046  1.00  0.00    -0.359 OA
ATOM     32  H3  UNL     1      -6.236 -16.125 -17.494  1.00  0.00     0.213 HD
ENDBRANCH  10  31
BRANCH  16  33
HETATM   33  C13 UNL     1      -3.547 -22.226 -20.925  1.00  0.00     0.381 C 
HETATM   34  F1  UNL     1      -2.677 -22.805 -20.043  1.00  0.00    -0.212 F 
HETATM   35  F2  UNL     1      -2.872 -21.305 -21.679  1.00  0.00    -0.212 F 
ENDBRANCH  16  33
TORSDOF 4
ENDMDL
MODEL 5
REMARK VINA RESULT: -7.093962785      2.597      4.134
REMARK  4 active torsions:
REMARK  status: ('A' for Active; 'I' for Inactive)
REMARK    1  A    between atoms: C8_10  and  O3_11 
REMARK    2  A    between atoms: C12_18  and  C13_19 
REMARK    3  A    between atoms: C15_23  and  C16_24 
REMARK    4  A    between atoms: C17_27  and  O6_28 
ROOT
HETATM    1  C1  UNL     1      -7.849 -14.140 -20.816  1.00  0.00     0.016 C 
HETATM    2  C2  UNL     1      -6.543 -14.776 -21.110  1.00  0.00     0.054 C 
HETATM    3  C3  UNL     1      -6.134 -15.805 -20.037  1.00  0.00     0.072 C 
HETATM    4  C4  UNL     1      -6.364 -15.148 -18.712  1.00  0.00     0.028 C 
HETATM    5  C5  UNL     1      -5.719 -13.796 -18.589  1.00  0.00     0.177 C 
HETATM    6  O1  UNL     1      -5.742 -13.070 -19.768  1.00  0.00    -0.354 OA
HETATM    7  C6  UNL     1      -5.355 -13.828 -20.868  1.00  0.00     0.168 C 
HETATM    8  C7  UNL     1      -5.093 -12.968 -22.055  1.00  0.00     0.079 C 
HETATM    9  O2  UNL     1      -4.267 -14.628 -20.603  1.00  0.00    -0.311 OA
HETATM   10  C8  UNL     1      -4.699 -15.938 -20.425  1.00  0.00     0.233 C 
HETATM   11  C9  UNL     1      -3.861 -16.698 -19.495  1.00  0.00     0.200 C 
HETATM   12  O4  UNL     1      -2.771 -16.912 -19.999  1.00  0.00    -0.291 OA
HETATM   13  C10 UNL     1      -3.985 -17.250 -18.158  1.00  0.00     0.059 C 
HETATM   14  C11 UNL     1      -2.555 -17.194 -17.556  1.00  0.00     0.186 C 
HETATM   15  O5  UNL     1      -2.745 -17.515 -16.206  1.00  0.00    -0.379 OA
HETATM   16  C12 UNL     1      -2.724 -18.908 -16.155  1.00  0.00     0.187 C 
HETATM   17  C14 UNL     1      -3.243 -19.543 -17.396  1.00  0.00     0.051 C 
HETATM   18  C15 UNL     1      -4.301 -18.730 -18.120  1.00  0.00     0.082 C 
HETATM   19  C19 UNL     1      -4.823 -16.488 -17.193  1.00  0.00     0.029 C 
HETATM   20  C20 UNL     1      -6.158 -16.028 -17.539  1.00  0.00    -0.040 C 
HETATM   21  C21 UNL     1      -6.589 -15.139 -16.337  1.00  0.00     0.015 C 
HETATM   22  C22 UNL     1      -7.248 -17.090 -17.556  1.00  0.00     0.015 C 
ENDROOT
BRANCH  18  23
HETATM   23  C16 UNL     1      -4.620 -19.363 -19.388  1.00  0.00     0.130 A 
HETATM   24  N1  UNL     1      -3.763 -19.980 -20.237  1.00  0.00    -0.319 N 
HETATM   25  C17 UNL     1      -4.399 -20.450 -21.311  1.00  0.00     0.164 A 
ATOM     26  H1  UNL     1      -2.760 -20.072 -20.077  1.00  0.00     0.169 HD
HETATM   27  C18 UNL     1      -5.729 -20.102 -21.109  1.00  0.00     0.199 A 
HETATM   28  O7  UNL     1      -5.783 -19.479 -19.984  1.00  0.00    -0.305 OA
BRANCH  25  29
HETATM   29  O6  UNL     1      -3.883 -21.140 -22.407  1.00  0.00    -0.345 OA
ATOM     30  H6  UNL     1      -4.338 -21.487 -23.166  1.00  0.00     0.219 HD
ENDBRANCH  25  29
ENDBRANCH  18  23
BRANCH  10  31
HETATM   31  O3  UNL     1      -4.699 -16.546 -21.705  1.00  0.00    -0.359 OA
ATOM     32  H3  UNL     1      -4.131 -16.011 -22.247  1.00  0.00     0.213 HD
ENDBRANCH  10  31
BRANCH  16  33
HETATM   33  C13 UNL     1      -3.339 -19.473 -14.903  1.00  0.00     0.381 C 
HETATM   34  F1  UNL     1      -3.522 -20.816 -15.081  1.00  0.00    -0.212 F 
HETATM   35  F2  UNL     1      -4.557 -18.876 -14.726  1.00  0.00    -0.212 F 
ENDBRANCH  16  33
TORSDOF 4
ENDMDL
