MODEL 1
REMARK VINA RESULT: -8.396605729      0.000      0.000
REMARK  9 active torsions:
REMARK  status: ('A' for Active; 'I' for Inactive)
REMARK    1  A    between atoms: C3_4  and  O2_5 
REMARK    2  A    between atoms: O2_5  and  C4_6 
REMARK    3  A    between atoms: C4_6  and  C5_7 
REMARK    4  A    between atoms: C6_8  and  C7_9 
REMARK       I    between atoms: N1_14  and  C12_15 
REMARK    5  A    between atoms: C12_15  and  C13_17 
REMARK    6  A    between atoms: C13_17  and  N2_18 
REMARK    7  A    between atoms: C31_37  and  O5_38 
REMARK    8  A    between atoms: C32_40  and  O6_41 
REMARK    9  A    between atoms: C33_43  and  O7_44 
ROOT
HETATM    1  C5  UNL     1      10.499  43.041  18.325  1.00  0.00    -0.031 C 
HETATM    2  C6  UNL     1       9.195  42.754  18.424  1.00  0.00    -0.043 C 
HETATM    3  C24 UNL     1       8.221  43.678  17.717  1.00  0.00     0.037 C 
HETATM    4  C25 UNL     1       8.227  43.491  16.237  1.00  0.00     0.004 C 
HETATM    5  C26 UNL     1       8.405  44.744  15.430  1.00  0.00     0.000 C 
HETATM    6  C27 UNL     1       9.620  44.530  14.545  1.00  0.00     0.000 C 
HETATM    7  C28 UNL     1      10.846  45.027  15.247  1.00  0.00     0.000 C 
HETATM    8  C29 UNL     1      11.452  44.024  16.211  1.00  0.00     0.005 C 
HETATM    9  C30 UNL     1      10.965  44.248  17.616  1.00  0.00     0.041 C 
ENDROOT
BRANCH   2  10
HETATM   10  C7  UNL     1       8.608  41.600  19.120  1.00  0.00     0.152 C 
HETATM   11  C8  UNL     1       7.162  41.429  18.702  1.00  0.00     0.043 C 
HETATM   12  C9  UNL     1       6.381  41.328  19.995  1.00  0.00     0.016 C 
HETATM   13  C10 UNL     1       5.014  40.731  19.849  1.00  0.00     0.027 C 
HETATM   14  C19 UNL     1       7.073  40.283  20.870  1.00  0.00     0.126 C 
HETATM   15  C11 UNL     1       4.781  40.359  21.305  1.00  0.00     0.127 C 
HETATM   16  N1  UNL     1       6.086  39.779  21.720  1.00  0.00    -0.343 N 
HETATM   17  C12 UNL     1       6.052  38.882  22.818  1.00  0.00     0.248 C 
HETATM   18  O3  UNL     1       7.081  38.318  23.230  1.00  0.00    -0.271 OA
HETATM   19  C20 UNL     1       8.314  40.897  21.342  1.00  0.00     0.083 C 
HETATM   20  C21 UNL     1       9.495  39.961  21.353  1.00  0.00     0.040 C 
HETATM   21  C23 UNL     1       8.585  41.300  22.712  1.00  0.00     0.040 C 
HETATM   22  O4  UNL     1       8.635  41.989  20.487  1.00  0.00    -0.368 OA
HETATM   23  C22 UNL     1       9.872  40.510  22.708  1.00  0.00     0.006 C 
BRANCH  17  24
HETATM   24  C13 UNL     1       4.779  38.586  23.516  1.00  0.00     0.374 C 
BRANCH  24  25
HETATM   25  N2  UNL     1       4.314  37.237  23.259  1.00  0.00     0.097 N 
HETATM   26  C14 UNL     1       4.394  36.431  24.399  1.00  0.00     0.273 C 
HETATM   27  C15 UNL     1       3.251  35.588  24.793  1.00  0.00     0.030 C 
HETATM   28  C16 UNL     1       2.310  35.293  23.659  1.00  0.00     0.003 C 
HETATM   29  C17 UNL     1       1.919  36.671  23.107  1.00  0.00     0.030 C 
HETATM   30  C18 UNL     1       3.150  37.214  22.465  1.00  0.00     0.273 C 
ENDBRANCH  24  25
ENDBRANCH  17  24
ENDBRANCH   2  10
BRANCH   1  31
HETATM   31  C4  UNL     1      11.472  42.124  18.952  1.00  0.00     0.145 C 
BRANCH  31  32
HETATM   32  O2  UNL     1      11.885  42.288  20.178  1.00  0.00    -0.329 OA
BRANCH  32  33
HETATM   33  C3  UNL     1      13.065  42.465  20.727  1.00  0.00     0.296 C 
HETATM   34  O1  UNL     1      13.044  41.917  22.049  1.00  0.00    -0.351 OA
HETATM   35  C2  UNL     1      14.239  42.091  22.696  1.00  0.00     0.152 C 
HETATM   36  C1  UNL     1      15.406  41.385  22.070  1.00  0.00     0.042 C 
HETATM   37  C33 UNL     1      14.564  43.552  22.940  1.00  0.00     0.178 C 
HETATM   38  C32 UNL     1      13.398  44.344  22.337  1.00  0.00     0.183 C 
HETATM   39  C31 UNL     1      13.357  43.974  20.864  1.00  0.00     0.205 C 
BRANCH  37  40
HETATM   40  O7  UNL     1      14.610  43.876  24.294  1.00  0.00    -0.390 OA
ATOM     41  H7  UNL     1      15.421  44.303  24.543  1.00  0.00     0.210 HD
ENDBRANCH  37  40
BRANCH  38  42
HETATM   42  O6  UNL     1      13.711  45.679  22.512  1.00  0.00    -0.390 OA
ATOM     43  H6  UNL     1      13.727  45.913  23.433  1.00  0.00     0.210 HD
ENDBRANCH  38  42
BRANCH  39  44
HETATM   44  O5  UNL     1      14.605  44.267  20.328  1.00  0.00    -0.388 OA
ATOM     45  H5  UNL     1      14.513  44.540  19.422  1.00  0.00     0.210 HD
ENDBRANCH  39  44
ENDBRANCH  32  33
ENDBRANCH  31  32
ENDBRANCH   1  31
TORSDOF 9
ENDMDL
MODEL 2
REMARK VINA RESULT: -8.307938772      1.514      1.871
REMARK  9 active torsions:
REMARK  status: ('A' for Active; 'I' for Inactive)
REMARK    1  A    between atoms: C3_4  and  O2_5 
REMARK    2  A    between atoms: O2_5  and  C4_6 
REMARK    3  A    between atoms: C4_6  and  C5_7 
REMARK    4  A    between atoms: C6_8  and  C7_9 
REMARK       I    between atoms: N1_14  and  C12_15 
REMARK    5  A    between atoms: C12_15  and  C13_17 
REMARK    6  A    between atoms: C13_17  and  N2_18 
REMARK    7  A    between atoms: C31_37  and  O5_38 
REMARK    8  A    between atoms: C32_40  and  O6_41 
REMARK    9  A    between atoms: C33_43  and  O7_44 
ROOT
HETATM    1  C5  UNL     1      10.618  43.427  18.261  1.00  0.00    -0.031 C 
HETATM    2  C6  UNL     1       9.375  42.934  18.333  1.00  0.00    -0.043 C 
HETATM    3  C24 UNL     1       8.289  43.666  17.567  1.00  0.00     0.037 C 
HETATM    4  C25 UNL     1       8.375  43.439  16.096  1.00  0.00     0.004 C 
HETATM    5  C26 UNL     1       8.374  44.680  15.251  1.00  0.00     0.000 C 
HETATM    6  C27 UNL     1       9.638  44.641  14.409  1.00  0.00     0.000 C 
HETATM    7  C28 UNL     1      10.742  45.352  15.128  1.00  0.00     0.000 C 
HETATM    8  C29 UNL     1      11.470  44.491  16.142  1.00  0.00     0.005 C 
HETATM    9  C30 UNL     1      10.906  44.673  17.524  1.00  0.00     0.041 C 
ENDROOT
BRANCH   2  10
HETATM   10  C7  UNL     1       8.960  41.720  19.052  1.00  0.00     0.152 C 
HETATM   11  C8  UNL     1       7.468  41.515  18.891  1.00  0.00     0.043 C 
HETATM   12  C9  UNL     1       6.939  41.311  20.296  1.00  0.00     0.016 C 
HETATM   13  C10 UNL     1       5.588  40.668  20.362  1.00  0.00     0.027 C 
HETATM   14  C19 UNL     1       7.811  40.249  20.965  1.00  0.00     0.126 C 
HETATM   15  C11 UNL     1       5.636  40.208  21.811  1.00  0.00     0.127 C 
HETATM   16  N1  UNL     1       7.012  39.658  21.947  1.00  0.00    -0.343 N 
HETATM   17  C12 UNL     1       7.206  38.702  22.976  1.00  0.00     0.248 C 
HETATM   18  O3  UNL     1       8.309  38.159  23.160  1.00  0.00    -0.271 OA
HETATM   19  C20 UNL     1       9.098  40.886  21.242  1.00  0.00     0.083 C 
HETATM   20  C21 UNL     1      10.289  39.999  20.982  1.00  0.00     0.040 C 
HETATM   21  C23 UNL     1       9.603  41.223  22.563  1.00  0.00     0.040 C 
HETATM   22  O4  UNL     1       9.225  42.035  20.412  1.00  0.00    -0.368 OA
HETATM   23  C22 UNL     1      10.890  40.488  22.278  1.00  0.00     0.006 C 
BRANCH  17  24
HETATM   24  C13 UNL     1       6.091  38.316  23.873  1.00  0.00     0.374 C 
BRANCH  24  25
HETATM   25  N2  UNL     1       6.559  37.899  25.180  1.00  0.00     0.097 N 
HETATM   26  C14 UNL     1       6.516  38.945  26.108  1.00  0.00     0.273 C 
HETATM   27  C15 UNL     1       5.935  38.728  27.444  1.00  0.00     0.030 C 
HETATM   28  C16 UNL     1       5.911  37.283  27.855  1.00  0.00     0.003 C 
HETATM   29  C17 UNL     1       5.167  36.567  26.719  1.00  0.00     0.030 C 
HETATM   30  C18 UNL     1       6.078  36.624  25.540  1.00  0.00     0.273 C 
ENDBRANCH  24  25
ENDBRANCH  17  24
ENDBRANCH   2  10
BRANCH   1  31
HETATM   31  C4  UNL     1      11.705  42.700  18.947  1.00  0.00     0.145 C 
BRANCH  31  32
HETATM   32  O2  UNL     1      12.186  43.096  20.093  1.00  0.00    -0.329 OA
BRANCH  32  33
HETATM   33  C3  UNL     1      13.378  43.060  20.642  1.00  0.00     0.296 C 
HETATM   34  O1  UNL     1      13.231  42.795  22.042  1.00  0.00    -0.351 OA
HETATM   35  C2  UNL     1      14.439  42.771  22.689  1.00  0.00     0.152 C 
HETATM   36  C1  UNL     1      15.371  41.680  22.248  1.00  0.00     0.042 C 
HETATM   37  C33 UNL     1      15.139  44.115  22.670  1.00  0.00     0.178 C 
HETATM   38  C32 UNL     1      14.214  45.055  21.888  1.00  0.00     0.183 C 
HETATM   39  C31 UNL     1      14.058  44.439  20.509  1.00  0.00     0.205 C 
BRANCH  37  40
HETATM   40  O7  UNL     1      15.286  44.666  23.941  1.00  0.00    -0.390 OA
ATOM     41  H7  UNL     1      15.118  44.040  24.636  1.00  0.00     0.210 HD
ENDBRANCH  37  40
BRANCH  38  42
HETATM   42  O6  UNL     1      14.869  46.271  21.824  1.00  0.00    -0.390 OA
ATOM     43  H6  UNL     1      15.812  46.158  21.860  1.00  0.00     0.210 HD
ENDBRANCH  38  42
BRANCH  39  44
HETATM   44  O5  UNL     1      15.332  44.290  19.974  1.00  0.00    -0.388 OA
ATOM     45  H5  UNL     1      15.948  44.064  20.660  1.00  0.00     0.210 HD
ENDBRANCH  39  44
ENDBRANCH  32  33
ENDBRANCH  31  32
ENDBRANCH   1  31
TORSDOF 9
ENDMDL
MODEL 3
REMARK VINA RESULT: -8.263597548      4.117     10.338
REMARK  9 active torsions:
REMARK  status: ('A' for Active; 'I' for Inactive)
REMARK    1  A    between atoms: C3_4  and  O2_5 
REMARK    2  A    between atoms: O2_5  and  C4_6 
REMARK    3  A    between atoms: C4_6  and  C5_7 
REMARK    4  A    between atoms: C6_8  and  C7_9 
REMARK       I    between atoms: N1_14  and  C12_15 
REMARK    5  A    between atoms: C12_15  and  C13_17 
REMARK    6  A    between atoms: C13_17  and  N2_18 
REMARK    7  A    between atoms: C31_37  and  O5_38 
REMARK    8  A    between atoms: C32_40  and  O6_41 
REMARK    9  A    between atoms: C33_43  and  O7_44 
ROOT
HETATM    1  C5  UNL     1       2.828  37.494  26.851  1.00  0.00    -0.031 C 
HETATM    2  C6  UNL     1       2.442  37.696  25.584  1.00  0.00    -0.043 C 
HETATM    3  C24 UNL     1       1.341  36.806  25.040  1.00  0.00     0.037 C 
HETATM    4  C25 UNL     1      -0.002  37.159  25.585  1.00  0.00     0.004 C 
HETATM    5  C26 UNL     1      -0.782  36.018  26.170  1.00  0.00     0.000 C 
HETATM    6  C27 UNL     1      -1.110  36.398  27.604  1.00  0.00     0.000 C 
HETATM    7  C28 UNL     1      -0.036  35.893  28.516  1.00  0.00     0.000 C 
HETATM    8  C29 UNL     1       1.167  36.811  28.618  1.00  0.00     0.005 C 
HETATM    9  C30 UNL     1       2.253  36.403  27.661  1.00  0.00     0.041 C 
ENDROOT
BRANCH   2  10
HETATM   10  C7  UNL     1       2.954  38.730  24.672  1.00  0.00     0.152 C 
HETATM   11  C8  UNL     1       2.173  38.701  23.375  1.00  0.00     0.043 C 
HETATM   12  C9  UNL     1       3.218  38.646  22.280  1.00  0.00     0.016 C 
HETATM   13  C10 UNL     1       2.718  39.042  20.925  1.00  0.00     0.027 C 
HETATM   14  C19 UNL     1       4.235  39.752  22.560  1.00  0.00     0.126 C 
HETATM   15  C11 UNL     1       4.061  39.329  20.272  1.00  0.00     0.127 C 
HETATM   16  N1  UNL     1       4.796  40.080  21.324  1.00  0.00    -0.343 N 
HETATM   17  C12 UNL     1       5.842  40.927  20.875  1.00  0.00     0.248 C 
HETATM   18  O3  UNL     1       6.503  41.621  21.667  1.00  0.00    -0.271 OA
HETATM   19  C20 UNL     1       5.018  39.311  23.715  1.00  0.00     0.083 C 
HETATM   20  C21 UNL     1       5.329  40.408  24.700  1.00  0.00     0.040 C 
HETATM   21  C23 UNL     1       6.414  38.909  23.680  1.00  0.00     0.040 C 
HETATM   22  O4  UNL     1       4.284  38.305  24.404  1.00  0.00    -0.368 OA
HETATM   23  C22 UNL     1       6.739  39.877  24.792  1.00  0.00     0.006 C 
BRANCH  17  24
HETATM   24  C13 UNL     1       6.183  41.012  19.436  1.00  0.00     0.374 C 
BRANCH  24  25
HETATM   25  N2  UNL     1       7.526  40.540  19.162  1.00  0.00     0.097 N 
HETATM   26  C14 UNL     1       8.484  41.536  19.380  1.00  0.00     0.273 C 
HETATM   27  C15 UNL     1       9.702  41.237  20.153  1.00  0.00     0.030 C 
HETATM   28  C16 UNL     1      10.036  39.772  20.194  1.00  0.00     0.003 C 
HETATM   29  C17 UNL     1       8.766  39.097  20.730  1.00  0.00     0.030 C 
HETATM   30  C18 UNL     1       7.747  39.237  19.651  1.00  0.00     0.273 C 
ENDBRANCH  24  25
ENDBRANCH  17  24
ENDBRANCH   2  10
BRANCH   1  31
HETATM   31  C4  UNL     1       3.855  38.386  27.425  1.00  0.00     0.145 C 
BRANCH  31  32
HETATM   32  O2  UNL     1       4.893  37.924  28.065  1.00  0.00    -0.329 OA
BRANCH  32  33
HETATM   33  C3  UNL     1       6.088  37.525  27.696  1.00  0.00     0.296 C 
HETATM   34  O1  UNL     1       6.052  36.111  27.473  1.00  0.00    -0.351 OA
HETATM   35  C2  UNL     1       7.278  35.617  27.110  1.00  0.00     0.152 C 
HETATM   36  C1  UNL     1       7.809  36.139  25.807  1.00  0.00     0.042 C 
HETATM   37  C33 UNL     1       8.313  35.761  28.208  1.00  0.00     0.178 C 
HETATM   38  C32 UNL     1       7.593  36.449  29.373  1.00  0.00     0.183 C 
HETATM   39  C31 UNL     1       7.100  37.781  28.833  1.00  0.00     0.205 C 
BRANCH  37  40
HETATM   40  O7  UNL     1       8.767  34.534  28.687  1.00  0.00    -0.390 OA
ATOM     41  H7  UNL     1       9.668  34.355  28.447  1.00  0.00     0.210 HD
ENDBRANCH  37  40
BRANCH  38  42
HETATM   42  O6  UNL     1       8.545  36.629  30.360  1.00  0.00    -0.390 OA
ATOM     43  H6  UNL     1       9.364  36.204  30.131  1.00  0.00     0.210 HD
ENDBRANCH  38  42
BRANCH  39  44
HETATM   44  O5  UNL     1       8.205  38.464  28.341  1.00  0.00    -0.388 OA
ATOM     45  H5  UNL     1       8.719  38.812  29.060  1.00  0.00     0.210 HD
ENDBRANCH  39  44
ENDBRANCH  32  33
ENDBRANCH  31  32
ENDBRANCH   1  31
TORSDOF 9
ENDMDL
MODEL 4
REMARK VINA RESULT: -8.230521789      3.132      9.865
REMARK  9 active torsions:
REMARK  status: ('A' for Active; 'I' for Inactive)
REMARK    1  A    between atoms: C3_4  and  O2_5 
REMARK    2  A    between atoms: O2_5  and  C4_6 
REMARK    3  A    between atoms: C4_6  and  C5_7 
REMARK    4  A    between atoms: C6_8  and  C7_9 
REMARK       I    between atoms: N1_14  and  C12_15 
REMARK    5  A    between atoms: C12_15  and  C13_17 
REMARK    6  A    between atoms: C13_17  and  N2_18 
REMARK    7  A    between atoms: C31_37  and  O5_38 
REMARK    8  A    between atoms: C32_40  and  O6_41 
REMARK    9  A    between atoms: C33_43  and  O7_44 
ROOT
HETATM    1  C5  UNL     1       4.944  38.276  24.004  1.00  0.00    -0.031 C 
HETATM    2  C6  UNL     1       4.681  38.735  22.773  1.00  0.00    -0.043 C 
HETATM    3  C24 UNL     1       3.583  38.042  21.989  1.00  0.00     0.037 C 
HETATM    4  C25 UNL     1       2.220  38.384  22.490  1.00  0.00     0.004 C 
HETATM    5  C26 UNL     1       1.329  37.213  22.789  1.00  0.00     0.000 C 
HETATM    6  C27 UNL     1       0.900  37.345  24.240  1.00  0.00     0.000 C 
HETATM    7  C28 UNL     1       1.861  36.605  25.117  1.00  0.00     0.000 C 
HETATM    8  C29 UNL     1       3.100  37.400  25.481  1.00  0.00     0.005 C 
HETATM    9  C30 UNL     1       4.240  37.098  24.547  1.00  0.00     0.041 C 
ENDROOT
BRANCH   2  10
HETATM   10  C7  UNL     1       5.328  39.880  22.114  1.00  0.00     0.152 C 
HETATM   11  C8  UNL     1       4.696  40.114  20.758  1.00  0.00     0.043 C 
HETATM   12  C9  UNL     1       5.855  40.189  19.786  1.00  0.00     0.016 C 
HETATM   13  C10 UNL     1       5.524  40.837  18.475  1.00  0.00     0.027 C 
HETATM   14  C19 UNL     1       6.872  41.176  20.359  1.00  0.00     0.126 C 
HETATM   15  C11 UNL     1       6.940  41.158  18.026  1.00  0.00     0.127 C 
HETATM   16  N1  UNL     1       7.579  41.679  19.264  1.00  0.00    -0.343 N 
HETATM   17  C12 UNL     1       8.697  42.532  19.082  1.00  0.00     0.248 C 
HETATM   18  O3  UNL     1       9.289  43.045  20.048  1.00  0.00    -0.271 OA
HETATM   19  C20 UNL     1       7.504  40.503  21.494  1.00  0.00     0.083 C 
HETATM   20  C21 UNL     1       7.741  41.399  22.683  1.00  0.00     0.040 C 
HETATM   21  C23 UNL     1       8.881  40.039  21.535  1.00  0.00     0.040 C 
HETATM   22  O4  UNL     1       6.663  39.436  21.916  1.00  0.00    -0.368 OA
HETATM   23  C22 UNL     1       9.113  40.785  22.827  1.00  0.00     0.006 C 
BRANCH  17  24
HETATM   24  C13 UNL     1       9.200  42.842  17.723  1.00  0.00     0.374 C 
BRANCH  24  25
HETATM   25  N2  UNL     1      10.211  43.881  17.737  1.00  0.00     0.097 N 
HETATM   26  C14 UNL     1      11.494  43.363  17.530  1.00  0.00     0.273 C 
HETATM   27  C15 UNL     1      12.403  43.999  16.560  1.00  0.00     0.030 C 
HETATM   28  C16 UNL     1      12.053  45.431  16.266  1.00  0.00     0.003 C 
HETATM   29  C17 UNL     1      10.583  45.390  15.822  1.00  0.00     0.030 C 
HETATM   30  C18 UNL     1       9.803  45.037  17.042  1.00  0.00     0.273 C 
ENDBRANCH  24  25
ENDBRANCH  17  24
ENDBRANCH   2  10
BRANCH   1  31
HETATM   31  C4  UNL     1       5.966  38.971  24.812  1.00  0.00     0.145 C 
BRANCH  31  32
HETATM   32  O2  UNL     1       6.651  38.358  25.736  1.00  0.00    -0.329 OA
BRANCH  32  33
HETATM   33  C3  UNL     1       6.424  38.065  26.996  1.00  0.00     0.296 C 
HETATM   34  O1  UNL     1       7.353  38.787  27.811  1.00  0.00    -0.351 OA
HETATM   35  C2  UNL     1       7.193  38.509  29.143  1.00  0.00     0.152 C 
HETATM   36  C1  UNL     1       5.869  38.917  29.720  1.00  0.00     0.042 C 
HETATM   37  C33 UNL     1       7.501  37.063  29.478  1.00  0.00     0.178 C 
HETATM   38  C32 UNL     1       7.882  36.399  28.150  1.00  0.00     0.183 C 
HETATM   39  C31 UNL     1       6.678  36.562  27.238  1.00  0.00     0.205 C 
BRANCH  37  40
HETATM   40  O7  UNL     1       8.600  36.926  30.323  1.00  0.00    -0.390 OA
ATOM     41  H7  UNL     1       8.836  36.018  30.476  1.00  0.00     0.210 HD
ENDBRANCH  37  40
BRANCH  38  42
HETATM   42  O6  UNL     1       8.116  35.067  28.440  1.00  0.00    -0.390 OA
ATOM     43  H6  UNL     1       8.992  34.806  28.182  1.00  0.00     0.210 HD
ENDBRANCH  38  42
BRANCH  39  44
HETATM   44  O5  UNL     1       5.587  35.994  27.886  1.00  0.00    -0.388 OA
ATOM     45  H5  UNL     1       5.272  35.244  27.395  1.00  0.00     0.210 HD
ENDBRANCH  39  44
ENDBRANCH  32  33
ENDBRANCH  31  32
ENDBRANCH   1  31
TORSDOF 9
ENDMDL
MODEL 5
REMARK VINA RESULT: -8.116421604      3.914     10.774
REMARK  9 active torsions:
REMARK  status: ('A' for Active; 'I' for Inactive)
REMARK    1  A    between atoms: C3_4  and  O2_5 
REMARK    2  A    between atoms: O2_5  and  C4_6 
REMARK    3  A    between atoms: C4_6  and  C5_7 
REMARK    4  A    between atoms: C6_8  and  C7_9 
REMARK       I    between atoms: N1_14  and  C12_15 
REMARK    5  A    between atoms: C12_15  and  C13_17 
REMARK    6  A    between atoms: C13_17  and  N2_18 
REMARK    7  A    between atoms: C31_37  and  O5_38 
REMARK    8  A    between atoms: C32_40  and  O6_41 
REMARK    9  A    between atoms: C33_43  and  O7_44 
ROOT
HETATM    1  C5  UNL     1       5.489  37.430  25.628  1.00  0.00    -0.031 C 
HETATM    2  C6  UNL     1       5.848  38.549  24.985  1.00  0.00    -0.043 C 
HETATM    3  C24 UNL     1       5.840  39.842  25.778  1.00  0.00     0.037 C 
HETATM    4  C25 UNL     1       6.981  39.933  26.735  1.00  0.00     0.004 C 
HETATM    5  C26 UNL     1       6.611  40.265  28.151  1.00  0.00     0.000 C 
HETATM    6  C27 UNL     1       7.159  39.149  29.023  1.00  0.00     0.000 C 
HETATM    7  C28 UNL     1       6.117  38.088  29.193  1.00  0.00     0.000 C 
HETATM    8  C29 UNL     1       6.068  37.086  28.055  1.00  0.00     0.005 C 
HETATM    9  C30 UNL     1       5.034  37.466  27.031  1.00  0.00     0.041 C 
ENDROOT
BRANCH   2  10
HETATM   10  C7  UNL     1       6.295  38.645  23.588  1.00  0.00     0.152 C 
HETATM   11  C8  UNL     1       7.804  38.750  23.538  1.00  0.00     0.043 C 
HETATM   12  C9  UNL     1       8.093  39.948  22.657  1.00  0.00     0.016 C 
HETATM   13  C10 UNL     1       9.488  39.995  22.111  1.00  0.00     0.027 C 
HETATM   14  C19 UNL     1       7.275  39.784  21.376  1.00  0.00     0.126 C 
HETATM   15  C11 UNL     1       9.243  40.970  20.971  1.00  0.00     0.127 C 
HETATM   16  N1  UNL     1       7.958  40.498  20.389  1.00  0.00    -0.343 N 
HETATM   17  C12 UNL     1       7.719  40.843  19.034  1.00  0.00     0.248 C 
HETATM   18  O3  UNL     1       6.689  40.476  18.442  1.00  0.00    -0.271 OA
HETATM   19  C20 UNL     1       5.881  40.036  21.742  1.00  0.00     0.083 C 
HETATM   20  C21 UNL     1       4.896  39.107  21.080  1.00  0.00     0.040 C 
HETATM   21  C23 UNL     1       5.103  41.195  21.337  1.00  0.00     0.040 C 
HETATM   22  O4  UNL     1       5.745  39.881  23.150  1.00  0.00    -0.368 OA
HETATM   23  C22 UNL     1       4.006  40.298  20.815  1.00  0.00     0.006 C 
BRANCH  17  24
HETATM   24  C13 UNL     1       8.695  41.659  18.276  1.00  0.00     0.374 C 
BRANCH  24  25
HETATM   25  N2  UNL     1       8.059  42.739  17.548  1.00  0.00     0.097 N 
HETATM   26  C14 UNL     1       8.231  43.971  18.187  1.00  0.00     0.273 C 
HETATM   27  C15 UNL     1       8.657  45.153  17.416  1.00  0.00     0.030 C 
HETATM   28  C16 UNL     1       8.372  45.039  15.945  1.00  0.00     0.003 C 
HETATM   29  C17 UNL     1       9.048  43.728  15.517  1.00  0.00     0.030 C 
HETATM   30  C18 UNL     1       8.257  42.638  16.156  1.00  0.00     0.273 C 
ENDBRANCH  24  25
ENDBRANCH  17  24
ENDBRANCH   2  10
BRANCH   1  31
HETATM   31  C4  UNL     1       5.546  36.148  24.896  1.00  0.00     0.145 C 
BRANCH  31  32
HETATM   32  O2  UNL     1       4.955  35.981  23.746  1.00  0.00    -0.329 OA
BRANCH  32  33
HETATM   33  C3  UNL     1       3.700  35.965  23.360  1.00  0.00     0.296 C 
HETATM   34  O1  UNL     1       3.252  37.315  23.196  1.00  0.00    -0.351 OA
HETATM   35  C2  UNL     1       1.936  37.377  22.819  1.00  0.00     0.152 C 
HETATM   36  C1  UNL     1       1.632  36.770  21.480  1.00  0.00     0.042 C 
HETATM   37  C33 UNL     1       0.998  36.835  23.879  1.00  0.00     0.178 C 
HETATM   38  C32 UNL     1       1.896  36.378  25.035  1.00  0.00     0.183 C 
HETATM   39  C31 UNL     1       2.823  35.324  24.455  1.00  0.00     0.205 C 
BRANCH  37  40
HETATM   40  O7  UNL     1       0.146  37.808  24.396  1.00  0.00    -0.390 OA
ATOM     41  H7  UNL     1      -0.283  38.318  23.719  1.00  0.00     0.210 HD
ENDBRANCH  37  40
BRANCH  38  42
HETATM   42  O6  UNL     1       1.050  35.836  25.986  1.00  0.00    -0.390 OA
ATOM     43  H6  UNL     1       1.429  35.890  26.856  1.00  0.00     0.210 HD
ENDBRANCH  38  42
BRANCH  39  44
HETATM   44  O5  UNL     1       2.026  34.328  23.903  1.00  0.00    -0.388 OA
ATOM     45  H5  UNL     1       1.956  33.596  24.505  1.00  0.00     0.210 HD
ENDBRANCH  39  44
ENDBRANCH  32  33
ENDBRANCH  31  32
ENDBRANCH   1  31
TORSDOF 9
ENDMDL
