MODEL 1
REMARK VINA RESULT: -8.539288425      0.000      0.000
REMARK  12 active torsions:
REMARK  status: ('A' for Active; 'I' for Inactive)
REMARK    1  A    between atoms: O1_2  and  C2_3 
REMARK    2  A    between atoms: C2_3  and  C3_5 
REMARK    3  A    between atoms: C3_5  and  N1_6 
REMARK    4  A    between atoms: N1_6  and  O3_7 
REMARK       I    between atoms: N1_6  and  C4_12 
REMARK    5  A    between atoms: O3_7  and  S1_8 
REMARK       I    between atoms: C4_12  and  N2_14 
REMARK    6  A    between atoms: N2_14  and  C5_16 
REMARK    7  A    between atoms: C7_18  and  O8_19 
REMARK    8  A    between atoms: C8_21  and  N3_22 
REMARK    9  A    between atoms: C9_23  and  N4_24 
REMARK   10  A    between atoms: C11_34  and  N8_35 
REMARK   11  A    between atoms: C12_39  and  O9_40 
REMARK   12  A    between atoms: C12_39  and  C13_42 
ROOT
HETATM    1  C5  UNL     1     -15.029  22.776 -17.921  1.00  0.00     0.163 C 
HETATM    2  C6  UNL     1     -14.135  21.754 -18.518  1.00  0.00     0.071 C 
HETATM    3  C7  UNL     1     -12.990  21.294 -17.634  1.00  0.00     0.173 C 
HETATM    4  C8  UNL     1     -12.792  22.259 -16.450  1.00  0.00     0.111 C 
HETATM    5  C12 UNL     1     -12.861  23.661 -16.792  1.00  0.00     0.243 C 
HETATM    6  C14 UNL     1     -14.189  23.896 -17.544  1.00  0.00     0.199 C 
HETATM    7  O11 UNL     1     -14.502  25.055 -17.808  1.00  0.00    -0.291 OA
ENDROOT
BRANCH   4   8
HETATM    8  N3  UNL     1     -12.202  21.683 -15.319  1.00  0.00    -0.052 N 
HETATM    9  C9  UNL     1     -12.852  21.484 -14.136  1.00  0.00     0.713 A 
HETATM   10  N5  UNL     1     -12.026  20.913 -13.235  1.00  0.00    -0.017 N 
HETATM   11  C10 UNL     1     -10.833  20.741 -13.841  1.00  0.00     0.749 A 
ATOM     12  H5  UNL     1     -12.260  20.660 -12.276  1.00  0.00     0.203 HD
HETATM   13  N6  UNL     1      -9.578  20.295 -13.714  1.00  0.00    -0.115 N 
HETATM   14  N9  UNL     1     -10.953  21.218 -15.124  1.00  0.00     0.114 N 
HETATM   15  N7  UNL     1      -8.947  20.477 -14.841  1.00  0.00    -0.116 N 
ATOM     16  H6  UNL     1      -9.179  19.880 -12.872  1.00  0.00     0.206 HD
HETATM   17  C11 UNL     1      -9.791  21.058 -15.748  1.00  0.00     0.728 A 
ATOM     18  H7  UNL     1      -7.974  20.225 -15.019  1.00  0.00     0.206 HD
BRANCH   9  19
HETATM   19  N4  UNL     1     -14.053  21.741 -13.811  1.00  0.00    -0.232 N 
ATOM     20  H42 UNL     1     -14.733  21.969 -14.536  1.00  0.00     0.174 HD
ATOM     21  H41 UNL     1     -14.490  21.772 -12.891  1.00  0.00     0.174 HD
ENDBRANCH   9  19
BRANCH  17  22
HETATM   22  N8  UNL     1      -9.457  21.350 -16.939  1.00  0.00    -0.231 N 
ATOM     23  H82 UNL     1      -9.606  22.208 -17.470  1.00  0.00     0.174 HD
ATOM     24  H81 UNL     1      -8.965  20.711 -17.563  1.00  0.00     0.174 HD
ENDBRANCH  17  22
ENDBRANCH   4   8
BRANCH   3  25
HETATM   25  O8  UNL     1     -11.931  21.127 -18.456  1.00  0.00    -0.390 OA
ATOM     26  H8  UNL     1     -11.245  20.744 -17.923  1.00  0.00     0.210 HD
ENDBRANCH   3  25
BRANCH   5  27
HETATM   27  O9  UNL     1     -13.213  24.450 -15.662  1.00  0.00    -0.369 OA
ATOM     28  H9  UNL     1     -14.146  24.626 -15.643  1.00  0.00     0.212 HD
ENDBRANCH   5  27
BRANCH   5  29
HETATM   29  C13 UNL     1     -11.999  24.384 -17.682  1.00  0.00     0.279 C 
HETATM   30  N10 UNL     1     -11.629  24.150 -19.012  1.00  0.00    -0.059 NA
HETATM   31  O10 UNL     1     -11.440  25.451 -17.218  1.00  0.00    -0.273 OA
ENDBRANCH   5  29
BRANCH   1  32
HETATM   32  N2  UNL     1     -15.919  23.239 -19.003  1.00  0.00    -0.330 N 
HETATM   33  C4  UNL     1     -17.320  23.334 -18.798  1.00  0.00     0.344 C 
HETATM   34  N1  UNL     1     -18.157  23.780 -19.831  1.00  0.00    -0.179 N 
HETATM   35  O7  UNL     1     -17.799  23.009 -17.663  1.00  0.00    -0.245 OA
ATOM     36  H2  UNL     1     -15.523  23.492 -19.908  1.00  0.00     0.165 HD
BRANCH  34  37
HETATM   37  C3  UNL     1     -17.613  24.184 -21.095  1.00  0.00     0.273 C 
BRANCH  37  38
HETATM   38  C2  UNL     1     -17.608  25.616 -21.376  1.00  0.00     0.279 C 
HETATM   39  O2  UNL     1     -16.739  26.310 -20.746  1.00  0.00    -0.263 OA
BRANCH  38  40
HETATM   40  O1  UNL     1     -18.411  26.318 -22.229  1.00  0.00    -0.325 OA
HETATM   41  C1  UNL     1     -19.408  25.750 -23.050  1.00  0.00     0.213 C 
ENDBRANCH  38  40
ENDBRANCH  37  38
ENDBRANCH  34  37
BRANCH  34  42
HETATM   42  O3  UNL     1     -19.479  23.855 -19.648  1.00  0.00    -0.125 OA
BRANCH  42  43
HETATM   43  S1  UNL     1     -20.042  25.214 -18.893  1.00  0.00     0.274 S 
HETATM   44  O4  UNL     1     -20.825  26.095 -19.851  1.00  0.00    -0.571 OA
HETATM   45  O5  UNL     1     -21.039  24.856 -17.805  1.00  0.00    -0.571 OA
HETATM   46  O6  UNL     1     -18.885  26.165 -18.189  1.00  0.00    -0.571 OA
ENDBRANCH  42  43
ENDBRANCH  34  42
ENDBRANCH   1  32
TORSDOF 12
ENDMDL
MODEL 2
REMARK VINA RESULT: -8.463075134      1.315      2.249
REMARK  12 active torsions:
REMARK  status: ('A' for Active; 'I' for Inactive)
REMARK    1  A    between atoms: O1_2  and  C2_3 
REMARK    2  A    between atoms: C2_3  and  C3_5 
REMARK    3  A    between atoms: C3_5  and  N1_6 
REMARK    4  A    between atoms: N1_6  and  O3_7 
REMARK       I    between atoms: N1_6  and  C4_12 
REMARK    5  A    between atoms: O3_7  and  S1_8 
REMARK       I    between atoms: C4_12  and  N2_14 
REMARK    6  A    between atoms: N2_14  and  C5_16 
REMARK    7  A    between atoms: C7_18  and  O8_19 
REMARK    8  A    between atoms: C8_21  and  N3_22 
REMARK    9  A    between atoms: C9_23  and  N4_24 
REMARK   10  A    between atoms: C11_34  and  N8_35 
REMARK   11  A    between atoms: C12_39  and  O9_40 
REMARK   12  A    between atoms: C12_39  and  C13_42 
ROOT
HETATM    1  C5  UNL     1     -14.437  22.486 -17.966  1.00  0.00     0.163 C 
HETATM    2  C6  UNL     1     -13.755  21.564 -18.906  1.00  0.00     0.071 C 
HETATM    3  C7  UNL     1     -12.320  21.215 -18.551  1.00  0.00     0.173 C 
HETATM    4  C8  UNL     1     -11.768  22.189 -17.491  1.00  0.00     0.111 C 
HETATM    5  C12 UNL     1     -12.091  23.578 -17.718  1.00  0.00     0.243 C 
HETATM    6  C14 UNL     1     -13.622  23.683 -17.891  1.00  0.00     0.199 C 
HETATM    7  O11 UNL     1     -14.117  24.806 -17.962  1.00  0.00    -0.291 OA
ENDROOT
BRANCH   4   8
HETATM    8  N3  UNL     1     -10.738  21.667 -16.701  1.00  0.00    -0.052 N 
HETATM    9  C9  UNL     1      -9.458  21.484 -17.138  1.00  0.00     0.713 A 
HETATM   10  N5  UNL     1      -8.695  20.964 -16.154  1.00  0.00    -0.017 N 
HETATM   11  C10 UNL     1      -9.488  20.811 -15.073  1.00  0.00     0.749 A 
ATOM     12  H5  UNL     1      -7.705  20.731 -16.216  1.00  0.00     0.203 HD
HETATM   13  N6  UNL     1      -9.560  20.414 -13.797  1.00  0.00    -0.115 N 
HETATM   14  N9  UNL     1     -10.743  21.248 -15.421  1.00  0.00     0.114 N 
HETATM   15  N7  UNL     1     -10.779  20.587 -13.367  1.00  0.00    -0.116 N 
ATOM     16  H6  UNL     1      -8.787  20.036 -13.250  1.00  0.00     0.206 HD
HETATM   17  C11 UNL     1     -11.547  21.112 -14.371  1.00  0.00     0.728 A 
ATOM     18  H7  UNL     1     -11.110  20.366 -12.428  1.00  0.00     0.206 HD
BRANCH   9  19
HETATM   19  N4  UNL     1      -8.938  21.736 -18.268  1.00  0.00    -0.232 N 
ATOM     20  H42 UNL     1      -9.538  21.850 -19.085  1.00  0.00     0.174 HD
ATOM     21  H41 UNL     1      -7.958  21.843 -18.529  1.00  0.00     0.174 HD
ENDBRANCH   9  19
BRANCH  17  22
HETATM   22  N8  UNL     1     -12.779  21.396 -14.245  1.00  0.00    -0.231 N 
ATOM     23  H82 UNL     1     -13.560  20.808 -13.953  1.00  0.00     0.174 HD
ATOM     24  H81 UNL     1     -13.173  22.316 -14.441  1.00  0.00     0.174 HD
ENDBRANCH  17  22
ENDBRANCH   4   8
BRANCH   3  25
HETATM   25  O8  UNL     1     -11.651  21.162 -19.724  1.00  0.00    -0.390 OA
ATOM     26  H8  UNL     1     -11.084  21.924 -19.734  1.00  0.00     0.210 HD
ENDBRANCH   3  25
BRANCH   5  27
HETATM   27  O9  UNL     1     -12.049  24.320 -16.505  1.00  0.00    -0.369 OA
ATOM     28  H9  UNL     1     -11.607  25.153 -16.627  1.00  0.00     0.212 HD
ENDBRANCH   5  27
BRANCH   5  29
HETATM   29  C13 UNL     1     -11.709  24.391 -18.837  1.00  0.00     0.279 C 
HETATM   30  N10 UNL     1     -11.935  24.244 -20.211  1.00  0.00    -0.059 NA
HETATM   31  O10 UNL     1     -11.036  25.461 -18.581  1.00  0.00    -0.273 OA
ENDBRANCH   5  29
BRANCH   1  32
HETATM   32  N2  UNL     1     -15.714  22.863 -18.600  1.00  0.00    -0.330 N 
HETATM   33  C4  UNL     1     -16.933  22.790 -17.877  1.00  0.00     0.344 C 
HETATM   34  N1  UNL     1     -18.141  23.155 -18.489  1.00  0.00    -0.179 N 
HETATM   35  O7  UNL     1     -16.908  22.387 -16.669  1.00  0.00    -0.245 OA
ATOM     36  H2  UNL     1     -15.721  23.180 -19.570  1.00  0.00     0.165 HD
BRANCH  34  37
HETATM   37  C3  UNL     1     -18.164  23.646 -19.836  1.00  0.00     0.273 C 
BRANCH  37  38
HETATM   38  C2  UNL     1     -17.991  25.085 -20.010  1.00  0.00     0.279 C 
HETATM   39  O2  UNL     1     -16.797  25.526 -19.891  1.00  0.00    -0.263 OA
BRANCH  38  40
HETATM   40  O1  UNL     1     -18.940  26.029 -20.285  1.00  0.00    -0.325 OA
HETATM   41  C1  UNL     1     -20.196  25.763 -20.869  1.00  0.00     0.213 C 
ENDBRANCH  38  40
ENDBRANCH  37  38
ENDBRANCH  34  37
BRANCH  34  42
HETATM   42  O3  UNL     1     -19.293  23.070 -17.816  1.00  0.00    -0.125 OA
BRANCH  42  43
HETATM   43  S1  UNL     1     -19.767  24.425 -16.994  1.00  0.00     0.274 S 
HETATM   44  O4  UNL     1     -21.046  25.005 -17.573  1.00  0.00    -0.571 OA
HETATM   45  O5  UNL     1     -20.118  24.088 -15.555  1.00  0.00    -0.571 OA
HETATM   46  O6  UNL     1     -18.655  25.649 -16.942  1.00  0.00    -0.571 OA
ENDBRANCH  42  43
ENDBRANCH  34  42
ENDBRANCH   1  32
TORSDOF 12
ENDMDL
MODEL 3
REMARK VINA RESULT: -8.422424918      0.599      1.043
REMARK  12 active torsions:
REMARK  status: ('A' for Active; 'I' for Inactive)
REMARK    1  A    between atoms: O1_2  and  C2_3 
REMARK    2  A    between atoms: C2_3  and  C3_5 
REMARK    3  A    between atoms: C3_5  and  N1_6 
REMARK    4  A    between atoms: N1_6  and  O3_7 
REMARK       I    between atoms: N1_6  and  C4_12 
REMARK    5  A    between atoms: O3_7  and  S1_8 
REMARK       I    between atoms: C4_12  and  N2_14 
REMARK    6  A    between atoms: N2_14  and  C5_16 
REMARK    7  A    between atoms: C7_18  and  O8_19 
REMARK    8  A    between atoms: C8_21  and  N3_22 
REMARK    9  A    between atoms: C9_23  and  N4_24 
REMARK   10  A    between atoms: C11_34  and  N8_35 
REMARK   11  A    between atoms: C12_39  and  O9_40 
REMARK   12  A    between atoms: C12_39  and  C13_42 
ROOT
HETATM    1  C5  UNL     1     -15.052  22.699 -18.031  1.00  0.00     0.163 C 
HETATM    2  C6  UNL     1     -14.130  21.688 -18.603  1.00  0.00     0.071 C 
HETATM    3  C7  UNL     1     -12.992  21.258 -17.694  1.00  0.00     0.173 C 
HETATM    4  C8  UNL     1     -12.831  22.239 -16.517  1.00  0.00     0.111 C 
HETATM    5  C12 UNL     1     -12.920  23.635 -16.876  1.00  0.00     0.243 C 
HETATM    6  C14 UNL     1     -14.239  23.838 -17.652  1.00  0.00     0.199 C 
HETATM    7  O11 UNL     1     -14.568  24.989 -17.934  1.00  0.00    -0.291 OA
ENDROOT
BRANCH   4   8
HETATM    8  N3  UNL     1     -12.251  21.684 -15.371  1.00  0.00    -0.052 N 
HETATM    9  C9  UNL     1     -12.915  21.493 -14.195  1.00  0.00     0.713 A 
HETATM   10  N5  UNL     1     -12.094  20.945 -13.275  1.00  0.00    -0.017 N 
HETATM   11  C10 UNL     1     -10.891  20.780 -13.861  1.00  0.00     0.749 A 
ATOM     12  H5  UNL     1     -12.339  20.701 -12.315  1.00  0.00     0.203 HD
HETATM   13  N6  UNL     1      -9.633  20.351 -13.711  1.00  0.00    -0.115 N 
HETATM   14  N9  UNL     1     -10.999  21.238 -15.153  1.00  0.00     0.114 N 
HETATM   15  N7  UNL     1      -8.988  20.526 -14.832  1.00  0.00    -0.116 N 
ATOM     16  H6  UNL     1      -9.241  19.952 -12.858  1.00  0.00     0.206 HD
HETATM   17  C11 UNL     1      -9.826  21.084 -15.758  1.00  0.00     0.728 A 
ATOM     18  H7  UNL     1      -8.010  20.283 -14.992  1.00  0.00     0.206 HD
BRANCH   9  19
HETATM   19  N4  UNL     1     -14.123  21.740 -13.890  1.00  0.00    -0.232 N 
ATOM     20  H42 UNL     1     -14.404  22.698 -13.681  1.00  0.00     0.174 HD
ATOM     21  H41 UNL     1     -14.918  21.108 -13.801  1.00  0.00     0.174 HD
ENDBRANCH   9  19
BRANCH  17  22
HETATM   22  N8  UNL     1      -9.479  21.364 -16.948  1.00  0.00    -0.231 N 
ATOM     23  H82 UNL     1      -8.831  20.883 -17.572  1.00  0.00     0.174 HD
ATOM     24  H81 UNL     1      -9.828  22.170 -17.466  1.00  0.00     0.174 HD
ENDBRANCH  17  22
ENDBRANCH   4   8
BRANCH   3  25
HETATM   25  O8  UNL     1     -11.916  21.102 -18.497  1.00  0.00    -0.390 OA
ATOM     26  H8  UNL     1     -11.797  20.165 -18.595  1.00  0.00     0.210 HD
ENDBRANCH   3  25
BRANCH   5  27
HETATM   27  O9  UNL     1     -13.305  24.429 -15.759  1.00  0.00    -0.369 OA
ATOM     28  H9  UNL     1     -13.147  25.352 -15.924  1.00  0.00     0.212 HD
ENDBRANCH   5  27
BRANCH   5  29
HETATM   29  C13 UNL     1     -12.056  24.365 -17.758  1.00  0.00     0.279 C 
HETATM   30  N10 UNL     1     -11.677  24.136 -19.086  1.00  0.00    -0.059 NA
HETATM   31  O10 UNL     1     -11.506  25.434 -17.288  1.00  0.00    -0.273 OA
ENDBRANCH   5  29
BRANCH   1  32
HETATM   32  N2  UNL     1     -15.932  23.135 -19.133  1.00  0.00    -0.330 N 
HETATM   33  C4  UNL     1     -17.329  23.280 -18.930  1.00  0.00     0.344 C 
HETATM   34  N1  UNL     1     -18.155  23.699 -19.983  1.00  0.00    -0.179 N 
HETATM   35  O7  UNL     1     -17.814  23.024 -17.781  1.00  0.00    -0.245 OA
ATOM     36  H2  UNL     1     -15.532  23.333 -20.050  1.00  0.00     0.165 HD
BRANCH  34  37
HETATM   37  C3  UNL     1     -17.605  24.026 -21.266  1.00  0.00     0.273 C 
BRANCH  37  38
HETATM   38  C2  UNL     1     -17.026  25.359 -21.408  1.00  0.00     0.279 C 
HETATM   39  O2  UNL     1     -17.733  26.213 -22.043  1.00  0.00    -0.263 OA
BRANCH  38  40
HETATM   40  O1  UNL     1     -15.825  25.818 -20.949  1.00  0.00    -0.325 OA
HETATM   41  C1  UNL     1     -14.570  25.483 -21.499  1.00  0.00     0.213 C 
ENDBRANCH  38  40
ENDBRANCH  37  38
ENDBRANCH  34  37
BRANCH  34  42
HETATM   42  O3  UNL     1     -19.475  23.821 -19.801  1.00  0.00    -0.125 OA
BRANCH  42  43
HETATM   43  S1  UNL     1     -20.018  25.307 -19.318  1.00  0.00     0.274 S 
HETATM   44  O4  UNL     1     -20.848  25.971 -20.403  1.00  0.00    -0.571 OA
HETATM   45  O5  UNL     1     -20.965  25.179 -18.138  1.00  0.00    -0.571 OA
HETATM   46  O6  UNL     1     -18.841  26.382 -18.875  1.00  0.00    -0.571 OA
ENDBRANCH  42  43
ENDBRANCH  34  42
ENDBRANCH   1  32
TORSDOF 12
ENDMDL
MODEL 4
REMARK VINA RESULT: -8.355065968      4.650      9.130
REMARK  12 active torsions:
REMARK  status: ('A' for Active; 'I' for Inactive)
REMARK    1  A    between atoms: O1_2  and  C2_3 
REMARK    2  A    between atoms: C2_3  and  C3_5 
REMARK    3  A    between atoms: C3_5  and  N1_6 
REMARK    4  A    between atoms: N1_6  and  O3_7 
REMARK       I    between atoms: N1_6  and  C4_12 
REMARK    5  A    between atoms: O3_7  and  S1_8 
REMARK       I    between atoms: C4_12  and  N2_14 
REMARK    6  A    between atoms: N2_14  and  C5_16 
REMARK    7  A    between atoms: C7_18  and  O8_19 
REMARK    8  A    between atoms: C8_21  and  N3_22 
REMARK    9  A    between atoms: C9_23  and  N4_24 
REMARK   10  A    between atoms: C11_34  and  N8_35 
REMARK   11  A    between atoms: C12_39  and  O9_40 
REMARK   12  A    between atoms: C12_39  and  C13_42 
ROOT
HETATM    1  C5  UNL     1     -17.640  22.684 -16.801  1.00  0.00     0.163 C 
HETATM    2  C6  UNL     1     -18.157  21.909 -17.955  1.00  0.00     0.071 C 
HETATM    3  C7  UNL     1     -18.224  22.665 -19.270  1.00  0.00     0.173 C 
HETATM    4  C8  UNL     1     -18.087  24.182 -19.036  1.00  0.00     0.111 C 
HETATM    5  C12 UNL     1     -18.849  24.694 -17.921  1.00  0.00     0.243 C 
HETATM    6  C14 UNL     1     -18.482  23.858 -16.677  1.00  0.00     0.199 C 
HETATM    7  O11 UNL     1     -18.925  24.221 -15.589  1.00  0.00    -0.291 OA
ENDROOT
BRANCH   4   8
HETATM    8  N3  UNL     1     -17.579  24.896 -20.126  1.00  0.00    -0.052 N 
HETATM    9  C9  UNL     1     -16.297  25.357 -20.207  1.00  0.00     0.713 A 
HETATM   10  N5  UNL     1     -16.104  26.009 -21.373  1.00  0.00    -0.017 N 
HETATM   11  C10 UNL     1     -17.270  25.969 -22.050  1.00  0.00     0.749 A 
ATOM     12  H5  UNL     1     -15.239  26.451 -21.683  1.00  0.00     0.203 HD
HETATM   13  N6  UNL     1     -17.916  26.319 -23.168  1.00  0.00    -0.115 N 
HETATM   14  N9  UNL     1     -18.171  25.281 -21.273  1.00  0.00     0.114 N 
HETATM   15  N7  UNL     1     -19.143  25.880 -23.104  1.00  0.00    -0.116 N 
ATOM     16  H6  UNL     1     -17.514  26.843 -23.945  1.00  0.00     0.206 HD
HETATM   17  C11 UNL     1     -19.331  25.222 -21.919  1.00  0.00     0.728 A 
ATOM     18  H7  UNL     1     -19.853  26.008 -23.826  1.00  0.00     0.206 HD
BRANCH   9  19
HETATM   19  N4  UNL     1     -15.336  25.244 -19.385  1.00  0.00    -0.232 N 
ATOM     20  H42 UNL     1     -15.526  24.966 -18.423  1.00  0.00     0.174 HD
ATOM     21  H41 UNL     1     -14.337  25.400 -19.520  1.00  0.00     0.174 HD
ENDBRANCH   9  19
BRANCH  17  22
HETATM   22  N8  UNL     1     -20.428  24.680 -21.577  1.00  0.00    -0.231 N 
ATOM     23  H82 UNL     1     -20.984  24.802 -20.731  1.00  0.00     0.174 HD
ATOM     24  H81 UNL     1     -20.925  23.997 -22.148  1.00  0.00     0.174 HD
ENDBRANCH  17  22
ENDBRANCH   4   8
BRANCH   3  25
HETATM   25  O8  UNL     1     -19.358  22.251 -19.877  1.00  0.00    -0.390 OA
ATOM     26  H8  UNL     1     -20.064  22.735 -19.467  1.00  0.00     0.210 HD
ENDBRANCH   3  25
BRANCH   5  27
HETATM   27  O9  UNL     1     -18.290  25.907 -17.430  1.00  0.00    -0.369 OA
ATOM     28  H9  UNL     1     -18.956  26.578 -17.334  1.00  0.00     0.212 HD
ENDBRANCH   5  27
BRANCH   5  29
HETATM   29  C13 UNL     1     -20.274  24.676 -17.758  1.00  0.00     0.279 C 
HETATM   30  N10 UNL     1     -21.077  24.636 -16.612  1.00  0.00    -0.059 NA
HETATM   31  O10 UNL     1     -20.988  24.701 -18.834  1.00  0.00    -0.273 OA
ENDBRANCH   5  29
BRANCH   1  32
HETATM   32  N2  UNL     1     -17.863  21.853 -15.603  1.00  0.00    -0.330 N 
HETATM   33  C4  UNL     1     -16.807  21.090 -15.042  1.00  0.00     0.344 C 
HETATM   34  N1  UNL     1     -17.030  20.307 -13.900  1.00  0.00    -0.179 N 
HETATM   35  O7  UNL     1     -15.660  21.129 -15.594  1.00  0.00    -0.245 OA
ATOM     36  H2  UNL     1     -18.788  21.827 -15.173  1.00  0.00     0.165 HD
BRANCH  34  37
HETATM   37  C3  UNL     1     -18.311  20.294 -13.256  1.00  0.00     0.273 C 
BRANCH  37  38
HETATM   38  C2  UNL     1     -18.936  18.988 -13.071  1.00  0.00     0.279 C 
HETATM   39  O2  UNL     1     -19.707  18.596 -14.012  1.00  0.00    -0.263 OA
BRANCH  38  40
HETATM   40  O1  UNL     1     -18.805  18.123 -12.023  1.00  0.00    -0.325 OA
HETATM   41  C1  UNL     1     -18.002  16.962 -12.031  1.00  0.00     0.213 C 
ENDBRANCH  38  40
ENDBRANCH  37  38
ENDBRANCH  34  37
BRANCH  34  42
HETATM   42  O3  UNL     1     -16.041  19.573 -13.379  1.00  0.00    -0.125 OA
BRANCH  42  43
HETATM   43  S1  UNL     1     -15.247  20.221 -12.081  1.00  0.00     0.274 S 
HETATM   44  O4  UNL     1     -15.938  21.477 -11.580  1.00  0.00    -0.571 OA
HETATM   45  O5  UNL     1     -15.279  19.270 -10.897  1.00  0.00    -0.571 OA
HETATM   46  O6  UNL     1     -13.659  20.608 -12.343  1.00  0.00    -0.571 OA
ENDBRANCH  42  43
ENDBRANCH  34  42
ENDBRANCH   1  32
TORSDOF 12
ENDMDL
MODEL 5
REMARK VINA RESULT: -8.337425418      4.114      8.856
REMARK  12 active torsions:
REMARK  status: ('A' for Active; 'I' for Inactive)
REMARK    1  A    between atoms: O1_2  and  C2_3 
REMARK    2  A    between atoms: C2_3  and  C3_5 
REMARK    3  A    between atoms: C3_5  and  N1_6 
REMARK    4  A    between atoms: N1_6  and  O3_7 
REMARK       I    between atoms: N1_6  and  C4_12 
REMARK    5  A    between atoms: O3_7  and  S1_8 
REMARK       I    between atoms: C4_12  and  N2_14 
REMARK    6  A    between atoms: N2_14  and  C5_16 
REMARK    7  A    between atoms: C7_18  and  O8_19 
REMARK    8  A    between atoms: C8_21  and  N3_22 
REMARK    9  A    between atoms: C9_23  and  N4_24 
REMARK   10  A    between atoms: C11_34  and  N8_35 
REMARK   11  A    between atoms: C12_39  and  O9_40 
REMARK   12  A    between atoms: C12_39  and  C13_42 
ROOT
HETATM    1  C5  UNL     1     -17.545  23.392 -17.761  1.00  0.00     0.163 C 
HETATM    2  C6  UNL     1     -19.021  23.357 -17.617  1.00  0.00     0.071 C 
HETATM    3  C7  UNL     1     -19.801  24.003 -18.749  1.00  0.00     0.173 C 
HETATM    4  C8  UNL     1     -18.878  24.879 -19.617  1.00  0.00     0.111 C 
HETATM    5  C12 UNL     1     -17.952  25.704 -18.877  1.00  0.00     0.243 C 
HETATM    6  C14 UNL     1     -17.174  24.785 -17.911  1.00  0.00     0.199 C 
HETATM    7  O11 UNL     1     -16.239  25.274 -17.281  1.00  0.00    -0.291 OA
ENDROOT
BRANCH   4   8
HETATM    8  N3  UNL     1     -19.309  25.050 -20.938  1.00  0.00    -0.052 N 
HETATM    9  C9  UNL     1     -20.255  25.955 -21.321  1.00  0.00     0.713 A 
HETATM   10  N5  UNL     1     -20.461  25.884 -22.653  1.00  0.00    -0.017 N 
HETATM   11  C10 UNL     1     -19.642  24.927 -23.133  1.00  0.00     0.749 A 
ATOM     12  H5  UNL     1     -21.115  26.449 -23.194  1.00  0.00     0.203 HD
HETATM   13  N6  UNL     1     -19.225  24.265 -24.219  1.00  0.00    -0.115 N 
HETATM   14  N9  UNL     1     -18.936  24.420 -22.069  1.00  0.00     0.114 N 
HETATM   15  N7  UNL     1     -18.317  23.398 -23.865  1.00  0.00    -0.116 N 
ATOM     16  H6  UNL     1     -19.563  24.414 -25.170  1.00  0.00     0.206 HD
HETATM   17  C11 UNL     1     -18.115  23.475 -22.514  1.00  0.00     0.728 A 
ATOM     18  H7  UNL     1     -17.831  22.762 -24.498  1.00  0.00     0.206 HD
BRANCH   9  19
HETATM   19  N4  UNL     1     -20.906  26.798 -20.630  1.00  0.00    -0.232 N 
ATOM     20  H42 UNL     1     -21.294  27.626 -21.080  1.00  0.00     0.174 HD
ATOM     21  H41 UNL     1     -21.118  26.802 -19.632  1.00  0.00     0.174 HD
ENDBRANCH   9  19
BRANCH  17  22
HETATM   22  N8  UNL     1     -17.282  22.753 -21.881  1.00  0.00    -0.231 N 
ATOM     23  H82 UNL     1     -16.263  22.802 -21.852  1.00  0.00     0.174 HD
ATOM     24  H81 UNL     1     -17.547  21.972 -21.281  1.00  0.00     0.174 HD
ENDBRANCH  17  22
ENDBRANCH   4   8
BRANCH   3  25
HETATM   25  O8  UNL     1     -20.848  24.627 -18.167  1.00  0.00    -0.390 OA
ATOM     26  H8  UNL     1     -20.475  25.210 -17.517  1.00  0.00     0.210 HD
ENDBRANCH   3  25
BRANCH   5  27
HETATM   27  O9  UNL     1     -16.820  26.044 -19.669  1.00  0.00    -0.369 OA
ATOM     28  H9  UNL     1     -16.610  25.351 -20.284  1.00  0.00     0.212 HD
ENDBRANCH   5  27
BRANCH   5  29
HETATM   29  C13 UNL     1     -18.267  26.749 -17.946  1.00  0.00     0.279 C 
HETATM   30  N10 UNL     1     -18.909  26.721 -16.702  1.00  0.00    -0.059 NA
HETATM   31  O10 UNL     1     -17.915  27.948 -18.269  1.00  0.00    -0.273 OA
ENDBRANCH   5  29
BRANCH   1  32
HETATM   32  N2  UNL     1     -16.987  22.923 -16.478  1.00  0.00    -0.330 N 
HETATM   33  C4  UNL     1     -17.256  21.613 -16.006  1.00  0.00     0.344 C 
HETATM   34  N1  UNL     1     -16.717  21.176 -14.787  1.00  0.00    -0.179 N 
HETATM   35  O7  UNL     1     -17.993  20.845 -16.706  1.00  0.00    -0.245 OA
ATOM     36  H2  UNL     1     -16.402  23.549 -15.924  1.00  0.00     0.165 HD
BRANCH  34  37
HETATM   37  C3  UNL     1     -15.855  22.025 -14.018  1.00  0.00     0.273 C 
BRANCH  37  38
HETATM   38  C2  UNL     1     -14.516  21.516 -13.737  1.00  0.00     0.279 C 
HETATM   39  O2  UNL     1     -13.625  21.761 -14.621  1.00  0.00    -0.263 OA
BRANCH  38  40
HETATM   40  O1  UNL     1     -14.085  20.811 -12.650  1.00  0.00    -0.325 OA
HETATM   41  C1  UNL     1     -14.853  20.561 -11.494  1.00  0.00     0.213 C 
ENDBRANCH  38  40
ENDBRANCH  37  38
ENDBRANCH  34  37
BRANCH  34  42
HETATM   42  O3  UNL     1     -16.982  19.948 -14.330  1.00  0.00    -0.125 OA
BRANCH  42  43
HETATM   43  S1  UNL     1     -18.335  19.787 -13.392  1.00  0.00     0.274 S 
HETATM   44  O4  UNL     1     -19.379  18.918 -14.072  1.00  0.00    -0.571 OA
HETATM   45  O5  UNL     1     -18.014  19.056 -12.100  1.00  0.00    -0.571 OA
HETATM   46  O6  UNL     1     -19.077  21.204 -12.970  1.00  0.00    -0.571 OA
ENDBRANCH  42  43
ENDBRANCH  34  42
ENDBRANCH   1  32
TORSDOF 12
ENDMDL
