MODEL 1
REMARK VINA RESULT: -7.070253795      0.000      0.000
REMARK  12 active torsions:
REMARK  status: ('A' for Active; 'I' for Inactive)
REMARK    1  A    between atoms: N1_1  and  C1_4 
REMARK    2  A    between atoms: C2_7  and  S1_8 
REMARK    3  A    between atoms: S1_8  and  N3_9 
REMARK    4  A    between atoms: N5_19  and  C5_20 
REMARK    5  A    between atoms: C6_22  and  C7_23 
REMARK    6  A    between atoms: C7_23  and  S2_24 
REMARK    7  A    between atoms: S2_24  and  C8_25 
REMARK    8  A    between atoms: C9_27  and  O6_28 
REMARK    9  A    between atoms: C10_30  and  N6_31 
REMARK   10  A    between atoms: C11_35  and  O7_36 
REMARK   11  A    between atoms: C12_38  and  O8_39 
REMARK   12  A    between atoms: C12_38  and  O9_41 
ROOT
HETATM    1  C5  UNL     1       6.935   4.076  22.730  1.00  0.00     0.299 C 
HETATM    2  O4  UNL     1       7.119   5.170  23.531  1.00  0.00    -0.352 OA
HETATM    3  C6  UNL     1       7.285   6.286  22.729  1.00  0.00     0.168 C 
HETATM    4  C11 UNL     1       7.938   5.827  21.455  1.00  0.00     0.214 C 
HETATM    5  C12 UNL     1       7.524   4.380  21.374  1.00  0.00     0.234 C 
ENDROOT
BRANCH   1   6
HETATM    6  N5  UNL     1       7.467   2.847  23.221  1.00  0.00    -0.249 N 
HETATM    7  C4  UNL     1       6.810   1.676  23.157  1.00  0.00     0.331 A 
HETATM    8  N4  UNL     1       7.548   0.689  23.692  1.00  0.00    -0.302 N 
HETATM    9  O3  UNL     1       5.659   1.451  22.677  1.00  0.00    -0.246 OA
HETATM   10  C3  UNL     1       8.709   1.218  24.116  1.00  0.00     0.122 A 
ATOM     11  H4  UNL     1       7.275  -0.291  23.764  1.00  0.00     0.171 HD
HETATM   12  C2  UNL     1       9.838   0.727  24.732  1.00  0.00     0.194 A 
HETATM   13  C13 UNL     1       8.638   2.562  23.813  1.00  0.00     0.159 A 
HETATM   14  N2  UNL     1      10.844   1.578  25.020  1.00  0.00    -0.177 N 
HETATM   15  C1  UNL     1      10.754   2.883  24.717  1.00  0.00     0.678 A 
ATOM     16  H2  UNL     1      11.686   1.225  25.476  1.00  0.00     0.185 HD
HETATM   17  N7  UNL     1       9.653   3.362  24.117  1.00  0.00    -0.174 N 
ATOM     18  H7  UNL     1       9.595   4.355  23.891  1.00  0.00     0.186 HD
BRANCH  12  19
HETATM   19  S1  UNL     1       9.910  -0.969  25.109  1.00  0.00     0.275 S 
HETATM   20  O1  UNL     1      11.058  -1.327  25.982  1.00  0.00    -0.199 OA
HETATM   21  O2  UNL     1       8.655  -1.408  25.819  1.00  0.00    -0.199 OA
BRANCH  19  22
HETATM   22  N3  UNL     1      10.005  -1.908  23.664  1.00  0.00    -0.323 N 
ATOM     23  H32 UNL     1      10.343  -2.870  23.632  1.00  0.00     0.169 HD
ATOM     24  H31 UNL     1       9.677  -1.369  22.863  1.00  0.00     0.169 HD
ENDBRANCH  19  22
ENDBRANCH  12  19
BRANCH  15  25
HETATM   25  N1  UNL     1      11.714   3.696  24.993  1.00  0.00    -0.234 N 
ATOM     26  H12 UNL     1      11.600   4.346  25.771  1.00  0.00     0.174 HD
ATOM     27  H11 UNL     1      12.577   3.695  24.448  1.00  0.00     0.174 HD
ENDBRANCH  15  25
ENDBRANCH   1   6
BRANCH   5  28
HETATM   28  O8  UNL     1       6.578   4.220  20.350  1.00  0.00    -0.360 OA
ATOM     29  H8  UNL     1       6.914   4.516  19.513  1.00  0.00     0.213 HD
ENDBRANCH   5  28
BRANCH   5  30
HETATM   30  O9  UNL     1       8.651   3.628  21.103  1.00  0.00    -0.360 OA
ATOM     31  H9  UNL     1       9.205   3.511  21.866  1.00  0.00     0.213 HD
ENDBRANCH   5  30
BRANCH   3  32
HETATM   32  C7  UNL     1       5.957   6.934  22.514  1.00  0.00     0.111 C 
BRANCH  32  33
HETATM   33  S2  UNL     1       5.704   8.288  23.691  1.00  0.00    -0.132 SA
BRANCH  33  34
HETATM   34  C8  UNL     1       7.197   9.244  23.956  1.00  0.00     0.221 C 
HETATM   35  O5  UNL     1       7.420  10.107  22.885  1.00  0.00    -0.341 OA
HETATM   36  C9  UNL     1       6.660  11.073  23.518  1.00  0.00     0.292 C 
HETATM   37  C10 UNL     1       7.001  10.458  24.837  1.00  0.00     0.276 C 
BRANCH  36  38
HETATM   38  O6  UNL     1       5.293  11.015  23.257  1.00  0.00    -0.369 OA
ATOM     39  H6  UNL     1       4.817  10.358  23.751  1.00  0.00     0.212 HD
ENDBRANCH  36  38
BRANCH  37  40
HETATM   40  N6  UNL     1       8.187  10.948  25.474  1.00  0.00    -0.067 N 
ATOM     41  H63 UNL     1       7.964  11.305  26.403  1.00  0.00     0.275 HD
ATOM     42  H62 UNL     1       8.799  10.170  25.722  1.00  0.00     0.275 HD
ATOM     43  H61 UNL     1       8.707  11.648  24.945  1.00  0.00     0.275 HD
ENDBRANCH  37  40
ENDBRANCH  33  34
ENDBRANCH  32  33
ENDBRANCH   3  32
BRANCH   4  44
HETATM   44  O7  UNL     1       7.558   6.562  20.348  1.00  0.00    -0.387 OA
ATOM     45  H7  UNL     1       8.174   6.503  19.626  1.00  0.00     0.210 HD
ENDBRANCH   4  44
TORSDOF 12
ENDMDL
MODEL 2
REMARK VINA RESULT: -6.835518470      3.140      8.809
REMARK  12 active torsions:
REMARK  status: ('A' for Active; 'I' for Inactive)
REMARK    1  A    between atoms: N1_1  and  C1_4 
REMARK    2  A    between atoms: C2_7  and  S1_8 
REMARK    3  A    between atoms: S1_8  and  N3_9 
REMARK    4  A    between atoms: N5_19  and  C5_20 
REMARK    5  A    between atoms: C6_22  and  C7_23 
REMARK    6  A    between atoms: C7_23  and  S2_24 
REMARK    7  A    between atoms: S2_24  and  C8_25 
REMARK    8  A    between atoms: C9_27  and  O6_28 
REMARK    9  A    between atoms: C10_30  and  N6_31 
REMARK   10  A    between atoms: C11_35  and  O7_36 
REMARK   11  A    between atoms: C12_38  and  O8_39 
REMARK   12  A    between atoms: C12_38  and  O9_41 
ROOT
HETATM    1  C5  UNL     1       7.026   3.820  22.668  1.00  0.00     0.299 C 
HETATM    2  O4  UNL     1       5.879   3.153  23.006  1.00  0.00    -0.352 OA
HETATM    3  C6  UNL     1       5.682   2.123  22.102  1.00  0.00     0.168 C 
HETATM    4  C11 UNL     1       6.261   2.564  20.787  1.00  0.00     0.214 C 
HETATM    5  C12 UNL     1       7.305   3.568  21.206  1.00  0.00     0.234 C 
ENDROOT
BRANCH   1   6
HETATM    6  N5  UNL     1       7.027   5.223  22.923  1.00  0.00    -0.249 N 
HETATM    7  C4  UNL     1       8.014   5.856  23.583  1.00  0.00     0.331 A 
HETATM    8  N4  UNL     1       7.754   7.171  23.676  1.00  0.00    -0.302 N 
HETATM    9  O3  UNL     1       9.069   5.357  24.076  1.00  0.00    -0.246 OA
HETATM   10  C3  UNL     1       6.578   7.408  23.069  1.00  0.00     0.122 A 
ATOM     11  H4  UNL     1       8.346   7.868  24.128  1.00  0.00     0.171 HD
HETATM   12  C2  UNL     1       5.804   8.524  22.843  1.00  0.00     0.194 A 
HETATM   13  C13 UNL     1       6.143   6.183  22.607  1.00  0.00     0.159 A 
HETATM   14  N2  UNL     1       4.641   8.385  22.175  1.00  0.00    -0.177 N 
HETATM   15  C1  UNL     1       4.236   7.182  21.735  1.00  0.00     0.678 A 
ATOM     16  H2  UNL     1       4.059   9.205  22.002  1.00  0.00     0.185 HD
HETATM   17  N7  UNL     1       4.991   6.094  21.955  1.00  0.00    -0.174 N 
ATOM     18  H7  UNL     1       4.673   5.186  21.615  1.00  0.00     0.186 HD
BRANCH  12  19
HETATM   19  S1  UNL     1       6.366  10.061  23.434  1.00  0.00     0.275 S 
HETATM   20  O1  UNL     1       5.412  11.171  23.178  1.00  0.00    -0.199 OA
HETATM   21  O2  UNL     1       6.596  10.004  24.923  1.00  0.00    -0.199 OA
BRANCH  19  22
HETATM   22  N3  UNL     1       7.885  10.466  22.722  1.00  0.00    -0.323 N 
ATOM     23  H32 UNL     1       8.643   9.798  22.583  1.00  0.00     0.169 HD
ATOM     24  H31 UNL     1       7.909  11.452  22.466  1.00  0.00     0.169 HD
ENDBRANCH  19  22
ENDBRANCH  12  19
BRANCH  15  25
HETATM   25  N1  UNL     1       3.124   7.049  21.097  1.00  0.00    -0.234 N 
ATOM     26  H12 UNL     1       3.142   7.025  20.078  1.00  0.00     0.174 HD
ATOM     27  H11 UNL     1       2.239   6.967  21.598  1.00  0.00     0.174 HD
ENDBRANCH  15  25
ENDBRANCH   1   6
BRANCH   5  28
HETATM   28  O8  UNL     1       8.583   3.025  21.008  1.00  0.00    -0.360 OA
ATOM     29  H8  UNL     1       8.539   2.120  20.723  1.00  0.00     0.213 HD
ENDBRANCH   5  28
BRANCH   5  30
HETATM   30  O9  UNL     1       7.142   4.700  20.431  1.00  0.00    -0.360 OA
ATOM     31  H9  UNL     1       7.950   4.978  20.015  1.00  0.00     0.213 HD
ENDBRANCH   5  30
BRANCH   3  32
HETATM   32  C7  UNL     1       6.310   0.877  22.638  1.00  0.00     0.111 C 
BRANCH  32  33
HETATM   33  S2  UNL     1       5.084  -0.141  23.501  1.00  0.00    -0.132 SA
BRANCH  33  34
HETATM   34  C8  UNL     1       5.437  -1.893  23.358  1.00  0.00     0.221 C 
HETATM   35  O5  UNL     1       6.522  -2.239  24.161  1.00  0.00    -0.341 OA
HETATM   36  C9  UNL     1       5.656  -2.473  25.214  1.00  0.00     0.292 C 
HETATM   37  C10 UNL     1       4.567  -2.768  24.234  1.00  0.00     0.276 C 
BRANCH  36  38
HETATM   38  O6  UNL     1       5.362  -1.359  25.996  1.00  0.00    -0.369 OA
ATOM     39  H6  UNL     1       4.779  -1.523  26.727  1.00  0.00     0.212 HD
ENDBRANCH  36  38
BRANCH  37  40
HETATM   40  N6  UNL     1       4.451  -4.131  23.811  1.00  0.00    -0.067 N 
ATOM     41  H63 UNL     1       5.347  -4.607  23.911  1.00  0.00     0.275 HD
ATOM     42  H62 UNL     1       3.891  -4.660  24.481  1.00  0.00     0.275 HD
ATOM     43  H61 UNL     1       4.086  -4.265  22.868  1.00  0.00     0.275 HD
ENDBRANCH  37  40
ENDBRANCH  33  34
ENDBRANCH  32  33
ENDBRANCH   3  32
BRANCH   4  44
HETATM   44  O7  UNL     1       6.779   1.525  20.038  1.00  0.00    -0.387 OA
ATOM     45  H7  UNL     1       7.729   1.522  20.003  1.00  0.00     0.210 HD
ENDBRANCH   4  44
TORSDOF 12
ENDMDL
MODEL 3
REMARK VINA RESULT: -6.683745920      3.274      4.373
REMARK  12 active torsions:
REMARK  status: ('A' for Active; 'I' for Inactive)
REMARK    1  A    between atoms: N1_1  and  C1_4 
REMARK    2  A    between atoms: C2_7  and  S1_8 
REMARK    3  A    between atoms: S1_8  and  N3_9 
REMARK    4  A    between atoms: N5_19  and  C5_20 
REMARK    5  A    between atoms: C6_22  and  C7_23 
REMARK    6  A    between atoms: C7_23  and  S2_24 
REMARK    7  A    between atoms: S2_24  and  C8_25 
REMARK    8  A    between atoms: C9_27  and  O6_28 
REMARK    9  A    between atoms: C10_30  and  N6_31 
REMARK   10  A    between atoms: C11_35  and  O7_36 
REMARK   11  A    between atoms: C12_38  and  O8_39 
REMARK   12  A    between atoms: C12_38  and  O9_41 
ROOT
HETATM    1  C5  UNL     1       3.969   6.050  23.206  1.00  0.00     0.299 C 
HETATM    2  O4  UNL     1       4.790   6.933  22.559  1.00  0.00    -0.352 OA
HETATM    3  C6  UNL     1       4.011   7.924  21.987  1.00  0.00     0.168 C 
HETATM    4  C11 UNL     1       2.688   7.304  21.631  1.00  0.00     0.214 C 
HETATM    5  C12 UNL     1       2.591   6.155  22.602  1.00  0.00     0.234 C 
ENDROOT
BRANCH   1   6
HETATM    6  N5  UNL     1       4.394   4.688  23.201  1.00  0.00    -0.249 N 
HETATM    7  C4  UNL     1       3.884   3.748  24.017  1.00  0.00     0.331 A 
HETATM    8  N4  UNL     1       4.467   2.559  23.793  1.00  0.00    -0.302 N 
HETATM    9  O3  UNL     1       2.982   3.884  24.897  1.00  0.00    -0.246 OA
HETATM   10  C3  UNL     1       5.375   2.717  22.815  1.00  0.00     0.122 A 
ATOM     11  H4  UNL     1       4.257   1.688  24.280  1.00  0.00     0.171 HD
HETATM   12  C2  UNL     1       6.264   1.890  22.166  1.00  0.00     0.194 A 
HETATM   13  C13 UNL     1       5.313   4.049  22.460  1.00  0.00     0.159 A 
HETATM   14  N2  UNL     1       7.050   2.409  21.200  1.00  0.00    -0.177 N 
HETATM   15  C1  UNL     1       6.973   3.709  20.871  1.00  0.00     0.678 A 
ATOM     16  H2  UNL     1       7.712   1.805  20.712  1.00  0.00     0.185 HD
HETATM   17  N7  UNL     1       6.107   4.515  21.504  1.00  0.00    -0.174 N 
ATOM     18  H7  UNL     1       6.057   5.501  21.245  1.00  0.00     0.186 HD
BRANCH  12  19
HETATM   19  S1  UNL     1       6.331   0.214  22.626  1.00  0.00     0.275 S 
HETATM   20  O1  UNL     1       5.064  -0.280  23.225  1.00  0.00    -0.199 OA
HETATM   21  O2  UNL     1       6.627  -0.653  21.428  1.00  0.00    -0.199 OA
BRANCH  19  22
HETATM   22  N3  UNL     1       7.612  -0.056  23.750  1.00  0.00    -0.323 N 
ATOM     23  H32 UNL     1       7.477  -0.443  24.684  1.00  0.00     0.169 HD
ATOM     24  H31 UNL     1       8.507   0.222  23.347  1.00  0.00     0.169 HD
ENDBRANCH  19  22
ENDBRANCH  12  19
BRANCH  15  25
HETATM   25  N1  UNL     1       7.724   4.205  19.949  1.00  0.00    -0.234 N 
ATOM     26  H12 UNL     1       7.911   3.650  19.114  1.00  0.00     0.174 HD
ATOM     27  H11 UNL     1       8.128   5.137  20.046  1.00  0.00     0.174 HD
ENDBRANCH  15  25
ENDBRANCH   1   6
BRANCH   5  28
HETATM   28  O8  UNL     1       1.619   6.444  23.572  1.00  0.00    -0.360 OA
ATOM     29  H8  UNL     1       0.908   5.815  23.554  1.00  0.00     0.213 HD
ENDBRANCH   5  28
BRANCH   5  30
HETATM   30  O9  UNL     1       2.233   5.026  21.891  1.00  0.00    -0.360 OA
ATOM     31  H9  UNL     1       2.341   4.228  22.393  1.00  0.00     0.213 HD
ENDBRANCH   5  30
BRANCH   3  32
HETATM   32  C7  UNL     1       3.892   9.065  22.943  1.00  0.00     0.111 C 
BRANCH  32  33
HETATM   33  S2  UNL     1       5.439  10.007  23.016  1.00  0.00    -0.132 SA
BRANCH  33  34
HETATM   34  C8  UNL     1       6.277   9.813  24.589  1.00  0.00     0.221 C 
HETATM   35  O5  UNL     1       6.353   8.467  24.939  1.00  0.00    -0.341 OA
HETATM   36  C9  UNL     1       7.552   8.367  24.259  1.00  0.00     0.292 C 
HETATM   37  C10 UNL     1       7.787   9.825  24.485  1.00  0.00     0.276 C 
BRANCH  36  38
HETATM   38  O6  UNL     1       7.440   8.065  22.904  1.00  0.00    -0.369 OA
ATOM     39  H6  UNL     1       7.911   8.648  22.321  1.00  0.00     0.212 HD
ENDBRANCH  36  38
BRANCH  37  40
HETATM   40  N6  UNL     1       8.479  10.173  25.691  1.00  0.00    -0.067 N 
ATOM     41  H63 UNL     1       7.810  10.429  26.417  1.00  0.00     0.275 HD
ATOM     42  H62 UNL     1       8.891   9.340  26.111  1.00  0.00     0.275 HD
ATOM     43  H61 UNL     1       9.185  10.902  25.592  1.00  0.00     0.275 HD
ENDBRANCH  37  40
ENDBRANCH  33  34
ENDBRANCH  32  33
ENDBRANCH   3  32
BRANCH   4  44
HETATM   44  O7  UNL     1       1.627   8.184  21.724  1.00  0.00    -0.387 OA
ATOM     45  H7  UNL     1       1.804   8.931  22.284  1.00  0.00     0.210 HD
ENDBRANCH   4  44
TORSDOF 12
ENDMDL
MODEL 4
REMARK VINA RESULT: -6.674917822      3.021      3.733
REMARK  12 active torsions:
REMARK  status: ('A' for Active; 'I' for Inactive)
REMARK    1  A    between atoms: N1_1  and  C1_4 
REMARK    2  A    between atoms: C2_7  and  S1_8 
REMARK    3  A    between atoms: S1_8  and  N3_9 
REMARK    4  A    between atoms: N5_19  and  C5_20 
REMARK    5  A    between atoms: C6_22  and  C7_23 
REMARK    6  A    between atoms: C7_23  and  S2_24 
REMARK    7  A    between atoms: S2_24  and  C8_25 
REMARK    8  A    between atoms: C9_27  and  O6_28 
REMARK    9  A    between atoms: C10_30  and  N6_31 
REMARK   10  A    between atoms: C11_35  and  O7_36 
REMARK   11  A    between atoms: C12_38  and  O8_39 
REMARK   12  A    between atoms: C12_38  and  O9_41 
ROOT
HETATM    1  C5  UNL     1       5.699   2.671  22.341  1.00  0.00     0.299 C 
HETATM    2  O4  UNL     1       6.580   3.360  23.130  1.00  0.00    -0.352 OA
HETATM    3  C6  UNL     1       7.393   4.133  22.318  1.00  0.00     0.168 C 
HETATM    4  C11 UNL     1       7.540   3.406  21.011  1.00  0.00     0.214 C 
HETATM    5  C12 UNL     1       6.286   2.571  20.954  1.00  0.00     0.234 C 
ENDROOT
BRANCH   1   6
HETATM    6  N5  UNL     1       5.333   1.373  22.803  1.00  0.00    -0.249 N 
HETATM    7  C4  UNL     1       4.063   0.932  22.847  1.00  0.00     0.331 A 
HETATM    8  N4  UNL     1       4.014  -0.324  23.322  1.00  0.00    -0.302 N 
HETATM    9  O3  UNL     1       3.009   1.548  22.506  1.00  0.00    -0.246 OA
HETATM   10  C3  UNL     1       5.270  -0.716  23.597  1.00  0.00     0.122 A 
ATOM     11  H4  UNL     1       3.170  -0.882  23.452  1.00  0.00     0.171 HD
HETATM   12  C2  UNL     1       5.847  -1.862  24.095  1.00  0.00     0.194 A 
HETATM   13  C13 UNL     1       6.075   0.355  23.266  1.00  0.00     0.159 A 
HETATM   14  N2  UNL     1       7.187  -1.904  24.244  1.00  0.00    -0.177 N 
HETATM   15  C1  UNL     1       7.952  -0.850  23.916  1.00  0.00     0.678 A 
ATOM     16  H2  UNL     1       7.626  -2.748  24.611  1.00  0.00     0.185 HD
HETATM   17  N7  UNL     1       7.389   0.268  23.431  1.00  0.00    -0.174 N 
ATOM     18  H7  UNL     1       7.980   1.062  23.185  1.00  0.00     0.186 HD
BRANCH  12  19
HETATM   19  S1  UNL     1       4.818  -3.202  24.508  1.00  0.00     0.275 S 
HETATM   20  O1  UNL     1       3.771  -2.851  25.503  1.00  0.00    -0.199 OA
HETATM   21  O2  UNL     1       4.112  -3.725  23.283  1.00  0.00    -0.199 OA
BRANCH  19  22
HETATM   22  N3  UNL     1       5.750  -4.514  25.130  1.00  0.00    -0.323 N 
ATOM     23  H32 UNL     1       6.748  -4.458  25.330  1.00  0.00     0.169 HD
ATOM     24  H31 UNL     1       5.164  -5.338  25.265  1.00  0.00     0.169 HD
ENDBRANCH  19  22
ENDBRANCH  12  19
BRANCH  15  25
HETATM   25  N1  UNL     1       9.232  -0.889  24.059  1.00  0.00    -0.234 N 
ATOM     26  H12 UNL     1       9.685  -0.178  24.633  1.00  0.00     0.174 HD
ATOM     27  H11 UNL     1       9.789  -1.616  23.609  1.00  0.00     0.174 HD
ENDBRANCH  15  25
ENDBRANCH   1   6
BRANCH   5  28
HETATM   28  O8  UNL     1       5.418   3.095  19.984  1.00  0.00    -0.360 OA
ATOM     29  H8  UNL     1       5.862   3.236  19.156  1.00  0.00     0.213 HD
ENDBRANCH   5  28
BRANCH   5  30
HETATM   30  O9  UNL     1       6.649   1.280  20.622  1.00  0.00    -0.360 OA
ATOM     31  H9  UNL     1       6.287   0.634  21.217  1.00  0.00     0.213 HD
ENDBRANCH   5  30
BRANCH   3  32
HETATM   32  C7  UNL     1       6.789   5.492  22.176  1.00  0.00     0.111 C 
BRANCH  32  33
HETATM   33  S2  UNL     1       7.749   6.721  23.101  1.00  0.00    -0.132 SA
BRANCH  33  34
HETATM   34  C8  UNL     1       6.767   8.154  23.543  1.00  0.00     0.221 C 
HETATM   35  O5  UNL     1       7.469   9.327  23.279  1.00  0.00    -0.341 OA
HETATM   36  C9  UNL     1       6.952   9.338  21.997  1.00  0.00     0.292 C 
HETATM   37  C10 UNL     1       5.769   8.565  22.483  1.00  0.00     0.276 C 
BRANCH  36  38
HETATM   38  O6  UNL     1       7.689   8.620  21.057  1.00  0.00    -0.369 OA
ATOM     39  H6  UNL     1       7.171   8.145  20.418  1.00  0.00     0.212 HD
ENDBRANCH  36  38
BRANCH  37  40
HETATM   40  N6  UNL     1       4.660   9.340  22.955  1.00  0.00    -0.067 N 
ATOM     41  H63 UNL     1       4.128   9.706  22.167  1.00  0.00     0.275 HD
ATOM     42  H62 UNL     1       3.960   8.729  23.377  1.00  0.00     0.275 HD
ATOM     43  H61 UNL     1       4.900  10.094  23.598  1.00  0.00     0.275 HD
ENDBRANCH  37  40
ENDBRANCH  33  34
ENDBRANCH  32  33
ENDBRANCH   3  32
BRANCH   4  44
HETATM   44  O7  UNL     1       7.678   4.251  19.926  1.00  0.00    -0.387 OA
ATOM     45  H7  UNL     1       7.724   3.793  19.094  1.00  0.00     0.210 HD
ENDBRANCH   4  44
TORSDOF 12
ENDMDL
MODEL 5
REMARK VINA RESULT: -6.663456497      3.551      8.319
REMARK  12 active torsions:
REMARK  status: ('A' for Active; 'I' for Inactive)
REMARK    1  A    between atoms: N1_1  and  C1_4 
REMARK    2  A    between atoms: C2_7  and  S1_8 
REMARK    3  A    between atoms: S1_8  and  N3_9 
REMARK    4  A    between atoms: N5_19  and  C5_20 
REMARK    5  A    between atoms: C6_22  and  C7_23 
REMARK    6  A    between atoms: C7_23  and  S2_24 
REMARK    7  A    between atoms: S2_24  and  C8_25 
REMARK    8  A    between atoms: C9_27  and  O6_28 
REMARK    9  A    between atoms: C10_30  and  N6_31 
REMARK   10  A    between atoms: C11_35  and  O7_36 
REMARK   11  A    between atoms: C12_38  and  O8_39 
REMARK   12  A    between atoms: C12_38  and  O9_41 
ROOT
HETATM    1  C5  UNL     1       6.879   3.859  22.722  1.00  0.00     0.299 C 
HETATM    2  O4  UNL     1       5.688   3.236  22.980  1.00  0.00    -0.352 OA
HETATM    3  C6  UNL     1       5.525   2.199  22.077  1.00  0.00     0.168 C 
HETATM    4  C11 UNL     1       6.216   2.601  20.804  1.00  0.00     0.214 C 
HETATM    5  C12 UNL     1       7.259   3.576  21.289  1.00  0.00     0.234 C 
ENDROOT
BRANCH   1   6
HETATM    6  N5  UNL     1       6.909   5.265  22.958  1.00  0.00    -0.249 N 
HETATM    7  C4  UNL     1       7.897   5.884  23.629  1.00  0.00     0.331 A 
HETATM    8  N4  UNL     1       7.667   7.205  23.700  1.00  0.00    -0.302 N 
HETATM    9  O3  UNL     1       8.931   5.367  24.149  1.00  0.00    -0.246 OA
HETATM   10  C3  UNL     1       6.509   7.462  23.067  1.00  0.00     0.122 A 
ATOM     11  H4  UNL     1       8.267   7.894  24.155  1.00  0.00     0.171 HD
HETATM   12  C2  UNL     1       5.766   8.593  22.812  1.00  0.00     0.194 A 
HETATM   13  C13 UNL     1       6.054   6.241  22.613  1.00  0.00     0.159 A 
HETATM   14  N2  UNL     1       4.613   8.472  22.123  1.00  0.00    -0.177 N 
HETATM   15  C1  UNL     1       4.189   7.273  21.690  1.00  0.00     0.678 A 
ATOM     16  H2  UNL     1       4.055   9.303  21.927  1.00  0.00     0.185 HD
HETATM   17  N7  UNL     1       4.913   6.171  21.939  1.00  0.00    -0.174 N 
ATOM     18  H7  UNL     1       4.580   5.266  21.606  1.00  0.00     0.186 HD
BRANCH  12  19
HETATM   19  S1  UNL     1       6.354  10.124  23.393  1.00  0.00     0.275 S 
HETATM   20  O1  UNL     1       5.452  11.259  23.066  1.00  0.00    -0.199 OA
HETATM   21  O2  UNL     1       6.511  10.096  24.892  1.00  0.00    -0.199 OA
BRANCH  19  22
HETATM   22  N3  UNL     1       7.917  10.459  22.746  1.00  0.00    -0.323 N 
ATOM     23  H32 UNL     1       8.692  10.833  23.295  1.00  0.00     0.169 HD
ATOM     24  H31 UNL     1       7.952  10.231  21.753  1.00  0.00     0.169 HD
ENDBRANCH  19  22
ENDBRANCH  12  19
BRANCH  15  25
HETATM   25  N1  UNL     1       3.086   7.158  21.033  1.00  0.00    -0.234 N 
ATOM     26  H12 UNL     1       2.757   7.950  20.482  1.00  0.00     0.174 HD
ATOM     27  H11 UNL     1       2.548   6.291  21.059  1.00  0.00     0.174 HD
ENDBRANCH  15  25
ENDBRANCH   1   6
BRANCH   5  28
HETATM   28  O8  UNL     1       8.529   2.988  21.195  1.00  0.00    -0.360 OA
ATOM     29  H8  UNL     1       9.179   3.604  20.879  1.00  0.00     0.213 HD
ENDBRANCH   5  28
BRANCH   5  30
HETATM   30  O9  UNL     1       7.194   4.701  20.489  1.00  0.00    -0.360 OA
ATOM     31  H9  UNL     1       6.397   5.200  20.623  1.00  0.00     0.213 HD
ENDBRANCH   5  30
BRANCH   3  32
HETATM   32  C7  UNL     1       6.068   0.942  22.674  1.00  0.00     0.111 C 
BRANCH  32  33
HETATM   33  S2  UNL     1       4.748  -0.015  23.469  1.00  0.00    -0.132 SA
BRANCH  33  34
HETATM   34  C8  UNL     1       3.269   0.962  23.734  1.00  0.00     0.221 C 
HETATM   35  O5  UNL     1       2.347   0.738  22.715  1.00  0.00    -0.341 OA
HETATM   36  C9  UNL     1       1.814  -0.312  23.441  1.00  0.00     0.292 C 
HETATM   37  C10 UNL     1       2.287   0.338  24.701  1.00  0.00     0.276 C 
BRANCH  36  38
HETATM   38  O6  UNL     1       2.427  -1.545  23.232  1.00  0.00    -0.369 OA
ATOM     39  H6  UNL     1       1.863  -2.300  23.352  1.00  0.00     0.212 HD
ENDBRANCH  36  38
BRANCH  37  40
HETATM   40  N6  UNL     1       1.374   1.252  25.320  1.00  0.00    -0.067 N 
ATOM     41  H63 UNL     1       1.732   2.205  25.250  1.00  0.00     0.275 HD
ATOM     42  H62 UNL     1       0.527   1.337  24.758  1.00  0.00     0.275 HD
ATOM     43  H61 UNL     1       1.133   1.038  26.287  1.00  0.00     0.275 HD
ENDBRANCH  37  40
ENDBRANCH  33  34
ENDBRANCH  32  33
ENDBRANCH   3  32
BRANCH   4  44
HETATM   44  O7  UNL     1       6.753   1.534  20.110  1.00  0.00    -0.387 OA
ATOM     45  H7  UNL     1       6.345   0.702  20.322  1.00  0.00     0.210 HD
ENDBRANCH   4  44
TORSDOF 12
ENDMDL
