MODEL 1
REMARK VINA RESULT: -7.654094584      0.000      0.000
REMARK  12 active torsions:
REMARK  status: ('A' for Active; 'I' for Inactive)
REMARK    1  A    between atoms: N2_9  and  C7_10 
REMARK    2  A    between atoms: C7_10  and  O2_11 
REMARK    3  A    between atoms: O2_11  and  C8_12 
REMARK    4  A    between atoms: C8_12  and  C9_14 
REMARK    5  A    between atoms: C9_14  and  O4_15 
REMARK    6  A    between atoms: C9_14  and  C10_17 
REMARK    7  A    between atoms: C10_17  and  O5_18 
REMARK    8  A    between atoms: N3_20  and  C11_21 
REMARK    9  A    between atoms: N5_25  and  N6_27 
REMARK   10  A    between atoms: C14_32  and  N9_33 
REMARK   11  A    between atoms: C15_37  and  O6_38 
REMARK   12  A    between atoms: C16_40  and  O7_41 
ROOT
HETATM    1  C1  UNL     1       9.564   5.287  25.337  1.00  0.00     0.161 C 
HETATM    2  N1  UNL     1       8.610   6.351  25.127  1.00  0.00    -0.300 N 
HETATM    3  C2  UNL     1       8.944   7.612  25.403  1.00  0.00     0.276 A 
HETATM    4  O1  UNL     1      10.098   7.849  25.846  1.00  0.00    -0.265 OA
HETATM    5  C3  UNL     1       8.062   8.675  25.220  1.00  0.00     0.108 A 
HETATM    6  C4  UNL     1       6.800   8.393  24.733  1.00  0.00     0.032 A 
HETATM    7  C5  UNL     1       6.444   7.084  24.443  1.00  0.00     0.110 A 
HETATM    8  C6  UNL     1       7.355   6.111  24.648  1.00  0.00     0.159 A 
HETATM    9  N2  UNL     1       6.454   5.230  24.216  1.00  0.00    -0.245 N 
HETATM   10  N3  UNL     1       5.579   6.163  24.019  1.00  0.00    -0.256 N 
HETATM   11  C17 UNL     1       5.829   9.491  24.521  1.00  0.00     0.277 C 
HETATM   12  N10 UNL     1       6.613  10.676  24.174  1.00  0.00    -0.056 N 
ATOM     13 1H10 UNL     1       6.016  11.450  23.882  1.00  0.00     0.279 HD
ATOM     14 2H10 UNL     1       7.132  10.545  23.306  1.00  0.00     0.279 HD
HETATM   15  C18 UNL     1       7.493  11.058  25.281  1.00  0.00     0.355 C 
HETATM   16  N11 UNL     1       8.447   9.999  25.521  1.00  0.00    -0.362 N 
ATOM     17  H11 UNL     1       9.372  10.203  25.898  1.00  0.00     0.161 HD
ENDROOT
BRANCH  10  18
HETATM   18  C11 UNL     1       4.216   6.263  23.542  1.00  0.00     0.239 C 
HETATM   19  N4  UNL     1       3.498   5.003  23.657  1.00  0.00    -0.352 N 
HETATM   20  C12 UNL     1       2.279   4.950  22.876  1.00  0.00     0.127 C 
ATOM     21  H4  UNL     1       3.822   4.229  24.235  1.00  0.00     0.163 HD
HETATM   22  N5  UNL     1       1.749   3.823  22.557  1.00  0.00    -0.285 N 
HETATM   23  C14 UNL     1       1.742   6.282  22.504  1.00  0.00     0.282 C 
ATOM     24  H5  UNL     1       2.213   2.971  22.872  1.00  0.00     0.188 HD
HETATM   25  C15 UNL     1       2.769   7.140  21.786  1.00  0.00     0.188 C 
HETATM   26  C16 UNL     1       4.158   6.627  22.074  1.00  0.00     0.193 C 
BRANCH  22  27
HETATM   27  N6  UNL     1       0.602   3.695  21.823  1.00  0.00    -0.275 N 
HETATM   28  C13 UNL     1       0.467   2.996  20.754  1.00  0.00     0.215 C 
HETATM   29  N7  UNL     1       1.504   2.235  20.156  1.00  0.00    -0.065 NA
HETATM   30  N8  UNL     1      -0.811   2.986  20.127  1.00  0.00    -0.065 NA
ATOM     31  H6  UNL     1      -0.220   4.199  22.154  1.00  0.00     0.189 HD
ENDBRANCH  22  27
BRANCH  23  32
HETATM   32  N9  UNL     1       0.485   6.250  21.828  1.00  0.00    -0.066 N 
ATOM     33  H93 UNL     1       0.596   6.551  20.859  1.00  0.00     0.275 HD
ATOM     34  H92 UNL     1       0.187   5.286  21.679  1.00  0.00     0.275 HD
ATOM     35  H91 UNL     1      -0.257   6.784  22.281  1.00  0.00     0.275 HD
ENDBRANCH  23  32
BRANCH  25  36
HETATM   36  O6  UNL     1       2.507   7.180  20.412  1.00  0.00    -0.390 OA
ATOM     37  H6  UNL     1       2.990   7.886  19.998  1.00  0.00     0.210 HD
ENDBRANCH  25  36
BRANCH  26  38
HETATM   38  O7  UNL     1       5.153   7.475  21.684  1.00  0.00    -0.389 OA
ATOM     39  H7  UNL     1       5.462   7.316  20.799  1.00  0.00     0.210 HD
ENDBRANCH  26  38
ENDBRANCH  10  18
BRANCH   9  40
HETATM   40  C7  UNL     1       6.493   3.784  24.050  1.00  0.00     0.329 C 
BRANCH  40  41
HETATM   41  O2  UNL     1       5.957   3.460  22.769  1.00  0.00    -0.298 OA
BRANCH  41  42
HETATM   42  C8  UNL     1       6.733   3.373  21.639  1.00  0.00     0.291 C 
HETATM   43  O3  UNL     1       6.182   2.924  20.592  1.00  0.00    -0.262 OA
BRANCH  42  44
HETATM   44  C9  UNL     1       8.149   3.757  21.541  1.00  0.00     0.241 C 
BRANCH  44  45
HETATM   45  O4  UNL     1       8.870   2.991  20.657  1.00  0.00    -0.383 OA
ATOM     46  H4  UNL     1       9.809   3.024  20.799  1.00  0.00     0.210 HD
ENDBRANCH  44  45
BRANCH  44  47
HETATM   47  C10 UNL     1       8.202   5.243  21.162  1.00  0.00     0.206 C 
BRANCH  47  48
HETATM   48  O5  UNL     1       6.945   5.627  20.697  1.00  0.00    -0.398 OA
ATOM     49  H5  UNL     1       6.678   5.024  20.014  1.00  0.00     0.209 HD
ENDBRANCH  47  48
ENDBRANCH  44  47
ENDBRANCH  42  44
ENDBRANCH  41  42
ENDBRANCH  40  41
ENDBRANCH   9  40
TORSDOF 12
ENDMDL
MODEL 2
REMARK VINA RESULT: -7.594782525      2.604      6.371
REMARK  12 active torsions:
REMARK  status: ('A' for Active; 'I' for Inactive)
REMARK    1  A    between atoms: N2_9  and  C7_10 
REMARK    2  A    between atoms: C7_10  and  O2_11 
REMARK    3  A    between atoms: O2_11  and  C8_12 
REMARK    4  A    between atoms: C8_12  and  C9_14 
REMARK    5  A    between atoms: C9_14  and  O4_15 
REMARK    6  A    between atoms: C9_14  and  C10_17 
REMARK    7  A    between atoms: C10_17  and  O5_18 
REMARK    8  A    between atoms: N3_20  and  C11_21 
REMARK    9  A    between atoms: N5_25  and  N6_27 
REMARK   10  A    between atoms: C14_32  and  N9_33 
REMARK   11  A    between atoms: C15_37  and  O6_38 
REMARK   12  A    between atoms: C16_40  and  O7_41 
ROOT
HETATM    1  C1  UNL     1       1.790   8.881  23.329  1.00  0.00     0.161 C 
HETATM    2  N1  UNL     1       3.233   8.835  23.374  1.00  0.00    -0.300 N 
HETATM    3  C2  UNL     1       3.936   9.966  23.446  1.00  0.00     0.276 A 
HETATM    4  O1  UNL     1       3.317  11.062  23.471  1.00  0.00    -0.265 OA
HETATM    5  C3  UNL     1       5.328   9.979  23.491  1.00  0.00     0.108 A 
HETATM    6  C4  UNL     1       5.988   8.765  23.461  1.00  0.00     0.032 A 
HETATM    7  C5  UNL     1       5.266   7.584  23.387  1.00  0.00     0.110 A 
HETATM    8  C6  UNL     1       3.920   7.656  23.347  1.00  0.00     0.159 A 
HETATM    9  N2  UNL     1       3.889   6.325  23.290  1.00  0.00    -0.245 N 
HETATM   10  N3  UNL     1       5.180   6.255  23.328  1.00  0.00    -0.256 N 
HETATM   11  C17 UNL     1       7.468   8.730  23.508  1.00  0.00     0.277 C 
HETATM   12  N10 UNL     1       7.886   9.889  24.296  1.00  0.00    -0.056 N 
ATOM     13 1H10 UNL     1       8.887   9.870  24.491  1.00  0.00     0.279 HD
ATOM     14 2H10 UNL     1       7.541   9.838  25.254  1.00  0.00     0.279 HD
HETATM   15  C18 UNL     1       7.485  11.135  23.639  1.00  0.00     0.355 C 
HETATM   16  N11 UNL     1       6.042  11.195  23.566  1.00  0.00    -0.362 N 
ATOM     17  H11 UNL     1       5.553  12.090  23.569  1.00  0.00     0.161 HD
ENDROOT
BRANCH  10  18
HETATM   18  C11 UNL     1       6.192   5.220  23.318  1.00  0.00     0.239 C 
HETATM   19  N4  UNL     1       7.178   5.404  24.371  1.00  0.00    -0.352 N 
HETATM   20  C12 UNL     1       8.387   4.628  24.183  1.00  0.00     0.127 C 
ATOM     21  H4  UNL     1       7.033   6.023  25.168  1.00  0.00     0.163 HD
HETATM   22  N5  UNL     1       9.479   4.954  24.778  1.00  0.00    -0.285 N 
HETATM   23  C14 UNL     1       8.225   3.470  23.270  1.00  0.00     0.282 C 
ATOM     24  H5  UNL     1       9.467   5.775  25.384  1.00  0.00     0.188 HD
HETATM   25  C15 UNL     1       7.666   3.874  21.918  1.00  0.00     0.188 C 
HETATM   26  C16 UNL     1       6.978   5.212  22.025  1.00  0.00     0.193 C 
BRANCH  22  27
HETATM   27  N6  UNL     1      10.657   4.270  24.649  1.00  0.00    -0.275 N 
HETATM   28  C13 UNL     1      11.689   4.401  25.402  1.00  0.00     0.215 C 
HETATM   29  N7  UNL     1      11.772   5.289  26.504  1.00  0.00    -0.065 NA
HETATM   30  N8  UNL     1      12.828   3.598  25.110  1.00  0.00    -0.065 NA
ATOM     31  H6  UNL     1      10.722   3.596  23.887  1.00  0.00     0.189 HD
ENDBRANCH  22  27
BRANCH  23  32
HETATM   32  N9  UNL     1       9.376   2.632  23.160  1.00  0.00    -0.066 N 
ATOM     33  H93 UNL     1      10.120   3.116  22.656  1.00  0.00     0.275 HD
ATOM     34  H92 UNL     1       9.822   2.522  24.070  1.00  0.00     0.275 HD
ATOM     35  H91 UNL     1       9.200   1.719  22.739  1.00  0.00     0.275 HD
ENDBRANCH  23  32
BRANCH  25  36
HETATM   36  O6  UNL     1       8.676   3.888  20.948  1.00  0.00    -0.390 OA
ATOM     37  H6  UNL     1       8.546   3.189  20.319  1.00  0.00     0.210 HD
ENDBRANCH  25  36
BRANCH  26  38
HETATM   38  O7  UNL     1       6.231   5.540  20.931  1.00  0.00    -0.389 OA
ATOM     39  H7  UNL     1       6.695   6.082  20.303  1.00  0.00     0.210 HD
ENDBRANCH  26  38
ENDBRANCH  10  18
BRANCH   9  40
HETATM   40  C7  UNL     1       2.793   5.370  23.214  1.00  0.00     0.329 C 
BRANCH  40  41
HETATM   41  O2  UNL     1       2.543   5.075  21.841  1.00  0.00    -0.298 OA
BRANCH  41  42
HETATM   42  C8  UNL     1       2.252   3.810  21.393  1.00  0.00     0.291 C 
HETATM   43  O3  UNL     1       1.488   3.714  20.389  1.00  0.00    -0.262 OA
BRANCH  42  44
HETATM   44  C9  UNL     1       2.752   2.558  21.979  1.00  0.00     0.241 C 
BRANCH  44  45
HETATM   45  O4  UNL     1       1.980   1.461  21.682  1.00  0.00    -0.383 OA
ATOM     46  H4  UNL     1       1.279   1.306  22.304  1.00  0.00     0.210 HD
ENDBRANCH  44  45
BRANCH  44  47
HETATM   47  C10 UNL     1       4.198   2.367  21.504  1.00  0.00     0.206 C 
BRANCH  47  48
HETATM   48  O5  UNL     1       4.435   3.242  20.444  1.00  0.00    -0.398 OA
ATOM     49  H5  UNL     1       3.714   3.858  20.393  1.00  0.00     0.209 HD
ENDBRANCH  47  48
ENDBRANCH  44  47
ENDBRANCH  42  44
ENDBRANCH  41  42
ENDBRANCH  40  41
ENDBRANCH   9  40
TORSDOF 12
ENDMDL
MODEL 3
REMARK VINA RESULT: -7.586370998      2.501      6.380
REMARK  12 active torsions:
REMARK  status: ('A' for Active; 'I' for Inactive)
REMARK    1  A    between atoms: N2_9  and  C7_10 
REMARK    2  A    between atoms: C7_10  and  O2_11 
REMARK    3  A    between atoms: O2_11  and  C8_12 
REMARK    4  A    between atoms: C8_12  and  C9_14 
REMARK    5  A    between atoms: C9_14  and  O4_15 
REMARK    6  A    between atoms: C9_14  and  C10_17 
REMARK    7  A    between atoms: C10_17  and  O5_18 
REMARK    8  A    between atoms: N3_20  and  C11_21 
REMARK    9  A    between atoms: N5_25  and  N6_27 
REMARK   10  A    between atoms: C14_32  and  N9_33 
REMARK   11  A    between atoms: C15_37  and  O6_38 
REMARK   12  A    between atoms: C16_40  and  O7_41 
ROOT
HETATM    1  C1  UNL     1       5.534  11.180  23.784  1.00  0.00     0.161 C 
HETATM    2  N1  UNL     1       4.737  10.026  23.441  1.00  0.00    -0.300 N 
HETATM    3  C2  UNL     1       3.420  10.148  23.278  1.00  0.00     0.276 A 
HETATM    4  O1  UNL     1       2.894  11.281  23.429  1.00  0.00    -0.265 OA
HETATM    5  C3  UNL     1       2.604   9.067  22.949  1.00  0.00     0.108 A 
HETATM    6  C4  UNL     1       3.201   7.831  22.788  1.00  0.00     0.032 A 
HETATM    7  C5  UNL     1       4.571   7.694  22.955  1.00  0.00     0.110 A 
HETATM    8  C6  UNL     1       5.291   8.789  23.274  1.00  0.00     0.159 A 
HETATM    9  N2  UNL     1       6.382   8.024  23.276  1.00  0.00    -0.245 N 
HETATM   10  N3  UNL     1       5.692   6.973  22.971  1.00  0.00    -0.256 N 
HETATM   11  C17 UNL     1       2.375   6.653  22.437  1.00  0.00     0.277 C 
HETATM   12  N10 UNL     1       1.260   7.153  21.634  1.00  0.00    -0.056 N 
ATOM     13 1H10 UNL     1       0.710   6.392  21.236  1.00  0.00     0.279 HD
ATOM     14 2H10 UNL     1       1.582   7.580  20.765  1.00  0.00     0.279 HD
HETATM   15  C18 UNL     1       0.428   8.073  22.414  1.00  0.00     0.355 C 
HETATM   16  N11 UNL     1       1.212   9.230  22.784  1.00  0.00    -0.362 N 
ATOM     17  H11 UNL     1       0.771  10.139  22.922  1.00  0.00     0.161 HD
ENDROOT
BRANCH  10  18
HETATM   18  C11 UNL     1       5.941   5.568  22.726  1.00  0.00     0.239 C 
HETATM   19  N4  UNL     1       6.485   4.893  23.894  1.00  0.00    -0.352 N 
HETATM   20  C12 UNL     1       7.082   3.606  23.601  1.00  0.00     0.127 C 
ATOM     21  H4  UNL     1       6.449   5.289  24.832  1.00  0.00     0.163 HD
HETATM   22  N5  UNL     1       7.928   3.073  24.409  1.00  0.00    -0.285 N 
HETATM   23  C14 UNL     1       6.626   3.006  22.324  1.00  0.00     0.282 C 
ATOM     24  H5  UNL     1       8.164   3.584  25.259  1.00  0.00     0.188 HD
HETATM   25  C15 UNL     1       6.825   3.938  21.143  1.00  0.00     0.188 C 
HETATM   26  C16 UNL     1       6.962   5.360  21.627  1.00  0.00     0.193 C 
BRANCH  22  27
HETATM   27  N6  UNL     1       8.532   1.863  24.200  1.00  0.00    -0.275 N 
HETATM   28  C13 UNL     1       9.796   1.638  24.227  1.00  0.00     0.215 C 
HETATM   29  N7  UNL     1      10.782   2.625  24.483  1.00  0.00    -0.065 NA
HETATM   30  N8  UNL     1      10.237   0.306  23.985  1.00  0.00    -0.065 NA
ATOM     31  H6  UNL     1       7.924   1.068  24.005  1.00  0.00     0.189 HD
ENDBRANCH  22  27
BRANCH  23  32
HETATM   32  N9  UNL     1       7.121   1.689  22.073  1.00  0.00    -0.066 N 
ATOM     33  H93 UNL     1       7.968   1.520  22.616  1.00  0.00     0.275 HD
ATOM     34  H92 UNL     1       6.503   0.994  22.491  1.00  0.00     0.275 HD
ATOM     35  H91 UNL     1       7.282   1.475  21.089  1.00  0.00     0.275 HD
ENDBRANCH  23  32
BRANCH  25  36
HETATM   36  O6  UNL     1       7.931   3.543  20.381  1.00  0.00    -0.390 OA
ATOM     37  H6  UNL     1       7.667   3.320  19.496  1.00  0.00     0.210 HD
ENDBRANCH  25  36
BRANCH  26  38
HETATM   38  O7  UNL     1       6.891   6.293  20.635  1.00  0.00    -0.389 OA
ATOM     39  H7  UNL     1       7.372   7.089  20.828  1.00  0.00     0.210 HD
ENDBRANCH  26  38
ENDBRANCH  10  18
BRANCH   9  40
HETATM   40  C7  UNL     1       7.785   8.313  23.532  1.00  0.00     0.329 C 
BRANCH  40  41
HETATM   41  O2  UNL     1       7.944   8.599  24.920  1.00  0.00    -0.298 OA
BRANCH  41  42
HETATM   42  C8  UNL     1       8.804   7.899  25.730  1.00  0.00     0.291 C 
HETATM   43  O3  UNL     1      10.005   8.296  25.777  1.00  0.00    -0.262 OA
BRANCH  42  44
HETATM   44  C9  UNL     1       8.451   6.729  26.547  1.00  0.00     0.241 C 
BRANCH  44  45
HETATM   45  O4  UNL     1       7.153   6.309  26.381  1.00  0.00    -0.383 OA
ATOM     46  H4  UNL     1       6.914   5.577  26.936  1.00  0.00     0.210 HD
ENDBRANCH  44  45
BRANCH  44  47
HETATM   47  C10 UNL     1       9.446   5.610  26.210  1.00  0.00     0.206 C 
BRANCH  47  48
HETATM   48  O5  UNL     1       9.566   5.527  24.823  1.00  0.00    -0.398 OA
ATOM     49  H5  UNL     1      10.449   5.780  24.581  1.00  0.00     0.209 HD
ENDBRANCH  47  48
ENDBRANCH  44  47
ENDBRANCH  42  44
ENDBRANCH  41  42
ENDBRANCH  40  41
ENDBRANCH   9  40
TORSDOF 12
ENDMDL
MODEL 4
REMARK VINA RESULT: -7.586226247      0.852      1.182
REMARK  12 active torsions:
REMARK  status: ('A' for Active; 'I' for Inactive)
REMARK    1  A    between atoms: N2_9  and  C7_10 
REMARK    2  A    between atoms: C7_10  and  O2_11 
REMARK    3  A    between atoms: O2_11  and  C8_12 
REMARK    4  A    between atoms: C8_12  and  C9_14 
REMARK    5  A    between atoms: C9_14  and  O4_15 
REMARK    6  A    between atoms: C9_14  and  C10_17 
REMARK    7  A    between atoms: C10_17  and  O5_18 
REMARK    8  A    between atoms: N3_20  and  C11_21 
REMARK    9  A    between atoms: N5_25  and  N6_27 
REMARK   10  A    between atoms: C14_32  and  N9_33 
REMARK   11  A    between atoms: C15_37  and  O6_38 
REMARK   12  A    between atoms: C16_40  and  O7_41 
ROOT
HETATM    1  C1  UNL     1       9.888   5.427  25.789  1.00  0.00     0.161 C 
HETATM    2  N1  UNL     1       8.887   6.417  25.470  1.00  0.00    -0.300 N 
HETATM    3  C2  UNL     1       9.136   7.710  25.674  1.00  0.00     0.276 A 
HETATM    4  O1  UNL     1      10.254   8.043  26.148  1.00  0.00    -0.265 OA
HETATM    5  C3  UNL     1       8.206   8.706  25.385  1.00  0.00     0.108 A 
HETATM    6  C4  UNL     1       6.984   8.319  24.866  1.00  0.00     0.032 A 
HETATM    7  C5  UNL     1       6.715   6.976  24.650  1.00  0.00     0.110 A 
HETATM    8  C6  UNL     1       7.669   6.073  24.956  1.00  0.00     0.159 A 
HETATM    9  N2  UNL     1       6.839   5.115  24.547  1.00  0.00    -0.245 N 
HETATM   10  N3  UNL     1       5.923   5.980  24.253  1.00  0.00    -0.256 N 
HETATM   11  C17 UNL     1       5.964   9.342  24.543  1.00  0.00     0.277 C 
HETATM   12  N10 UNL     1       6.694  10.547  24.151  1.00  0.00    -0.056 N 
ATOM     13 1H10 UNL     1       6.069  11.265  23.783  1.00  0.00     0.279 HD
ATOM     14 2H10 UNL     1       7.258  10.392  23.315  1.00  0.00     0.279 HD
HETATM   15  C18 UNL     1       7.501  11.051  25.264  1.00  0.00     0.355 C 
HETATM   16  N11 UNL     1       8.502  10.067  25.613  1.00  0.00    -0.362 N 
ATOM     17  H11 UNL     1       9.396  10.348  26.014  1.00  0.00     0.161 HD
ENDROOT
BRANCH  10  18
HETATM   18  C11 UNL     1       4.579   5.969  23.715  1.00  0.00     0.239 C 
HETATM   19  N4  UNL     1       3.995   4.637  23.719  1.00  0.00    -0.352 N 
HETATM   20  C12 UNL     1       2.825   4.509  22.876  1.00  0.00     0.127 C 
ATOM     21  H4  UNL     1       4.374   3.865  24.265  1.00  0.00     0.163 HD
HETATM   22  N5  UNL     1       2.432   3.356  22.464  1.00  0.00    -0.285 N 
HETATM   23  C14 UNL     1       2.165   5.799  22.557  1.00  0.00     0.282 C 
ATOM     24  H5  UNL     1       2.970   2.538  22.750  1.00  0.00     0.188 HD
HETATM   25  C15 UNL     1       3.125   6.803  21.944  1.00  0.00     0.188 C 
HETATM   26  C16 UNL     1       4.547   6.420  22.270  1.00  0.00     0.193 C 
BRANCH  22  27
HETATM   27  N6  UNL     1       1.338   3.157  21.666  1.00  0.00    -0.275 N 
HETATM   28  C13 UNL     1       1.352   2.678  20.475  1.00  0.00     0.215 C 
HETATM   29  N7  UNL     1       2.524   2.272  19.787  1.00  0.00    -0.065 NA
HETATM   30  N8  UNL     1       0.106   2.544  19.801  1.00  0.00    -0.065 NA
ATOM     31  H6  UNL     1       0.429   3.412  22.053  1.00  0.00     0.189 HD
ENDBRANCH  22  27
BRANCH  23  32
HETATM   32  N9  UNL     1       0.949   5.681  21.818  1.00  0.00    -0.066 N 
ATOM     33  H93 UNL     1       1.107   5.158  20.956  1.00  0.00     0.275 HD
ATOM     34  H92 UNL     1       0.306   5.047  22.293  1.00  0.00     0.275 HD
ATOM     35  H91 UNL     1       0.487   6.567  21.613  1.00  0.00     0.275 HD
ENDBRANCH  23  32
BRANCH  25  36
HETATM   36  O6  UNL     1       2.921   6.905  20.564  1.00  0.00    -0.390 OA
ATOM     37  H6  UNL     1       3.255   6.136  20.117  1.00  0.00     0.210 HD
ENDBRANCH  25  36
BRANCH  26  38
HETATM   38  O7  UNL     1       5.462   7.390  21.982  1.00  0.00    -0.389 OA
ATOM     39  H7  UNL     1       5.254   8.234  22.365  1.00  0.00     0.210 HD
ENDBRANCH  26  38
ENDBRANCH  10  18
BRANCH   9  40
HETATM   40  C7  UNL     1       6.967   3.666  24.479  1.00  0.00     0.329 C 
BRANCH  40  41
HETATM   41  O2  UNL     1       7.265   3.300  23.134  1.00  0.00    -0.298 OA
BRANCH  41  42
HETATM   42  C8  UNL     1       6.330   2.758  22.286  1.00  0.00     0.291 C 
HETATM   43  O3  UNL     1       5.431   2.033  22.804  1.00  0.00    -0.262 OA
BRANCH  42  44
HETATM   44  C9  UNL     1       6.283   2.948  20.829  1.00  0.00     0.241 C 
BRANCH  44  45
HETATM   45  O4  UNL     1       5.088   3.450  20.374  1.00  0.00    -0.383 OA
ATOM     46  H4  UNL     1       5.096   4.390  20.232  1.00  0.00     0.210 HD
ENDBRANCH  44  45
BRANCH  44  47
HETATM   47  C10 UNL     1       7.454   3.860  20.441  1.00  0.00     0.206 C 
BRANCH  47  48
HETATM   48  O5  UNL     1       8.646   3.179  20.685  1.00  0.00    -0.398 OA
ATOM     49  H5  UNL     1       9.038   2.948  19.851  1.00  0.00     0.209 HD
ENDBRANCH  47  48
ENDBRANCH  44  47
ENDBRANCH  42  44
ENDBRANCH  41  42
ENDBRANCH  40  41
ENDBRANCH   9  40
TORSDOF 12
ENDMDL
MODEL 5
REMARK VINA RESULT: -7.564173329      2.601      5.392
REMARK  12 active torsions:
REMARK  status: ('A' for Active; 'I' for Inactive)
REMARK    1  A    between atoms: N2_9  and  C7_10 
REMARK    2  A    between atoms: C7_10  and  O2_11 
REMARK    3  A    between atoms: O2_11  and  C8_12 
REMARK    4  A    between atoms: C8_12  and  C9_14 
REMARK    5  A    between atoms: C9_14  and  O4_15 
REMARK    6  A    between atoms: C9_14  and  C10_17 
REMARK    7  A    between atoms: C10_17  and  O5_18 
REMARK    8  A    between atoms: N3_20  and  C11_21 
REMARK    9  A    between atoms: N5_25  and  N6_27 
REMARK   10  A    between atoms: C14_32  and  N9_33 
REMARK   11  A    between atoms: C15_37  and  O6_38 
REMARK   12  A    between atoms: C16_40  and  O7_41 
ROOT
HETATM    1  C1  UNL     1       4.954  10.690  23.535  1.00  0.00     0.161 C 
HETATM    2  N1  UNL     1       5.863   9.593  23.771  1.00  0.00    -0.300 N 
HETATM    3  C2  UNL     1       6.895   9.746  24.601  1.00  0.00     0.276 A 
HETATM    4  O1  UNL     1       7.055  10.858  25.167  1.00  0.00    -0.265 OA
HETATM    5  C3  UNL     1       7.802   8.721  24.862  1.00  0.00     0.108 A 
HETATM    6  C4  UNL     1       7.608   7.507  24.230  1.00  0.00     0.032 A 
HETATM    7  C5  UNL     1       6.537   7.339  23.365  1.00  0.00     0.110 A 
HETATM    8  C6  UNL     1       5.703   8.380  23.165  1.00  0.00     0.159 A 
HETATM    9  N2  UNL     1       5.003   7.609  22.334  1.00  0.00    -0.245 N 
HETATM   10  N3  UNL     1       5.802   6.610  22.525  1.00  0.00    -0.256 N 
HETATM   11  C17 UNL     1       8.546   6.389  24.478  1.00  0.00     0.277 C 
HETATM   12  N10 UNL     1       9.028   6.548  25.849  1.00  0.00    -0.056 N 
ATOM     13 1H10 UNL     1       9.580   5.745  26.151  1.00  0.00     0.279 HD
ATOM     14 2H10 UNL     1       8.270   6.477  26.527  1.00  0.00     0.279 HD
HETATM   15  C18 UNL     1       9.771   7.802  25.996  1.00  0.00     0.355 C 
HETATM   16  N11 UNL     1       8.884   8.916  25.747  1.00  0.00    -0.362 N 
ATOM     17  H11 UNL     1       9.036   9.818  26.198  1.00  0.00     0.161 HD
ENDROOT
BRANCH  10  18
HETATM   18  C11 UNL     1       5.926   5.241  22.069  1.00  0.00     0.239 C 
HETATM   19  N4  UNL     1       5.763   4.283  23.150  1.00  0.00    -0.352 N 
HETATM   20  C12 UNL     1       6.231   2.951  22.828  1.00  0.00     0.127 C 
ATOM     21  H4  UNL     1       5.357   4.526  24.053  1.00  0.00     0.163 HD
HETATM   22  N5  UNL     1       6.520   2.111  23.756  1.00  0.00    -0.285 N 
HETATM   23  C14 UNL     1       6.333   2.683  21.372  1.00  0.00     0.282 C 
ATOM     24  H5  UNL     1       6.409   2.412  24.725  1.00  0.00     0.188 HD
HETATM   25  C15 UNL     1       7.190   3.710  20.654  1.00  0.00     0.188 C 
HETATM   26  C16 UNL     1       7.295   4.964  21.486  1.00  0.00     0.193 C 
BRANCH  22  27
HETATM   27  N6  UNL     1       6.966   0.837  23.529  1.00  0.00    -0.275 N 
HETATM   28  C13 UNL     1       7.948   0.265  24.127  1.00  0.00     0.215 C 
HETATM   29  N7  UNL     1       8.737   0.874  25.136  1.00  0.00    -0.065 NA
HETATM   30  N8  UNL     1       8.265  -1.071  23.752  1.00  0.00    -0.065 NA
ATOM     31  H6  UNL     1       6.475   0.293  22.819  1.00  0.00     0.189 HD
ENDBRANCH  22  27
BRANCH  23  32
HETATM   32  N9  UNL     1       6.688   1.341  21.036  1.00  0.00    -0.066 N 
ATOM     33  H93 UNL     1       7.687   1.192  21.179  1.00  0.00     0.275 HD
ATOM     34  H92 UNL     1       6.312   0.692  21.727  1.00  0.00     0.275 HD
ATOM     35  H91 UNL     1       6.419   1.052  20.095  1.00  0.00     0.275 HD
ENDBRANCH  23  32
BRANCH  25  36
HETATM   36  O6  UNL     1       8.451   3.181  20.355  1.00  0.00    -0.390 OA
ATOM     37  H6  UNL     1       9.052   3.870  20.096  1.00  0.00     0.210 HD
ENDBRANCH  25  36
BRANCH  26  38
HETATM   38  O7  UNL     1       7.829   6.028  20.819  1.00  0.00    -0.389 OA
ATOM     39  H7  UNL     1       8.610   5.811  20.323  1.00  0.00     0.210 HD
ENDBRANCH  26  38
ENDBRANCH  10  18
BRANCH   9  40
HETATM   40  C7  UNL     1       3.806   7.852  21.541  1.00  0.00     0.329 C 
BRANCH  40  41
HETATM   41  O2  UNL     1       2.690   7.274  22.216  1.00  0.00    -0.298 OA
BRANCH  41  42
HETATM   42  C8  UNL     1       2.281   5.980  22.003  1.00  0.00     0.291 C 
HETATM   43  O3  UNL     1       2.606   5.120  22.873  1.00  0.00    -0.262 OA
BRANCH  42  44
HETATM   44  C9  UNL     1       1.498   5.509  20.852  1.00  0.00     0.241 C 
BRANCH  44  45
HETATM   45  O4  UNL     1       1.773   6.177  19.683  1.00  0.00    -0.383 OA
ATOM     46  H4  UNL     1       1.880   5.606  18.932  1.00  0.00     0.210 HD
ENDBRANCH  44  45
BRANCH  44  47
HETATM   47  C10 UNL     1       1.749   4.002  20.705  1.00  0.00     0.206 C 
BRANCH  47  48
HETATM   48  O5  UNL     1       3.094   3.806  20.391  1.00  0.00    -0.398 OA
ATOM     49  H5  UNL     1       3.221   4.003  19.471  1.00  0.00     0.209 HD
ENDBRANCH  47  48
ENDBRANCH  44  47
ENDBRANCH  42  44
ENDBRANCH  41  42
ENDBRANCH  40  41
ENDBRANCH   9  40
TORSDOF 12
ENDMDL
