MODEL 1
REMARK VINA RESULT: -5.385505783      0.000      0.000
REMARK  7 active torsions:
REMARK  status: ('A' for Active; 'I' for Inactive)
REMARK    1  A    between atoms: C2_2  and  C4_4 
REMARK    2  A    between atoms: C4_4  and  N1_5 
REMARK    3  A    between atoms: N1_5  and  C5_7 
REMARK    4  A    between atoms: C6_10  and  C7_11 
REMARK    5  A    between atoms: C8_15  and  C9_16 
REMARK    6  A    between atoms: C9_16  and  C10_17 
REMARK    7  A    between atoms: C11_21  and  N3_22 
ROOT
HETATM    1  C5  UNL     1      23.048  -1.213 -10.419  1.00  0.00     0.680 A 
HETATM    2  N2  UNL     1      23.338  -0.453 -11.469  1.00  0.00    -0.186 N 
ATOM      3  H2  UNL     1      22.611  -0.303 -12.170  1.00  0.00     0.184 HD
HETATM    4  C6  UNL     1      24.566   0.145 -11.667  1.00  0.00     0.146 A 
HETATM    5  C8  UNL     1      25.527  -0.078 -10.696  1.00  0.00     0.041 A 
HETATM    6  C11 UNL     1      25.239  -0.890  -9.573  1.00  0.00     0.131 A 
HETATM    7  N4  UNL     1      23.983  -1.423  -9.497  1.00  0.00    -0.176 N 
ATOM      8  H4  UNL     1      23.751  -2.009  -8.695  1.00  0.00     0.186 HD
ENDROOT
BRANCH   1   9
HETATM    9  N1  UNL     1      21.893  -1.741 -10.278  1.00  0.00    -0.226 N 
ATOM     10  H1  UNL     1      21.695  -2.162  -9.371  1.00  0.00     0.177 HD
BRANCH   9  11
HETATM   11  C4  UNL     1      20.845  -1.807 -11.249  1.00  0.00     0.142 C 
BRANCH  11  12
HETATM   12  C2  UNL     1      19.515  -1.625 -10.562  1.00  0.00    -0.004 C 
HETATM   13  C1  UNL     1      19.162  -0.160 -10.547  1.00  0.00     0.011 C 
HETATM   14  C3  UNL     1      18.438  -2.412 -11.230  1.00  0.00     0.011 C 
ENDBRANCH  11  12
ENDBRANCH   9  11
ENDBRANCH   1   9
BRANCH   4  15
HETATM   15  C7  UNL     1      24.755   0.936 -12.892  1.00  0.00     0.434 C 
HETATM   16  F1  UNL     1      23.614   1.371 -13.511  1.00  0.00    -0.165 F 
HETATM   17  F2  UNL     1      25.862   0.711 -13.620  1.00  0.00    -0.165 F 
HETATM   18  F3  UNL     1      25.145   2.257 -12.303  1.00  0.00    -0.165 F 
ENDBRANCH   4  15
BRANCH   6  19
HETATM   19  N3  UNL     1      26.162  -1.292  -8.578  1.00  0.00    -0.362 N 
HETATM   20  C12 UNL     1      26.213  -0.924  -7.202  1.00  0.00     0.150 C 
HETATM   21  C13 UNL     1      27.658  -0.661  -6.836  1.00  0.00     0.187 C 
HETATM   22  O1  UNL     1      28.328  -1.865  -6.944  1.00  0.00    -0.388 OA
HETATM   23  C14 UNL     1      28.397  -2.334  -8.228  1.00  0.00     0.187 C 
HETATM   24  C15 UNL     1      27.156  -2.282  -9.027  1.00  0.00     0.150 C 
ENDBRANCH   6  19
BRANCH   5  25
HETATM   25  C9  UNL     1      26.864   0.460 -10.753  1.00  0.00     0.049 C 
BRANCH  25  26
HETATM   26  C10 UNL     1      27.457   1.465  -9.873  1.00  0.00     0.208 C 
HETATM   27 CL1  UNL     1      29.191   1.241  -9.464  1.00  0.00    -0.079 Cl
HETATM   28 CL2  UNL     1      27.494   3.041 -10.964  1.00  0.00    -0.079 Cl
HETATM   29 CL3  UNL     1      26.669   2.103  -8.464  1.00  0.00    -0.079 Cl
ENDBRANCH  25  26
ENDBRANCH   5  25
TORSDOF 7
ENDMDL
MODEL 2
REMARK VINA RESULT: -5.346711223      1.051      1.423
REMARK  7 active torsions:
REMARK  status: ('A' for Active; 'I' for Inactive)
REMARK    1  A    between atoms: C2_2  and  C4_4 
REMARK    2  A    between atoms: C4_4  and  N1_5 
REMARK    3  A    between atoms: N1_5  and  C5_7 
REMARK    4  A    between atoms: C6_10  and  C7_11 
REMARK    5  A    between atoms: C8_15  and  C9_16 
REMARK    6  A    between atoms: C9_16  and  C10_17 
REMARK    7  A    between atoms: C11_21  and  N3_22 
ROOT
HETATM    1  C5  UNL     1      23.080  -1.098 -10.233  1.00  0.00     0.680 A 
HETATM    2  N2  UNL     1      23.365  -0.441 -11.352  1.00  0.00    -0.186 N 
ATOM      3  H2  UNL     1      22.649  -0.395 -12.078  1.00  0.00     0.184 HD
HETATM    4  C6  UNL     1      24.573   0.182 -11.589  1.00  0.00     0.146 A 
HETATM    5  C8  UNL     1      25.520   0.100 -10.583  1.00  0.00     0.041 A 
HETATM    6  C11 UNL     1      25.238  -0.600  -9.385  1.00  0.00     0.131 A 
HETATM    7  N4  UNL     1      24.001  -1.172  -9.277  1.00  0.00    -0.176 N 
ATOM      8  H4  UNL     1      23.773  -1.680  -8.422  1.00  0.00     0.186 HD
ENDROOT
BRANCH   1   9
HETATM    9  N1  UNL     1      21.942  -1.654 -10.058  1.00  0.00    -0.226 N 
ATOM     10  H1  UNL     1      21.741  -1.985  -9.115  1.00  0.00     0.177 HD
BRANCH   9  11
HETATM   11  C4  UNL     1      20.921  -1.865 -11.036  1.00  0.00     0.142 C 
BRANCH  11  12
HETATM   12  C2  UNL     1      19.569  -1.689 -10.392  1.00  0.00    -0.004 C 
HETATM   13  C1  UNL     1      19.233  -0.220 -10.343  1.00  0.00     0.011 C 
HETATM   14  C3  UNL     1      18.508  -2.440 -11.125  1.00  0.00     0.011 C 
ENDBRANCH  11  12
ENDBRANCH   9  11
ENDBRANCH   1   9
BRANCH   4  15
HETATM   15  C7  UNL     1      24.759   0.846 -12.887  1.00  0.00     0.434 C 
HETATM   16  F1  UNL     1      23.640   1.397 -13.449  1.00  0.00    -0.165 F 
HETATM   17  F2  UNL     1      25.754   0.410 -13.679  1.00  0.00    -0.165 F 
HETATM   18  F3  UNL     1      25.382   2.134 -12.444  1.00  0.00    -0.165 F 
ENDBRANCH   4  15
BRANCH   6  19
HETATM   19  N3  UNL     1      26.152  -0.858  -8.336  1.00  0.00    -0.362 N 
HETATM   20  C12 UNL     1      26.595   0.015  -7.300  1.00  0.00     0.150 C 
HETATM   21  C13 UNL     1      28.087  -0.174  -7.128  1.00  0.00     0.187 C 
HETATM   22  O1  UNL     1      28.282  -1.462  -6.667  1.00  0.00    -0.388 OA
HETATM   23  C14 UNL     1      27.934  -2.423  -7.577  1.00  0.00     0.187 C 
HETATM   24  C15 UNL     1      26.649  -2.243  -8.281  1.00  0.00     0.150 C 
ENDBRANCH   6  19
BRANCH   5  25
HETATM   25  C9  UNL     1      26.836   0.682 -10.671  1.00  0.00     0.049 C 
BRANCH  25  26
HETATM   26  C10 UNL     1      28.065   0.037 -11.128  1.00  0.00     0.208 C 
HETATM   27 CL1  UNL     1      28.622   0.466 -12.781  1.00  0.00    -0.079 Cl
HETATM   28 CL2  UNL     1      29.417   0.828 -10.023  1.00  0.00    -0.079 Cl
HETATM   29 CL3  UNL     1      28.427  -1.642 -10.879  1.00  0.00    -0.079 Cl
ENDBRANCH  25  26
ENDBRANCH   5  25
TORSDOF 7
ENDMDL
MODEL 3
REMARK VINA RESULT: -5.258909670      1.097      1.638
REMARK  7 active torsions:
REMARK  status: ('A' for Active; 'I' for Inactive)
REMARK    1  A    between atoms: C2_2  and  C4_4 
REMARK    2  A    between atoms: C4_4  and  N1_5 
REMARK    3  A    between atoms: N1_5  and  C5_7 
REMARK    4  A    between atoms: C6_10  and  C7_11 
REMARK    5  A    between atoms: C8_15  and  C9_16 
REMARK    6  A    between atoms: C9_16  and  C10_17 
REMARK    7  A    between atoms: C11_21  and  N3_22 
ROOT
HETATM    1  C5  UNL     1      23.174  -1.195 -10.182  1.00  0.00     0.680 A 
HETATM    2  N2  UNL     1      23.401  -0.442 -11.252  1.00  0.00    -0.186 N 
ATOM      3  H2  UNL     1      22.683  -0.407 -11.977  1.00  0.00     0.184 HD
HETATM    4  C6  UNL     1      24.553   0.295 -11.441  1.00  0.00     0.146 A 
HETATM    5  C8  UNL     1      25.504   0.225 -10.438  1.00  0.00     0.041 A 
HETATM    6  C11 UNL     1      25.283  -0.577  -9.292  1.00  0.00     0.131 A 
HETATM    7  N4  UNL     1      24.099  -1.256  -9.229  1.00  0.00    -0.176 N 
ATOM      8  H4  UNL     1      23.916  -1.839  -8.411  1.00  0.00     0.186 HD
ENDROOT
BRANCH   1   9
HETATM    9  N1  UNL     1      22.087  -1.855 -10.050  1.00  0.00    -0.226 N 
ATOM     10  H1  UNL     1      21.970  -2.363  -9.174  1.00  0.00     0.177 HD
BRANCH   9  11
HETATM   11  C4  UNL     1      21.018  -1.962 -10.993  1.00  0.00     0.142 C 
BRANCH  11  12
HETATM   12  C2  UNL     1      19.700  -1.852 -10.269  1.00  0.00    -0.004 C 
HETATM   13  C1  UNL     1      19.381  -0.396 -10.041  1.00  0.00     0.011 C 
HETATM   14  C3  UNL     1      18.598  -2.512 -11.028  1.00  0.00     0.011 C 
ENDBRANCH  11  12
ENDBRANCH   9  11
ENDBRANCH   1   9
BRANCH   4  15
HETATM   15  C7  UNL     1      24.681   1.059 -12.690  1.00  0.00     0.434 C 
HETATM   16  F1  UNL     1      25.553   2.113 -12.665  1.00  0.00    -0.165 F 
HETATM   17  F2  UNL     1      23.622   1.092 -13.518  1.00  0.00    -0.165 F 
HETATM   18  F3  UNL     1      25.552   0.135 -13.484  1.00  0.00    -0.165 F 
ENDBRANCH   4  15
BRANCH   6  19
HETATM   19  N3  UNL     1      26.218  -0.828  -8.259  1.00  0.00    -0.362 N 
HETATM   20  C12 UNL     1      26.706   0.061  -7.258  1.00  0.00     0.150 C 
HETATM   21  C13 UNL     1      28.197  -0.157  -7.118  1.00  0.00     0.187 C 
HETATM   22  O1  UNL     1      28.375  -1.437  -6.627  1.00  0.00    -0.388 OA
HETATM   23  C14 UNL     1      27.983  -2.413  -7.502  1.00  0.00     0.187 C 
HETATM   24  C15 UNL     1      26.684  -2.222  -8.179  1.00  0.00     0.150 C 
ENDBRANCH   6  19
BRANCH   5  25
HETATM   25  C9  UNL     1      26.766   0.920 -10.481  1.00  0.00     0.049 C 
BRANCH  25  26
HETATM   26  C10 UNL     1      28.012   0.466 -11.099  1.00  0.00     0.208 C 
HETATM   27 CL1  UNL     1      29.520   0.795 -10.182  1.00  0.00    -0.079 Cl
HETATM   28 CL2  UNL     1      27.883  -1.444 -11.002  1.00  0.00    -0.079 Cl
HETATM   29 CL3  UNL     1      28.379   0.650 -12.785  1.00  0.00    -0.079 Cl
ENDBRANCH  25  26
ENDBRANCH   5  25
TORSDOF 7
ENDMDL
MODEL 4
REMARK VINA RESULT: -4.650820752      3.015      4.325
REMARK  7 active torsions:
REMARK  status: ('A' for Active; 'I' for Inactive)
REMARK    1  A    between atoms: C2_2  and  C4_4 
REMARK    2  A    between atoms: C4_4  and  N1_5 
REMARK    3  A    between atoms: N1_5  and  C5_7 
REMARK    4  A    between atoms: C6_10  and  C7_11 
REMARK    5  A    between atoms: C8_15  and  C9_16 
REMARK    6  A    between atoms: C9_16  and  C10_17 
REMARK    7  A    between atoms: C11_21  and  N3_22 
ROOT
HETATM    1  C5  UNL     1      22.969  -0.619  -9.956  1.00  0.00     0.680 A 
HETATM    2  N2  UNL     1      23.614  -0.930  -8.837  1.00  0.00    -0.186 N 
ATOM      3  H2  UNL     1      23.062  -1.186  -8.018  1.00  0.00     0.184 HD
HETATM    4  C6  UNL     1      24.989  -0.927  -8.719  1.00  0.00     0.146 A 
HETATM    5  C8  UNL     1      25.707  -0.577  -9.850  1.00  0.00     0.041 A 
HETATM    6  C11 UNL     1      25.037  -0.236 -11.050  1.00  0.00     0.131 A 
HETATM    7  N4  UNL     1      23.671  -0.280 -11.032  1.00  0.00    -0.176 N 
ATOM      8  H4  UNL     1      23.166  -0.042 -11.886  1.00  0.00     0.186 HD
ENDROOT
BRANCH   1   9
HETATM    9  N1  UNL     1      21.692  -0.643 -10.016  1.00  0.00    -0.226 N 
ATOM     10  H1  UNL     1      21.194  -0.311  -9.190  1.00  0.00     0.177 HD
BRANCH   9  11
HETATM   11  C4  UNL     1      20.883  -1.081 -11.110  1.00  0.00     0.142 C 
BRANCH  11  12
HETATM   12  C2  UNL     1      19.427  -0.939 -10.743  1.00  0.00    -0.004 C 
HETATM   13  C1  UNL     1      18.880  -2.290 -10.359  1.00  0.00     0.011 C 
HETATM   14  C3  UNL     1      19.233   0.035  -9.630  1.00  0.00     0.011 C 
ENDBRANCH  11  12
ENDBRANCH   9  11
ENDBRANCH   1   9
BRANCH   4  15
HETATM   15  C7  UNL     1      25.567  -1.264  -7.410  1.00  0.00     0.434 C 
HETATM   16  F1  UNL     1      26.738  -1.971  -7.431  1.00  0.00    -0.165 F 
HETATM   17  F2  UNL     1      24.726  -1.400  -6.369  1.00  0.00    -0.165 F 
HETATM   18  F3  UNL     1      26.169   0.055  -7.034  1.00  0.00    -0.165 F 
ENDBRANCH   4  15
BRANCH   6  19
HETATM   19  N3  UNL     1      25.644   0.251 -12.232  1.00  0.00    -0.362 N 
HETATM   20  C12 UNL     1      26.062  -0.472 -13.387  1.00  0.00     0.150 C 
HETATM   21  C13 UNL     1      27.408   0.069 -13.821  1.00  0.00     0.187 C 
HETATM   22  O1  UNL     1      27.207   1.375 -14.227  1.00  0.00    -0.388 OA
HETATM   23  C14 UNL     1      26.833   2.209 -13.208  1.00  0.00     0.187 C 
HETATM   24  C15 UNL     1      25.787   1.715 -12.290  1.00  0.00     0.150 C 
ENDBRANCH   6  19
BRANCH   5  25
HETATM   25  C9  UNL     1      27.146  -0.511  -9.897  1.00  0.00     0.049 C 
BRANCH  25  26
HETATM   26  C10 UNL     1      28.003   0.571  -9.414  1.00  0.00     0.208 C 
HETATM   27 CL1  UNL     1      29.161   0.145  -8.108  1.00  0.00    -0.079 Cl
HETATM   28 CL2  UNL     1      29.168   0.909 -10.898  1.00  0.00    -0.079 Cl
HETATM   29 CL3  UNL     1      27.444   2.184  -9.105  1.00  0.00    -0.079 Cl
ENDBRANCH  25  26
ENDBRANCH   5  25
TORSDOF 7
ENDMDL
MODEL 5
REMARK VINA RESULT: -4.468234902      3.142      4.417
REMARK  7 active torsions:
REMARK  status: ('A' for Active; 'I' for Inactive)
REMARK    1  A    between atoms: C2_2  and  C4_4 
REMARK    2  A    between atoms: C4_4  and  N1_5 
REMARK    3  A    between atoms: N1_5  and  C5_7 
REMARK    4  A    between atoms: C6_10  and  C7_11 
REMARK    5  A    between atoms: C8_15  and  C9_16 
REMARK    6  A    between atoms: C9_16  and  C10_17 
REMARK    7  A    between atoms: C11_21  and  N3_22 
ROOT
HETATM    1  C5  UNL     1      23.113  -0.347  -9.771  1.00  0.00     0.680 A 
HETATM    2  N2  UNL     1      23.794  -0.738  -8.700  1.00  0.00    -0.186 N 
ATOM      3  H2  UNL     1      23.273  -0.941  -7.846  1.00  0.00     0.184 HD
HETATM    4  C6  UNL     1      25.166  -0.885  -8.675  1.00  0.00     0.146 A 
HETATM    5  C8  UNL     1      25.840  -0.603  -9.850  1.00  0.00     0.041 A 
HETATM    6  C11 UNL     1      25.133  -0.178 -11.001  1.00  0.00     0.131 A 
HETATM    7  N4  UNL     1      23.775  -0.074 -10.892  1.00  0.00    -0.176 N 
ATOM      8  H4  UNL     1      23.243   0.227 -11.708  1.00  0.00     0.186 HD
ENDROOT
BRANCH   1   9
HETATM    9  N1  UNL     1      21.840  -0.232  -9.745  1.00  0.00    -0.226 N 
ATOM     10  H1  UNL     1      21.376  -0.538  -8.890  1.00  0.00     0.177 HD
BRANCH   9  11
HETATM   11  C4  UNL     1      20.994   0.278 -10.779  1.00  0.00     0.142 C 
BRANCH  11  12
HETATM   12  C2  UNL     1      19.737   0.838 -10.164  1.00  0.00    -0.004 C 
HETATM   13  C1  UNL     1      18.926   1.524 -11.234  1.00  0.00     0.011 C 
HETATM   14  C3  UNL     1      18.927  -0.226  -9.501  1.00  0.00     0.011 C 
ENDBRANCH  11  12
ENDBRANCH   9  11
ENDBRANCH   1   9
BRANCH   4  15
HETATM   15  C7  UNL     1      25.789  -1.296  -7.409  1.00  0.00     0.434 C 
HETATM   16  F1  UNL     1      26.934  -2.039  -7.513  1.00  0.00    -0.165 F 
HETATM   17  F2  UNL     1      24.992  -1.451  -6.337  1.00  0.00    -0.165 F 
HETATM   18  F3  UNL     1      26.452  -0.015  -7.006  1.00  0.00    -0.165 F 
ENDBRANCH   4  15
BRANCH   6  19
HETATM   19  N3  UNL     1      25.709   0.253 -12.220  1.00  0.00    -0.362 N 
HETATM   20  C12 UNL     1      26.113  -0.524 -13.344  1.00  0.00     0.150 C 
HETATM   21  C13 UNL     1      27.442   0.009 -13.834  1.00  0.00     0.187 C 
HETATM   22  O1  UNL     1      27.216   1.290 -14.303  1.00  0.00    -0.388 OA
HETATM   23  C14 UNL     1      26.853   2.171 -13.322  1.00  0.00     0.187 C 
HETATM   24  C15 UNL     1      25.833   1.714 -12.357  1.00  0.00     0.150 C 
ENDBRANCH   6  19
BRANCH   5  25
HETATM   25  C9  UNL     1      27.272  -0.692  -9.994  1.00  0.00     0.049 C 
BRANCH  25  26
HETATM   26  C10 UNL     1      28.268   0.314  -9.626  1.00  0.00     0.208 C 
HETATM   27 CL1  UNL     1      29.304   0.931 -10.956  1.00  0.00    -0.079 Cl
HETATM   28 CL2  UNL     1      27.206   1.848  -9.188  1.00  0.00    -0.079 Cl
HETATM   29 CL3  UNL     1      29.254   0.223  -8.200  1.00  0.00    -0.079 Cl
ENDBRANCH  25  26
ENDBRANCH   5  25
TORSDOF 7
ENDMDL
