MODEL 1
REMARK VINA RESULT: -8.956844753      0.000      0.000
REMARK  7 active torsions:
REMARK  status: ('A' for Active; 'I' for Inactive)
REMARK    1  A    between atoms: O1_2  and  C2_3 
REMARK    2  A    between atoms: C3_4  and  C4_5 
REMARK    3  A    between atoms: C10_12  and  N1_13 
REMARK       I    between atoms: N1_13  and  C11_15 
REMARK    4  A    between atoms: C11_15  and  O4_17 
REMARK    5  A    between atoms: O4_17  and  C12_18 
REMARK    6  A    between atoms: C22_28  and  O5_29 
REMARK    7  A    between atoms: O5_29  and  C23_30 
ROOT
HETATM    1  C4  UNL     1      17.208  21.105 -16.504  1.00  0.00    -0.009 C 
HETATM    2  C5  UNL     1      17.616  20.738 -15.089  1.00  0.00     0.015 C 
HETATM    3  C6  UNL     1      18.778  21.682 -14.698  1.00  0.00     0.011 C 
HETATM    4  C7  UNL     1      18.351  22.812 -15.549  1.00  0.00    -0.032 C 
HETATM    5  C8  UNL     1      19.087  23.973 -15.929  1.00  0.00     0.090 C 
HETATM    6  C9  UNL     1      18.117  24.772 -16.777  1.00  0.00     0.150 C 
HETATM    7  O2  UNL     1      18.603  25.716 -17.374  1.00  0.00    -0.296 OA
HETATM    8  C10 UNL     1      16.647  24.475 -16.916  1.00  0.00     0.160 C 
HETATM    9  C16 UNL     1      16.127  23.389 -16.075  1.00  0.00     0.017 C 
HETATM   10  C17 UNL     1      17.082  23.250 -14.943  1.00  0.00     0.017 C 
HETATM   11  C18 UNL     1      15.968  22.010 -16.583  1.00  0.00     0.021 C 
HETATM   12  C19 UNL     1      18.290  21.977 -16.859  1.00  0.00     0.024 C 
ENDROOT
BRANCH   1  13
HETATM   13  C3  UNL     1      16.871  19.870 -17.192  1.00  0.00    -0.014 A 
HETATM   14  C2  UNL     1      17.132  19.552 -18.493  1.00  0.00     0.099 A 
HETATM   15  C25 UNL     1      16.871  18.280 -19.048  1.00  0.00     0.101 A 
HETATM   16  C22 UNL     1      16.326  17.275 -18.297  1.00  0.00     0.103 A 
HETATM   17 CL1  UNL     1      17.256  18.008 -20.716  1.00  0.00    -0.078 Cl
HETATM   18  C21 UNL     1      16.051  17.567 -16.993  1.00  0.00     0.040 A 
HETATM   19  C20 UNL     1      16.310  18.825 -16.442  1.00  0.00     0.013 A 
BRANCH  14  20
HETATM   20  O1  UNL     1      17.667  20.505 -19.331  1.00  0.00    -0.354 OA
HETATM   21  C1  UNL     1      19.084  20.410 -19.560  1.00  0.00     0.210 C 
ENDBRANCH  14  20
BRANCH  16  22
HETATM   22  O5  UNL     1      16.076  16.022 -18.865  1.00  0.00    -0.277 OA
BRANCH  22  23
HETATM   23  C23 UNL     1      16.353  14.847 -18.150  1.00  0.00     0.260 C 
HETATM   24  C24 UNL     1      15.293  13.942 -17.650  1.00  0.00     0.126 C 
HETATM   25  O6  UNL     1      17.549  14.532 -17.913  1.00  0.00    -0.265 OA
ENDBRANCH  22  23
ENDBRANCH  16  22
ENDBRANCH   1  13
BRANCH   8  26
HETATM   26  N1  UNL     1      16.019  25.728 -16.448  1.00  0.00    -0.325 N 
HETATM   27  C11 UNL     1      14.854  26.269 -17.012  1.00  0.00     0.362 C 
HETATM   28  O3  UNL     1      14.293  25.688 -17.961  1.00  0.00    -0.238 OA
ATOM     29  H1  UNL     1      16.457  26.226 -15.673  1.00  0.00     0.165 HD
BRANCH  27  30
HETATM   30  O4  UNL     1      14.315  27.435 -16.537  1.00  0.00    -0.294 OA
BRANCH  30  31
HETATM   31  C12 UNL     1      14.592  28.710 -17.085  1.00  0.00     0.061 C 
HETATM   32  C13 UNL     1      15.995  28.803 -17.609  1.00  0.00     0.046 C 
HETATM   33  C14 UNL     1      14.422  29.735 -15.992  1.00  0.00     0.046 C 
HETATM   34  C15 UNL     1      13.636  29.060 -18.203  1.00  0.00     0.046 C 
ENDBRANCH  30  31
ENDBRANCH  27  30
ENDBRANCH   8  26
TORSDOF 7
ENDMDL
MODEL 2
REMARK VINA RESULT: -8.657584679      1.178      1.422
REMARK  7 active torsions:
REMARK  status: ('A' for Active; 'I' for Inactive)
REMARK    1  A    between atoms: O1_2  and  C2_3 
REMARK    2  A    between atoms: C3_4  and  C4_5 
REMARK    3  A    between atoms: C10_12  and  N1_13 
REMARK       I    between atoms: N1_13  and  C11_15 
REMARK    4  A    between atoms: C11_15  and  O4_17 
REMARK    5  A    between atoms: O4_17  and  C12_18 
REMARK    6  A    between atoms: C22_28  and  O5_29 
REMARK    7  A    between atoms: O5_29  and  C23_30 
ROOT
HETATM    1  C4  UNL     1      17.269  20.354 -16.427  1.00  0.00    -0.009 C 
HETATM    2  C5  UNL     1      17.287  20.029 -14.945  1.00  0.00     0.015 C 
HETATM    3  C6  UNL     1      18.506  20.765 -14.338  1.00  0.00     0.011 C 
HETATM    4  C7  UNL     1      18.505  21.884 -15.303  1.00  0.00    -0.032 C 
HETATM    5  C8  UNL     1      19.523  22.852 -15.551  1.00  0.00     0.090 C 
HETATM    6  C9  UNL     1      18.935  23.750 -16.622  1.00  0.00     0.150 C 
HETATM    7  O2  UNL     1      19.716  24.535 -17.129  1.00  0.00    -0.296 OA
HETATM    8  C10 UNL     1      17.498  23.726 -17.073  1.00  0.00     0.160 C 
HETATM    9  C16 UNL     1      16.604  22.827 -16.331  1.00  0.00     0.017 C 
HETATM   10  C17 UNL     1      17.251  22.601 -15.011  1.00  0.00     0.017 C 
HETATM   11  C18 UNL     1      16.282  21.467 -16.811  1.00  0.00     0.021 C 
HETATM   12  C19 UNL     1      18.555  20.975 -16.564  1.00  0.00     0.024 C 
ENDROOT
BRANCH   1  13
HETATM   13  C3  UNL     1      16.843  19.154 -17.128  1.00  0.00    -0.014 A 
HETATM   14  C2  UNL     1      16.892  18.921 -18.471  1.00  0.00     0.099 A 
HETATM   15  C25 UNL     1      16.564  17.679 -19.057  1.00  0.00     0.101 A 
HETATM   16  C22 UNL     1      16.164  16.617 -18.292  1.00  0.00     0.103 A 
HETATM   17 CL1  UNL     1      16.674  17.518 -20.779  1.00  0.00    -0.078 Cl
HETATM   18  C21 UNL     1      16.102  16.823 -16.945  1.00  0.00     0.040 A 
HETATM   19  C20 UNL     1      16.429  18.052 -16.365  1.00  0.00     0.013 A 
BRANCH  14  20
HETATM   20  O1  UNL     1      17.268  19.936 -19.323  1.00  0.00    -0.354 OA
HETATM   21  C1  UNL     1      18.634  19.901 -19.772  1.00  0.00     0.210 C 
ENDBRANCH  14  20
BRANCH  16  22
HETATM   22  O5  UNL     1      15.843  15.394 -18.890  1.00  0.00    -0.277 OA
BRANCH  22  23
HETATM   23  C23 UNL     1      16.589  14.241 -18.600  1.00  0.00     0.260 C 
HETATM   24  C24 UNL     1      16.164  13.243 -17.592  1.00  0.00     0.126 C 
HETATM   25  O6  UNL     1      17.668  14.030 -19.213  1.00  0.00    -0.265 OA
ENDBRANCH  22  23
ENDBRANCH  16  22
ENDBRANCH   1  13
BRANCH   8  26
HETATM   26  N1  UNL     1      17.051  25.107 -16.802  1.00  0.00    -0.325 N 
HETATM   27  C11 UNL     1      17.006  26.114 -17.778  1.00  0.00     0.362 C 
HETATM   28  O3  UNL     1      17.356  25.864 -18.948  1.00  0.00    -0.238 OA
ATOM     29  H1  UNL     1      16.759  25.342 -15.853  1.00  0.00     0.165 HD
BRANCH  27  30
HETATM   30  O4  UNL     1      16.581  27.379 -17.470  1.00  0.00    -0.294 OA
BRANCH  30  31
HETATM   31  C12 UNL     1      15.226  27.785 -17.512  1.00  0.00     0.061 C 
HETATM   32  C13 UNL     1      14.351  26.753 -18.162  1.00  0.00     0.046 C 
HETATM   33  C14 UNL     1      15.144  29.056 -18.319  1.00  0.00     0.046 C 
HETATM   34  C15 UNL     1      14.683  28.076 -16.132  1.00  0.00     0.046 C 
ENDBRANCH  30  31
ENDBRANCH  27  30
ENDBRANCH   8  26
TORSDOF 7
ENDMDL
MODEL 3
REMARK VINA RESULT: -8.581088786      2.283      3.405
REMARK  7 active torsions:
REMARK  status: ('A' for Active; 'I' for Inactive)
REMARK    1  A    between atoms: O1_2  and  C2_3 
REMARK    2  A    between atoms: C3_4  and  C4_5 
REMARK    3  A    between atoms: C10_12  and  N1_13 
REMARK       I    between atoms: N1_13  and  C11_15 
REMARK    4  A    between atoms: C11_15  and  O4_17 
REMARK    5  A    between atoms: O4_17  and  C12_18 
REMARK    6  A    between atoms: C22_28  and  O5_29 
REMARK    7  A    between atoms: O5_29  and  C23_30 
ROOT
HETATM    1  C4  UNL     1      17.008  19.523 -17.441  1.00  0.00    -0.009 C 
HETATM    2  C5  UNL     1      15.955  19.301 -16.372  1.00  0.00     0.015 C 
HETATM    3  C6  UNL     1      16.583  19.735 -15.025  1.00  0.00     0.011 C 
HETATM    4  C7  UNL     1      17.489  20.752 -15.600  1.00  0.00    -0.032 C 
HETATM    5  C8  UNL     1      18.600  21.406 -14.989  1.00  0.00     0.090 C 
HETATM    6  C9  UNL     1      19.110  22.354 -16.057  1.00  0.00     0.150 C 
HETATM    7  O2  UNL     1      20.184  22.876 -15.819  1.00  0.00    -0.296 OA
HETATM    8  C10 UNL     1      18.392  22.672 -17.341  1.00  0.00     0.160 C 
HETATM    9  C16 UNL     1      17.054  22.085 -17.494  1.00  0.00     0.017 C 
HETATM   10  C17 UNL     1      16.576  21.785 -16.118  1.00  0.00     0.017 C 
HETATM   11  C18 UNL     1      16.828  20.826 -18.236  1.00  0.00     0.021 C 
HETATM   12  C19 UNL     1      18.153  19.780 -16.616  1.00  0.00     0.024 C 
ENDROOT
BRANCH   1  13
HETATM   13  C3  UNL     1      16.895  18.431 -18.394  1.00  0.00    -0.014 A 
HETATM   14  C2  UNL     1      16.423  17.174 -18.156  1.00  0.00     0.099 A 
HETATM   15  C25 UNL     1      16.239  16.209 -19.170  1.00  0.00     0.101 A 
HETATM   16  C22 UNL     1      16.534  16.487 -20.477  1.00  0.00     0.103 A 
HETATM   17 CL1  UNL     1      15.628  14.648 -18.730  1.00  0.00    -0.078 Cl
HETATM   18  C21 UNL     1      17.011  17.737 -20.744  1.00  0.00     0.040 A 
HETATM   19  C20 UNL     1      17.192  18.693 -19.740  1.00  0.00     0.013 A 
BRANCH  14  20
HETATM   20  O1  UNL     1      16.115  16.797 -16.868  1.00  0.00    -0.354 OA
HETATM   21  C1  UNL     1      17.046  15.898 -16.241  1.00  0.00     0.210 C 
ENDBRANCH  14  20
BRANCH  16  22
HETATM   22  O5  UNL     1      16.344  15.518 -21.468  1.00  0.00    -0.277 OA
BRANCH  22  23
HETATM   23  C23 UNL     1      17.433  14.790 -21.972  1.00  0.00     0.260 C 
HETATM   24  C24 UNL     1      17.940  13.557 -21.329  1.00  0.00     0.126 C 
HETATM   25  O6  UNL     1      18.015  15.187 -23.015  1.00  0.00    -0.265 OA
ENDBRANCH  22  23
ENDBRANCH  16  22
ENDBRANCH   1  13
BRANCH   8  26
HETATM   26  N1  UNL     1      18.218  24.137 -17.260  1.00  0.00    -0.325 N 
HETATM   27  C11 UNL     1      18.505  25.013 -18.318  1.00  0.00     0.362 C 
HETATM   28  O3  UNL     1      18.931  24.564 -19.399  1.00  0.00    -0.238 OA
ATOM     29  H1  UNL     1      17.871  24.533 -16.386  1.00  0.00     0.165 HD
BRANCH  27  30
HETATM   30  O4  UNL     1      18.324  26.364 -18.186  1.00  0.00    -0.294 OA
BRANCH  30  31
HETATM   31  C12 UNL     1      17.072  27.007 -18.335  1.00  0.00     0.061 C 
HETATM   32  C13 UNL     1      16.703  27.189 -19.778  1.00  0.00     0.046 C 
HETATM   33  C14 UNL     1      17.166  28.367 -17.691  1.00  0.00     0.046 C 
HETATM   34  C15 UNL     1      15.963  26.243 -17.647  1.00  0.00     0.046 C 
ENDBRANCH  30  31
ENDBRANCH  27  30
ENDBRANCH   8  26
TORSDOF 7
ENDMDL
MODEL 4
REMARK VINA RESULT: -8.445059449      1.607      2.298
REMARK  7 active torsions:
REMARK  status: ('A' for Active; 'I' for Inactive)
REMARK    1  A    between atoms: O1_2  and  C2_3 
REMARK    2  A    between atoms: C3_4  and  C4_5 
REMARK    3  A    between atoms: C10_12  and  N1_13 
REMARK       I    between atoms: N1_13  and  C11_15 
REMARK    4  A    between atoms: C11_15  and  O4_17 
REMARK    5  A    between atoms: O4_17  and  C12_18 
REMARK    6  A    between atoms: C22_28  and  O5_29 
REMARK    7  A    between atoms: O5_29  and  C23_30 
ROOT
HETATM    1  C4  UNL     1      17.493  21.128 -17.084  1.00  0.00    -0.009 C 
HETATM    2  C5  UNL     1      17.922  20.635 -15.714  1.00  0.00     0.015 C 
HETATM    3  C6  UNL     1      18.919  21.678 -15.154  1.00  0.00     0.011 C 
HETATM    4  C7  UNL     1      18.344  22.838 -15.866  1.00  0.00    -0.032 C 
HETATM    5  C8  UNL     1      18.904  24.136 -16.059  1.00  0.00     0.090 C 
HETATM    6  C9  UNL     1      17.843  24.892 -16.834  1.00  0.00     0.150 C 
HETATM    7  O2  UNL     1      18.192  25.969 -17.281  1.00  0.00    -0.296 OA
HETATM    8  C10 UNL     1      16.438  24.403 -17.072  1.00  0.00     0.160 C 
HETATM    9  C16 UNL     1      16.070  23.148 -16.404  1.00  0.00     0.017 C 
HETATM   10  C17 UNL     1      17.010  22.998 -15.261  1.00  0.00     0.017 C 
HETATM   11  C18 UNL     1      16.132  21.843 -17.094  1.00  0.00     0.021 C 
HETATM   12  C19 UNL     1      18.438  22.189 -17.277  1.00  0.00     0.024 C 
ENDROOT
BRANCH   1  13
HETATM   13  C3  UNL     1      17.361  19.962 -17.942  1.00  0.00    -0.014 A 
HETATM   14  C2  UNL     1      16.806  18.758 -17.620  1.00  0.00     0.099 A 
HETATM   15  C25 UNL     1      16.614  17.717 -18.554  1.00  0.00     0.101 A 
HETATM   16  C22 UNL     1      16.987  17.859 -19.862  1.00  0.00     0.103 A 
HETATM   17 CL1  UNL     1      15.892  16.238 -18.011  1.00  0.00    -0.078 Cl
HETATM   18  C21 UNL     1      17.549  19.052 -20.212  1.00  0.00     0.040 A 
HETATM   19  C20 UNL     1      17.737  20.084 -19.289  1.00  0.00     0.013 A 
BRANCH  14  20
HETATM   20  O1  UNL     1      16.415  18.518 -16.322  1.00  0.00    -0.354 OA
HETATM   21  C1  UNL     1      14.996  18.536 -16.084  1.00  0.00     0.210 C 
ENDBRANCH  14  20
BRANCH  16  22
HETATM   22  O5  UNL     1      16.788  16.816 -20.773  1.00  0.00    -0.277 OA
BRANCH  22  23
HETATM   23  C23 UNL     1      17.861  16.005 -21.175  1.00  0.00     0.260 C 
HETATM   24  C24 UNL     1      18.744  15.308 -20.213  1.00  0.00     0.126 C 
HETATM   25  O6  UNL     1      18.098  15.853 -22.402  1.00  0.00    -0.265 OA
ENDBRANCH  22  23
ENDBRANCH  16  22
ENDBRANCH   1  13
BRANCH   8  26
HETATM   26  N1  UNL     1      15.617  25.474 -16.470  1.00  0.00    -0.325 N 
HETATM   27  C11 UNL     1      14.565  26.116 -17.140  1.00  0.00     0.362 C 
HETATM   28  O3  UNL     1      14.281  25.790 -18.309  1.00  0.00    -0.238 OA
ATOM     29  H1  UNL     1      15.828  25.763 -15.514  1.00  0.00     0.165 HD
BRANCH  27  30
HETATM   30  O4  UNL     1      13.837  27.103 -16.531  1.00  0.00    -0.294 OA
BRANCH  30  31
HETATM   31  C12 UNL     1      14.166  28.478 -16.600  1.00  0.00     0.061 C 
HETATM   32  C13 UNL     1      14.082  29.143 -15.258  1.00  0.00     0.046 C 
HETATM   33  C14 UNL     1      13.181  29.147 -17.527  1.00  0.00     0.046 C 
HETATM   34  C15 UNL     1      15.553  28.696 -17.160  1.00  0.00     0.046 C 
ENDBRANCH  30  31
ENDBRANCH  27  30
ENDBRANCH   8  26
TORSDOF 7
ENDMDL
MODEL 5
REMARK VINA RESULT: -8.284083597      2.567      4.210
REMARK  7 active torsions:
REMARK  status: ('A' for Active; 'I' for Inactive)
REMARK    1  A    between atoms: O1_2  and  C2_3 
REMARK    2  A    between atoms: C3_4  and  C4_5 
REMARK    3  A    between atoms: C10_12  and  N1_13 
REMARK       I    between atoms: N1_13  and  C11_15 
REMARK    4  A    between atoms: C11_15  and  O4_17 
REMARK    5  A    between atoms: O4_17  and  C12_18 
REMARK    6  A    between atoms: C22_28  and  O5_29 
REMARK    7  A    between atoms: O5_29  and  C23_30 
ROOT
HETATM    1  C4  UNL     1      16.684  18.687 -17.631  1.00  0.00    -0.009 C 
HETATM    2  C5  UNL     1      15.262  18.719 -17.100  1.00  0.00     0.015 C 
HETATM    3  C6  UNL     1      15.351  19.102 -15.603  1.00  0.00     0.011 C 
HETATM    4  C7  UNL     1      16.586  19.903 -15.723  1.00  0.00    -0.032 C 
HETATM    5  C8  UNL     1      17.450  20.375 -14.689  1.00  0.00     0.090 C 
HETATM    6  C9  UNL     1      18.522  21.156 -15.423  1.00  0.00     0.150 C 
HETATM    7  O2  UNL     1      19.480  21.484 -14.748  1.00  0.00    -0.296 OA
HETATM    8  C10 UNL     1      18.470  21.531 -16.881  1.00  0.00     0.160 C 
HETATM    9  C16 UNL     1      17.229  21.190 -17.590  1.00  0.00     0.017 C 
HETATM   10  C17 UNL     1      16.180  21.057 -16.544  1.00  0.00     0.017 C 
HETATM   11  C18 UNL     1      17.096  19.956 -18.393  1.00  0.00     0.021 C 
HETATM   12  C19 UNL     1      17.414  18.774 -16.400  1.00  0.00     0.024 C 
ENDROOT
BRANCH   1  13
HETATM   13  C3  UNL     1      16.769  17.585 -18.575  1.00  0.00    -0.014 A 
HETATM   14  C2  UNL     1      16.784  16.251 -18.288  1.00  0.00     0.099 A 
HETATM   15  C25 UNL     1      16.752  15.244 -19.277  1.00  0.00     0.101 A 
HETATM   16  C22 UNL     1      16.706  15.557 -20.609  1.00  0.00     0.103 A 
HETATM   17 CL1  UNL     1      16.772  13.586 -18.774  1.00  0.00    -0.078 Cl
HETATM   18  C21 UNL     1      16.693  16.884 -20.924  1.00  0.00     0.040 A 
HETATM   19  C20 UNL     1      16.723  17.881 -19.946  1.00  0.00     0.013 A 
BRANCH  14  20
HETATM   20  O1  UNL     1      16.847  15.840 -16.976  1.00  0.00    -0.354 OA
HETATM   21  C1  UNL     1      15.607  15.384 -16.405  1.00  0.00     0.210 C 
ENDBRANCH  14  20
BRANCH  16  22
HETATM   22  O5  UNL     1      16.673  14.545 -21.573  1.00  0.00    -0.277 OA
BRANCH  22  23
HETATM   23  C23 UNL     1      17.794  14.292 -22.380  1.00  0.00     0.260 C 
HETATM   24  C24 UNL     1      18.822  13.285 -22.032  1.00  0.00     0.126 C 
HETATM   25  O6  UNL     1      17.947  14.938 -23.449  1.00  0.00    -0.265 OA
ENDBRANCH  22  23
ENDBRANCH  16  22
ENDBRANCH   1  13
BRANCH   8  26
HETATM   26  N1  UNL     1      18.558  23.005 -16.839  1.00  0.00    -0.325 N 
HETATM   27  C11 UNL     1      18.869  23.796 -17.954  1.00  0.00     0.362 C 
HETATM   28  O3  UNL     1      19.089  23.259 -19.057  1.00  0.00    -0.238 OA
ATOM     29  H1  UNL     1      18.383  23.472 -15.949  1.00  0.00     0.165 HD
BRANCH  27  30
HETATM   30  O4  UNL     1      18.935  25.161 -17.857  1.00  0.00    -0.294 OA
BRANCH  30  31
HETATM   31  C12 UNL     1      17.812  26.013 -17.982  1.00  0.00     0.061 C 
HETATM   32  C13 UNL     1      17.567  26.412 -19.407  1.00  0.00     0.046 C 
HETATM   33  C14 UNL     1      18.081  27.260 -17.176  1.00  0.00     0.046 C 
HETATM   34  C15 UNL     1      16.557  25.370 -17.438  1.00  0.00     0.046 C 
ENDBRANCH  30  31
ENDBRANCH  27  30
ENDBRANCH   8  26
TORSDOF 7
ENDMDL
