MODEL 1
REMARK VINA RESULT: -7.388837911      0.000      0.000
REMARK  6 active torsions:
REMARK  status: ('A' for Active; 'I' for Inactive)
REMARK    1  A    between atoms: C6_6  and  N1_7 
REMARK    2  A    between atoms: C7_10  and  O3_11 
REMARK    3  A    between atoms: O3_11  and  C8_12 
REMARK    4  A    between atoms: C11_16  and  C12_17 
REMARK    5  A    between atoms: C12_17  and  C13_18 
REMARK    6  A    between atoms: C13_18  and  N2_19 
ROOT
HETATM    1  C13 UNL     1      17.040  20.574 -16.571  1.00  0.00     0.293 C 
HETATM    2  C14 UNL     1      16.229  21.741 -16.999  1.00  0.00     0.092 C 
HETATM    3  N3  UNL     1      15.590  22.645 -17.332  1.00  0.00    -0.195 NA
ENDROOT
BRANCH   1   4
HETATM    4  C12 UNL     1      16.124  19.401 -16.548  1.00  0.00     0.087 C 
BRANCH   4   5
HETATM    5  C11 UNL     1      16.438  18.332 -17.514  1.00  0.00    -0.045 A 
HETATM    6  C10 UNL     1      16.802  18.644 -18.813  1.00  0.00     0.029 A 
HETATM    7  C9  UNL     1      17.112  17.676 -19.739  1.00  0.00     0.045 A 
HETATM    8  C8  UNL     1      17.045  16.343 -19.314  1.00  0.00     0.101 A 
HETATM    9 BR1  UNL     1      17.611  18.143 -21.529  1.00  0.00    -0.048 Br
HETATM   10  C16 UNL     1      16.689  15.996 -18.042  1.00  0.00    -0.004 A 
HETATM   11  C15 UNL     1      16.380  17.003 -17.127  1.00  0.00    -0.018 A 
HETATM   12  C17 UNL     1      16.532  14.654 -17.489  1.00  0.00     0.004 C 
HETATM   13  C21 UNL     1      15.980  16.691 -15.739  1.00  0.00     0.207 C 
HETATM   14  O4  UNL     1      15.454  15.420 -15.572  1.00  0.00    -0.386 OA
HETATM   15  C20 UNL     1      15.178  14.736 -16.731  1.00  0.00     0.181 C 
HETATM   16  C18 UNL     1      17.563  14.430 -16.407  1.00  0.00     0.022 C 
HETATM   17  C19 UNL     1      16.511  13.504 -18.406  1.00  0.00     0.022 C 
BRANCH   8  18
HETATM   18  O3  UNL     1      17.338  15.392 -20.207  1.00  0.00    -0.306 OA
BRANCH  18  19
HETATM   19  C7  UNL     1      18.438  14.825 -20.731  1.00  0.00     0.110 A 
HETATM   20  C6  UNL     1      18.480  13.965 -21.787  1.00  0.00     0.142 A 
HETATM   21  C4  UNL     1      19.698  13.430 -22.246  1.00  0.00    -0.026 A 
HETATM   22  C3  UNL     1      20.873  13.776 -21.624  1.00  0.00     0.016 A 
HETATM   23  C5  UNL     1      19.745  12.488 -23.400  1.00  0.00     0.050 C 
HETATM   24  C2  UNL     1      20.881  14.640 -20.554  1.00  0.00    -0.059 A 
HETATM   25  C1  UNL     1      22.165  14.983 -19.916  1.00  0.00     0.048 C 
HETATM   26  C22 UNL     1      19.694  15.138 -20.134  1.00  0.00     0.046 A 
BRANCH  20  27
HETATM   27  N1  UNL     1      17.327  13.508 -22.517  1.00  0.00    -0.112 N 
HETATM   28  O1  UNL     1      16.811  14.360 -23.264  1.00  0.00    -0.532 OA
HETATM   29  O2  UNL     1      16.811  12.266 -22.465  1.00  0.00    -0.532 OA
ENDBRANCH  20  27
ENDBRANCH  18  19
ENDBRANCH   8  18
ENDBRANCH   4   5
ENDBRANCH   1   4
BRANCH   1  30
HETATM   30  N2  UNL     1      17.386  20.850 -15.162  1.00  0.00    -0.062 N 
ATOM     31  H23 UNL     1      17.028  20.151 -14.511  1.00  0.00     0.275 HD
ATOM     32  H22 UNL     1      18.377  20.719 -14.954  1.00  0.00     0.275 HD
ATOM     33  H21 UNL     1      17.053  21.794 -14.968  1.00  0.00     0.275 HD
ENDBRANCH   1  30
TORSDOF 6
ENDMDL
MODEL 2
REMARK VINA RESULT: -7.325597041      3.276      8.042
REMARK  6 active torsions:
REMARK  status: ('A' for Active; 'I' for Inactive)
REMARK    1  A    between atoms: C6_6  and  N1_7 
REMARK    2  A    between atoms: C7_10  and  O3_11 
REMARK    3  A    between atoms: O3_11  and  C8_12 
REMARK    4  A    between atoms: C11_16  and  C12_17 
REMARK    5  A    between atoms: C12_17  and  C13_18 
REMARK    6  A    between atoms: C13_18  and  N2_19 
ROOT
HETATM    1  C13 UNL     1      17.944  16.257 -21.537  1.00  0.00     0.293 C 
HETATM    2  C14 UNL     1      18.570  15.458 -20.455  1.00  0.00     0.092 C 
HETATM    3  N3  UNL     1      19.053  14.838 -19.607  1.00  0.00    -0.195 NA
ENDROOT
BRANCH   1   4
HETATM    4  C12 UNL     1      16.807  16.994 -20.922  1.00  0.00     0.087 C 
BRANCH   4   5
HETATM    5  C11 UNL     1      17.161  17.902 -19.817  1.00  0.00    -0.045 A 
HETATM    6  C10 UNL     1      18.005  18.979 -20.035  1.00  0.00     0.029 A 
HETATM    7  C9  UNL     1      18.350  19.853 -19.032  1.00  0.00     0.045 A 
HETATM    8  C8  UNL     1      17.811  19.613 -17.763  1.00  0.00     0.101 A 
HETATM    9 BR1  UNL     1      19.520  21.333 -19.370  1.00  0.00    -0.048 Br
HETATM   10  C16 UNL     1      16.977  18.561 -17.507  1.00  0.00    -0.004 A 
HETATM   11  C15 UNL     1      16.646  17.692 -18.547  1.00  0.00    -0.018 A 
HETATM   12  C17 UNL     1      16.391  18.170 -16.228  1.00  0.00     0.004 C 
HETATM   13  C21 UNL     1      15.757  16.532 -18.333  1.00  0.00     0.207 C 
HETATM   14  O4  UNL     1      15.706  16.090 -17.021  1.00  0.00    -0.386 OA
HETATM   15  C20 UNL     1      16.640  16.637 -16.175  1.00  0.00     0.181 C 
HETATM   16  C18 UNL     1      14.888  18.311 -16.298  1.00  0.00     0.022 C 
HETATM   17  C19 UNL     1      16.896  18.792 -14.995  1.00  0.00     0.022 C 
BRANCH   8  18
HETATM   18  O3  UNL     1      18.144  20.453 -16.777  1.00  0.00    -0.306 OA
BRANCH  18  19
HETATM   19  C7  UNL     1      18.055  21.769 -16.519  1.00  0.00     0.110 A 
HETATM   20  C6  UNL     1      19.036  22.559 -16.002  1.00  0.00     0.142 A 
HETATM   21  C4  UNL     1      18.825  23.931 -15.771  1.00  0.00    -0.026 A 
HETATM   22  C3  UNL     1      17.607  24.493 -16.072  1.00  0.00     0.016 A 
HETATM   23  C5  UNL     1      19.896  24.797 -15.204  1.00  0.00     0.050 C 
HETATM   24  C2  UNL     1      16.586  23.735 -16.595  1.00  0.00    -0.059 A 
HETATM   25  C1  UNL     1      15.296  24.380 -16.901  1.00  0.00     0.048 C 
HETATM   26  C22 UNL     1      16.819  22.418 -16.805  1.00  0.00     0.046 A 
BRANCH  20  27
HETATM   27  N1  UNL     1      20.348  22.099 -15.629  1.00  0.00    -0.112 N 
HETATM   28  O1  UNL     1      20.415  21.566 -14.506  1.00  0.00    -0.532 OA
HETATM   29  O2  UNL     1      21.452  22.183 -16.395  1.00  0.00    -0.532 OA
ENDBRANCH  20  27
ENDBRANCH  18  19
ENDBRANCH   8  18
ENDBRANCH   4   5
ENDBRANCH   1   4
BRANCH   1  30
HETATM   30  N2  UNL     1      17.343  15.260 -22.445  1.00  0.00    -0.062 N 
ATOM     31  H23 UNL     1      16.404  14.972 -22.169  1.00  0.00     0.275 HD
ATOM     32  H22 UNL     1      17.093  15.641 -23.358  1.00  0.00     0.275 HD
ATOM     33  H21 UNL     1      18.007  14.487 -22.496  1.00  0.00     0.275 HD
ENDBRANCH   1  30
TORSDOF 6
ENDMDL
MODEL 3
REMARK VINA RESULT: -7.182171072      8.100     11.453
REMARK  6 active torsions:
REMARK  status: ('A' for Active; 'I' for Inactive)
REMARK    1  A    between atoms: C6_6  and  N1_7 
REMARK    2  A    between atoms: C7_10  and  O3_11 
REMARK    3  A    between atoms: O3_11  and  C8_12 
REMARK    4  A    between atoms: C11_16  and  C12_17 
REMARK    5  A    between atoms: C12_17  and  C13_18 
REMARK    6  A    between atoms: C13_18  and  N2_19 
ROOT
HETATM    1  C13 UNL     1      20.976  24.806 -13.958  1.00  0.00     0.293 C 
HETATM    2  C14 UNL     1      20.167  24.339 -12.805  1.00  0.00     0.092 C 
HETATM    3  N3  UNL     1      19.534  23.970 -11.910  1.00  0.00    -0.195 NA
ENDROOT
BRANCH   1   4
HETATM    4  C12 UNL     1      20.524  24.024 -15.141  1.00  0.00     0.087 C 
BRANCH   4   5
HETATM    5  C11 UNL     1      19.321  24.537 -15.820  1.00  0.00    -0.045 A 
HETATM    6  C10 UNL     1      19.314  25.808 -16.374  1.00  0.00     0.029 A 
HETATM    7  C9  UNL     1      18.215  26.317 -17.024  1.00  0.00     0.045 A 
HETATM    8  C8  UNL     1      17.085  25.494 -17.107  1.00  0.00     0.101 A 
HETATM    9 BR1  UNL     1      18.240  28.079 -17.776  1.00  0.00    -0.048 Br
HETATM   10  C16 UNL     1      17.052  24.237 -16.574  1.00  0.00    -0.004 A 
HETATM   11  C15 UNL     1      18.185  23.750 -15.920  1.00  0.00    -0.018 A 
HETATM   12  C17 UNL     1      15.931  23.302 -16.547  1.00  0.00     0.004 C 
HETATM   13  C21 UNL     1      18.209  22.402 -15.315  1.00  0.00     0.207 C 
HETATM   14  O4  UNL     1      16.958  21.900 -14.996  1.00  0.00    -0.386 OA
HETATM   15  C20 UNL     1      15.921  22.798 -15.077  1.00  0.00     0.181 C 
HETATM   16  C18 UNL     1      16.274  22.080 -17.367  1.00  0.00     0.022 C 
HETATM   17  C19 UNL     1      14.591  23.788 -16.907  1.00  0.00     0.022 C 
BRANCH   8  18
HETATM   18  O3  UNL     1      16.007  25.980 -17.731  1.00  0.00    -0.306 OA
BRANCH  18  19
HETATM   19  C7  UNL     1      15.195  27.046 -17.626  1.00  0.00     0.110 A 
HETATM   20  C6  UNL     1      14.560  27.682 -18.650  1.00  0.00     0.142 A 
HETATM   21  C4  UNL     1      13.732  28.796 -18.417  1.00  0.00    -0.026 A 
HETATM   22  C3  UNL     1      13.555  29.257 -17.135  1.00  0.00     0.016 A 
HETATM   23  C5  UNL     1      13.037  29.494 -19.535  1.00  0.00     0.050 C 
HETATM   24  C2  UNL     1      14.175  28.649 -16.070  1.00  0.00    -0.059 A 
HETATM   25  C1  UNL     1      13.957  29.178 -14.711  1.00  0.00     0.048 C 
HETATM   26  C22 UNL     1      14.966  27.579 -16.325  1.00  0.00     0.046 A 
BRANCH  20  27
HETATM   27  N1  UNL     1      14.669  27.314 -20.037  1.00  0.00    -0.112 N 
HETATM   28  O1  UNL     1      15.746  27.629 -20.577  1.00  0.00    -0.532 OA
HETATM   29  O2  UNL     1      13.732  26.659 -20.747  1.00  0.00    -0.532 OA
ENDBRANCH  20  27
ENDBRANCH  18  19
ENDBRANCH   8  18
ENDBRANCH   4   5
ENDBRANCH   1   4
BRANCH   1  30
HETATM   30  N2  UNL     1      22.350  24.351 -13.667  1.00  0.00    -0.062 N 
ATOM     31  H23 UNL     1      22.912  24.194 -14.503  1.00  0.00     0.275 HD
ATOM     32  H22 UNL     1      22.939  25.076 -13.255  1.00  0.00     0.275 HD
ATOM     33  H21 UNL     1      22.255  23.523 -13.079  1.00  0.00     0.275 HD
ENDBRANCH   1  30
TORSDOF 6
ENDMDL
MODEL 4
REMARK VINA RESULT: -6.821172448      3.395      7.579
REMARK  6 active torsions:
REMARK  status: ('A' for Active; 'I' for Inactive)
REMARK    1  A    between atoms: C6_6  and  N1_7 
REMARK    2  A    between atoms: C7_10  and  O3_11 
REMARK    3  A    between atoms: O3_11  and  C8_12 
REMARK    4  A    between atoms: C11_16  and  C12_17 
REMARK    5  A    between atoms: C12_17  and  C13_18 
REMARK    6  A    between atoms: C13_18  and  N2_19 
ROOT
HETATM    1  C13 UNL     1      16.465  14.020 -16.127  1.00  0.00     0.293 C 
HETATM    2  C14 UNL     1      16.433  14.095 -14.646  1.00  0.00     0.092 C 
HETATM    3  N3  UNL     1      16.403  14.158 -13.491  1.00  0.00    -0.195 NA
ENDROOT
BRANCH   1   4
HETATM    4  C12 UNL     1      15.468  15.006 -16.627  1.00  0.00     0.087 C 
BRANCH   4   5
HETATM    5  C11 UNL     1      16.019  16.305 -17.053  1.00  0.00    -0.045 A 
HETATM    6  C10 UNL     1      16.237  17.313 -16.127  1.00  0.00     0.029 A 
HETATM    7  C9  UNL     1      16.759  18.534 -16.485  1.00  0.00     0.045 A 
HETATM    8  C8  UNL     1      17.067  18.725 -17.837  1.00  0.00     0.101 A 
HETATM    9 BR1  UNL     1      17.046  19.906 -15.178  1.00  0.00    -0.048 Br
HETATM   10  C16 UNL     1      16.865  17.757 -18.779  1.00  0.00    -0.004 A 
HETATM   11  C15 UNL     1      16.334  16.528 -18.384  1.00  0.00    -0.018 A 
HETATM   12  C17 UNL     1      17.093  17.843 -20.218  1.00  0.00     0.004 C 
HETATM   13  C21 UNL     1      16.084  15.444 -19.356  1.00  0.00     0.207 C 
HETATM   14  O4  UNL     1      15.924  15.879 -20.662  1.00  0.00    -0.386 OA
HETATM   15  C20 UNL     1      15.796  17.237 -20.823  1.00  0.00     0.181 C 
HETATM   16  C18 UNL     1      18.187  16.878 -20.615  1.00  0.00     0.022 C 
HETATM   17  C19 UNL     1      17.345  19.161 -20.821  1.00  0.00     0.022 C 
BRANCH   8  18
HETATM   18  O3  UNL     1      17.569  19.911 -18.198  1.00  0.00    -0.306 OA
BRANCH  18  19
HETATM   19  C7  UNL     1      17.595  21.166 -17.718  1.00  0.00     0.110 A 
HETATM   20  C6  UNL     1      18.707  21.889 -17.409  1.00  0.00     0.142 A 
HETATM   21  C4  UNL     1      18.611  23.201 -16.908  1.00  0.00    -0.026 A 
HETATM   22  C3  UNL     1      17.374  23.771 -16.725  1.00  0.00     0.016 A 
HETATM   23  C5  UNL     1      19.826  23.993 -16.568  1.00  0.00     0.050 C 
HETATM   24  C2  UNL     1      16.223  23.080 -17.022  1.00  0.00    -0.059 A 
HETATM   25  C1  UNL     1      14.918  23.731 -16.808  1.00  0.00     0.048 C 
HETATM   26  C22 UNL     1      16.348  21.820 -17.502  1.00  0.00     0.046 A 
BRANCH  20  27
HETATM   27  N1  UNL     1      20.058  21.410 -17.538  1.00  0.00    -0.112 N 
HETATM   28  O1  UNL     1      20.492  21.380 -18.704  1.00  0.00    -0.532 OA
HETATM   29  O2  UNL     1      20.854  21.034 -16.519  1.00  0.00    -0.532 OA
ENDBRANCH  20  27
ENDBRANCH  18  19
ENDBRANCH   8  18
ENDBRANCH   4   5
ENDBRANCH   1   4
BRANCH   1  30
HETATM   30  N2  UNL     1      15.919  12.686 -16.451  1.00  0.00    -0.062 N 
ATOM     31  H23 UNL     1      16.634  11.962 -16.527  1.00  0.00     0.275 HD
ATOM     32  H22 UNL     1      15.396  12.264 -15.683  1.00  0.00     0.275 HD
ATOM     33  H21 UNL     1      15.368  12.805 -17.301  1.00  0.00     0.275 HD
ENDBRANCH   1  30
TORSDOF 6
ENDMDL
MODEL 5
REMARK VINA RESULT: -6.706153499      4.079      6.956
REMARK  6 active torsions:
REMARK  status: ('A' for Active; 'I' for Inactive)
REMARK    1  A    between atoms: C6_6  and  N1_7 
REMARK    2  A    between atoms: C7_10  and  O3_11 
REMARK    3  A    between atoms: O3_11  and  C8_12 
REMARK    4  A    between atoms: C11_16  and  C12_17 
REMARK    5  A    between atoms: C12_17  and  C13_18 
REMARK    6  A    between atoms: C13_18  and  N2_19 
ROOT
HETATM    1  C13 UNL     1      21.880  22.940 -14.351  1.00  0.00     0.293 C 
HETATM    2  C14 UNL     1      23.179  23.655 -14.322  1.00  0.00     0.092 C 
HETATM    3  N3  UNL     1      24.189  24.219 -14.302  1.00  0.00    -0.195 NA
ENDROOT
BRANCH   1   4
HETATM    4  C12 UNL     1      20.957  23.763 -15.180  1.00  0.00     0.087 C 
BRANCH   4   5
HETATM    5  C11 UNL     1      20.051  23.007 -16.063  1.00  0.00    -0.045 A 
HETATM    6  C10 UNL     1      20.560  22.215 -17.079  1.00  0.00     0.029 A 
HETATM    7  C9  UNL     1      19.747  21.488 -17.916  1.00  0.00     0.045 A 
HETATM    8  C8  UNL     1      18.367  21.576 -17.702  1.00  0.00     0.101 A 
HETATM    9 BR1  UNL     1      20.486  20.404 -19.313  1.00  0.00    -0.048 Br
HETATM   10  C16 UNL     1      17.827  22.346 -16.711  1.00  0.00    -0.004 A 
HETATM   11  C15 UNL     1      18.679  23.073 -15.879  1.00  0.00    -0.018 A 
HETATM   12  C17 UNL     1      16.414  22.566 -16.414  1.00  0.00     0.004 C 
HETATM   13  C21 UNL     1      18.156  23.931 -14.795  1.00  0.00     0.207 C 
HETATM   14  O4  UNL     1      16.850  24.353 -14.986  1.00  0.00    -0.386 OA
HETATM   15  C20 UNL     1      16.323  24.106 -16.230  1.00  0.00     0.181 C 
HETATM   16  C18 UNL     1      16.091  21.999 -15.051  1.00  0.00     0.022 C 
HETATM   17  C19 UNL     1      15.405  22.128 -17.391  1.00  0.00     0.022 C 
BRANCH   8  18
HETATM   18  O3  UNL     1      17.566  20.878 -18.514  1.00  0.00    -0.306 OA
BRANCH  18  19
HETATM   19  C7  UNL     1      17.303  19.588 -18.783  1.00  0.00     0.110 A 
HETATM   20  C6  UNL     1      16.817  18.663 -17.909  1.00  0.00     0.142 A 
HETATM   21  C4  UNL     1      16.584  17.333 -18.306  1.00  0.00    -0.026 A 
HETATM   22  C3  UNL     1      16.850  16.952 -19.599  1.00  0.00     0.016 A 
HETATM   23  C5  UNL     1      16.053  16.320 -17.352  1.00  0.00     0.050 C 
HETATM   24  C2  UNL     1      17.342  17.849 -20.517  1.00  0.00    -0.059 A 
HETATM   25  C1  UNL     1      17.614  17.395 -21.893  1.00  0.00     0.048 C 
HETATM   26  C22 UNL     1      17.557  19.122 -20.105  1.00  0.00     0.046 A 
BRANCH  20  27
HETATM   27  N1  UNL     1      16.511  18.923 -16.527  1.00  0.00    -0.112 N 
HETATM   28  O1  UNL     1      15.297  19.027 -16.272  1.00  0.00    -0.532 OA
HETATM   29  O2  UNL     1      17.413  19.032 -15.534  1.00  0.00    -0.532 OA
ENDBRANCH  20  27
ENDBRANCH  18  19
ENDBRANCH   8  18
ENDBRANCH   4   5
ENDBRANCH   1   4
BRANCH   1  30
HETATM   30  N2  UNL     1      21.370  23.021 -12.967  1.00  0.00    -0.062 N 
ATOM     31  H23 UNL     1      22.075  22.805 -12.262  1.00  0.00     0.275 HD
ATOM     32  H22 UNL     1      21.175  23.975 -12.662  1.00  0.00     0.275 HD
ATOM     33  H21 UNL     1      20.556  22.408 -12.929  1.00  0.00     0.275 HD
ENDBRANCH   1  30
TORSDOF 6
ENDMDL
