MODEL 1
REMARK VINA RESULT: -7.454332996      0.000      0.000
REMARK  5 active torsions:
REMARK  status: ('A' for Active; 'I' for Inactive)
REMARK    1  A    between atoms: O1_2  and  C2_3 
REMARK    2  A    between atoms: C5_6  and  O2_7 
REMARK    3  A    between atoms: C9_11  and  O3_12 
REMARK    4  A    between atoms: C11_16  and  C12_17 
REMARK    5  A    between atoms: C12_17  and  C14_19 
ROOT
HETATM    1  C2  UNL     1      -4.466 -10.090  22.069  1.00  0.00     0.112 A 
HETATM    2  C3  UNL     1      -4.195 -10.597  20.812  1.00  0.00     0.009 A 
HETATM    3  C4  UNL     1      -4.882 -11.819  20.365  1.00  0.00     0.054 C 
HETATM    4  C5  UNL     1      -3.296  -9.981  19.972  1.00  0.00     0.093 A 
HETATM    5  C7  UNL     1      -2.657  -8.829  20.403  1.00  0.00     0.078 A 
HETATM    6  C8  UNL     1      -2.949  -8.323  21.690  1.00  0.00     0.088 A 
HETATM    7  C9  UNL     1      -3.827  -8.935  22.508  1.00  0.00     0.128 A 
HETATM    8  N1  UNL     1      -2.413  -7.104  22.290  1.00  0.00    -0.342 N 
HETATM    9  C10 UNL     1      -3.301  -6.601  23.351  1.00  0.00     0.149 C 
HETATM   10  C11 UNL     1      -3.091  -4.995  23.393  1.00  0.00     0.037 C 
HETATM   11  C15 UNL     1      -1.594  -4.878  23.502  1.00  0.00    -0.051 C 
HETATM   12  C16 UNL     1      -1.371  -4.576  24.707  1.00  0.00     0.086 C 
HETATM   13  C17 UNL     1      -1.373  -4.257  26.023  1.00  0.00     0.017 C 
HETATM   14  C18 UNL     1      -2.953  -4.831  26.044  1.00  0.00     0.015 C 
HETATM   15  C19 UNL     1      -3.479  -4.372  24.670  1.00  0.00     0.075 C 
HETATM   16  C20 UNL     1      -2.527  -3.249  24.558  1.00  0.00     0.140 C 
HETATM   17  O5  UNL     1      -2.380  -2.083  24.435  1.00  0.00    -0.297 OA
HETATM   18  C21 UNL     1      -0.721  -5.397  22.428  1.00  0.00     0.034 C 
HETATM   19  C22 UNL     1      -1.184  -6.501  21.865  1.00  0.00     0.035 C 
HETATM   20  C23 UNL     1      -0.247  -6.886  20.805  1.00  0.00     0.034 C 
HETATM   21  C24 UNL     1      -0.449  -7.662  19.747  1.00  0.00     0.058 C 
HETATM   22  C25 UNL     1      -1.710  -8.327  19.412  1.00  0.00     0.187 C 
HETATM   23  O6  UNL     1      -1.987  -8.473  18.228  1.00  0.00    -0.287 OA
ENDROOT
BRANCH  10  24
HETATM   24  C12 UNL     1      -3.600  -4.417  22.174  1.00  0.00    -0.031 C 
HETATM   25  C13 UNL     1      -2.959  -3.284  21.469  1.00  0.00     0.048 C 
BRANCH  24  26
HETATM   26  C14 UNL     1      -5.106  -4.219  22.182  1.00  0.00     0.262 C 
HETATM   27  O4  UNL     1      -5.512  -3.098  22.150  1.00  0.00    -0.302 OA
ENDBRANCH  24  26
ENDBRANCH  10  24
BRANCH   7  28
HETATM   28  O3  UNL     1      -4.092  -8.446  23.748  1.00  0.00    -0.356 OA
ATOM     29  H3  UNL     1      -4.258  -7.518  23.864  1.00  0.00     0.218 HD
ENDBRANCH   7  28
BRANCH   4  30
HETATM   30  O2  UNL     1      -3.003 -10.466  18.708  1.00  0.00    -0.354 OA
HETATM   31  C6  UNL     1      -2.256 -11.671  18.526  1.00  0.00     0.210 C 
ENDBRANCH   4  30
BRANCH   1  32
HETATM   32  O1  UNL     1      -5.363 -10.687  22.935  1.00  0.00    -0.352 OA
HETATM   33  C1  UNL     1      -5.003 -11.379  24.104  1.00  0.00     0.210 C 
ENDBRANCH   1  32
TORSDOF 5
ENDMDL
MODEL 2
REMARK VINA RESULT: -7.060279522      2.120      4.606
REMARK  5 active torsions:
REMARK  status: ('A' for Active; 'I' for Inactive)
REMARK    1  A    between atoms: O1_2  and  C2_3 
REMARK    2  A    between atoms: C5_6  and  O2_7 
REMARK    3  A    between atoms: C9_11  and  O3_12 
REMARK    4  A    between atoms: C11_16  and  C12_17 
REMARK    5  A    between atoms: C12_17  and  C14_19 
ROOT
HETATM    1  C2  UNL     1      -1.808  -7.934  17.525  1.00  0.00     0.112 A 
HETATM    2  C3  UNL     1      -2.055  -9.230  17.115  1.00  0.00     0.009 A 
HETATM    3  C4  UNL     1      -1.749  -9.618  15.728  1.00  0.00     0.054 C 
HETATM    4  C5  UNL     1      -2.582 -10.164  17.977  1.00  0.00     0.093 A 
HETATM    5  C7  UNL     1      -2.864  -9.789  19.281  1.00  0.00     0.078 A 
HETATM    6  C8  UNL     1      -2.601  -8.460  19.684  1.00  0.00     0.088 A 
HETATM    7  C9  UNL     1      -2.090  -7.550  18.832  1.00  0.00     0.128 A 
HETATM    8  N1  UNL     1      -2.788  -7.901  21.020  1.00  0.00    -0.342 N 
HETATM    9  C10 UNL     1      -1.938  -6.716  21.223  1.00  0.00     0.149 C 
HETATM   10  C11 UNL     1      -1.618  -6.655  22.810  1.00  0.00     0.037 C 
HETATM   11  C15 UNL     1      -2.995  -6.745  23.410  1.00  0.00    -0.051 C 
HETATM   12  C16 UNL     1      -3.270  -5.571  23.787  1.00  0.00     0.086 C 
HETATM   13  C17 UNL     1      -3.344  -4.258  24.109  1.00  0.00     0.017 C 
HETATM   14  C18 UNL     1      -2.054  -4.043  23.052  1.00  0.00     0.015 C 
HETATM   15  C19 UNL     1      -1.226  -5.320  23.293  1.00  0.00     0.075 C 
HETATM   16  C20 UNL     1      -1.736  -5.525  24.663  1.00  0.00     0.140 C 
HETATM   17  O5  UNL     1      -1.478  -5.632  25.811  1.00  0.00    -0.297 OA
HETATM   18  C21 UNL     1      -3.835  -7.940  23.188  1.00  0.00     0.034 C 
HETATM   19  C22 UNL     1      -3.685  -8.468  21.984  1.00  0.00     0.035 C 
HETATM   20  C23 UNL     1      -4.542  -9.655  21.910  1.00  0.00     0.034 C 
HETATM   21  C24 UNL     1      -4.462 -10.699  21.093  1.00  0.00     0.058 C 
HETATM   22  C25 UNL     1      -3.452 -10.882  20.048  1.00  0.00     0.187 C 
HETATM   23  O6  UNL     1      -3.079 -12.022  19.801  1.00  0.00    -0.287 OA
ENDROOT
BRANCH  10  24
HETATM   24  C12 UNL     1      -0.788  -7.778  23.172  1.00  0.00    -0.031 C 
HETATM   25  C13 UNL     1      -0.993  -8.597  24.386  1.00  0.00     0.048 C 
BRANCH  24  26
HETATM   26  C14 UNL     1       0.697  -7.516  22.984  1.00  0.00     0.262 C 
HETATM   27  O4  UNL     1       1.143  -7.651  21.886  1.00  0.00    -0.302 OA
ENDBRANCH  24  26
ENDBRANCH  10  24
BRANCH   7  28
HETATM   28  O3  UNL     1      -1.852  -6.272  19.227  1.00  0.00    -0.356 OA
ATOM     29  H3  UNL     1      -1.932  -6.039  20.145  1.00  0.00     0.218 HD
ENDBRANCH   7  28
BRANCH   4  30
HETATM   30  O2  UNL     1      -2.842 -11.470  17.593  1.00  0.00    -0.354 OA
HETATM   31  C6  UNL     1      -3.786 -11.772  16.564  1.00  0.00     0.210 C 
ENDBRANCH   4  30
BRANCH   1  32
HETATM   32  O1  UNL     1      -1.281  -6.974  16.682  1.00  0.00    -0.352 OA
HETATM   33  C1  UNL     1      -0.064  -6.304  16.897  1.00  0.00     0.210 C 
ENDBRANCH   1  32
TORSDOF 5
ENDMDL
MODEL 3
REMARK VINA RESULT: -6.952474210      2.350      5.097
REMARK  5 active torsions:
REMARK  status: ('A' for Active; 'I' for Inactive)
REMARK    1  A    between atoms: O1_2  and  C2_3 
REMARK    2  A    between atoms: C5_6  and  O2_7 
REMARK    3  A    between atoms: C9_11  and  O3_12 
REMARK    4  A    between atoms: C11_16  and  C12_17 
REMARK    5  A    between atoms: C12_17  and  C14_19 
ROOT
HETATM    1  C2  UNL     1      -2.075  -7.437  24.595  1.00  0.00     0.112 A 
HETATM    2  C3  UNL     1      -3.142  -8.292  24.799  1.00  0.00     0.009 A 
HETATM    3  C4  UNL     1      -3.637  -8.513  26.167  1.00  0.00     0.054 C 
HETATM    4  C5  UNL     1      -3.750  -8.939  23.747  1.00  0.00     0.093 A 
HETATM    5  C7  UNL     1      -3.277  -8.721  22.463  1.00  0.00     0.078 A 
HETATM    6  C8  UNL     1      -2.188  -7.841  22.273  1.00  0.00     0.088 A 
HETATM    7  C9  UNL     1      -1.595  -7.215  23.308  1.00  0.00     0.128 A 
HETATM    8  N1  UNL     1      -1.590  -7.456  20.997  1.00  0.00    -0.342 N 
HETATM    9  C10 UNL     1      -0.886  -6.168  21.109  1.00  0.00     0.149 C 
HETATM   10  C11 UNL     1      -0.954  -5.486  19.642  1.00  0.00     0.037 C 
HETATM   11  C15 UNL     1      -0.435  -6.590  18.759  1.00  0.00    -0.051 C 
HETATM   12  C16 UNL     1       0.745  -6.253  18.465  1.00  0.00     0.086 C 
HETATM   13  C17 UNL     1       1.965  -5.694  18.281  1.00  0.00     0.017 C 
HETATM   14  C18 UNL     1       1.593  -4.723  19.602  1.00  0.00     0.015 C 
HETATM   15  C19 UNL     1       0.087  -4.471  19.402  1.00  0.00     0.075 C 
HETATM   16  C20 UNL     1       0.134  -4.680  17.941  1.00  0.00     0.140 C 
HETATM   17  O5  UNL     1      -0.063  -4.226  16.868  1.00  0.00    -0.297 OA
HETATM   18  C21 UNL     1      -1.154  -7.878  18.667  1.00  0.00     0.034 C 
HETATM   19  C22 UNL     1      -1.707  -8.251  19.810  1.00  0.00     0.035 C 
HETATM   20  C23 UNL     1      -2.409  -9.515  19.571  1.00  0.00     0.034 C 
HETATM   21  C24 UNL     1      -3.393 -10.073  20.266  1.00  0.00     0.058 C 
HETATM   22  C25 UNL     1      -4.003  -9.511  21.473  1.00  0.00     0.187 C 
HETATM   23  O6  UNL     1      -5.195  -9.717  21.666  1.00  0.00    -0.287 OA
ENDROOT
BRANCH  10  24
HETATM   24  C12 UNL     1      -2.321  -5.140  19.340  1.00  0.00    -0.031 C 
HETATM   25  C13 UNL     1      -2.995  -5.474  18.066  1.00  0.00     0.048 C 
BRANCH  24  26
HETATM   26  C14 UNL     1      -2.689  -3.724  19.750  1.00  0.00     0.262 C 
HETATM   27  O4  UNL     1      -3.317  -3.590  20.756  1.00  0.00    -0.302 OA
ENDBRANCH  24  26
ENDBRANCH  10  24
BRANCH   7  28
HETATM   28  O3  UNL     1      -0.541  -6.380  23.115  1.00  0.00    -0.356 OA
ATOM     29  H3  UNL     1      -0.092  -6.372  22.278  1.00  0.00     0.218 HD
ENDBRANCH   7  28
BRANCH   4  30
HETATM   30  O2  UNL     1      -4.820  -9.802  23.921  1.00  0.00    -0.354 OA
HETATM   31  C6  UNL     1      -4.641 -11.112  24.463  1.00  0.00     0.210 C 
ENDBRANCH   4  30
BRANCH   1  32
HETATM   32  O1  UNL     1      -1.444  -6.774  25.630  1.00  0.00    -0.352 OA
HETATM   33  C1  UNL     1      -1.772  -5.479  26.067  1.00  0.00     0.210 C 
ENDBRANCH   1  32
TORSDOF 5
ENDMDL
MODEL 4
REMARK VINA RESULT: -6.362940423      2.400      5.318
REMARK  5 active torsions:
REMARK  status: ('A' for Active; 'I' for Inactive)
REMARK    1  A    between atoms: O1_2  and  C2_3 
REMARK    2  A    between atoms: C5_6  and  O2_7 
REMARK    3  A    between atoms: C9_11  and  O3_12 
REMARK    4  A    between atoms: C11_16  and  C12_17 
REMARK    5  A    between atoms: C12_17  and  C14_19 
ROOT
HETATM    1  C2  UNL     1      -3.068 -10.246  19.279  1.00  0.00     0.112 A 
HETATM    2  C3  UNL     1      -3.901 -10.506  20.350  1.00  0.00     0.009 A 
HETATM    3  C4  UNL     1      -4.615 -11.792  20.412  1.00  0.00     0.054 C 
HETATM    4  C5  UNL     1      -4.077  -9.587  21.359  1.00  0.00     0.093 A 
HETATM    5  C7  UNL     1      -3.398  -8.380  21.291  1.00  0.00     0.078 A 
HETATM    6  C8  UNL     1      -2.548  -8.133  20.190  1.00  0.00     0.088 A 
HETATM    7  C9  UNL     1      -2.385  -9.036  19.204  1.00  0.00     0.128 A 
HETATM    8  N1  UNL     1      -1.721  -6.947  19.976  1.00  0.00    -0.342 N 
HETATM    9  C10 UNL     1      -0.598  -7.240  19.071  1.00  0.00     0.149 C 
HETATM   10  C11 UNL     1       0.596  -6.230  19.490  1.00  0.00     0.037 C 
HETATM   11  C15 UNL     1      -0.101  -4.896  19.468  1.00  0.00    -0.051 C 
HETATM   12  C16 UNL     1       0.286  -4.336  18.404  1.00  0.00     0.086 C 
HETATM   13  C17 UNL     1       0.834  -3.936  17.233  1.00  0.00     0.017 C 
HETATM   14  C18 UNL     1       1.235  -5.552  16.999  1.00  0.00     0.015 C 
HETATM   15  C19 UNL     1       1.592  -6.003  18.428  1.00  0.00     0.075 C 
HETATM   16  C20 UNL     1       1.958  -4.647  18.884  1.00  0.00     0.140 C 
HETATM   17  O5  UNL     1       2.795  -3.946  19.335  1.00  0.00    -0.297 OA
HETATM   18  C21 UNL     1      -1.232  -4.625  20.380  1.00  0.00     0.034 C 
HETATM   19  C22 UNL     1      -1.997  -5.683  20.593  1.00  0.00     0.035 C 
HETATM   20  C23 UNL     1      -3.050  -5.287  21.532  1.00  0.00     0.034 C 
HETATM   21  C24 UNL     1      -3.801  -6.047  22.321  1.00  0.00     0.058 C 
HETATM   22  C25 UNL     1      -3.726  -7.506  22.414  1.00  0.00     0.187 C 
HETATM   23  O6  UNL     1      -3.952  -8.027  23.499  1.00  0.00    -0.287 OA
ENDROOT
BRANCH  10  24
HETATM   24  C12 UNL     1       1.074  -6.577  20.806  1.00  0.00    -0.031 C 
HETATM   25  C13 UNL     1       0.806  -7.875  21.465  1.00  0.00     0.048 C 
BRANCH  24  26
HETATM   26  C14 UNL     1       0.922  -5.455  21.819  1.00  0.00     0.262 C 
HETATM   27  O4  UNL     1       0.679  -5.763  22.946  1.00  0.00    -0.302 OA
ENDBRANCH  24  26
ENDBRANCH  10  24
BRANCH   7  28
HETATM   28  O3  UNL     1      -1.573  -8.783  18.145  1.00  0.00    -0.356 OA
ATOM     29  H3  UNL     1      -1.096  -7.962  18.100  1.00  0.00     0.218 HD
ENDBRANCH   7  28
BRANCH   4  30
HETATM   30  O2  UNL     1      -4.907  -9.819  22.444  1.00  0.00    -0.354 OA
HETATM   31  C6  UNL     1      -4.651 -10.881  23.365  1.00  0.00     0.210 C 
ENDBRANCH   4  30
BRANCH   1  32
HETATM   32  O1  UNL     1      -2.873 -11.148  18.251  1.00  0.00    -0.352 OA
HETATM   33  C1  UNL     1      -1.835 -12.095  18.206  1.00  0.00     0.210 C 
ENDBRANCH   1  32
TORSDOF 5
ENDMDL
MODEL 5
REMARK VINA RESULT: -6.345435762      2.549      4.920
REMARK  5 active torsions:
REMARK  status: ('A' for Active; 'I' for Inactive)
REMARK    1  A    between atoms: O1_2  and  C2_3 
REMARK    2  A    between atoms: C5_6  and  O2_7 
REMARK    3  A    between atoms: C9_11  and  O3_12 
REMARK    4  A    between atoms: C11_16  and  C12_17 
REMARK    5  A    between atoms: C12_17  and  C14_19 
ROOT
HETATM    1  C2  UNL     1      -2.137  -9.940  18.139  1.00  0.00     0.112 A 
HETATM    2  C3  UNL     1      -2.865 -10.805  18.933  1.00  0.00     0.009 A 
HETATM    3  C4  UNL     1      -3.176 -12.155  18.432  1.00  0.00     0.054 C 
HETATM    4  C5  UNL     1      -3.305 -10.431  20.182  1.00  0.00     0.093 A 
HETATM    5  C7  UNL     1      -3.004  -9.159  20.644  1.00  0.00     0.078 A 
HETATM    6  C8  UNL     1      -2.256  -8.289  19.820  1.00  0.00     0.088 A 
HETATM    7  C9  UNL     1      -1.833  -8.662  18.596  1.00  0.00     0.128 A 
HETATM    8  N1  UNL     1      -1.807  -6.940  20.156  1.00  0.00    -0.342 N 
HETATM    9  C10 UNL     1      -0.642  -6.551  19.344  1.00  0.00     0.149 C 
HETATM   10  C11 UNL     1       0.206  -5.504  20.243  1.00  0.00     0.037 C 
HETATM   11  C15 UNL     1      -0.847  -4.502  20.634  1.00  0.00    -0.051 C 
HETATM   12  C16 UNL     1      -0.633  -3.494  19.905  1.00  0.00     0.086 C 
HETATM   13  C17 UNL     1      -0.219  -2.542  19.036  1.00  0.00     0.017 C 
HETATM   14  C18 UNL     1       0.635  -3.772  18.272  1.00  0.00     0.015 C 
HETATM   15  C19 UNL     1       1.100  -4.629  19.465  1.00  0.00     0.075 C 
HETATM   16  C20 UNL     1       1.054  -3.511  20.427  1.00  0.00     0.140 C 
HETATM   17  O5  UNL     1       1.650  -2.845  21.201  1.00  0.00    -0.297 OA
HETATM   18  C21 UNL     1      -2.013  -4.916  21.443  1.00  0.00     0.034 C 
HETATM   19  C22 UNL     1      -2.440  -6.136  21.160  1.00  0.00     0.035 C 
HETATM   20  C23 UNL     1      -3.568  -6.429  22.049  1.00  0.00     0.034 C 
HETATM   21  C24 UNL     1      -4.070  -7.604  22.408  1.00  0.00     0.058 C 
HETATM   22  C25 UNL     1      -3.576  -8.909  21.964  1.00  0.00     0.187 C 
HETATM   23  O6  UNL     1      -3.648  -9.849  22.746  1.00  0.00    -0.287 OA
ENDROOT
BRANCH  10  24
HETATM   24  C12 UNL     1       0.758  -6.194  21.384  1.00  0.00    -0.031 C 
HETATM   25  C13 UNL     1       0.948  -7.660  21.449  1.00  0.00     0.048 C 
BRANCH  24  26
HETATM   26  C14 UNL     1       0.211  -5.697  22.712  1.00  0.00     0.262 C 
HETATM   27  O4  UNL     1       0.266  -6.443  23.641  1.00  0.00    -0.302 OA
ENDBRANCH  24  26
ENDBRANCH  10  24
BRANCH   7  28
HETATM   28  O3  UNL     1      -1.124  -7.813  17.807  1.00  0.00    -0.356 OA
ATOM     29  H3  UNL     1      -1.549  -7.382  17.075  1.00  0.00     0.218 HD
ENDBRANCH   7  28
BRANCH   4  30
HETATM   30  O2  UNL     1      -4.037 -11.276  21.000  1.00  0.00    -0.354 OA
HETATM   31  C6  UNL     1      -5.353 -11.704  20.643  1.00  0.00     0.210 C 
ENDBRANCH   4  30
BRANCH   1  32
HETATM   32  O1  UNL     1      -1.684 -10.288  16.881  1.00  0.00    -0.352 OA
HETATM   33  C1  UNL     1      -2.469 -10.270  15.715  1.00  0.00     0.210 C 
ENDBRANCH   1  32
TORSDOF 5
ENDMDL
