MODEL 1
REMARK VINA RESULT: -7.182819894      0.000      0.000
REMARK  8 active torsions:
REMARK  status: ('A' for Active; 'I' for Inactive)
REMARK    1  A    between atoms: C2_2  and  C4_4 
REMARK    2  A    between atoms: C4_4  and  N1_5 
REMARK    3  A    between atoms: C5_6  and  O1_7 
REMARK    4  A    between atoms: C6_9  and  O2_10 
REMARK    5  A    between atoms: C7_12  and  C8_13 
REMARK    6  A    between atoms: C8_13  and  N2_14 
REMARK    7  A    between atoms: C11_17  and  C12_18 
REMARK    8  A    between atoms: C15_21  and  C16_22 
ROOT
HETATM    1  N1  UNL     1       9.876  -5.619  -1.203  1.00  0.00    -0.324 N 
HETATM    2  C5  UNL     1      10.835  -5.259  -0.296  1.00  0.00     0.177 A 
HETATM    3  C6  UNL     1      11.864  -6.156  -0.357  1.00  0.00     0.127 A 
HETATM    4  C7  UNL     1      11.523  -7.085  -1.314  1.00  0.00     0.035 A 
HETATM    5  C11 UNL     1      10.271  -6.734  -1.849  1.00  0.00     0.057 A 
ENDROOT
BRANCH   5   6
HETATM    6  C12 UNL     1       9.553  -7.500  -2.861  1.00  0.00    -0.006 A 
HETATM    7  C13 UNL     1       8.517  -8.369  -2.462  1.00  0.00     0.014 A 
HETATM    8  C14 UNL     1       7.825  -9.179  -3.306  1.00  0.00     0.012 A 
HETATM    9  C15 UNL     1       8.135  -9.176  -4.658  1.00  0.00    -0.012 A 
HETATM   10  C20 UNL     1       9.128  -8.358  -5.098  1.00  0.00     0.124 A 
HETATM   11  F1  UNL     1       9.467  -8.349  -6.401  1.00  0.00    -0.205 F 
HETATM   12  C21 UNL     1       9.820  -7.533  -4.199  1.00  0.00     0.056 A 
BRANCH   9  13
HETATM   13  C16 UNL     1       7.334 -10.014  -5.591  1.00  0.00    -0.021 C 
HETATM   14  C17 UNL     1       6.668  -9.222  -6.686  1.00  0.00     0.019 C 
HETATM   15  C18 UNL     1       6.215 -10.719  -4.820  1.00  0.00     0.019 C 
HETATM   16  C19 UNL     1       8.180 -11.114  -6.181  1.00  0.00     0.019 C 
ENDBRANCH   9  13
ENDBRANCH   5   6
BRANCH   1  17
HETATM   17  C4  UNL     1       8.665  -4.890  -1.308  1.00  0.00     0.135 C 
BRANCH  17  18
HETATM   18  C2  UNL     1       7.733  -5.146  -0.122  1.00  0.00    -0.004 C 
HETATM   19  C1  UNL     1       7.519  -3.944   0.726  1.00  0.00     0.011 C 
HETATM   20  C3  UNL     1       6.410  -5.593  -0.649  1.00  0.00     0.011 C 
ENDBRANCH  17  18
ENDBRANCH   1  17
BRANCH   4  21
HETATM   21  C8  UNL     1      12.464  -8.143  -1.742  1.00  0.00     0.315 C 
BRANCH  21  22
HETATM   22  N2  UNL     1      13.258  -7.758  -2.865  1.00  0.00     0.084 N 
HETATM   23  C9  UNL     1      14.540  -7.240  -2.611  1.00  0.00     0.309 C 
HETATM   24  C10 UNL     1      13.283  -8.751  -3.902  1.00  0.00     0.309 C 
ENDBRANCH  21  22
ENDBRANCH   4  21
BRANCH   2  25
HETATM   25  O1  UNL     1      10.827  -4.177   0.566  1.00  0.00    -0.344 OA
ATOM     26  H1  UNL     1      11.049  -4.165   1.489  1.00  0.00     0.219 HD
ENDBRANCH   2  25
BRANCH   3  27
HETATM   27  O2  UNL     1      13.041  -6.114   0.432  1.00  0.00    -0.356 OA
ATOM     28  H2  UNL     1      13.692  -6.803   0.489  1.00  0.00     0.218 HD
ENDBRANCH   3  27
TORSDOF 8
ENDMDL
MODEL 2
REMARK VINA RESULT: -7.058630339      0.761      4.163
REMARK  8 active torsions:
REMARK  status: ('A' for Active; 'I' for Inactive)
REMARK    1  A    between atoms: C2_2  and  C4_4 
REMARK    2  A    between atoms: C4_4  and  N1_5 
REMARK    3  A    between atoms: C5_6  and  O1_7 
REMARK    4  A    between atoms: C6_9  and  O2_10 
REMARK    5  A    between atoms: C7_12  and  C8_13 
REMARK    6  A    between atoms: C8_13  and  N2_14 
REMARK    7  A    between atoms: C11_17  and  C12_18 
REMARK    8  A    between atoms: C15_21  and  C16_22 
ROOT
HETATM    1  N1  UNL     1      11.510  -7.056  -1.280  1.00  0.00    -0.324 N 
HETATM    2  C5  UNL     1      11.811  -6.097  -0.352  1.00  0.00     0.177 A 
HETATM    3  C6  UNL     1      10.780  -5.202  -0.286  1.00  0.00     0.127 A 
HETATM    4  C7  UNL     1       9.835  -5.620  -1.196  1.00  0.00     0.035 A 
HETATM    5  C11 UNL     1      10.300  -6.796  -1.813  1.00  0.00     0.057 A 
ENDROOT
BRANCH   5   6
HETATM    6  C12 UNL     1       9.597  -7.518  -2.867  1.00  0.00    -0.006 A 
HETATM    7  C13 UNL     1       8.551  -8.398  -2.521  1.00  0.00     0.014 A 
HETATM    8  C14 UNL     1       7.873  -9.171  -3.409  1.00  0.00     0.012 A 
HETATM    9  C15 UNL     1       8.206  -9.116  -4.754  1.00  0.00    -0.012 A 
HETATM   10  C20 UNL     1       9.210  -8.284  -5.143  1.00  0.00     0.124 A 
HETATM   11  F1  UNL     1       9.572  -8.225  -6.439  1.00  0.00    -0.205 F 
HETATM   12  C21 UNL     1       9.888  -7.498  -4.200  1.00  0.00     0.056 A 
BRANCH   9  13
HETATM   13  C16 UNL     1       7.419  -9.913  -5.734  1.00  0.00    -0.021 C 
HETATM   14  C17 UNL     1       6.780  -9.075  -6.811  1.00  0.00     0.019 C 
HETATM   15  C18 UNL     1       6.281 -10.639  -5.012  1.00  0.00     0.019 C 
HETATM   16  C19 UNL     1       8.271 -10.995  -6.349  1.00  0.00     0.019 C 
ENDBRANCH   9  13
ENDBRANCH   5   6
BRANCH   1  17
HETATM   17  C4  UNL     1      12.439  -8.080  -1.593  1.00  0.00     0.135 C 
BRANCH  17  18
HETATM   18  C2  UNL     1      13.369  -7.684  -2.741  1.00  0.00    -0.004 C 
HETATM   19  C1  UNL     1      14.775  -7.473  -2.310  1.00  0.00     0.011 C 
HETATM   20  C3  UNL     1      13.348  -8.771  -3.763  1.00  0.00     0.011 C 
ENDBRANCH  17  18
ENDBRANCH   1  17
BRANCH   4  21
HETATM   21  C8  UNL     1       8.517  -4.959  -1.309  1.00  0.00     0.315 C 
BRANCH  21  22
HETATM   22  N2  UNL     1       7.654  -5.250  -0.209  1.00  0.00     0.084 N 
HETATM   23  C9  UNL     1       7.478  -4.250   0.764  1.00  0.00     0.309 C 
HETATM   24  C10 UNL     1       6.401  -5.823  -0.614  1.00  0.00     0.309 C 
ENDBRANCH  21  22
ENDBRANCH   4  21
BRANCH   2  25
HETATM   25  O1  UNL     1      12.950  -5.994   0.426  1.00  0.00    -0.344 OA
ATOM     26  H1  UNL     1      13.010  -5.974   1.374  1.00  0.00     0.219 HD
ENDBRANCH   2  25
BRANCH   3  27
HETATM   27  O2  UNL     1      10.726  -4.069   0.562  1.00  0.00    -0.356 OA
ATOM     28  H2  UNL     1      10.358  -4.052   1.438  1.00  0.00     0.218 HD
ENDBRANCH   3  27
TORSDOF 8
ENDMDL
MODEL 3
REMARK VINA RESULT: -6.685080876      1.714      2.618
REMARK  8 active torsions:
REMARK  status: ('A' for Active; 'I' for Inactive)
REMARK    1  A    between atoms: C2_2  and  C4_4 
REMARK    2  A    between atoms: C4_4  and  N1_5 
REMARK    3  A    between atoms: C5_6  and  O1_7 
REMARK    4  A    between atoms: C6_9  and  O2_10 
REMARK    5  A    between atoms: C7_12  and  C8_13 
REMARK    6  A    between atoms: C8_13  and  N2_14 
REMARK    7  A    between atoms: C11_17  and  C12_18 
REMARK    8  A    between atoms: C15_21  and  C16_22 
ROOT
HETATM    1  N1  UNL     1      11.380  -6.924  -1.349  1.00  0.00    -0.324 N 
HETATM    2  C5  UNL     1      12.685  -6.661  -1.032  1.00  0.00     0.177 A 
HETATM    3  C6  UNL     1      13.491  -7.162  -2.016  1.00  0.00     0.127 A 
HETATM    4  C7  UNL     1      12.662  -7.746  -2.947  1.00  0.00     0.035 A 
HETATM    5  C11 UNL     1      11.331  -7.584  -2.523  1.00  0.00     0.057 A 
ENDROOT
BRANCH   5   6
HETATM    6  C12 UNL     1      10.164  -8.107  -3.223  1.00  0.00    -0.006 A 
HETATM    7  C13 UNL     1      10.080  -7.968  -4.624  1.00  0.00     0.014 A 
HETATM    8  C14 UNL     1       9.014  -8.356  -5.372  1.00  0.00     0.012 A 
HETATM    9  C15 UNL     1       7.916  -8.928  -4.747  1.00  0.00    -0.012 A 
HETATM   10  C20 UNL     1       7.943  -9.084  -3.397  1.00  0.00     0.124 A 
HETATM   11  F1  UNL     1       6.883  -9.617  -2.758  1.00  0.00    -0.205 F 
HETATM   12  C21 UNL     1       9.061  -8.675  -2.655  1.00  0.00     0.056 A 
BRANCH   9  13
HETATM   13  C16 UNL     1       6.777  -9.412  -5.574  1.00  0.00    -0.021 C 
HETATM   14  C17 UNL     1       6.572 -10.903  -5.496  1.00  0.00     0.019 C 
HETATM   15  C18 UNL     1       7.033  -9.082  -7.047  1.00  0.00     0.019 C 
HETATM   16  C19 UNL     1       5.506  -8.689  -5.206  1.00  0.00     0.019 C 
ENDBRANCH   9  13
ENDBRANCH   5   6
BRANCH   1  17
HETATM   17  C4  UNL     1      10.331  -6.565  -0.465  1.00  0.00     0.135 C 
BRANCH  17  18
HETATM   18  C2  UNL     1       9.944  -5.091  -0.597  1.00  0.00    -0.004 C 
HETATM   19  C1  UNL     1       8.547  -4.891  -1.062  1.00  0.00     0.011 C 
HETATM   20  C3  UNL     1      10.093  -4.442   0.738  1.00  0.00     0.011 C 
ENDBRANCH  17  18
ENDBRANCH   1  17
BRANCH   4  21
HETATM   21  C8  UNL     1      13.182  -8.284  -4.223  1.00  0.00     0.315 C 
BRANCH  21  22
HETATM   22  N2  UNL     1      13.903  -7.313  -4.982  1.00  0.00     0.084 N 
HETATM   23  C9  UNL     1      15.126  -7.708  -5.553  1.00  0.00     0.309 C 
HETATM   24  C10 UNL     1      13.079  -6.612  -5.925  1.00  0.00     0.309 C 
ENDBRANCH  21  22
ENDBRANCH   4  21
BRANCH   2  25
HETATM   25  O1  UNL     1      13.173  -6.001   0.081  1.00  0.00    -0.344 OA
ATOM     26  H1  UNL     1      13.339  -5.071   0.183  1.00  0.00     0.219 HD
ENDBRANCH   2  25
BRANCH   3  27
HETATM   27  O2  UNL     1      14.906  -7.082  -2.041  1.00  0.00    -0.356 OA
ATOM     28  H2  UNL     1      15.482  -7.263  -1.308  1.00  0.00     0.218 HD
ENDBRANCH   3  27
TORSDOF 8
ENDMDL
MODEL 4
REMARK VINA RESULT: -6.607535096      3.239      4.919
REMARK  8 active torsions:
REMARK  status: ('A' for Active; 'I' for Inactive)
REMARK    1  A    between atoms: C2_2  and  C4_4 
REMARK    2  A    between atoms: C4_4  and  N1_5 
REMARK    3  A    between atoms: C5_6  and  O1_7 
REMARK    4  A    between atoms: C6_9  and  O2_10 
REMARK    5  A    between atoms: C7_12  and  C8_13 
REMARK    6  A    between atoms: C8_13  and  N2_14 
REMARK    7  A    between atoms: C11_17  and  C12_18 
REMARK    8  A    between atoms: C15_21  and  C16_22 
ROOT
HETATM    1  N1  UNL     1      13.580  -7.027  -4.023  1.00  0.00    -0.324 N 
HETATM    2  C5  UNL     1      14.597  -6.120  -4.145  1.00  0.00     0.177 A 
HETATM    3  C6  UNL     1      14.535  -5.546  -5.383  1.00  0.00     0.127 A 
HETATM    4  C7  UNL     1      13.463  -6.118  -6.031  1.00  0.00     0.035 A 
HETATM    5  C11 UNL     1      12.861  -7.045  -5.162  1.00  0.00     0.057 A 
ENDROOT
BRANCH   5   6
HETATM    6  C12 UNL     1      11.719  -7.886  -5.502  1.00  0.00    -0.006 A 
HETATM    7  C13 UNL     1      11.879  -8.915  -6.453  1.00  0.00     0.014 A 
HETATM    8  C14 UNL     1      10.873  -9.716  -6.895  1.00  0.00     0.012 A 
HETATM    9  C15 UNL     1       9.591  -9.535  -6.399  1.00  0.00    -0.012 A 
HETATM   10  C20 UNL     1       9.380  -8.554  -5.481  1.00  0.00     0.124 A 
HETATM   11  F1  UNL     1       8.141  -8.338  -4.997  1.00  0.00    -0.205 F 
HETATM   12  C21 UNL     1      10.441  -7.747  -5.045  1.00  0.00     0.056 A 
BRANCH   9  13
HETATM   13  C16 UNL     1       8.505 -10.454  -6.835  1.00  0.00    -0.021 C 
HETATM   14  C17 UNL     1       8.049 -11.397  -5.752  1.00  0.00     0.019 C 
HETATM   15  C18 UNL     1       8.999 -11.323  -7.993  1.00  0.00     0.019 C 
HETATM   16  C19 UNL     1       7.333  -9.675  -7.378  1.00  0.00     0.019 C 
ENDBRANCH   9  13
ENDBRANCH   5   6
BRANCH   1  17
HETATM   17  C4  UNL     1      13.447  -7.815  -2.852  1.00  0.00     0.135 C 
BRANCH  17  18
HETATM   18  C2  UNL     1      12.423  -7.232  -1.877  1.00  0.00    -0.004 C 
HETATM   19  C1  UNL     1      11.314  -8.168  -1.560  1.00  0.00     0.011 C 
HETATM   20  C3  UNL     1      13.125  -6.886  -0.606  1.00  0.00     0.011 C 
ENDBRANCH  17  18
ENDBRANCH   1  17
BRANCH   4  21
HETATM   21  C8  UNL     1      13.012  -5.644  -7.358  1.00  0.00     0.315 C 
BRANCH  21  22
HETATM   22  N2  UNL     1      13.965  -5.897  -8.391  1.00  0.00     0.084 N 
HETATM   23  C9  UNL     1      14.021  -7.198  -8.923  1.00  0.00     0.309 C 
HETATM   24  C10 UNL     1      13.951  -4.901  -9.425  1.00  0.00     0.309 C 
ENDBRANCH  21  22
ENDBRANCH   4  21
BRANCH   2  25
HETATM   25  O1  UNL     1      15.560  -5.791  -3.208  1.00  0.00    -0.344 OA
ATOM     26  H1  UNL     1      16.467  -5.552  -3.362  1.00  0.00     0.219 HD
ENDBRANCH   2  25
BRANCH   3  27
HETATM   27  O2  UNL     1      15.421  -4.557  -5.878  1.00  0.00    -0.356 OA
ATOM     28  H2  UNL     1      15.460  -3.654  -5.586  1.00  0.00     0.218 HD
ENDBRANCH   3  27
TORSDOF 8
ENDMDL
MODEL 5
REMARK VINA RESULT: -6.573876898      3.188      4.718
REMARK  8 active torsions:
REMARK  status: ('A' for Active; 'I' for Inactive)
REMARK    1  A    between atoms: C2_2  and  C4_4 
REMARK    2  A    between atoms: C4_4  and  N1_5 
REMARK    3  A    between atoms: C5_6  and  O1_7 
REMARK    4  A    between atoms: C6_9  and  O2_10 
REMARK    5  A    between atoms: C7_12  and  C8_13 
REMARK    6  A    between atoms: C8_13  and  N2_14 
REMARK    7  A    between atoms: C11_17  and  C12_18 
REMARK    8  A    between atoms: C15_21  and  C16_22 
ROOT
HETATM    1  N1  UNL     1      13.518  -7.100  -4.014  1.00  0.00    -0.324 N 
HETATM    2  C5  UNL     1      14.588  -6.253  -4.115  1.00  0.00     0.177 A 
HETATM    3  C6  UNL     1      14.563  -5.647  -5.339  1.00  0.00     0.127 A 
HETATM    4  C7  UNL     1      13.460  -6.139  -6.001  1.00  0.00     0.035 A 
HETATM    5  C11 UNL     1      12.802  -7.049  -5.155  1.00  0.00     0.057 A 
ENDROOT
BRANCH   5   6
HETATM    6  C12 UNL     1      11.612  -7.811  -5.515  1.00  0.00    -0.006 A 
HETATM    7  C13 UNL     1      10.394  -7.540  -4.860  1.00  0.00     0.014 A 
HETATM    8  C14 UNL     1       9.241  -8.229  -5.066  1.00  0.00     0.012 A 
HETATM    9  C15 UNL     1       9.227  -9.277  -5.973  1.00  0.00    -0.012 A 
HETATM   10  C20 UNL     1      10.376  -9.584  -6.633  1.00  0.00     0.124 A 
HETATM   11  F1  UNL     1      10.400 -10.611  -7.504  1.00  0.00    -0.205 F 
HETATM   12  C21 UNL     1      11.548  -8.850  -6.398  1.00  0.00     0.056 A 
BRANCH   9  13
HETATM   13  C16 UNL     1       7.948  -9.988  -6.246  1.00  0.00    -0.021 C 
HETATM   14  C17 UNL     1       7.658 -10.155  -7.715  1.00  0.00     0.019 C 
HETATM   15  C18 UNL     1       6.781  -9.193  -5.657  1.00  0.00     0.019 C 
HETATM   16  C19 UNL     1       7.924 -11.327  -5.552  1.00  0.00     0.019 C 
ENDBRANCH   9  13
ENDBRANCH   5   6
BRANCH   1  17
HETATM   17  C4  UNL     1      13.335  -7.906  -2.863  1.00  0.00     0.135 C 
BRANCH  17  18
HETATM   18  C2  UNL     1      12.383  -7.263  -1.853  1.00  0.00    -0.004 C 
HETATM   19  C1  UNL     1      11.299  -8.175  -1.406  1.00  0.00     0.011 C 
HETATM   20  C3  UNL     1      13.173  -6.847  -0.658  1.00  0.00     0.011 C 
ENDBRANCH  17  18
ENDBRANCH   1  17
BRANCH   4  21
HETATM   21  C8  UNL     1      13.042  -5.608  -7.317  1.00  0.00     0.315 C 
BRANCH  21  22
HETATM   22  N2  UNL     1      13.943  -5.957  -8.368  1.00  0.00     0.084 N 
HETATM   23  C9  UNL     1      13.926  -7.285  -8.830  1.00  0.00     0.309 C 
HETATM   24  C10 UNL     1      13.929  -5.018  -9.455  1.00  0.00     0.309 C 
ENDBRANCH  21  22
ENDBRANCH   4  21
BRANCH   2  25
HETATM   25  O1  UNL     1      15.567  -6.005  -3.169  1.00  0.00    -0.344 OA
ATOM     26  H1  UNL     1      15.554  -6.220  -2.244  1.00  0.00     0.219 HD
ENDBRANCH   2  25
BRANCH   3  27
HETATM   27  O2  UNL     1      15.508  -4.703  -5.810  1.00  0.00    -0.356 OA
ATOM     28  H2  UNL     1      16.428  -4.875  -5.971  1.00  0.00     0.218 HD
ENDBRANCH   3  27
TORSDOF 8
ENDMDL
