MODEL 1
REMARK VINA RESULT: -7.175690449      0.000      0.000
REMARK  5 active torsions:
REMARK  status: ('A' for Active; 'I' for Inactive)
REMARK    1  A    between atoms: C2_2  and  C3_3 
REMARK    2  A    between atoms: C3_3  and  C4_4 
REMARK    3  A    between atoms: C4_4  and  N1_5 
REMARK    4  A    between atoms: C7_9  and  C8_10 
REMARK    5  A    between atoms: C9_11  and  C10_12 
ROOT
HETATM    1  C10 UNL     1      11.125  -7.568  -2.550  1.00  0.00    -0.008 A 
HETATM    2  C11 UNL     1       9.892  -7.519  -3.191  1.00  0.00     0.100 A 
HETATM    3  N2  UNL     1       9.069  -6.706  -2.513  1.00  0.00    -0.363 N 
ATOM      4  H2  UNL     1       8.106  -6.500  -2.776  1.00  0.00     0.165 HD
HETATM    5  C12 UNL     1       9.694  -6.204  -1.441  1.00  0.00     0.067 A 
HETATM    6  C13 UNL     1       9.249  -5.343  -0.463  1.00  0.00     0.085 A 
HETATM    7 CL1  UNL     1       7.606  -4.703  -0.505  1.00  0.00    -0.080 Cl
HETATM    8  C14 UNL     1      10.061  -4.954   0.573  1.00  0.00     0.070 A 
HETATM    9  N3  UNL     1       9.609  -4.062   1.590  1.00  0.00    -0.101 NA
HETATM   10  C15 UNL     1      11.328  -5.470   0.574  1.00  0.00     0.036 A 
HETATM   11  C16 UNL     1      11.804  -6.345  -0.405  1.00  0.00    -0.047 A 
HETATM   12  C17 UNL     1      13.181  -6.874  -0.297  1.00  0.00     0.049 C 
HETATM   13  C18 UNL     1      10.991  -6.732  -1.440  1.00  0.00     0.010 A 
ENDROOT
BRANCH   1  14
HETATM   14  C9  UNL     1      12.294  -8.337  -2.903  1.00  0.00     0.013 C 
HETATM   15  C8  UNL     1      13.160  -8.152  -3.844  1.00  0.00     0.018 C 
BRANCH  15  16
HETATM   16  C7  UNL     1      13.277  -7.136  -4.864  1.00  0.00     0.230 C 
HETATM   17  S1  UNL     1      12.128  -7.437  -6.272  1.00  0.00    -0.130 SA
HETATM   18  C6  UNL     1      13.063  -8.362  -7.521  1.00  0.00     0.093 C 
HETATM   19  C5  UNL     1      14.452  -7.762  -7.599  1.00  0.00     0.131 C 
HETATM   20  N1  UNL     1      14.531  -6.694  -6.655  1.00  0.00    -0.195 NA
HETATM   21  O1  UNL     1      14.613  -7.199  -5.405  1.00  0.00    -0.284 OA
BRANCH  20  22
HETATM   22  C4  UNL     1      15.561  -5.736  -6.934  1.00  0.00     0.120 C 
BRANCH  22  23
HETATM   23  C3  UNL     1      15.096  -4.313  -6.807  1.00  0.00     0.016 C 
BRANCH  23  24
HETATM   24  C2  UNL     1      14.159  -4.001  -7.956  1.00  0.00    -0.003 C 
HETATM   25  C1  UNL     1      12.727  -3.877  -7.478  1.00  0.00     0.005 C 
ENDBRANCH  23  24
ENDBRANCH  22  23
ENDBRANCH  20  22
ENDBRANCH  15  16
ENDBRANCH   1  14
TORSDOF 5
ENDMDL
MODEL 2
REMARK VINA RESULT: -7.097322652      0.938      1.422
REMARK  5 active torsions:
REMARK  status: ('A' for Active; 'I' for Inactive)
REMARK    1  A    between atoms: C2_2  and  C3_3 
REMARK    2  A    between atoms: C3_3  and  C4_4 
REMARK    3  A    between atoms: C4_4  and  N1_5 
REMARK    4  A    between atoms: C7_9  and  C8_10 
REMARK    5  A    between atoms: C9_11  and  C10_12 
ROOT
HETATM    1  C10 UNL     1      11.380  -7.686  -2.964  1.00  0.00    -0.008 A 
HETATM    2  C11 UNL     1      10.147  -7.589  -3.599  1.00  0.00     0.100 A 
HETATM    3  N2  UNL     1       9.334  -6.804  -2.877  1.00  0.00    -0.363 N 
ATOM      4  H2  UNL     1       8.373  -6.573  -3.126  1.00  0.00     0.165 HD
HETATM    5  C12 UNL     1       9.967  -6.366  -1.781  1.00  0.00     0.067 A 
HETATM    6  C13 UNL     1       9.533  -5.552  -0.759  1.00  0.00     0.085 A 
HETATM    7 CL1  UNL     1       7.897  -4.891  -0.764  1.00  0.00    -0.080 Cl
HETATM    8  C14 UNL     1      10.352  -5.227   0.294  1.00  0.00     0.070 A 
HETATM    9  N3  UNL     1       9.912  -4.383   1.358  1.00  0.00    -0.101 NA
HETATM   10  C15 UNL     1      11.612  -5.756   0.265  1.00  0.00     0.036 A 
HETATM   11  C16 UNL     1      12.077  -6.585  -0.759  1.00  0.00    -0.047 A 
HETATM   12  C17 UNL     1      13.448  -7.134  -0.683  1.00  0.00     0.049 C 
HETATM   13  C18 UNL     1      11.258  -6.907  -1.811  1.00  0.00     0.010 A 
ENDROOT
BRANCH   1  14
HETATM   14  C9  UNL     1      12.539  -8.449  -3.358  1.00  0.00     0.013 C 
HETATM   15  C8  UNL     1      13.444  -8.191  -4.244  1.00  0.00     0.018 C 
BRANCH  15  16
HETATM   16  C7  UNL     1      13.626  -7.075  -5.144  1.00  0.00     0.230 C 
HETATM   17  S1  UNL     1      12.472  -7.150  -6.578  1.00  0.00    -0.130 SA
HETATM   18  C6  UNL     1      13.362  -7.981  -7.922  1.00  0.00     0.093 C 
HETATM   19  C5  UNL     1      14.783  -7.457  -7.931  1.00  0.00     0.131 C 
HETATM   20  N1  UNL     1      14.917  -6.508  -6.873  1.00  0.00    -0.195 NA
HETATM   21  O1  UNL     1      14.960  -7.154  -5.687  1.00  0.00    -0.284 OA
BRANCH  20  22
HETATM   22  C4  UNL     1      16.002  -5.586  -7.041  1.00  0.00     0.120 C 
BRANCH  22  23
HETATM   23  C3  UNL     1      15.741  -4.245  -6.415  1.00  0.00     0.016 C 
BRANCH  23  24
HETATM   24  C2  UNL     1      16.961  -3.834  -5.617  1.00  0.00    -0.003 C 
HETATM   25  C1  UNL     1      17.079  -4.642  -4.341  1.00  0.00     0.005 C 
ENDBRANCH  23  24
ENDBRANCH  22  23
ENDBRANCH  20  22
ENDBRANCH  15  16
ENDBRANCH   1  14
TORSDOF 5
ENDMDL
MODEL 3
REMARK VINA RESULT: -7.043437508      0.822      1.060
REMARK  5 active torsions:
REMARK  status: ('A' for Active; 'I' for Inactive)
REMARK    1  A    between atoms: C2_2  and  C3_3 
REMARK    2  A    between atoms: C3_3  and  C4_4 
REMARK    3  A    between atoms: C4_4  and  N1_5 
REMARK    4  A    between atoms: C7_9  and  C8_10 
REMARK    5  A    between atoms: C9_11  and  C10_12 
ROOT
HETATM    1  C10 UNL     1      11.142  -7.622  -2.556  1.00  0.00    -0.008 A 
HETATM    2  C11 UNL     1       9.936  -7.578  -3.245  1.00  0.00     0.100 A 
HETATM    3  N2  UNL     1       9.087  -6.759  -2.606  1.00  0.00    -0.363 N 
ATOM      4  H2  UNL     1       8.135  -6.556  -2.909  1.00  0.00     0.165 HD
HETATM    5  C12 UNL     1       9.670  -6.249  -1.515  1.00  0.00     0.067 A 
HETATM    6  C13 UNL     1       9.187  -5.379  -0.563  1.00  0.00     0.085 A 
HETATM    7 CL1  UNL     1       7.547  -4.739  -0.675  1.00  0.00    -0.080 Cl
HETATM    8  C14 UNL     1       9.958  -4.981   0.500  1.00  0.00     0.070 A 
HETATM    9  N3  UNL     1       9.467  -4.080   1.492  1.00  0.00    -0.101 NA
HETATM   10  C15 UNL     1      11.224  -5.497   0.556  1.00  0.00     0.036 A 
HETATM   11  C16 UNL     1      11.738  -6.381  -0.396  1.00  0.00    -0.047 A 
HETATM   12  C17 UNL     1      13.109  -6.909  -0.230  1.00  0.00     0.049 C 
HETATM   13  C18 UNL     1      10.966  -6.776  -1.459  1.00  0.00     0.010 A 
ENDROOT
BRANCH   1  14
HETATM   14  C9  UNL     1      12.324  -8.394  -2.855  1.00  0.00     0.013 C 
HETATM   15  C8  UNL     1      13.061  -8.411  -3.916  1.00  0.00     0.018 C 
BRANCH  15  16
HETATM   16  C7  UNL     1      12.979  -7.684  -5.162  1.00  0.00     0.230 C 
HETATM   17  S1  UNL     1      13.417  -8.739  -6.607  1.00  0.00    -0.130 SA
HETATM   18  C6  UNL     1      15.183  -8.480  -6.928  1.00  0.00     0.093 C 
HETATM   19  C5  UNL     1      15.472  -7.001  -6.767  1.00  0.00     0.131 C 
HETATM   20  N1  UNL     1      14.255  -6.345  -6.409  1.00  0.00    -0.195 NA
HETATM   21  O1  UNL     1      13.952  -6.620  -5.122  1.00  0.00    -0.284 OA
BRANCH  20  22
HETATM   22  C4  UNL     1      14.237  -4.940  -6.694  1.00  0.00     0.120 C 
BRANCH  22  23
HETATM   23  C3  UNL     1      12.883  -4.436  -7.108  1.00  0.00     0.016 C 
BRANCH  23  24
HETATM   24  C2  UNL     1      12.904  -4.144  -8.595  1.00  0.00    -0.003 C 
HETATM   25  C1  UNL     1      14.306  -3.822  -9.070  1.00  0.00     0.005 C 
ENDBRANCH  23  24
ENDBRANCH  22  23
ENDBRANCH  20  22
ENDBRANCH  15  16
ENDBRANCH   1  14
TORSDOF 5
ENDMDL
MODEL 4
REMARK VINA RESULT: -6.910232893      0.819      1.076
REMARK  5 active torsions:
REMARK  status: ('A' for Active; 'I' for Inactive)
REMARK    1  A    between atoms: C2_2  and  C3_3 
REMARK    2  A    between atoms: C3_3  and  C4_4 
REMARK    3  A    between atoms: C4_4  and  N1_5 
REMARK    4  A    between atoms: C7_9  and  C8_10 
REMARK    5  A    between atoms: C9_11  and  C10_12 
ROOT
HETATM    1  C10 UNL     1      11.113  -7.562  -2.718  1.00  0.00    -0.008 A 
HETATM    2  C11 UNL     1       9.855  -7.509  -3.308  1.00  0.00     0.100 A 
HETATM    3  N2  UNL     1       9.053  -6.723  -2.574  1.00  0.00    -0.363 N 
ATOM      4  H2  UNL     1       8.077  -6.520  -2.793  1.00  0.00     0.165 HD
HETATM    5  C12 UNL     1       9.715  -6.244  -1.515  1.00  0.00     0.067 A 
HETATM    6  C13 UNL     1       9.302  -5.414  -0.497  1.00  0.00     0.085 A 
HETATM    7 CL1  UNL     1       7.652  -4.790  -0.456  1.00  0.00    -0.080 Cl
HETATM    8  C14 UNL     1      10.151  -5.045   0.515  1.00  0.00     0.070 A 
HETATM    9  N3  UNL     1       9.733  -4.185   1.575  1.00  0.00    -0.101 NA
HETATM   10  C15 UNL     1      11.422  -5.547   0.452  1.00  0.00     0.036 A 
HETATM   11  C16 UNL     1      11.867  -6.390  -0.568  1.00  0.00    -0.047 A 
HETATM   12  C17 UNL     1      13.252  -6.907  -0.531  1.00  0.00     0.049 C 
HETATM   13  C18 UNL     1      11.016  -6.758  -1.580  1.00  0.00     0.010 A 
ENDROOT
BRANCH   1  14
HETATM   14  C9  UNL     1      12.274  -8.309  -3.138  1.00  0.00     0.013 C 
HETATM   15  C8  UNL     1      12.838  -8.390  -4.298  1.00  0.00     0.018 C 
BRANCH  15  16
HETATM   16  C7  UNL     1      12.524  -7.781  -5.570  1.00  0.00     0.230 C 
HETATM   17  S1  UNL     1      11.766  -8.984  -6.742  1.00  0.00    -0.130 SA
HETATM   18  C6  UNL     1      13.117  -9.657  -7.746  1.00  0.00     0.093 C 
HETATM   19  C5  UNL     1      14.047  -8.515  -8.099  1.00  0.00     0.131 C 
HETATM   20  N1  UNL     1      13.535  -7.322  -7.504  1.00  0.00    -0.195 NA
HETATM   21  O1  UNL     1      13.760  -7.345  -6.172  1.00  0.00    -0.284 OA
BRANCH  20  22
HETATM   22  C4  UNL     1      13.993  -6.111  -8.122  1.00  0.00     0.120 C 
BRANCH  22  23
HETATM   23  C3  UNL     1      13.083  -4.941  -7.878  1.00  0.00     0.016 C 
BRANCH  23  24
HETATM   24  C2  UNL     1      13.928  -3.724  -7.561  1.00  0.00    -0.003 C 
HETATM   25  C1  UNL     1      15.282  -4.124  -7.014  1.00  0.00     0.005 C 
ENDBRANCH  23  24
ENDBRANCH  22  23
ENDBRANCH  20  22
ENDBRANCH  15  16
ENDBRANCH   1  14
TORSDOF 5
ENDMDL
MODEL 5
REMARK VINA RESULT: -6.660424826      3.512      6.444
REMARK  5 active torsions:
REMARK  status: ('A' for Active; 'I' for Inactive)
REMARK    1  A    between atoms: C2_2  and  C3_3 
REMARK    2  A    between atoms: C3_3  and  C4_4 
REMARK    3  A    between atoms: C4_4  and  N1_5 
REMARK    4  A    between atoms: C7_9  and  C8_10 
REMARK    5  A    between atoms: C9_11  and  C10_12 
ROOT
HETATM    1  C10 UNL     1      10.762  -8.696  -5.368  1.00  0.00    -0.008 A 
HETATM    2  C11 UNL     1      10.141  -8.001  -4.335  1.00  0.00     0.100 A 
HETATM    3  N2  UNL     1       8.811  -8.120  -4.456  1.00  0.00    -0.363 N 
ATOM      4  H2  UNL     1       8.129  -7.702  -3.823  1.00  0.00     0.165 HD
HETATM    5  C12 UNL     1       8.507  -8.865  -5.525  1.00  0.00     0.067 A 
HETATM    6  C13 UNL     1       7.287  -9.243  -6.038  1.00  0.00     0.085 A 
HETATM    7 CL1  UNL     1       5.786  -8.746  -5.256  1.00  0.00    -0.080 Cl
HETATM    8  C14 UNL     1       7.195 -10.015  -7.169  1.00  0.00     0.070 A 
HETATM    9  N3  UNL     1       5.935 -10.413  -7.709  1.00  0.00    -0.101 NA
HETATM   10  C15 UNL     1       8.378 -10.382  -7.750  1.00  0.00     0.036 A 
HETATM   11  C16 UNL     1       9.628 -10.011  -7.250  1.00  0.00    -0.047 A 
HETATM   12  C17 UNL     1      10.850 -10.432  -7.968  1.00  0.00     0.049 C 
HETATM   13  C18 UNL     1       9.718  -9.241  -6.119  1.00  0.00     0.010 A 
ENDROOT
BRANCH   1  14
HETATM   14  C9  UNL     1      12.171  -8.813  -5.655  1.00  0.00     0.013 C 
HETATM   15  C8  UNL     1      13.183  -8.213  -5.121  1.00  0.00     0.018 C 
BRANCH  15  16
HETATM   16  C7  UNL     1      13.278  -7.229  -4.068  1.00  0.00     0.230 C 
HETATM   17  S1  UNL     1      14.851  -6.275  -4.154  1.00  0.00    -0.130 SA
HETATM   18  C6  UNL     1      16.029  -7.110  -3.058  1.00  0.00     0.093 C 
HETATM   19  C5  UNL     1      15.287  -7.518  -1.802  1.00  0.00     0.131 C 
HETATM   20  N1  UNL     1      13.925  -7.110  -1.936  1.00  0.00    -0.195 NA
HETATM   21  O1  UNL     1      13.290  -7.927  -2.805  1.00  0.00    -0.284 OA
BRANCH  20  22
HETATM   22  C4  UNL     1      13.225  -6.974  -0.692  1.00  0.00     0.120 C 
BRANCH  22  23
HETATM   23  C3  UNL     1      11.839  -7.555  -0.726  1.00  0.00     0.016 C 
BRANCH  23  24
HETATM   24  C2  UNL     1      10.843  -6.429  -0.909  1.00  0.00    -0.003 C 
HETATM   25  C1  UNL     1      10.995  -5.380   0.173  1.00  0.00     0.005 C 
ENDBRANCH  23  24
ENDBRANCH  22  23
ENDBRANCH  20  22
ENDBRANCH  15  16
ENDBRANCH   1  14
TORSDOF 5
ENDMDL
