MODEL 1
REMARK VINA RESULT: -7.747214687      0.000      0.000
REMARK  7 active torsions:
REMARK  status: ('A' for Active; 'I' for Inactive)
REMARK    1  A    between atoms: C2_2  and  N1_5 
REMARK    2  A    between atoms: C6_7  and  C7_8 
REMARK    3  A    between atoms: N2_9  and  N3_11 
REMARK    4  A    between atoms: N3_11  and  C8_13 
REMARK    5  A    between atoms: C8_13  and  C9_14 
REMARK    6  A    between atoms: C9_14  and  C10_15 
REMARK    7  A    between atoms: C10_15  and  O1_16 
ROOT
HETATM    1  C7  UNL     1      11.451  -8.059  -1.038  1.00  0.00     0.120 C 
HETATM    2  N2  UNL     1      11.630  -7.143  -0.202  1.00  0.00    -0.315 N 
ATOM      3  H2  UNL     1      11.579  -7.409   0.781  1.00  0.00     0.185 HD
ENDROOT
BRANCH   1   4
HETATM    4  C6  UNL     1      11.480  -7.898  -2.474  1.00  0.00     0.009 A 
HETATM    5  C5  UNL     1      12.456  -7.493  -3.348  1.00  0.00     0.106 A 
HETATM    6  N1  UNL     1      11.994  -7.505  -4.636  1.00  0.00    -0.346 N 
HETATM    7  C21 UNL     1      10.718  -7.918  -4.599  1.00  0.00     0.046 A 
HETATM    8  C16 UNL     1      10.360  -8.170  -3.293  1.00  0.00     0.007 A 
HETATM    9  C20 UNL     1       9.785  -8.108  -5.623  1.00  0.00     0.033 A 
HETATM   10  C17 UNL     1       9.088  -8.610  -2.992  1.00  0.00     0.057 A 
HETATM   11  C18 UNL     1       8.174  -8.797  -3.994  1.00  0.00     0.117 A 
HETATM   12  F1  UNL     1       6.912  -9.235  -3.674  1.00  0.00    -0.206 F 
HETATM   13  C19 UNL     1       8.545  -8.541  -5.290  1.00  0.00     0.044 A 
BRANCH   6  14
HETATM   14  C2  UNL     1      12.715  -7.148  -5.826  1.00  0.00     0.026 C 
HETATM   15  C1  UNL     1      14.118  -6.657  -5.443  1.00  0.00     0.038 C 
HETATM   16  C3  UNL     1      12.059  -6.015  -6.582  1.00  0.00     0.038 C 
HETATM   17  C4  UNL     1      12.892  -8.314  -6.757  1.00  0.00     0.038 C 
ENDBRANCH   6  14
ENDBRANCH   1   4
BRANCH   2  18
HETATM   18  N3  UNL     1      11.886  -5.832  -0.461  1.00  0.00    -0.337 N 
ATOM     19  H3  UNL     1      12.396  -5.541  -1.295  1.00  0.00     0.180 HD
BRANCH  18  20
HETATM   20  C8  UNL     1      11.391  -4.852   0.519  1.00  0.00     0.142 C 
BRANCH  20  21
HETATM   21  C9  UNL     1      10.347  -4.017  -0.161  1.00  0.00     0.059 C 
BRANCH  21  22
HETATM   22  C10 UNL     1       8.980  -4.456   0.243  1.00  0.00     0.059 C 
HETATM   23  C11 UNL     1       8.178  -4.930  -0.984  1.00  0.00     0.038 C 
HETATM   24  C12 UNL     1       6.872  -5.466  -0.460  1.00  0.00     0.003 C 
HETATM   25  C13 UNL     1       6.109  -4.287   0.104  1.00  0.00     0.000 C 
HETATM   26  C14 UNL     1       6.878  -3.774   1.293  1.00  0.00     0.003 C 
HETATM   27  C15 UNL     1       8.245  -3.284   0.850  1.00  0.00     0.038 C 
BRANCH  22  28
HETATM   28  O1  UNL     1       9.050  -5.538   1.089  1.00  0.00    -0.390 OA
ATOM     29  H1  UNL     1       8.186  -5.768   1.410  1.00  0.00     0.210 HD
ENDBRANCH  22  28
ENDBRANCH  21  22
ENDBRANCH  20  21
ENDBRANCH  18  20
ENDBRANCH   2  18
TORSDOF 7
ENDMDL
MODEL 2
REMARK VINA RESULT: -7.193745239      1.004      1.278
REMARK  7 active torsions:
REMARK  status: ('A' for Active; 'I' for Inactive)
REMARK    1  A    between atoms: C2_2  and  N1_5 
REMARK    2  A    between atoms: C6_7  and  C7_8 
REMARK    3  A    between atoms: N2_9  and  N3_11 
REMARK    4  A    between atoms: N3_11  and  C8_13 
REMARK    5  A    between atoms: C8_13  and  C9_14 
REMARK    6  A    between atoms: C9_14  and  C10_15 
REMARK    7  A    between atoms: C10_15  and  O1_16 
ROOT
HETATM    1  C7  UNL     1      11.992  -7.650  -0.728  1.00  0.00     0.120 C 
HETATM    2  N2  UNL     1      11.696  -6.708   0.045  1.00  0.00    -0.315 N 
ATOM      3  H2  UNL     1      11.788  -6.895   1.043  1.00  0.00     0.185 HD
ENDROOT
BRANCH   1   4
HETATM    4  C6  UNL     1      11.931  -7.596  -2.172  1.00  0.00     0.009 A 
HETATM    5  C5  UNL     1      12.846  -7.250  -3.132  1.00  0.00     0.106 A 
HETATM    6  N1  UNL     1      12.305  -7.363  -4.385  1.00  0.00    -0.346 N 
HETATM    7  C21 UNL     1      11.040  -7.782  -4.238  1.00  0.00     0.046 A 
HETATM    8  C16 UNL     1      10.766  -7.939  -2.897  1.00  0.00     0.007 A 
HETATM    9  C20 UNL     1      10.049  -8.057  -5.185  1.00  0.00     0.033 A 
HETATM   10  C17 UNL     1       9.521  -8.366  -2.485  1.00  0.00     0.057 A 
HETATM   11  C18 UNL     1       8.550  -8.635  -3.411  1.00  0.00     0.117 A 
HETATM   12  F1  UNL     1       7.316  -9.059  -2.982  1.00  0.00    -0.206 F 
HETATM   13  C19 UNL     1       8.837  -8.474  -4.744  1.00  0.00     0.044 A 
BRANCH   6  14
HETATM   14  C2  UNL     1      12.948  -7.090  -5.641  1.00  0.00     0.026 C 
HETATM   15  C1  UNL     1      14.294  -6.399  -5.384  1.00  0.00     0.038 C 
HETATM   16  C3  UNL     1      12.145  -6.148  -6.508  1.00  0.00     0.038 C 
HETATM   17  C4  UNL     1      13.233  -8.343  -6.419  1.00  0.00     0.038 C 
ENDBRANCH   6  14
ENDBRANCH   1   4
BRANCH   2  18
HETATM   18  N3  UNL     1      11.266  -5.464  -0.301  1.00  0.00    -0.337 N 
ATOM     19  H3  UNL     1      11.456  -5.070  -1.222  1.00  0.00     0.180 HD
BRANCH  18  20
HETATM   20  C8  UNL     1      10.512  -4.715   0.717  1.00  0.00     0.142 C 
BRANCH  20  21
HETATM   21  C9  UNL     1       9.563  -3.802  -0.001  1.00  0.00     0.059 C 
BRANCH  21  22
HETATM   22  C10 UNL     1       8.153  -4.108   0.379  1.00  0.00     0.059 C 
HETATM   23  C11 UNL     1       8.112  -5.144   1.518  1.00  0.00     0.038 C 
HETATM   24  C12 UNL     1       6.665  -5.288   1.913  1.00  0.00     0.003 C 
HETATM   25  C13 UNL     1       5.955  -5.930   0.741  1.00  0.00     0.000 C 
HETATM   26  C14 UNL     1       5.998  -4.958  -0.407  1.00  0.00     0.003 C 
HETATM   27  C15 UNL     1       7.439  -4.703  -0.812  1.00  0.00     0.038 C 
BRANCH  22  28
HETATM   28  O1  UNL     1       7.530  -2.983   0.868  1.00  0.00    -0.390 OA
ATOM     29  H1  UNL     1       6.896  -2.654   0.242  1.00  0.00     0.210 HD
ENDBRANCH  22  28
ENDBRANCH  21  22
ENDBRANCH  20  21
ENDBRANCH  18  20
ENDBRANCH   2  18
TORSDOF 7
ENDMDL
MODEL 3
REMARK VINA RESULT: -7.078334996      2.284      3.544
REMARK  7 active torsions:
REMARK  status: ('A' for Active; 'I' for Inactive)
REMARK    1  A    between atoms: C2_2  and  N1_5 
REMARK    2  A    between atoms: C6_7  and  C7_8 
REMARK    3  A    between atoms: N2_9  and  N3_11 
REMARK    4  A    between atoms: N3_11  and  C8_13 
REMARK    5  A    between atoms: C8_13  and  C9_14 
REMARK    6  A    between atoms: C9_14  and  C10_15 
REMARK    7  A    between atoms: C10_15  and  O1_16 
ROOT
HETATM    1  C7  UNL     1      11.646  -7.898  -0.767  1.00  0.00     0.120 C 
HETATM    2  N2  UNL     1      11.618  -6.942   0.044  1.00  0.00    -0.315 N 
ATOM      3  H2  UNL     1      11.361  -7.169   1.004  1.00  0.00     0.185 HD
ENDROOT
BRANCH   1   4
HETATM    4  C6  UNL     1      11.984  -7.795  -2.169  1.00  0.00     0.009 A 
HETATM    5  C5  UNL     1      11.233  -7.845  -3.315  1.00  0.00     0.106 A 
HETATM    6  N1  UNL     1      12.024  -7.695  -4.423  1.00  0.00    -0.346 N 
HETATM    7  C21 UNL     1      13.286  -7.547  -3.996  1.00  0.00     0.046 A 
HETATM    8  C16 UNL     1      13.310  -7.602  -2.620  1.00  0.00     0.007 A 
HETATM    9  C20 UNL     1      14.478  -7.360  -4.703  1.00  0.00     0.033 A 
HETATM   10  C17 UNL     1      14.502  -7.473  -1.937  1.00  0.00     0.057 A 
HETATM   11  C18 UNL     1      15.669  -7.291  -2.629  1.00  0.00     0.117 A 
HETATM   12  F1  UNL     1      16.846  -7.165  -1.932  1.00  0.00    -0.206 F 
HETATM   13  C19 UNL     1      15.630  -7.238  -4.000  1.00  0.00     0.044 A 
BRANCH   6  14
HETATM   14  C2  UNL     1      11.608  -7.692  -5.798  1.00  0.00     0.026 C 
HETATM   15  C1  UNL     1      10.092  -7.925  -5.872  1.00  0.00     0.038 C 
HETATM   16  C3  UNL     1      12.249  -8.802  -6.599  1.00  0.00     0.038 C 
HETATM   17  C4  UNL     1      11.888  -6.381  -6.476  1.00  0.00     0.038 C 
ENDBRANCH   6  14
ENDBRANCH   1   4
BRANCH   2  18
HETATM   18  N3  UNL     1      11.893  -5.635  -0.216  1.00  0.00    -0.337 N 
ATOM     19  H3  UNL     1      12.544  -5.362  -0.952  1.00  0.00     0.180 HD
BRANCH  18  20
HETATM   20  C8  UNL     1      11.206  -4.633   0.614  1.00  0.00     0.142 C 
BRANCH  20  21
HETATM   21  C9  UNL     1      10.141  -3.997  -0.229  1.00  0.00     0.059 C 
BRANCH  21  22
HETATM   22  C10 UNL     1       8.786  -4.430   0.221  1.00  0.00     0.059 C 
HETATM   23  C11 UNL     1       7.953  -4.931  -0.973  1.00  0.00     0.038 C 
HETATM   24  C12 UNL     1       6.662  -5.459  -0.402  1.00  0.00     0.003 C 
HETATM   25  C13 UNL     1       5.913  -4.270   0.158  1.00  0.00     0.000 C 
HETATM   26  C14 UNL     1       6.712  -3.731   1.314  1.00  0.00     0.003 C 
HETATM   27  C15 UNL     1       8.066  -3.247   0.824  1.00  0.00     0.038 C 
BRANCH  22  28
HETATM   28  O1  UNL     1       8.883  -5.494   1.087  1.00  0.00    -0.390 OA
ATOM     29  H1  UNL     1       9.765  -5.564   1.434  1.00  0.00     0.210 HD
ENDBRANCH  22  28
ENDBRANCH  21  22
ENDBRANCH  20  21
ENDBRANCH  18  20
ENDBRANCH   2  18
TORSDOF 7
ENDMDL
MODEL 4
REMARK VINA RESULT: -6.939758044      1.314      1.883
REMARK  7 active torsions:
REMARK  status: ('A' for Active; 'I' for Inactive)
REMARK    1  A    between atoms: C2_2  and  N1_5 
REMARK    2  A    between atoms: C6_7  and  C7_8 
REMARK    3  A    between atoms: N2_9  and  N3_11 
REMARK    4  A    between atoms: N3_11  and  C8_13 
REMARK    5  A    between atoms: C8_13  and  C9_14 
REMARK    6  A    between atoms: C9_14  and  C10_15 
REMARK    7  A    between atoms: C10_15  and  O1_16 
ROOT
HETATM    1  C7  UNL     1      13.918  -7.465  -1.740  1.00  0.00     0.120 C 
HETATM    2  N2  UNL     1      13.542  -6.822  -0.732  1.00  0.00    -0.315 N 
ATOM      3  H2  UNL     1      13.962  -7.089   0.159  1.00  0.00     0.185 HD
ENDROOT
BRANCH   1   4
HETATM    4  C6  UNL     1      13.449  -7.249  -3.090  1.00  0.00     0.009 A 
HETATM    5  C5  UNL     1      14.056  -6.771  -4.224  1.00  0.00     0.106 A 
HETATM    6  N1  UNL     1      13.180  -6.756  -5.276  1.00  0.00    -0.346 N 
HETATM    7  C21 UNL     1      12.006  -7.224  -4.827  1.00  0.00     0.046 A 
HETATM    8  C16 UNL     1      12.124  -7.539  -3.491  1.00  0.00     0.007 A 
HETATM    9  C20 UNL     1      10.785  -7.416  -5.479  1.00  0.00     0.033 A 
HETATM   10  C17 UNL     1      11.045  -8.044  -2.796  1.00  0.00     0.057 A 
HETATM   11  C18 UNL     1       9.849  -8.234  -3.434  1.00  0.00     0.117 A 
HETATM   12  F1  UNL     1       8.786  -8.737  -2.726  1.00  0.00    -0.206 F 
HETATM   13  C19 UNL     1       9.746  -7.914  -4.766  1.00  0.00     0.044 A 
BRANCH   6  14
HETATM   14  C2  UNL     1      13.441  -6.324  -6.621  1.00  0.00     0.026 C 
HETATM   15  C1  UNL     1      14.854  -5.731  -6.702  1.00  0.00     0.038 C 
HETATM   16  C3  UNL     1      12.495  -5.234  -7.072  1.00  0.00     0.038 C 
HETATM   17  C4  UNL     1      13.378  -7.457  -7.605  1.00  0.00     0.038 C 
ENDBRANCH   6  14
ENDBRANCH   1   4
BRANCH   2  18
HETATM   18  N3  UNL     1      12.635  -5.808  -0.693  1.00  0.00    -0.337 N 
ATOM     19  H3  UNL     1      12.830  -4.901  -1.116  1.00  0.00     0.180 HD
BRANCH  18  20
HETATM   20  C8  UNL     1      11.360  -6.083  -0.013  1.00  0.00     0.142 C 
BRANCH  20  21
HETATM   21  C9  UNL     1      10.962  -4.838   0.726  1.00  0.00     0.059 C 
BRANCH  21  22
HETATM   22  C10 UNL     1       9.608  -4.384   0.296  1.00  0.00     0.059 C 
HETATM   23  C11 UNL     1       8.788  -3.905   1.509  1.00  0.00     0.038 C 
HETATM   24  C12 UNL     1       7.497  -3.353   0.960  1.00  0.00     0.003 C 
HETATM   25  C13 UNL     1       6.734  -4.523   0.377  1.00  0.00     0.000 C 
HETATM   26  C14 UNL     1       7.520  -5.040  -0.797  1.00  0.00     0.003 C 
HETATM   27  C15 UNL     1       8.873  -5.546  -0.329  1.00  0.00     0.038 C 
BRANCH  22  28
HETATM   28  O1  UNL     1       9.707  -3.300  -0.546  1.00  0.00    -0.390 OA
ATOM     29  H1  UNL     1       8.871  -3.124  -0.962  1.00  0.00     0.210 HD
ENDBRANCH  22  28
ENDBRANCH  21  22
ENDBRANCH  20  21
ENDBRANCH  18  20
ENDBRANCH   2  18
TORSDOF 7
ENDMDL
MODEL 5
REMARK VINA RESULT: -6.794980151      3.887      7.173
REMARK  7 active torsions:
REMARK  status: ('A' for Active; 'I' for Inactive)
REMARK    1  A    between atoms: C2_2  and  N1_5 
REMARK    2  A    between atoms: C6_7  and  C7_8 
REMARK    3  A    between atoms: N2_9  and  N3_11 
REMARK    4  A    between atoms: N3_11  and  C8_13 
REMARK    5  A    between atoms: C8_13  and  C9_14 
REMARK    6  A    between atoms: C9_14  and  C10_15 
REMARK    7  A    between atoms: C10_15  and  O1_16 
ROOT
HETATM    1  C7  UNL     1       7.872  -8.723  -4.232  1.00  0.00     0.120 C 
HETATM    2  N2  UNL     1       6.915  -8.725  -5.041  1.00  0.00    -0.315 N 
ATOM      3  H2  UNL     1       5.982  -8.822  -4.641  1.00  0.00     0.185 HD
ENDROOT
BRANCH   1   4
HETATM    4  C6  UNL     1       9.267  -8.598  -4.589  1.00  0.00     0.009 A 
HETATM    5  C5  UNL     1       9.960  -8.844  -5.746  1.00  0.00     0.106 A 
HETATM    6  N1  UNL     1      11.291  -8.567  -5.586  1.00  0.00    -0.346 N 
HETATM    7  C21 UNL     1      11.462  -8.141  -4.326  1.00  0.00     0.046 A 
HETATM    8  C16 UNL     1      10.248  -8.143  -3.676  1.00  0.00     0.007 A 
HETATM    9  C20 UNL     1      12.612  -7.730  -3.644  1.00  0.00     0.033 A 
HETATM   10  C17 UNL     1      10.160  -7.742  -2.360  1.00  0.00     0.057 A 
HETATM   11  C18 UNL     1      11.285  -7.340  -1.691  1.00  0.00     0.117 A 
HETATM   12  F1  UNL     1      11.178  -6.945  -0.381  1.00  0.00    -0.206 F 
HETATM   13  C19 UNL     1      12.489  -7.343  -2.351  1.00  0.00     0.044 A 
BRANCH   6  14
HETATM   14  C2  UNL     1      12.334  -8.698  -6.566  1.00  0.00     0.026 C 
HETATM   15  C1  UNL     1      11.831  -9.558  -7.733  1.00  0.00     0.038 C 
HETATM   16  C3  UNL     1      13.557  -9.398  -6.018  1.00  0.00     0.038 C 
HETATM   17  C4  UNL     1      12.749  -7.373  -7.137  1.00  0.00     0.038 C 
ENDBRANCH   6  14
ENDBRANCH   1   4
BRANCH   2  18
HETATM   18  N3  UNL     1       6.982  -8.612  -6.396  1.00  0.00    -0.337 N 
ATOM     19  H3  UNL     1       7.594  -7.932  -6.846  1.00  0.00     0.180 HD
BRANCH  18  20
HETATM   20  C8  UNL     1       6.130  -9.519  -7.181  1.00  0.00     0.142 C 
BRANCH  20  21
HETATM   21  C9  UNL     1       6.975 -10.685  -7.602  1.00  0.00     0.059 C 
BRANCH  21  22
HETATM   22  C10 UNL     1       6.826 -11.815  -6.640  1.00  0.00     0.059 C 
HETATM   23  C11 UNL     1       8.146 -12.061  -5.885  1.00  0.00     0.038 C 
HETATM   24  C12 UNL     1       7.858 -13.125  -4.857  1.00  0.00     0.003 C 
HETATM   25  C13 UNL     1       7.570 -14.401  -5.618  1.00  0.00     0.000 C 
HETATM   26  C14 UNL     1       6.299 -14.192  -6.395  1.00  0.00     0.003 C 
HETATM   27  C15 UNL     1       6.490 -13.073  -7.405  1.00  0.00     0.038 C 
BRANCH  22  28
HETATM   28  O1  UNL     1       5.891 -11.510  -5.678  1.00  0.00    -0.390 OA
ATOM     29  H1  UNL     1       6.297 -11.048  -4.953  1.00  0.00     0.210 HD
ENDBRANCH  22  28
ENDBRANCH  21  22
ENDBRANCH  20  21
ENDBRANCH  18  20
ENDBRANCH   2  18
TORSDOF 7
ENDMDL
