MODEL 1
REMARK VINA RESULT: -7.583143505      0.000      0.000
REMARK  4 active torsions:
REMARK  status: ('A' for Active; 'I' for Inactive)
REMARK    1  A    between atoms: C2_2  and  C3_3 
REMARK    2  A    between atoms: C3_3  and  C4_4 
REMARK    3  A    between atoms: C4_4  and  N1_5 
REMARK    4  A    between atoms: N1_5  and  C5_7 
ROOT
HETATM    1  C5  UNL     1      -0.257   2.943  81.781  1.00  0.00     0.130 A 
HETATM    2  N2  UNL     1       0.030   1.643  81.986  1.00  0.00    -0.283 N 
ATOM      3  H2  UNL     1       0.591   1.141  81.297  1.00  0.00     0.188 HD
HETATM    4  N3  UNL     1      -0.401   1.000  83.064  1.00  0.00    -0.283 N 
ATOM      5  H3  UNL     1      -0.157   0.016  83.172  1.00  0.00     0.188 HD
HETATM    6  C6  UNL     1      -1.141   1.582  84.016  1.00  0.00     0.132 A 
HETATM    7  N4  UNL     1      -1.588   0.953  85.113  1.00  0.00    -0.344 N 
ATOM      8  H4  UNL     1      -1.358  -0.032  85.244  1.00  0.00     0.167 HD
HETATM    9  C7  UNL     1      -2.327   1.573  86.042  1.00  0.00     0.018 A 
HETATM   10  C8  UNL     1      -2.673   2.908  85.921  1.00  0.00    -0.019 A 
HETATM   11  C9  UNL     1      -2.218   3.565  84.793  1.00  0.00     0.055 A 
HETATM   12  C10 UNL     1      -2.502   4.896  84.569  1.00  0.00     0.258 A 
HETATM   13  O1  UNL     1      -3.185   5.535  85.393  1.00  0.00    -0.267 OA
HETATM   14  N5  UNL     1      -2.070   5.555  83.480  1.00  0.00    -0.312 N 
ATOM     15  H5  UNL     1      -2.312   6.539  83.367  1.00  0.00     0.170 HD
HETATM   16  C11 UNL     1      -1.325   4.952  82.531  1.00  0.00     0.121 A 
HETATM   17 CL1  UNL     1      -0.767   5.826  81.114  1.00  0.00    -0.063 Cl
HETATM   18  C12 UNL     1      -1.016   3.617  82.716  1.00  0.00     0.063 A 
HETATM   19  C13 UNL     1      -1.458   2.920  83.842  1.00  0.00     0.043 A 
HETATM   20  C14 UNL     1      -3.486   3.347  87.072  1.00  0.00     0.042 C 
HETATM   21  C15 UNL     1      -3.327   2.229  88.095  1.00  0.00     0.011 C 
HETATM   22  C16 UNL     1      -2.894   1.014  87.307  1.00  0.00     0.058 C 
ENDROOT
BRANCH   1  23
HETATM   23  N1  UNL     1       0.143   3.584  80.759  1.00  0.00    -0.374 N 
ATOM     24  H1  UNL     1      -0.527   4.212  80.316  1.00  0.00     0.161 HD
BRANCH  23  25
HETATM   25  C4  UNL     1       1.445   3.506  80.172  1.00  0.00     0.121 C 
BRANCH  25  26
HETATM   26  C3  UNL     1       2.561   3.801  81.113  1.00  0.00     0.019 C 
BRANCH  26  27
HETATM   27  C2  UNL     1       2.877   5.285  81.194  1.00  0.00    -0.003 C 
HETATM   28  C1  UNL     1       2.488   5.841  82.547  1.00  0.00     0.005 C 
ENDBRANCH  26  27
ENDBRANCH  25  26
ENDBRANCH  23  25
ENDBRANCH   1  23
TORSDOF 4
ENDMDL
MODEL 2
REMARK VINA RESULT: -7.461501158      2.041      3.115
REMARK  4 active torsions:
REMARK  status: ('A' for Active; 'I' for Inactive)
REMARK    1  A    between atoms: C2_2  and  C3_3 
REMARK    2  A    between atoms: C3_3  and  C4_4 
REMARK    3  A    between atoms: C4_4  and  N1_5 
REMARK    4  A    between atoms: N1_5  and  C5_7 
ROOT
HETATM    1  C5  UNL     1      -0.337   3.874  81.455  1.00  0.00     0.130 A 
HETATM    2  N2  UNL     1      -0.806   5.109  81.719  1.00  0.00    -0.283 N 
ATOM      3  H2  UNL     1      -0.591   5.872  81.076  1.00  0.00     0.188 HD
HETATM    4  N3  UNL     1      -1.542   5.355  82.795  1.00  0.00    -0.283 N 
ATOM      5  H3  UNL     1      -1.872   6.308  82.950  1.00  0.00     0.188 HD
HETATM    6  C6  UNL     1      -1.870   4.413  83.689  1.00  0.00     0.132 A 
HETATM    7  N4  UNL     1      -2.611   4.638  84.784  1.00  0.00    -0.344 N 
ATOM      8  H4  UNL     1      -2.954   5.582  84.960  1.00  0.00     0.167 HD
HETATM    9  C7  UNL     1      -2.916   3.666  85.652  1.00  0.00     0.018 A 
HETATM   10  C8  UNL     1      -2.480   2.365  85.467  1.00  0.00    -0.019 A 
HETATM   11  C9  UNL     1      -1.715   2.123  84.342  1.00  0.00     0.055 A 
HETATM   12  C10 UNL     1      -1.227   0.865  84.058  1.00  0.00     0.258 A 
HETATM   13  O1  UNL     1      -1.473  -0.087  84.825  1.00  0.00    -0.267 OA
HETATM   14  N5  UNL     1      -0.481   0.606  82.970  1.00  0.00    -0.312 N 
ATOM     15  H5  UNL     1      -0.148  -0.344  82.812  1.00  0.00     0.170 HD
HETATM   16  C11 UNL     1      -0.161   1.568  82.081  1.00  0.00     0.121 A 
HETATM   17 CL1  UNL     1       0.814   1.216  80.663  1.00  0.00    -0.063 Cl
HETATM   18  C12 UNL     1      -0.630   2.845  82.327  1.00  0.00     0.063 A 
HETATM   19  C13 UNL     1      -1.406   3.128  83.453  1.00  0.00     0.043 A 
HETATM   20  C14 UNL     1      -2.951   1.492  86.561  1.00  0.00     0.042 C 
HETATM   21  C15 UNL     1      -4.012   2.321  87.275  1.00  0.00     0.011 C 
HETATM   22  C16 UNL     1      -3.725   3.758  86.906  1.00  0.00     0.058 C 
ENDROOT
BRANCH   1  23
HETATM   23  N1  UNL     1       0.370   3.610  80.432  1.00  0.00    -0.374 N 
ATOM     24  H1  UNL     1       0.477   2.626  80.186  1.00  0.00     0.161 HD
BRANCH  23  25
HETATM   25  C4  UNL     1       1.028   4.563  79.593  1.00  0.00     0.121 C 
BRANCH  25  26
HETATM   26  C3  UNL     1       2.341   4.107  79.058  1.00  0.00     0.019 C 
BRANCH  26  27
HETATM   27  C2  UNL     1       3.321   3.736  80.160  1.00  0.00    -0.003 C 
HETATM   28  C1  UNL     1       4.738   4.068  79.747  1.00  0.00     0.005 C 
ENDBRANCH  26  27
ENDBRANCH  25  26
ENDBRANCH  23  25
ENDBRANCH   1  23
TORSDOF 4
ENDMDL
MODEL 3
REMARK VINA RESULT: -7.270140156      1.011      1.438
REMARK  4 active torsions:
REMARK  status: ('A' for Active; 'I' for Inactive)
REMARK    1  A    between atoms: C2_2  and  C3_3 
REMARK    2  A    between atoms: C3_3  and  C4_4 
REMARK    3  A    between atoms: C4_4  and  N1_5 
REMARK    4  A    between atoms: N1_5  and  C5_7 
ROOT
HETATM    1  C5  UNL     1      -0.185   3.221  81.758  1.00  0.00     0.130 A 
HETATM    2  N2  UNL     1       0.124   1.919  81.909  1.00  0.00    -0.283 N 
ATOM      3  H2  UNL     1       0.705   1.459  81.207  1.00  0.00     0.188 HD
HETATM    4  N3  UNL     1      -0.308   1.220  82.951  1.00  0.00    -0.283 N 
ATOM      5  H3  UNL     1      -0.046   0.237  83.019  1.00  0.00     0.188 HD
HETATM    6  C6  UNL     1      -1.073   1.744  83.918  1.00  0.00     0.132 A 
HETATM    7  N4  UNL     1      -1.522   1.059  84.979  1.00  0.00    -0.344 N 
ATOM      8  H4  UNL     1      -1.274   0.074  85.070  1.00  0.00     0.167 HD
HETATM    9  C7  UNL     1      -2.286   1.622  85.924  1.00  0.00     0.018 A 
HETATM   10  C8  UNL     1      -2.657   2.954  85.857  1.00  0.00    -0.019 A 
HETATM   11  C9  UNL     1      -2.199   3.669  84.766  1.00  0.00     0.055 A 
HETATM   12  C10 UNL     1      -2.507   5.003  84.597  1.00  0.00     0.258 A 
HETATM   13  O1  UNL     1      -3.215   5.591  85.438  1.00  0.00    -0.267 OA
HETATM   14  N5  UNL     1      -2.074   5.719  83.544  1.00  0.00    -0.312 N 
ATOM     15  H5  UNL     1      -2.334   6.702  83.472  1.00  0.00     0.170 HD
HETATM   16  C11 UNL     1      -1.304   5.173  82.581  1.00  0.00     0.121 A 
HETATM   17 CL1  UNL     1      -0.744   6.120  81.212  1.00  0.00    -0.063 Cl
HETATM   18  C12 UNL     1      -0.971   3.838  82.711  1.00  0.00     0.063 A 
HETATM   19  C13 UNL     1      -1.414   3.082  83.798  1.00  0.00     0.043 A 
HETATM   20  C14 UNL     1      -3.494   3.326  87.015  1.00  0.00     0.042 C 
HETATM   21  C15 UNL     1      -3.327   2.166  87.989  1.00  0.00     0.011 C 
HETATM   22  C16 UNL     1      -2.858   0.997  87.154  1.00  0.00     0.058 C 
ENDROOT
BRANCH   1  23
HETATM   23  N1  UNL     1       0.215   3.914  80.771  1.00  0.00    -0.374 N 
ATOM     24  H1  UNL     1      -0.344   4.730  80.522  1.00  0.00     0.161 HD
BRANCH  23  25
HETATM   25  C4  UNL     1       1.376   3.656  79.976  1.00  0.00     0.121 C 
BRANCH  25  26
HETATM   26  C3  UNL     1       1.972   4.869  79.349  1.00  0.00     0.019 C 
BRANCH  26  27
HETATM   27  C2  UNL     1       1.743   4.919  77.847  1.00  0.00    -0.003 C 
HETATM   28  C1  UNL     1       0.421   5.584  77.531  1.00  0.00     0.005 C 
ENDBRANCH  26  27
ENDBRANCH  25  26
ENDBRANCH  23  25
ENDBRANCH   1  23
TORSDOF 4
ENDMDL
MODEL 4
REMARK VINA RESULT: -7.223616536      2.180      3.384
REMARK  4 active torsions:
REMARK  status: ('A' for Active; 'I' for Inactive)
REMARK    1  A    between atoms: C2_2  and  C3_3 
REMARK    2  A    between atoms: C3_3  and  C4_4 
REMARK    3  A    between atoms: C4_4  and  N1_5 
REMARK    4  A    between atoms: N1_5  and  C5_7 
ROOT
HETATM    1  C5  UNL     1      -0.527   4.251  81.598  1.00  0.00     0.130 A 
HETATM    2  N2  UNL     1      -1.051   5.433  81.976  1.00  0.00    -0.283 N 
ATOM      3  H2  UNL     1      -0.887   6.259  81.398  1.00  0.00     0.188 HD
HETATM    4  N3  UNL     1      -1.776   5.549  83.081  1.00  0.00    -0.283 N 
ATOM      5  H3  UNL     1      -2.150   6.466  83.323  1.00  0.00     0.188 HD
HETATM    6  C6  UNL     1      -2.040   4.517  83.894  1.00  0.00     0.132 A 
HETATM    7  N4  UNL     1      -2.768   4.609  85.016  1.00  0.00    -0.344 N 
ATOM      8  H4  UNL     1      -3.154   5.516  85.280  1.00  0.00     0.167 HD
HETATM    9  C7  UNL     1      -3.008   3.552  85.802  1.00  0.00     0.018 A 
HETATM   10  C8  UNL     1      -2.512   2.296  85.498  1.00  0.00    -0.019 A 
HETATM   11  C9  UNL     1      -1.759   2.191  84.344  1.00  0.00     0.055 A 
HETATM   12  C10 UNL     1      -1.215   0.988  83.944  1.00  0.00     0.258 A 
HETATM   13  O1  UNL     1      -1.399  -0.038  84.629  1.00  0.00    -0.267 OA
HETATM   14  N5  UNL     1      -0.480   0.862  82.826  1.00  0.00    -0.312 N 
ATOM     15  H5  UNL     1      -0.103  -0.053  82.581  1.00  0.00     0.170 HD
HETATM   16  C11 UNL     1      -0.225   1.912  82.019  1.00  0.00     0.121 A 
HETATM   17 CL1  UNL     1       0.737   1.733  80.561  1.00  0.00    -0.063 Cl
HETATM   18  C12 UNL     1      -0.752   3.138  82.383  1.00  0.00     0.063 A 
HETATM   19  C13 UNL     1      -1.517   3.283  83.541  1.00  0.00     0.043 A 
HETATM   20  C14 UNL     1      -2.917   1.310  86.520  1.00  0.00     0.042 C 
HETATM   21  C15 UNL     1      -4.003   2.019  87.319  1.00  0.00     0.011 C 
HETATM   22  C16 UNL     1      -3.794   3.495  87.071  1.00  0.00     0.058 C 
ENDROOT
BRANCH   1  23
HETATM   23  N1  UNL     1       0.171   4.111  80.545  1.00  0.00    -0.374 N 
ATOM     24  H1  UNL     1       0.768   3.287  80.492  1.00  0.00     0.161 HD
BRANCH  23  25
HETATM   25  C4  UNL     1       0.196   5.003  79.427  1.00  0.00     0.121 C 
BRANCH  25  26
HETATM   26  C3  UNL     1       1.465   4.973  78.647  1.00  0.00     0.019 C 
BRANCH  26  27
HETATM   27  C2  UNL     1       1.253   5.302  77.178  1.00  0.00    -0.003 C 
HETATM   28  C1  UNL     1      -0.206   5.601  76.904  1.00  0.00     0.005 C 
ENDBRANCH  26  27
ENDBRANCH  25  26
ENDBRANCH  23  25
ENDBRANCH   1  23
TORSDOF 4
ENDMDL
MODEL 5
REMARK VINA RESULT: -7.109868294      2.535      3.249
REMARK  4 active torsions:
REMARK  status: ('A' for Active; 'I' for Inactive)
REMARK    1  A    between atoms: C2_2  and  C3_3 
REMARK    2  A    between atoms: C3_3  and  C4_4 
REMARK    3  A    between atoms: C4_4  and  N1_5 
REMARK    4  A    between atoms: N1_5  and  C5_7 
ROOT
HETATM    1  C5  UNL     1       1.223   6.282  82.976  1.00  0.00     0.130 A 
HETATM    2  N2  UNL     1       2.132   5.481  83.565  1.00  0.00    -0.283 N 
ATOM      3  H2  UNL     1       3.124   5.632  83.381  1.00  0.00     0.188 HD
HETATM    4  N3  UNL     1       1.766   4.498  84.378  1.00  0.00    -0.283 N 
ATOM      5  H3  UNL     1       2.492   3.920  84.799  1.00  0.00     0.188 HD
HETATM    6  C6  UNL     1       0.487   4.231  84.674  1.00  0.00     0.132 A 
HETATM    7  N4  UNL     1       0.092   3.244  85.492  1.00  0.00    -0.344 N 
ATOM      8  H4  UNL     1       0.801   2.651  85.925  1.00  0.00     0.167 HD
HETATM    9  C7  UNL     1      -1.198   3.011  85.761  1.00  0.00     0.018 A 
HETATM   10  C8  UNL     1      -2.205   3.781  85.204  1.00  0.00    -0.019 A 
HETATM   11  C9  UNL     1      -1.809   4.800  84.359  1.00  0.00     0.055 A 
HETATM   12  C10 UNL     1      -2.727   5.629  83.749  1.00  0.00     0.258 A 
HETATM   13  O1  UNL     1      -3.946   5.468  83.954  1.00  0.00    -0.267 OA
HETATM   14  N5  UNL     1      -2.365   6.627  82.923  1.00  0.00    -0.312 N 
ATOM     15  H5  UNL     1      -3.089   7.207  82.500  1.00  0.00     0.170 HD
HETATM   16  C11 UNL     1      -1.072   6.881  82.637  1.00  0.00     0.121 A 
HETATM   17 CL1  UNL     1      -0.614   8.187  81.557  1.00  0.00    -0.063 Cl
HETATM   18  C12 UNL     1      -0.118   6.073  83.228  1.00  0.00     0.063 A 
HETATM   19  C13 UNL     1      -0.479   5.034  84.088  1.00  0.00     0.043 A 
HETATM   20  C14 UNL     1      -3.532   3.319  85.659  1.00  0.00     0.042 C 
HETATM   21  C15 UNL     1      -3.228   2.388  86.826  1.00  0.00     0.011 C 
HETATM   22  C16 UNL     1      -1.790   1.961  86.644  1.00  0.00     0.058 C 
ENDROOT
BRANCH   1  23
HETATM   23  N1  UNL     1       1.545   7.230  82.193  1.00  0.00    -0.374 N 
ATOM     24  H1  UNL     1       0.988   7.340  81.346  1.00  0.00     0.161 HD
BRANCH  23  25
HETATM   25  C4  UNL     1       2.616   8.158  82.389  1.00  0.00     0.121 C 
BRANCH  25  26
HETATM   26  C3  UNL     1       2.217   9.420  83.072  1.00  0.00     0.019 C 
BRANCH  26  27
HETATM   27  C2  UNL     1       2.552   9.410  84.555  1.00  0.00    -0.003 C 
HETATM   28  C1  UNL     1       1.335   9.041  85.375  1.00  0.00     0.005 C 
ENDBRANCH  26  27
ENDBRANCH  25  26
ENDBRANCH  23  25
ENDBRANCH   1  23
TORSDOF 4
ENDMDL
