MODEL 1
REMARK VINA RESULT: -7.506946438      0.000      0.000
REMARK  13 active torsions:
REMARK  status: ('A' for Active; 'I' for Inactive)
REMARK    1  A    between atoms: C3_3  and  N1_4 
REMARK    2  A    between atoms: C3_3  and  C4_8 
REMARK    3  A    between atoms: C4_8  and  N2_9 
REMARK       I    between atoms: N2_9  and  C5_11 
REMARK    4  A    between atoms: C5_11  and  C6_13 
REMARK    5  A    between atoms: C8_16  and  N3_17 
REMARK       I    between atoms: N3_17  and  C9_19 
REMARK    6  A    between atoms: C9_19  and  C10_21 
REMARK    7  A    between atoms: C10_21  and  N4_22 
REMARK       I    between atoms: N4_22  and  C11_24 
REMARK    8  A    between atoms: C11_24  and  C12_26 
REMARK    9  A    between atoms: C12_26  and  C13_27 
REMARK   10  A    between atoms: C12_26  and  N6_34 
REMARK   11  A    between atoms: C13_27  and  C14_28 
REMARK   12  A    between atoms: C14_28  and  O5_30 
REMARK   13  A    between atoms: O5_30  and  N5_31 
ROOT
HETATM    1  C1  UNL     1       1.017  -0.698  23.045  1.00  0.00     0.014 C 
HETATM    2  C2  UNL     1       0.643   0.407  22.756  1.00  0.00    -0.083 C 
HETATM    3  C3  UNL     1       0.198   1.799  22.398  1.00  0.00     0.278 C 
ENDROOT
BRANCH   3   4
HETATM    4  N1  UNL     1      -1.050   1.687  21.720  1.00  0.00    -0.063 N 
ATOM      5  H13 UNL     1      -1.720   1.096  22.212  1.00  0.00     0.275 HD
ATOM      6  H12 UNL     1      -1.594   2.549  21.741  1.00  0.00     0.275 HD
ATOM      7  H11 UNL     1      -0.854   1.362  20.772  1.00  0.00     0.275 HD
ENDBRANCH   3   4
BRANCH   3   8
HETATM    8  C4  UNL     1       0.253   2.591  23.646  1.00  0.00     0.168 C 
BRANCH   8   9
HETATM    9  N2  UNL     1      -0.560   2.206  24.734  1.00  0.00    -0.353 N 
HETATM   10  C5  UNL     1      -1.899   2.577  24.911  1.00  0.00     0.268 C 
HETATM   11  O1  UNL     1      -2.489   3.295  24.056  1.00  0.00    -0.266 OA
ATOM     12  H2  UNL     1      -0.139   1.611  25.447  1.00  0.00     0.162 HD
BRANCH  10  13
HETATM   13  C6  UNL     1      -2.673   2.131  26.122  1.00  0.00     0.109 A 
HETATM   14  C7  UNL     1      -2.142   2.312  27.371  1.00  0.00     0.088 A 
HETATM   15  S1  UNL     1      -3.369   1.660  28.373  1.00  0.00    -0.063 SA
HETATM   16  C8  UNL     1      -4.465   1.205  27.157  1.00  0.00     0.151 A 
HETATM   17  N7  UNL     1      -3.848   1.570  26.040  1.00  0.00    -0.332 N 
ATOM     18  H7  UNL     1      -4.284   1.413  25.132  1.00  0.00     0.168 HD
BRANCH  16  19
HETATM   19  N3  UNL     1      -5.634   0.633  27.296  1.00  0.00    -0.306 N 
HETATM   20  C9  UNL     1      -6.577   0.709  26.236  1.00  0.00     0.241 C 
HETATM   21  O2  UNL     1      -7.027   1.812  25.839  1.00  0.00    -0.271 OA
ATOM     22  H3  UNL     1      -5.866   0.138  28.157  1.00  0.00     0.171 HD
BRANCH  20  23
HETATM   23  C10 UNL     1      -7.059  -0.512  25.564  1.00  0.00     0.225 C 
BRANCH  23  24
HETATM   24  N4  UNL     1      -6.172  -1.610  25.875  1.00  0.00    -0.351 N 
HETATM   25  C11 UNL     1      -6.575  -2.671  26.753  1.00  0.00     0.238 C 
HETATM   26  O3  UNL     1      -7.732  -2.601  27.236  1.00  0.00    -0.272 OA
ATOM     27  H4  UNL     1      -5.240  -1.631  25.461  1.00  0.00     0.163 HD
BRANCH  25  28
HETATM   28  C12 UNL     1      -5.619  -3.758  27.024  1.00  0.00     0.189 C 
BRANCH  28  29
HETATM   29  C13 UNL     1      -4.945  -3.621  28.346  1.00  0.00     0.144 C 
BRANCH  29  30
HETATM   30  C14 UNL     1      -4.087  -2.408  28.416  1.00  0.00     0.282 C 
HETATM   31  O4  UNL     1      -3.859  -1.876  29.528  1.00  0.00    -0.263 OA
BRANCH  30  32
HETATM   32  O5  UNL     1      -3.517  -1.824  27.297  1.00  0.00    -0.206 OA
BRANCH  32  33
HETATM   33  N5  UNL     1      -2.172  -1.662  27.201  1.00  0.00    -0.302 N 
ATOM     34  H52 UNL     1      -1.571  -2.461  27.403  1.00  0.00     0.184 HD
ATOM     35  H51 UNL     1      -1.769  -0.764  26.933  1.00  0.00     0.184 HD
ENDBRANCH  32  33
ENDBRANCH  30  32
ENDBRANCH  29  30
ENDBRANCH  28  29
BRANCH  28  36
HETATM   36  N6  UNL     1      -6.370  -5.004  27.033  1.00  0.00    -0.155 NA
HETATM   37 BR1  UNL     1      -5.988  -5.965  28.612  1.00  0.00     0.030 Br
ENDBRANCH  28  36
ENDBRANCH  25  28
ENDBRANCH  23  24
ENDBRANCH  20  23
ENDBRANCH  16  19
ENDBRANCH  10  13
ENDBRANCH   8   9
ENDBRANCH   3   8
TORSDOF 13
ENDMDL
MODEL 2
REMARK VINA RESULT: -7.341481915      3.148      8.068
REMARK  13 active torsions:
REMARK  status: ('A' for Active; 'I' for Inactive)
REMARK    1  A    between atoms: C3_3  and  N1_4 
REMARK    2  A    between atoms: C3_3  and  C4_8 
REMARK    3  A    between atoms: C4_8  and  N2_9 
REMARK       I    between atoms: N2_9  and  C5_11 
REMARK    4  A    between atoms: C5_11  and  C6_13 
REMARK    5  A    between atoms: C8_16  and  N3_17 
REMARK       I    between atoms: N3_17  and  C9_19 
REMARK    6  A    between atoms: C9_19  and  C10_21 
REMARK    7  A    between atoms: C10_21  and  N4_22 
REMARK       I    between atoms: N4_22  and  C11_24 
REMARK    8  A    between atoms: C11_24  and  C12_26 
REMARK    9  A    between atoms: C12_26  and  C13_27 
REMARK   10  A    between atoms: C12_26  and  N6_34 
REMARK   11  A    between atoms: C13_27  and  C14_28 
REMARK   12  A    between atoms: C14_28  and  O5_30 
REMARK   13  A    between atoms: O5_30  and  N5_31 
ROOT
HETATM    1  C1  UNL     1      -5.250  -6.628  26.466  1.00  0.00     0.014 C 
HETATM    2  C2  UNL     1      -5.799  -6.464  27.523  1.00  0.00    -0.083 C 
HETATM    3  C3  UNL     1      -6.495  -6.235  28.837  1.00  0.00     0.278 C 
ENDROOT
BRANCH   3   4
HETATM    4  N1  UNL     1      -6.651  -7.505  29.463  1.00  0.00    -0.063 N 
ATOM      5  H13 UNL     1      -7.251  -8.139  28.935  1.00  0.00     0.275 HD
ATOM      6  H12 UNL     1      -5.804  -8.071  29.433  1.00  0.00     0.275 HD
ATOM      7  H11 UNL     1      -6.985  -7.339  30.413  1.00  0.00     0.275 HD
ENDBRANCH   3   4
BRANCH   3   8
HETATM    8  C4  UNL     1      -5.722  -5.191  29.544  1.00  0.00     0.168 C 
BRANCH   8   9
HETATM    9  N2  UNL     1      -5.193  -4.114  28.802  1.00  0.00    -0.353 N 
HETATM   10  C5  UNL     1      -5.833  -2.886  28.595  1.00  0.00     0.268 C 
HETATM   11  O1  UNL     1      -6.967  -2.655  29.101  1.00  0.00    -0.266 OA
ATOM     12  H2  UNL     1      -4.270  -4.239  28.384  1.00  0.00     0.162 HD
BRANCH  10  13
HETATM   13  C6  UNL     1      -5.191  -1.806  27.765  1.00  0.00     0.109 A 
HETATM   14  C7  UNL     1      -5.120  -1.948  26.405  1.00  0.00     0.088 A 
HETATM   15  S1  UNL     1      -4.328  -0.502  25.941  1.00  0.00    -0.063 SA
HETATM   16  C8  UNL     1      -4.138   0.182  27.486  1.00  0.00     0.151 A 
HETATM   17  N7  UNL     1      -4.688  -0.722  28.287  1.00  0.00    -0.332 N 
ATOM     18  H7  UNL     1      -4.716  -0.571  29.296  1.00  0.00     0.168 HD
BRANCH  16  19
HETATM   19  N3  UNL     1      -3.584   1.325  27.800  1.00  0.00    -0.306 N 
HETATM   20  C9  UNL     1      -2.294   1.333  28.396  1.00  0.00     0.241 C 
HETATM   21  O2  UNL     1      -2.084   0.785  29.506  1.00  0.00    -0.271 OA
ATOM     22  H3  UNL     1      -4.073   2.202  27.619  1.00  0.00     0.171 HD
BRANCH  20  23
HETATM   23  C10 UNL     1      -1.156   1.987  27.725  1.00  0.00     0.225 C 
BRANCH  23  24
HETATM   24  N4  UNL     1      -0.968   1.397  26.419  1.00  0.00    -0.351 N 
HETATM   25  C11 UNL     1      -1.542   1.988  25.243  1.00  0.00     0.238 C 
HETATM   26  O3  UNL     1      -2.211   3.038  25.403  1.00  0.00    -0.272 OA
ATOM     27  H4  UNL     1      -0.416   0.544  26.331  1.00  0.00     0.163 HD
BRANCH  25  28
HETATM   28  C12 UNL     1      -1.309   1.332  23.945  1.00  0.00     0.189 C 
BRANCH  28  29
HETATM   29  C13 UNL     1      -0.840   2.277  22.893  1.00  0.00     0.144 C 
BRANCH  29  30
HETATM   30  C14 UNL     1      -1.870   2.507  21.845  1.00  0.00     0.282 C 
HETATM   31  O4  UNL     1      -1.584   2.297  20.643  1.00  0.00    -0.263 OA
BRANCH  30  32
HETATM   32  O5  UNL     1      -3.150   2.948  22.133  1.00  0.00    -0.206 OA
BRANCH  32  33
HETATM   33  N5  UNL     1      -3.357   4.132  22.764  1.00  0.00    -0.302 N 
ATOM     34  H52 UNL     1      -3.246   4.994  22.229  1.00  0.00     0.184 HD
ATOM     35  H51 UNL     1      -3.617   4.164  23.750  1.00  0.00     0.184 HD
ENDBRANCH  32  33
ENDBRANCH  30  32
ENDBRANCH  29  30
ENDBRANCH  28  29
BRANCH  28  36
HETATM   36  N6  UNL     1      -0.269   0.334  24.144  1.00  0.00    -0.155 NA
HETATM   37 BR1  UNL     1       0.841   0.260  22.620  1.00  0.00     0.030 Br
ENDBRANCH  28  36
ENDBRANCH  25  28
ENDBRANCH  23  24
ENDBRANCH  20  23
ENDBRANCH  16  19
ENDBRANCH  10  13
ENDBRANCH   8   9
ENDBRANCH   3   8
TORSDOF 13
ENDMDL
MODEL 3
REMARK VINA RESULT: -7.129308019      3.054      7.508
REMARK  13 active torsions:
REMARK  status: ('A' for Active; 'I' for Inactive)
REMARK    1  A    between atoms: C3_3  and  N1_4 
REMARK    2  A    between atoms: C3_3  and  C4_8 
REMARK    3  A    between atoms: C4_8  and  N2_9 
REMARK       I    between atoms: N2_9  and  C5_11 
REMARK    4  A    between atoms: C5_11  and  C6_13 
REMARK    5  A    between atoms: C8_16  and  N3_17 
REMARK       I    between atoms: N3_17  and  C9_19 
REMARK    6  A    between atoms: C9_19  and  C10_21 
REMARK    7  A    between atoms: C10_21  and  N4_22 
REMARK       I    between atoms: N4_22  and  C11_24 
REMARK    8  A    between atoms: C11_24  and  C12_26 
REMARK    9  A    between atoms: C12_26  and  C13_27 
REMARK   10  A    between atoms: C12_26  and  N6_34 
REMARK   11  A    between atoms: C13_27  and  C14_28 
REMARK   12  A    between atoms: C14_28  and  O5_30 
REMARK   13  A    between atoms: O5_30  and  N5_31 
ROOT
HETATM    1  C1  UNL     1      -5.481  -6.419  26.838  1.00  0.00     0.014 C 
HETATM    2  C2  UNL     1      -5.783  -5.367  27.335  1.00  0.00    -0.083 C 
HETATM    3  C3  UNL     1      -6.186  -4.055  27.951  1.00  0.00     0.278 C 
ENDROOT
BRANCH   3   4
HETATM    4  N1  UNL     1      -5.111  -3.627  28.782  1.00  0.00    -0.063 N 
ATOM      5  H13 UNL     1      -5.404  -3.413  29.735  1.00  0.00     0.275 HD
ATOM      6  H12 UNL     1      -4.460  -4.378  29.010  1.00  0.00     0.275 HD
ATOM      7  H11 UNL     1      -4.661  -2.838  28.317  1.00  0.00     0.275 HD
ENDBRANCH   3   4
BRANCH   3   8
HETATM    8  C4  UNL     1      -6.607  -3.180  26.836  1.00  0.00     0.168 C 
BRANCH   8   9
HETATM    9  N2  UNL     1      -6.371  -1.792  26.932  1.00  0.00    -0.353 N 
HETATM   10  C5  UNL     1      -5.436  -1.078  26.172  1.00  0.00     0.268 C 
HETATM   11  O1  UNL     1      -4.730  -1.661  25.303  1.00  0.00    -0.266 OA
ATOM     12  H2  UNL     1      -6.926  -1.266  27.608  1.00  0.00     0.162 HD
BRANCH  10  13
HETATM   13  C6  UNL     1      -5.244   0.402  26.369  1.00  0.00     0.109 A 
HETATM   14  C7  UNL     1      -6.246   1.268  26.025  1.00  0.00     0.088 A 
HETATM   15  S1  UNL     1      -5.557   2.783  26.429  1.00  0.00    -0.063 SA
HETATM   16  C8  UNL     1      -4.057   2.227  27.003  1.00  0.00     0.151 A 
HETATM   17  N7  UNL     1      -4.147   0.910  26.861  1.00  0.00    -0.332 N 
ATOM     18  H7  UNL     1      -3.372   0.305  27.132  1.00  0.00     0.168 HD
BRANCH  16  19
HETATM   19  N3  UNL     1      -3.059   2.932  27.470  1.00  0.00    -0.306 N 
HETATM   20  C9  UNL     1      -1.945   2.266  28.050  1.00  0.00     0.241 C 
HETATM   21  O2  UNL     1      -2.074   1.545  29.069  1.00  0.00    -0.271 OA
ATOM     22  H3  UNL     1      -3.080   3.951  27.420  1.00  0.00     0.171 HD
BRANCH  20  23
HETATM   23  C10 UNL     1      -0.598   2.401  27.467  1.00  0.00     0.225 C 
BRANCH  23  24
HETATM   24  N4  UNL     1      -0.612   1.904  26.110  1.00  0.00    -0.351 N 
HETATM   25  C11 UNL     1      -0.771   2.789  24.991  1.00  0.00     0.238 C 
HETATM   26  O3  UNL     1      -0.896   4.012  25.248  1.00  0.00    -0.272 OA
ATOM     27  H4  UNL     1      -0.506   0.903  25.943  1.00  0.00     0.163 HD
BRANCH  25  28
HETATM   28  C12 UNL     1      -0.776   2.213  23.636  1.00  0.00     0.189 C 
BRANCH  28  29
HETATM   29  C13 UNL     1       0.257   1.155  23.452  1.00  0.00     0.144 C 
BRANCH  29  30
HETATM   30  C14 UNL     1       0.793   1.130  22.065  1.00  0.00     0.282 C 
HETATM   31  O4  UNL     1       1.159   2.200  21.525  1.00  0.00    -0.263 OA
BRANCH  30  32
HETATM   32  O5  UNL     1       0.910  -0.035  21.325  1.00  0.00    -0.206 OA
BRANCH  32  33
HETATM   33  N5  UNL     1       0.931  -1.250  21.932  1.00  0.00    -0.302 N 
ATOM     34  H52 UNL     1       1.106  -1.289  22.936  1.00  0.00     0.184 HD
ATOM     35  H51 UNL     1       0.775  -2.106  21.399  1.00  0.00     0.184 HD
ENDBRANCH  32  33
ENDBRANCH  30  32
ENDBRANCH  29  30
ENDBRANCH  28  29
BRANCH  28  36
HETATM   36  N6  UNL     1      -2.081   1.602  23.430  1.00  0.00    -0.155 NA
HETATM   37 BR1  UNL     1      -3.352   2.939  23.029  1.00  0.00     0.030 Br
ENDBRANCH  28  36
ENDBRANCH  25  28
ENDBRANCH  23  24
ENDBRANCH  20  23
ENDBRANCH  16  19
ENDBRANCH  10  13
ENDBRANCH   8   9
ENDBRANCH   3   8
TORSDOF 13
ENDMDL
MODEL 4
REMARK VINA RESULT: -7.115344989      2.922      7.550
REMARK  13 active torsions:
REMARK  status: ('A' for Active; 'I' for Inactive)
REMARK    1  A    between atoms: C3_3  and  N1_4 
REMARK    2  A    between atoms: C3_3  and  C4_8 
REMARK    3  A    between atoms: C4_8  and  N2_9 
REMARK       I    between atoms: N2_9  and  C5_11 
REMARK    4  A    between atoms: C5_11  and  C6_13 
REMARK    5  A    between atoms: C8_16  and  N3_17 
REMARK       I    between atoms: N3_17  and  C9_19 
REMARK    6  A    between atoms: C9_19  and  C10_21 
REMARK    7  A    between atoms: C10_21  and  N4_22 
REMARK       I    between atoms: N4_22  and  C11_24 
REMARK    8  A    between atoms: C11_24  and  C12_26 
REMARK    9  A    between atoms: C12_26  and  C13_27 
REMARK   10  A    between atoms: C12_26  and  N6_34 
REMARK   11  A    between atoms: C13_27  and  C14_28 
REMARK   12  A    between atoms: C14_28  and  O5_30 
REMARK   13  A    between atoms: O5_30  and  N5_31 
ROOT
HETATM    1  C1  UNL     1      -6.107  -7.123  27.539  1.00  0.00     0.014 C 
HETATM    2  C2  UNL     1      -6.086  -5.957  27.830  1.00  0.00    -0.083 C 
HETATM    3  C3  UNL     1      -6.079  -4.493  28.176  1.00  0.00     0.278 C 
ENDROOT
BRANCH   3   4
HETATM    4  N1  UNL     1      -5.449  -4.359  29.448  1.00  0.00    -0.063 N 
ATOM      5  H13 UNL     1      -5.099  -5.244  29.814  1.00  0.00     0.275 HD
ATOM      6  H12 UNL     1      -4.555  -3.873  29.400  1.00  0.00     0.275 HD
ATOM      7  H11 UNL     1      -6.116  -3.905  30.073  1.00  0.00     0.275 HD
ENDBRANCH   3   4
BRANCH   3   8
HETATM    8  C4  UNL     1      -5.484  -3.790  27.018  1.00  0.00     0.168 C 
BRANCH   8   9
HETATM    9  N2  UNL     1      -5.282  -2.396  27.097  1.00  0.00    -0.353 N 
HETATM   10  C5  UNL     1      -6.064  -1.430  26.451  1.00  0.00     0.268 C 
HETATM   11  O1  UNL     1      -7.054  -1.768  25.744  1.00  0.00    -0.266 OA
ATOM     12  H2  UNL     1      -4.505  -2.065  27.669  1.00  0.00     0.162 HD
BRANCH  10  13
HETATM   13  C6  UNL     1      -5.749   0.036  26.580  1.00  0.00     0.109 A 
HETATM   14  C7  UNL     1      -6.602   0.964  26.045  1.00  0.00     0.088 A 
HETATM   15  S1  UNL     1      -5.821   2.434  26.447  1.00  0.00    -0.063 SA
HETATM   16  C8  UNL     1      -4.476   1.785  27.259  1.00  0.00     0.151 A 
HETATM   17  N7  UNL     1      -4.682   0.476  27.188  1.00  0.00    -0.332 N 
ATOM     18  H7  UNL     1      -4.016  -0.176  27.603  1.00  0.00     0.168 HD
BRANCH  16  19
HETATM   19  N3  UNL     1      -3.483   2.428  27.817  1.00  0.00    -0.306 N 
HETATM   20  C9  UNL     1      -2.340   1.703  28.250  1.00  0.00     0.241 C 
HETATM   21  O2  UNL     1      -2.425   0.818  29.136  1.00  0.00    -0.271 OA
ATOM     22  H3  UNL     1      -3.528   3.440  27.940  1.00  0.00     0.171 HD
BRANCH  20  23
HETATM   23  C10 UNL     1      -1.011   1.970  27.670  1.00  0.00     0.225 C 
BRANCH  23  24
HETATM   24  N4  UNL     1      -0.899   1.289  26.400  1.00  0.00    -0.351 N 
HETATM   25  C11 UNL     1      -1.278   1.929  25.172  1.00  0.00     0.238 C 
HETATM   26  O3  UNL     1      -1.708   3.106  25.254  1.00  0.00    -0.272 OA
ATOM     27  H4  UNL     1      -0.543   0.333  26.375  1.00  0.00     0.163 HD
BRANCH  25  28
HETATM   28  C12 UNL     1      -1.137   1.175  23.915  1.00  0.00     0.189 C 
BRANCH  28  29
HETATM   29  C13 UNL     1      -0.662   2.018  22.782  1.00  0.00     0.144 C 
BRANCH  29  30
HETATM   30  C14 UNL     1      -1.762   2.367  21.844  1.00  0.00     0.282 C 
HETATM   31  O4  UNL     1      -1.535   2.402  20.612  1.00  0.00    -0.263 OA
BRANCH  30  32
HETATM   32  O5  UNL     1      -3.047   2.662  22.267  1.00  0.00    -0.206 OA
BRANCH  32  33
HETATM   33  N5  UNL     1      -3.403   3.932  22.591  1.00  0.00    -0.302 N 
ATOM     34  H52 UNL     1      -3.014   4.700  22.044  1.00  0.00     0.184 HD
ATOM     35  H51 UNL     1      -4.044   4.117  23.362  1.00  0.00     0.184 HD
ENDBRANCH  32  33
ENDBRANCH  30  32
ENDBRANCH  29  30
ENDBRANCH  28  29
BRANCH  28  36
HETATM   36  N6  UNL     1      -0.145   0.134  24.144  1.00  0.00    -0.155 NA
HETATM   37 BR1  UNL     1       0.911  -0.088  22.595  1.00  0.00     0.030 Br
ENDBRANCH  28  36
ENDBRANCH  25  28
ENDBRANCH  23  24
ENDBRANCH  20  23
ENDBRANCH  16  19
ENDBRANCH  10  13
ENDBRANCH   8   9
ENDBRANCH   3   8
TORSDOF 13
ENDMDL
MODEL 5
REMARK VINA RESULT: -7.113775030      3.282      8.171
REMARK  13 active torsions:
REMARK  status: ('A' for Active; 'I' for Inactive)
REMARK    1  A    between atoms: C3_3  and  N1_4 
REMARK    2  A    between atoms: C3_3  and  C4_8 
REMARK    3  A    between atoms: C4_8  and  N2_9 
REMARK       I    between atoms: N2_9  and  C5_11 
REMARK    4  A    between atoms: C5_11  and  C6_13 
REMARK    5  A    between atoms: C8_16  and  N3_17 
REMARK       I    between atoms: N3_17  and  C9_19 
REMARK    6  A    between atoms: C9_19  and  C10_21 
REMARK    7  A    between atoms: C10_21  and  N4_22 
REMARK       I    between atoms: N4_22  and  C11_24 
REMARK    8  A    between atoms: C11_24  and  C12_26 
REMARK    9  A    between atoms: C12_26  and  C13_27 
REMARK   10  A    between atoms: C12_26  and  N6_34 
REMARK   11  A    between atoms: C13_27  and  C14_28 
REMARK   12  A    between atoms: C14_28  and  O5_30 
REMARK   13  A    between atoms: O5_30  and  N5_31 
ROOT
HETATM    1  C1  UNL     1      -5.392  -6.766  26.465  1.00  0.00     0.014 C 
HETATM    2  C2  UNL     1      -5.853  -6.516  27.546  1.00  0.00    -0.083 C 
HETATM    3  C3  UNL     1      -6.438  -6.178  28.891  1.00  0.00     0.278 C 
ENDROOT
BRANCH   3   4
HETATM    4  N1  UNL     1      -6.617  -7.403  29.597  1.00  0.00    -0.063 N 
ATOM      5  H13 UNL     1      -7.566  -7.524  29.951  1.00  0.00     0.275 HD
ATOM      6  H12 UNL     1      -6.599  -8.220  28.987  1.00  0.00     0.275 HD
ATOM      7  H11 UNL     1      -5.910  -7.439  30.331  1.00  0.00     0.275 HD
ENDBRANCH   3   4
BRANCH   3   8
HETATM    8  C4  UNL     1      -5.559  -5.146  29.483  1.00  0.00     0.168 C 
BRANCH   8   9
HETATM    9  N2  UNL     1      -5.077  -4.106  28.660  1.00  0.00    -0.353 N 
HETATM   10  C5  UNL     1      -5.482  -2.767  28.732  1.00  0.00     0.268 C 
HETATM   11  O1  UNL     1      -6.327  -2.393  29.592  1.00  0.00    -0.266 OA
ATOM     12  H2  UNL     1      -4.379  -4.349  27.957  1.00  0.00     0.162 HD
BRANCH  10  13
HETATM   13  C6  UNL     1      -4.922  -1.737  27.788  1.00  0.00     0.109 A 
HETATM   14  C7  UNL     1      -4.978  -1.952  26.437  1.00  0.00     0.088 A 
HETATM   15  S1  UNL     1      -4.235  -0.536  25.823  1.00  0.00    -0.063 SA
HETATM   16  C8  UNL     1      -3.905   0.231  27.304  1.00  0.00     0.151 A 
HETATM   17  N7  UNL     1      -4.375  -0.627  28.201  1.00  0.00    -0.332 N 
ATOM     18  H7  UNL     1      -4.310  -0.422  29.198  1.00  0.00     0.168 HD
BRANCH  16  19
HETATM   19  N3  UNL     1      -3.326   1.387  27.503  1.00  0.00    -0.306 N 
HETATM   20  C9  UNL     1      -2.100   1.439  28.219  1.00  0.00     0.241 C 
HETATM   21  O2  UNL     1      -2.024   1.058  29.412  1.00  0.00    -0.271 OA
ATOM     22  H3  UNL     1      -3.752   2.244  27.147  1.00  0.00     0.171 HD
BRANCH  20  23
HETATM   23  C10 UNL     1      -0.872   1.944  27.579  1.00  0.00     0.225 C 
BRANCH  23  24
HETATM   24  N4  UNL     1      -0.899   1.621  26.170  1.00  0.00    -0.351 N 
HETATM   25  C11 UNL     1      -0.831   2.645  25.166  1.00  0.00     0.238 C 
HETATM   26  O3  UNL     1      -0.744   3.831  25.569  1.00  0.00    -0.272 OA
ATOM     27  H4  UNL     1      -0.969   0.645  25.883  1.00  0.00     0.163 HD
BRANCH  25  28
HETATM   28  C12 UNL     1      -0.864   2.242  23.751  1.00  0.00     0.189 C 
BRANCH  28  29
HETATM   29  C13 UNL     1       0.013   1.072  23.459  1.00  0.00     0.144 C 
BRANCH  29  30
HETATM   30  C14 UNL     1       0.612   1.145  22.101  1.00  0.00     0.282 C 
HETATM   31  O4  UNL     1       0.843   2.265  21.587  1.00  0.00    -0.263 OA
BRANCH  30  32
HETATM   32  O5  UNL     1       0.934   0.021  21.359  1.00  0.00    -0.206 OA
BRANCH  32  33
HETATM   33  N5  UNL     1       0.956  -1.211  21.931  1.00  0.00    -0.302 N 
ATOM     34  H52 UNL     1       0.088  -1.586  22.312  1.00  0.00     0.184 HD
ATOM     35  H51 UNL     1       1.820  -1.752  21.980  1.00  0.00     0.184 HD
ENDBRANCH  32  33
ENDBRANCH  30  32
ENDBRANCH  29  30
ENDBRANCH  28  29
BRANCH  28  36
HETATM   36  N6  UNL     1      -2.234   1.860  23.441  1.00  0.00    -0.155 NA
HETATM   37 BR1  UNL     1      -3.176   3.356  22.780  1.00  0.00     0.030 Br
ENDBRANCH  28  36
ENDBRANCH  25  28
ENDBRANCH  23  24
ENDBRANCH  20  23
ENDBRANCH  16  19
ENDBRANCH  10  13
ENDBRANCH   8   9
ENDBRANCH   3   8
TORSDOF 13
ENDMDL
