MODEL 1
REMARK VINA RESULT: -7.200931366      0.000      0.000
REMARK  11 active torsions:
REMARK  status: ('A' for Active; 'I' for Inactive)
REMARK    1  A    between atoms: C2_2  and  N1_3 
REMARK    2  A    between atoms: C2_2  and  C3_7 
REMARK       I    between atoms: C3_7  and  N2_9 
REMARK    3  A    between atoms: N2_9  and  C4_11 
REMARK    4  A    between atoms: C4_11  and  C5_12 
REMARK       I    between atoms: C5_12  and  N3_14 
REMARK    5  A    between atoms: N3_14  and  C6_16 
REMARK    6  A    between atoms: C6_16  and  C7_17 
REMARK    7  A    between atoms: C6_16  and  C8_22 
REMARK    8  A    between atoms: C7_17  and  N4_18 
REMARK    9  A    between atoms: C8_22  and  C9_23 
REMARK   10  A    between atoms: C8_22  and  N5_25 
REMARK       I    between atoms: N5_25  and  C10_27 
REMARK   11  A    between atoms: C10_27  and  C11_29 
ROOT
HETATM    1  C8  UNL     1      -3.403   5.083  24.133  1.00  0.00     0.170 C 
ENDROOT
BRANCH   1   2
HETATM    2  C6  UNL     1      -2.251   5.803  24.789  1.00  0.00     0.139 C 
BRANCH   2   3
HETATM    3  N3  UNL     1      -1.196   4.788  24.940  1.00  0.00    -0.351 N 
HETATM    4  C5  UNL     1      -0.012   4.839  24.164  1.00  0.00     0.235 C 
HETATM    5  O2  UNL     1       0.136   5.768  23.333  1.00  0.00    -0.272 OA
ATOM      6  H3  UNL     1      -1.319   4.035  25.617  1.00  0.00     0.163 HD
BRANCH   4   7
HETATM    7  C4  UNL     1       1.069   3.820  24.305  1.00  0.00     0.225 C 
BRANCH   7   8
HETATM    8  N2  UNL     1       0.535   2.483  24.224  1.00  0.00    -0.351 N 
HETATM    9  C3  UNL     1       0.587   1.765  23.010  1.00  0.00     0.248 C 
HETATM   10  O1  UNL     1       1.095   2.287  22.001  1.00  0.00    -0.271 OA
ATOM     11  H2  UNL     1       0.117   2.054  25.049  1.00  0.00     0.163 HD
BRANCH   9  12
HETATM   12  C2  UNL     1       0.044   0.400  22.917  1.00  0.00     0.270 C 
HETATM   13  C1  UNL     1       1.209  -0.562  23.046  1.00  0.00     0.050 C 
BRANCH  12  14
HETATM   14  N1  UNL     1      -0.899   0.129  23.965  1.00  0.00    -0.067 N 
ATOM     15  H13 UNL     1      -1.794  -0.203  23.607  1.00  0.00     0.275 HD
ATOM     16  H12 UNL     1      -0.649  -0.696  24.509  1.00  0.00     0.275 HD
ATOM     17  H11 UNL     1      -0.996   0.964  24.544  1.00  0.00     0.275 HD
ENDBRANCH  12  14
ENDBRANCH   9  12
ENDBRANCH   7   8
ENDBRANCH   4   7
ENDBRANCH   2   3
BRANCH   2  18
HETATM   18  C7  UNL     1      -2.572   6.275  26.161  1.00  0.00     0.257 C 
BRANCH  18  19
HETATM   19  N4  UNL     1      -1.787   5.725  27.218  1.00  0.00    -0.077 N 
ATOM     20  H43 UNL     1      -0.866   6.163  27.226  1.00  0.00     0.274 HD
ATOM     21  H42 UNL     1      -2.150   6.041  28.117  1.00  0.00     0.274 HD
ATOM     22  H41 UNL     1      -1.687   4.710  27.225  1.00  0.00     0.274 HD
ENDBRANCH  18  19
ENDBRANCH   2  18
ENDBRANCH   1   2
BRANCH   1  23
HETATM   23  C9  UNL     1      -4.501   6.037  23.791  1.00  0.00     0.258 C 
HETATM   24  O3  UNL     1      -4.708   6.390  22.645  1.00  0.00    -0.305 OA
ENDBRANCH   1  23
BRANCH   1  25
HETATM   25  N5  UNL     1      -3.852   4.006  24.958  1.00  0.00    -0.348 N 
HETATM   26  C10 UNL     1      -3.478   2.663  24.730  1.00  0.00     0.225 C 
HETATM   27  O4  UNL     1      -2.713   2.432  23.740  1.00  0.00    -0.273 OA
ATOM     28  H5  UNL     1      -4.466   4.215  25.746  1.00  0.00     0.163 HD
BRANCH  26  29
HETATM   29  C11 UNL     1      -3.956   1.536  25.612  1.00  0.00     0.112 C 
HETATM   30  C12 UNL     1      -5.373   1.782  25.935  1.00  0.00     0.017 C 
HETATM   31  C13 UNL     1      -6.255   0.600  25.498  1.00  0.00     0.001 C 
HETATM   32  C14 UNL     1      -6.151  -0.521  26.541  1.00  0.00     0.000 C 
HETATM   33  C15 UNL     1      -5.137  -1.532  26.226  1.00  0.00     0.000 C 
HETATM   34  C16 UNL     1      -3.805  -1.448  26.871  1.00  0.00     0.005 C 
HETATM   35  C17 UNL     1      -3.676  -0.644  28.097  1.00  0.00     0.069 C 
HETATM   36  C18 UNL     1      -3.263   0.766  27.964  1.00  0.00     0.207 C 
HETATM   37  F1  UNL     1      -4.015   1.615  28.794  1.00  0.00    -0.216 F 
HETATM   38  N6  UNL     1      -1.914   0.967  28.555  1.00  0.00    -0.298 N 
HETATM   39  C20 UNL     1      -2.983   1.332  26.645  1.00  0.00     0.207 C 
HETATM   40  C19 UNL     1      -1.527   2.242  28.064  1.00  0.00     0.363 C 
ATOM     41  H6  UNL     1      -1.391   0.339  29.167  1.00  0.00     0.168 HD
HETATM   42  O5  UNL     1      -0.563   2.967  28.466  1.00  0.00    -0.238 OA
HETATM   43  O6  UNL     1      -2.406   2.601  27.022  1.00  0.00    -0.292 OA
ENDBRANCH  26  29
ENDBRANCH   1  25
TORSDOF 11
ENDMDL
MODEL 2
REMARK VINA RESULT: -7.084219501      2.271      3.812
REMARK  11 active torsions:
REMARK  status: ('A' for Active; 'I' for Inactive)
REMARK    1  A    between atoms: C2_2  and  N1_3 
REMARK    2  A    between atoms: C2_2  and  C3_7 
REMARK       I    between atoms: C3_7  and  N2_9 
REMARK    3  A    between atoms: N2_9  and  C4_11 
REMARK    4  A    between atoms: C4_11  and  C5_12 
REMARK       I    between atoms: C5_12  and  N3_14 
REMARK    5  A    between atoms: N3_14  and  C6_16 
REMARK    6  A    between atoms: C6_16  and  C7_17 
REMARK    7  A    between atoms: C6_16  and  C8_22 
REMARK    8  A    between atoms: C7_17  and  N4_18 
REMARK    9  A    between atoms: C8_22  and  C9_23 
REMARK   10  A    between atoms: C8_22  and  N5_25 
REMARK       I    between atoms: N5_25  and  C10_27 
REMARK   11  A    between atoms: C10_27  and  C11_29 
ROOT
HETATM    1  C8  UNL     1      -1.655   2.876  23.078  1.00  0.00     0.170 C 
ENDROOT
BRANCH   1   2
HETATM    2  C6  UNL     1      -1.453   4.342  23.379  1.00  0.00     0.139 C 
BRANCH   2   3
HETATM    3  N3  UNL     1      -0.459   4.380  24.464  1.00  0.00    -0.351 N 
HETATM    4  C5  UNL     1       0.444   5.463  24.593  1.00  0.00     0.235 C 
HETATM    5  O2  UNL     1       0.393   6.406  23.766  1.00  0.00    -0.272 OA
ATOM      6  H3  UNL     1      -0.420   3.613  25.135  1.00  0.00     0.163 HD
BRANCH   4   7
HETATM    7  C4  UNL     1       1.458   5.520  25.688  1.00  0.00     0.225 C 
BRANCH   7   8
HETATM    8  N2  UNL     1       0.825   5.474  26.983  1.00  0.00    -0.351 N 
HETATM    9  C3  UNL     1       1.200   6.385  27.993  1.00  0.00     0.248 C 
HETATM   10  O1  UNL     1       2.082   7.234  27.769  1.00  0.00    -0.271 OA
ATOM     11  H2  UNL     1       0.103   4.779  27.169  1.00  0.00     0.163 HD
BRANCH   9  12
HETATM   12  C2  UNL     1       0.560   6.347  29.318  1.00  0.00     0.270 C 
HETATM   13  C1  UNL     1      -0.937   6.246  29.098  1.00  0.00     0.050 C 
BRANCH  12  14
HETATM   14  N1  UNL     1       0.992   5.214  30.086  1.00  0.00    -0.067 N 
ATOM     15  H13 UNL     1       0.249   4.528  30.220  1.00  0.00     0.275 HD
ATOM     16  H12 UNL     1       1.642   4.620  29.570  1.00  0.00     0.275 HD
ATOM     17  H11 UNL     1       1.381   5.544  30.969  1.00  0.00     0.275 HD
ENDBRANCH  12  14
ENDBRANCH   9  12
ENDBRANCH   7   8
ENDBRANCH   4   7
ENDBRANCH   2   3
BRANCH   2  18
HETATM   18  C7  UNL     1      -2.676   4.995  23.914  1.00  0.00     0.257 C 
BRANCH  18  19
HETATM   19  N4  UNL     1      -2.856   6.369  23.578  1.00  0.00    -0.077 N 
ATOM     20  H43 UNL     1      -2.041   6.708  23.067  1.00  0.00     0.274 HD
ATOM     21  H42 UNL     1      -3.574   6.457  22.859  1.00  0.00     0.274 HD
ATOM     22  H41 UNL     1      -3.065   7.000  24.352  1.00  0.00     0.274 HD
ENDBRANCH  18  19
ENDBRANCH   2  18
ENDBRANCH   1   2
BRANCH   1  23
HETATM   23  C9  UNL     1      -2.282   2.692  21.735  1.00  0.00     0.258 C 
HETATM   24  O3  UNL     1      -1.629   2.355  20.765  1.00  0.00    -0.305 OA
ENDBRANCH   1  23
BRANCH   1  25
HETATM   25  N5  UNL     1      -2.406   2.253  24.123  1.00  0.00    -0.348 N 
HETATM   26  C10 UNL     1      -2.083   0.978  24.638  1.00  0.00     0.225 C 
HETATM   27  O4  UNL     1      -1.080   0.384  24.131  1.00  0.00    -0.273 OA
ATOM     28  H5  UNL     1      -3.208   2.749  24.512  1.00  0.00     0.163 HD
BRANCH  26  29
HETATM   29  C11 UNL     1      -2.882   0.334  25.743  1.00  0.00     0.112 C 
HETATM   30  C12 UNL     1      -4.300   0.679  25.539  1.00  0.00     0.017 C 
HETATM   31  C13 UNL     1      -5.167  -0.586  25.413  1.00  0.00     0.001 C 
HETATM   32  C14 UNL     1      -5.446  -1.149  26.813  1.00  0.00     0.000 C 
HETATM   33  C15 UNL     1      -4.499  -2.187  27.233  1.00  0.00     0.000 C 
HETATM   34  C16 UNL     1      -3.367  -1.819  28.118  1.00  0.00     0.005 C 
HETATM   35  C17 UNL     1      -3.462  -0.566  28.883  1.00  0.00     0.069 C 
HETATM   36  C18 UNL     1      -2.881   0.655  28.294  1.00  0.00     0.207 C 
HETATM   37  F1  UNL     1      -3.721   1.770  28.458  1.00  0.00    -0.216 F 
HETATM   38  N6  UNL     1      -1.708   1.105  29.088  1.00  0.00    -0.298 N 
HETATM   39  C20 UNL     1      -2.224   0.604  26.988  1.00  0.00     0.207 C 
HETATM   40  C19 UNL     1      -1.078   2.050  28.236  1.00  0.00     0.363 C 
ATOM     41  H6  UNL     1      -1.423   0.806  30.021  1.00  0.00     0.168 HD
HETATM   42  O5  UNL     1      -0.172   2.888  28.544  1.00  0.00    -0.238 OA
HETATM   43  O6  UNL     1      -1.627   1.918  26.944  1.00  0.00    -0.292 OA
ENDBRANCH  26  29
ENDBRANCH   1  25
TORSDOF 11
ENDMDL
MODEL 3
REMARK VINA RESULT: -6.867292346      2.089      4.319
REMARK  11 active torsions:
REMARK  status: ('A' for Active; 'I' for Inactive)
REMARK    1  A    between atoms: C2_2  and  N1_3 
REMARK    2  A    between atoms: C2_2  and  C3_7 
REMARK       I    between atoms: C3_7  and  N2_9 
REMARK    3  A    between atoms: N2_9  and  C4_11 
REMARK    4  A    between atoms: C4_11  and  C5_12 
REMARK       I    between atoms: C5_12  and  N3_14 
REMARK    5  A    between atoms: N3_14  and  C6_16 
REMARK    6  A    between atoms: C6_16  and  C7_17 
REMARK    7  A    between atoms: C6_16  and  C8_22 
REMARK    8  A    between atoms: C7_17  and  N4_18 
REMARK    9  A    between atoms: C8_22  and  C9_23 
REMARK   10  A    between atoms: C8_22  and  N5_25 
REMARK       I    between atoms: N5_25  and  C10_27 
REMARK   11  A    between atoms: C10_27  and  C11_29 
ROOT
HETATM    1  C8  UNL     1      -1.367   1.818  23.120  1.00  0.00     0.170 C 
ENDROOT
BRANCH   1   2
HETATM    2  C6  UNL     1      -0.206   2.583  23.708  1.00  0.00     0.139 C 
BRANCH   2   3
HETATM    3  N3  UNL     1      -0.418   3.981  23.301  1.00  0.00    -0.351 N 
HETATM    4  C5  UNL     1      -0.318   5.041  24.236  1.00  0.00     0.235 C 
HETATM    5  O2  UNL     1      -0.042   4.778  25.432  1.00  0.00    -0.272 OA
ATOM      6  H3  UNL     1      -0.642   4.192  22.328  1.00  0.00     0.163 HD
BRANCH   4   7
HETATM    7  C4  UNL     1      -0.529   6.465  23.842  1.00  0.00     0.225 C 
BRANCH   7   8
HETATM    8  N2  UNL     1      -1.926   6.739  23.618  1.00  0.00    -0.351 N 
HETATM    9  C3  UNL     1      -2.322   7.869  22.871  1.00  0.00     0.248 C 
HETATM   10  O1  UNL     1      -1.461   8.636  22.402  1.00  0.00    -0.271 OA
ATOM     11  H2  UNL     1      -2.633   6.112  24.002  1.00  0.00     0.163 HD
BRANCH   9  12
HETATM   12  C2  UNL     1      -3.746   8.158  22.636  1.00  0.00     0.270 C 
HETATM   13  C1  UNL     1      -3.840   8.984  21.369  1.00  0.00     0.050 C 
BRANCH  12  14
HETATM   14  N1  UNL     1      -4.511   6.956  22.463  1.00  0.00    -0.067 N 
ATOM     15  H13 UNL     1      -5.468   7.051  22.801  1.00  0.00     0.275 HD
ATOM     16  H12 UNL     1      -4.726   6.769  21.483  1.00  0.00     0.275 HD
ATOM     17  H11 UNL     1      -4.016   6.183  22.908  1.00  0.00     0.275 HD
ENDBRANCH  12  14
ENDBRANCH   9  12
ENDBRANCH   7   8
ENDBRANCH   4   7
ENDBRANCH   2   3
BRANCH   2  18
HETATM   18  C7  UNL     1       1.103   2.178  23.131  1.00  0.00     0.257 C 
BRANCH  18  19
HETATM   19  N4  UNL     1       1.404   0.785  23.165  1.00  0.00    -0.077 N 
ATOM     20  H43 UNL     1       0.593   0.265  23.501  1.00  0.00     0.274 HD
ATOM     21  H42 UNL     1       1.473   0.424  22.213  1.00  0.00     0.274 HD
ATOM     22  H41 UNL     1       2.232   0.514  23.696  1.00  0.00     0.274 HD
ENDBRANCH  18  19
ENDBRANCH   2  18
ENDBRANCH   1   2
BRANCH   1  23
HETATM   23  C9  UNL     1      -2.002   2.589  22.009  1.00  0.00     0.258 C 
HETATM   24  O3  UNL     1      -1.664   2.436  20.850  1.00  0.00    -0.305 OA
ENDBRANCH   1  23
BRANCH   1  25
HETATM   25  N5  UNL     1      -2.299   1.465  24.144  1.00  0.00    -0.348 N 
HETATM   26  C10 UNL     1      -1.998   0.532  25.161  1.00  0.00     0.225 C 
HETATM   27  O4  UNL     1      -0.844  -0.002  25.137  1.00  0.00    -0.273 OA
ATOM     28  H5  UNL     1      -3.220   1.906  24.142  1.00  0.00     0.163 HD
BRANCH  26  29
HETATM   29  C11 UNL     1      -2.990   0.171  26.238  1.00  0.00     0.112 C 
HETATM   30  C12 UNL     1      -4.337   0.519  25.750  1.00  0.00     0.017 C 
HETATM   31  C13 UNL     1      -5.264  -0.709  25.754  1.00  0.00     0.001 C 
HETATM   32  C14 UNL     1      -5.779  -0.947  27.180  1.00  0.00     0.000 C 
HETATM   33  C15 UNL     1      -4.978  -1.907  27.948  1.00  0.00     0.000 C 
HETATM   34  C16 UNL     1      -3.962  -1.401  28.902  1.00  0.00     0.005 C 
HETATM   35  C17 UNL     1      -4.076  -0.010  29.367  1.00  0.00     0.069 C 
HETATM   36  C18 UNL     1      -3.332   1.032  28.636  1.00  0.00     0.207 C 
HETATM   37  F1  UNL     1      -4.106   2.188  28.434  1.00  0.00    -0.216 F 
HETATM   38  N6  UNL     1      -2.256   1.597  29.492  1.00  0.00    -0.298 N 
HETATM   39  C20 UNL     1      -2.500   0.676  27.487  1.00  0.00     0.207 C 
HETATM   40  C19 UNL     1      -1.445   2.312  28.571  1.00  0.00     0.363 C 
ATOM     41  H6  UNL     1      -2.129   1.495  30.499  1.00  0.00     0.168 HD
HETATM   42  O5  UNL     1      -0.536   3.160  28.836  1.00  0.00    -0.238 OA
HETATM   43  O6  UNL     1      -1.811   1.926  27.265  1.00  0.00    -0.292 OA
ENDBRANCH  26  29
ENDBRANCH   1  25
TORSDOF 11
ENDMDL
MODEL 4
REMARK VINA RESULT: -6.862793552      2.519      4.331
REMARK  11 active torsions:
REMARK  status: ('A' for Active; 'I' for Inactive)
REMARK    1  A    between atoms: C2_2  and  N1_3 
REMARK    2  A    between atoms: C2_2  and  C3_7 
REMARK       I    between atoms: C3_7  and  N2_9 
REMARK    3  A    between atoms: N2_9  and  C4_11 
REMARK    4  A    between atoms: C4_11  and  C5_12 
REMARK       I    between atoms: C5_12  and  N3_14 
REMARK    5  A    between atoms: N3_14  and  C6_16 
REMARK    6  A    between atoms: C6_16  and  C7_17 
REMARK    7  A    between atoms: C6_16  and  C8_22 
REMARK    8  A    between atoms: C7_17  and  N4_18 
REMARK    9  A    between atoms: C8_22  and  C9_23 
REMARK   10  A    between atoms: C8_22  and  N5_25 
REMARK       I    between atoms: N5_25  and  C10_27 
REMARK   11  A    between atoms: C10_27  and  C11_29 
ROOT
HETATM    1  C8  UNL     1      -2.782   3.129  29.312  1.00  0.00     0.170 C 
ENDROOT
BRANCH   1   2
HETATM    2  C6  UNL     1      -1.681   3.481  28.341  1.00  0.00     0.139 C 
BRANCH   2   3
HETATM    3  N3  UNL     1      -2.266   3.287  27.005  1.00  0.00    -0.351 N 
HETATM    4  C5  UNL     1      -1.904   4.117  25.917  1.00  0.00     0.235 C 
HETATM    5  O2  UNL     1      -1.067   5.035  26.099  1.00  0.00    -0.272 OA
ATOM      6  H3  UNL     1      -2.946   2.539  26.859  1.00  0.00     0.163 HD
BRANCH   4   7
HETATM    7  C4  UNL     1      -2.486   3.934  24.554  1.00  0.00     0.225 C 
BRANCH   7   8
HETATM    8  N2  UNL     1      -2.010   2.716  23.947  1.00  0.00    -0.351 N 
HETATM    9  C3  UNL     1      -0.818   2.714  23.191  1.00  0.00     0.248 C 
HETATM   10  O1  UNL     1      -0.173   3.768  23.044  1.00  0.00    -0.271 OA
ATOM     11  H2  UNL     1      -2.537   1.851  24.065  1.00  0.00     0.163 HD
BRANCH   9  12
HETATM   12  C2  UNL     1      -0.323   1.476  22.567  1.00  0.00     0.270 C 
HETATM   13  C1  UNL     1       1.152   1.672  22.276  1.00  0.00     0.050 C 
BRANCH  12  14
HETATM   14  N1  UNL     1      -0.477   0.344  23.436  1.00  0.00    -0.067 N 
ATOM     15  H13 UNL     1      -1.416  -0.052  23.396  1.00  0.00     0.275 HD
ATOM     16  H12 UNL     1       0.036  -0.474  23.105  1.00  0.00     0.275 HD
ATOM     17  H11 UNL     1      -0.209   0.616  24.382  1.00  0.00     0.275 HD
ENDBRANCH  12  14
ENDBRANCH   9  12
ENDBRANCH   7   8
ENDBRANCH   4   7
ENDBRANCH   2   3
BRANCH   2  18
HETATM   18  C7  UNL     1      -0.521   2.556  28.424  1.00  0.00     0.257 C 
BRANCH  18  19
HETATM   19  N4  UNL     1       0.719   3.052  27.926  1.00  0.00    -0.077 N 
ATOM     20  H43 UNL     1       1.311   2.274  27.637  1.00  0.00     0.274 HD
ATOM     21  H42 UNL     1       0.571   3.515  27.029  1.00  0.00     0.274 HD
ATOM     22  H41 UNL     1       1.241   3.669  28.549  1.00  0.00     0.274 HD
ENDBRANCH  18  19
ENDBRANCH   2  18
ENDBRANCH   1   2
BRANCH   1  23
HETATM   23  C9  UNL     1      -2.414   3.534  30.702  1.00  0.00     0.258 C 
HETATM   24  O3  UNL     1      -3.181   3.388  31.635  1.00  0.00    -0.305 OA
ENDBRANCH   1  23
BRANCH   1  25
HETATM   25  N5  UNL     1      -3.106   1.740  29.214  1.00  0.00    -0.348 N 
HETATM   26  C10 UNL     1      -4.433   1.274  29.085  1.00  0.00     0.225 C 
HETATM   27  O4  UNL     1      -5.357   2.148  29.060  1.00  0.00    -0.273 OA
ATOM     28  H5  UNL     1      -2.348   1.058  29.238  1.00  0.00     0.163 HD
BRANCH  26  29
HETATM   29  C11 UNL     1      -4.760  -0.194  28.979  1.00  0.00     0.112 C 
HETATM   30  C12 UNL     1      -3.989  -0.908  30.013  1.00  0.00     0.017 C 
HETATM   31  C13 UNL     1      -4.917  -1.699  30.950  1.00  0.00     0.001 C 
HETATM   32  C14 UNL     1      -5.324  -3.012  30.267  1.00  0.00     0.000 C 
HETATM   33  C15 UNL     1      -6.597  -2.933  29.542  1.00  0.00     0.000 C 
HETATM   34  C16 UNL     1      -6.583  -2.719  28.075  1.00  0.00     0.005 C 
HETATM   35  C17 UNL     1      -5.343  -3.020  27.341  1.00  0.00     0.069 C 
HETATM   36  C18 UNL     1      -4.387  -1.921  27.112  1.00  0.00     0.207 C 
HETATM   37  F1  UNL     1      -3.058  -2.325  27.335  1.00  0.00    -0.216 F 
HETATM   38  N6  UNL     1      -4.310  -1.596  25.663  1.00  0.00    -0.298 N 
HETATM   39  C20 UNL     1      -4.679  -0.574  27.598  1.00  0.00     0.207 C 
HETATM   40  C19 UNL     1      -3.637  -0.346  25.643  1.00  0.00     0.363 C 
ATOM     41  H6  UNL     1      -4.658  -2.140  24.873  1.00  0.00     0.168 HD
HETATM   42  O5  UNL     1      -3.122   0.240  24.639  1.00  0.00    -0.238 OA
HETATM   43  O6  UNL     1      -3.624   0.173  26.954  1.00  0.00    -0.292 OA
ENDBRANCH  26  29
ENDBRANCH   1  25
TORSDOF 11
ENDMDL
MODEL 5
REMARK VINA RESULT: -6.837246113      5.944     10.138
REMARK  11 active torsions:
REMARK  status: ('A' for Active; 'I' for Inactive)
REMARK    1  A    between atoms: C2_2  and  N1_3 
REMARK    2  A    between atoms: C2_2  and  C3_7 
REMARK       I    between atoms: C3_7  and  N2_9 
REMARK    3  A    between atoms: N2_9  and  C4_11 
REMARK    4  A    between atoms: C4_11  and  C5_12 
REMARK       I    between atoms: C5_12  and  N3_14 
REMARK    5  A    between atoms: N3_14  and  C6_16 
REMARK    6  A    between atoms: C6_16  and  C7_17 
REMARK    7  A    between atoms: C6_16  and  C8_22 
REMARK    8  A    between atoms: C7_17  and  N4_18 
REMARK    9  A    between atoms: C8_22  and  C9_23 
REMARK   10  A    between atoms: C8_22  and  N5_25 
REMARK       I    between atoms: N5_25  and  C10_27 
REMARK   11  A    between atoms: C10_27  and  C11_29 
ROOT
HETATM    1  C8  UNL     1      -5.297  -2.258  30.684  1.00  0.00     0.170 C 
ENDROOT
BRANCH   1   2
HETATM    2  C6  UNL     1      -6.453  -3.208  30.488  1.00  0.00     0.139 C 
BRANCH   2   3
HETATM    3  N3  UNL     1      -6.680  -3.819  31.808  1.00  0.00    -0.351 N 
HETATM    4  C5  UNL     1      -7.933  -3.716  32.460  1.00  0.00     0.235 C 
HETATM    5  O2  UNL     1      -8.865  -3.090  31.899  1.00  0.00    -0.272 OA
ATOM      6  H3  UNL     1      -5.920  -4.328  32.261  1.00  0.00     0.163 HD
BRANCH   4   7
HETATM    7  C4  UNL     1      -8.181  -4.330  33.798  1.00  0.00     0.225 C 
BRANCH   7   8
HETATM    8  N2  UNL     1      -7.109  -4.027  34.713  1.00  0.00    -0.351 N 
HETATM    9  C3  UNL     1      -6.007  -4.901  34.837  1.00  0.00     0.248 C 
HETATM   10  O1  UNL     1      -5.958  -5.939  34.153  1.00  0.00    -0.271 OA
ATOM     11  H2  UNL     1      -7.148  -3.177  35.275  1.00  0.00     0.163 HD
BRANCH   9  12
HETATM   12  C2  UNL     1      -4.908  -4.600  35.768  1.00  0.00     0.270 C 
HETATM   13  C1  UNL     1      -3.981  -5.800  35.780  1.00  0.00     0.050 C 
BRANCH  12  14
HETATM   14  N1  UNL     1      -4.163  -3.444  35.358  1.00  0.00    -0.067 N 
ATOM     15  H13 UNL     1      -3.382  -3.243  35.981  1.00  0.00     0.275 HD
ATOM     16  H12 UNL     1      -3.626  -3.609  34.506  1.00  0.00     0.275 HD
ATOM     17  H11 UNL     1      -4.803  -2.655  35.269  1.00  0.00     0.275 HD
ENDBRANCH  12  14
ENDBRANCH   9  12
ENDBRANCH   7   8
ENDBRANCH   4   7
ENDBRANCH   2   3
BRANCH   2  18
HETATM   18  C7  UNL     1      -6.132  -4.326  29.564  1.00  0.00     0.257 C 
BRANCH  18  19
HETATM   19  N4  UNL     1      -6.279  -4.056  28.171  1.00  0.00    -0.077 N 
ATOM     20  H43 UNL     1      -7.246  -3.804  27.969  1.00  0.00     0.274 HD
ATOM     21  H42 UNL     1      -5.808  -3.182  27.938  1.00  0.00     0.274 HD
ATOM     22  H41 UNL     1      -5.973  -4.792  27.533  1.00  0.00     0.274 HD
ENDBRANCH  18  19
ENDBRANCH   2  18
ENDBRANCH   1   2
BRANCH   1  23
HETATM   23  C9  UNL     1      -5.214  -1.809  32.107  1.00  0.00     0.258 C 
HETATM   24  O3  UNL     1      -4.273  -2.109  32.818  1.00  0.00    -0.305 OA
ENDBRANCH   1  23
BRANCH   1  25
HETATM   25  N5  UNL     1      -5.393  -1.164  29.770  1.00  0.00    -0.348 N 
HETATM   26  C10 UNL     1      -4.563  -1.046  28.632  1.00  0.00     0.225 C 
HETATM   27  O4  UNL     1      -3.705  -1.964  28.441  1.00  0.00    -0.273 OA
ATOM     28  H5  UNL     1      -6.088  -0.438  29.945  1.00  0.00     0.163 HD
BRANCH  26  29
HETATM   29  C11 UNL     1      -4.678   0.113  27.673  1.00  0.00     0.112 C 
HETATM   30  C12 UNL     1      -5.060   1.308  28.447  1.00  0.00     0.017 C 
HETATM   31  C13 UNL     1      -4.034   2.439  28.266  1.00  0.00     0.001 C 
HETATM   32  C14 UNL     1      -4.296   3.149  26.931  1.00  0.00     0.000 C 
HETATM   33  C15 UNL     1      -3.494   2.632  25.818  1.00  0.00     0.000 C 
HETATM   34  C16 UNL     1      -4.101   1.656  24.880  1.00  0.00     0.005 C 
HETATM   35  C17 UNL     1      -5.569   1.565  24.827  1.00  0.00     0.069 C 
HETATM   36  C18 UNL     1      -6.235   0.563  25.678  1.00  0.00     0.207 C 
HETATM   37  F1  UNL     1      -7.383   1.082  26.302  1.00  0.00    -0.216 F 
HETATM   38  N6  UNL     1      -6.862  -0.494  24.841  1.00  0.00    -0.298 N 
HETATM   39  C20 UNL     1      -5.446  -0.316  26.541  1.00  0.00     0.207 C 
HETATM   40  C19 UNL     1      -7.155  -1.523  25.775  1.00  0.00     0.363 C 
ATOM     41  H6  UNL     1      -7.038  -0.484  23.836  1.00  0.00     0.168 HD
HETATM   42  O5  UNL     1      -7.902  -2.536  25.602  1.00  0.00    -0.238 OA
HETATM   43  O6  UNL     1      -6.465  -1.244  26.973  1.00  0.00    -0.292 OA
ENDBRANCH  26  29
ENDBRANCH   1  25
TORSDOF 11
ENDMDL
