MODEL 1
REMARK VINA RESULT: -6.525918532      0.000      0.000
REMARK  17 active torsions:
REMARK  status: ('A' for Active; 'I' for Inactive)
REMARK    1  A    between atoms: O1_2  and  C2_3 
REMARK    2  A    between atoms: C2_3  and  C3_5 
REMARK    3  A    between atoms: C3_5  and  C4_6 
REMARK    4  A    between atoms: C4_6  and  C5_7 
REMARK    5  A    between atoms: C5_7  and  C6_8 
REMARK    6  A    between atoms: C6_8  and  C7_9 
REMARK    7  A    between atoms: C7_9  and  N1_10 
REMARK    8  A    between atoms: C9_12  and  O3_13 
REMARK    9  A    between atoms: O3_13  and  C10_14 
REMARK   10  A    between atoms: C10_14  and  C11_15 
REMARK   11  A    between atoms: C18_25  and  C19_26 
REMARK   12  A    between atoms: C19_26  and  C20_27 
REMARK   13  A    between atoms: C20_27  and  C21_28 
REMARK   14  A    between atoms: C21_28  and  C22_29 
REMARK   15  A    between atoms: C22_29  and  C23_30 
REMARK   16  A    between atoms: C23_30  and  C24_31 
REMARK   17  A    between atoms: C27_36  and  C28_37 
ROOT
HETATM    1  N1  UNL     1      12.362  17.766  13.708  1.00  0.00     0.096 N 
HETATM    2  C8  UNL     1      11.299  17.144  14.488  1.00  0.00     0.305 C 
HETATM    3  C9  UNL     1      10.769  18.208  15.429  1.00  0.00     0.161 C 
HETATM    4  C12 UNL     1      11.073  19.470  14.719  1.00  0.00     0.027 C 
HETATM    5  C13 UNL     1       9.785  20.057  14.057  1.00  0.00     0.015 C 
HETATM    6  C14 UNL     1      10.452  21.319  13.478  1.00  0.00     0.008 C 
HETATM    7  C15 UNL     1      11.532  21.715  14.420  1.00  0.00     0.016 C 
HETATM    8  C16 UNL     1      11.390  20.649  15.531  1.00  0.00     0.045 C 
HETATM    9  C17 UNL     1      12.705  20.765  16.151  1.00  0.00    -0.003 A 
HETATM   10  S1  UNL     1      13.574  20.549  17.595  1.00  0.00    -0.085 SA
HETATM   11  C18 UNL     1      15.117  21.080  17.084  1.00  0.00     0.059 A 
HETATM   12  C25 UNL     1      14.903  21.417  15.776  1.00  0.00     0.037 A 
HETATM   13  C26 UNL     1      13.643  21.249  15.297  1.00  0.00    -0.026 A 
HETATM   14  C27 UNL     1      12.924  21.435  13.991  1.00  0.00     0.054 C 
HETATM   15  C30 UNL     1      13.081  20.093  13.308  1.00  0.00     0.059 C 
HETATM   16  C31 UNL     1      11.949  19.165  13.544  1.00  0.00     0.236 C 
ENDROOT
BRANCH   1  17
HETATM   17  C7  UNL     1      12.300  17.062  12.413  1.00  0.00     0.273 C 
BRANCH  17  18
HETATM   18  C6  UNL     1      10.968  17.217  11.764  1.00  0.00     0.030 C 
BRANCH  18  19
HETATM   19  C5  UNL     1      11.228  17.591  10.311  1.00  0.00     0.002 C 
BRANCH  19  20
HETATM   20  C4  UNL     1      10.115  18.364   9.695  1.00  0.00     0.010 C 
BRANCH  20  21
HETATM   21  C3  UNL     1       9.065  18.861  10.622  1.00  0.00     0.111 C 
BRANCH  21  22
HETATM   22  C2  UNL     1       8.312  20.038  10.155  1.00  0.00     0.258 C 
HETATM   23  O2  UNL     1       8.076  20.207   8.938  1.00  0.00    -0.265 OA
BRANCH  22  24
HETATM   24  O1  UNL     1       7.846  20.991  11.050  1.00  0.00    -0.326 OA
HETATM   25  C1  UNL     1       7.603  22.332  10.684  1.00  0.00     0.213 C 
ENDBRANCH  22  24
ENDBRANCH  21  22
ENDBRANCH  20  21
ENDBRANCH  19  20
ENDBRANCH  18  19
ENDBRANCH  17  18
ENDBRANCH   1  17
BRANCH   3  26
HETATM   26  O3  UNL     1      11.438  18.011  16.633  1.00  0.00    -0.374 OA
BRANCH  26  27
HETATM   27  C10 UNL     1      10.470  17.702  17.581  1.00  0.00     0.267 C 
BRANCH  27  28
HETATM   28  C11 UNL     1      10.985  17.522  18.943  1.00  0.00     0.254 C 
HETATM   29  N2  UNL     1      11.101  18.650  19.826  1.00  0.00    -0.060 NA
HETATM   30  O4  UNL     1      11.325  16.397  19.340  1.00  0.00    -0.275 OA
ENDBRANCH  27  28
ENDBRANCH  26  27
ENDBRANCH   3  26
BRANCH  14  31
HETATM   31  C28 UNL     1      13.531  22.524  13.192  1.00  0.00     0.136 C 
HETATM   32  C29 UNL     1      14.631  22.330  12.232  1.00  0.00     0.092 C 
HETATM   33  O7  UNL     1      13.084  23.646  13.345  1.00  0.00    -0.297 OA
ENDBRANCH  14  31
BRANCH  11  34
HETATM   34  C19 UNL     1      16.365  21.166  17.838  1.00  0.00    -0.059 C 
BRANCH  34  35
HETATM   35  C20 UNL     1      17.391  21.259  18.462  1.00  0.00    -0.101 C 
BRANCH  35  36
HETATM   36  C21 UNL     1      18.626  21.377  19.244  1.00  0.00     0.095 C 
BRANCH  36  37
HETATM   37  C22 UNL     1      19.287  22.737  18.999  1.00  0.00     0.022 C 
BRANCH  37  38
HETATM   38  C23 UNL     1      18.324  23.823  19.434  1.00  0.00     0.114 C 
BRANCH  38  39
HETATM   39  C24 UNL     1      17.968  24.732  18.344  1.00  0.00     0.172 C 
HETATM   40  O5  UNL     1      18.815  25.234  17.554  1.00  0.00    -0.648 OA
HETATM   41  O6  UNL     1      16.639  25.074  18.150  1.00  0.00    -0.648 OA
ENDBRANCH  38  39
ENDBRANCH  37  38
ENDBRANCH  36  37
ENDBRANCH  35  36
ENDBRANCH  34  35
ENDBRANCH  11  34
TORSDOF 17
ENDMDL
MODEL 2
REMARK VINA RESULT: -6.334372510      0.972      1.142
REMARK  17 active torsions:
REMARK  status: ('A' for Active; 'I' for Inactive)
REMARK    1  A    between atoms: O1_2  and  C2_3 
REMARK    2  A    between atoms: C2_3  and  C3_5 
REMARK    3  A    between atoms: C3_5  and  C4_6 
REMARK    4  A    between atoms: C4_6  and  C5_7 
REMARK    5  A    between atoms: C5_7  and  C6_8 
REMARK    6  A    between atoms: C6_8  and  C7_9 
REMARK    7  A    between atoms: C7_9  and  N1_10 
REMARK    8  A    between atoms: C9_12  and  O3_13 
REMARK    9  A    between atoms: O3_13  and  C10_14 
REMARK   10  A    between atoms: C10_14  and  C11_15 
REMARK   11  A    between atoms: C18_25  and  C19_26 
REMARK   12  A    between atoms: C19_26  and  C20_27 
REMARK   13  A    between atoms: C20_27  and  C21_28 
REMARK   14  A    between atoms: C21_28  and  C22_29 
REMARK   15  A    between atoms: C22_29  and  C23_30 
REMARK   16  A    between atoms: C23_30  and  C24_31 
REMARK   17  A    between atoms: C27_36  and  C28_37 
ROOT
HETATM    1  N1  UNL     1      12.503  17.757  13.568  1.00  0.00     0.096 N 
HETATM    2  C8  UNL     1      11.437  17.101  14.315  1.00  0.00     0.305 C 
HETATM    3  C9  UNL     1      10.864  18.137  15.261  1.00  0.00     0.161 C 
HETATM    4  C12 UNL     1      11.157  19.417  14.577  1.00  0.00     0.027 C 
HETATM    5  C13 UNL     1       9.870  19.987  13.898  1.00  0.00     0.015 C 
HETATM    6  C14 UNL     1      10.523  21.272  13.353  1.00  0.00     0.008 C 
HETATM    7  C15 UNL     1      11.574  21.676  14.323  1.00  0.00     0.016 C 
HETATM    8  C16 UNL     1      11.431  20.589  15.415  1.00  0.00     0.045 C 
HETATM    9  C17 UNL     1      12.729  20.723  16.064  1.00  0.00    -0.003 A 
HETATM   10  S1  UNL     1      13.573  20.502  17.523  1.00  0.00    -0.085 SA
HETATM   11  C18 UNL     1      15.115  21.073  17.054  1.00  0.00     0.059 A 
HETATM   12  C25 UNL     1      14.921  21.426  15.747  1.00  0.00     0.037 A 
HETATM   13  C26 UNL     1      13.676  21.240  15.238  1.00  0.00    -0.026 A 
HETATM   14  C27 UNL     1      12.980  21.432  13.920  1.00  0.00     0.054 C 
HETATM   15  C30 UNL     1      13.181  20.104  13.220  1.00  0.00     0.059 C 
HETATM   16  C31 UNL     1      12.063  19.149  13.417  1.00  0.00     0.236 C 
ENDROOT
BRANCH   1  17
HETATM   17  C7  UNL     1      12.483  17.073  12.261  1.00  0.00     0.273 C 
BRANCH  17  18
HETATM   18  C6  UNL     1      11.094  16.895  11.752  1.00  0.00     0.030 C 
BRANCH  18  19
HETATM   19  C5  UNL     1      11.162  17.017  10.236  1.00  0.00     0.002 C 
BRANCH  19  20
HETATM   20  C4  UNL     1      10.682  18.332   9.730  1.00  0.00     0.010 C 
BRANCH  20  21
HETATM   21  C3  UNL     1       9.228  18.434   9.436  1.00  0.00     0.111 C 
BRANCH  21  22
HETATM   22  C2  UNL     1       8.386  18.887  10.557  1.00  0.00     0.258 C 
HETATM   23  O2  UNL     1       7.836  18.063  11.320  1.00  0.00    -0.265 OA
BRANCH  22  24
HETATM   24  O1  UNL     1       8.180  20.238  10.796  1.00  0.00    -0.326 OA
HETATM   25  C1  UNL     1       7.793  21.145   9.786  1.00  0.00     0.213 C 
ENDBRANCH  22  24
ENDBRANCH  21  22
ENDBRANCH  20  21
ENDBRANCH  19  20
ENDBRANCH  18  19
ENDBRANCH  17  18
ENDBRANCH   1  17
BRANCH   3  26
HETATM   26  O3  UNL     1      11.512  17.935  16.476  1.00  0.00    -0.374 OA
BRANCH  26  27
HETATM   27  C10 UNL     1      10.519  17.822  17.442  1.00  0.00     0.267 C 
BRANCH  27  28
HETATM   28  C11 UNL     1      11.014  17.536  18.794  1.00  0.00     0.254 C 
HETATM   29  N2  UNL     1      11.069  18.581  19.779  1.00  0.00    -0.060 NA
HETATM   30  O4  UNL     1      11.388  16.392  19.094  1.00  0.00    -0.275 OA
ENDBRANCH  27  28
ENDBRANCH  26  27
ENDBRANCH   3  26
BRANCH  14  31
HETATM   31  C28 UNL     1      13.580  22.546  13.151  1.00  0.00     0.136 C 
HETATM   32  C29 UNL     1      14.677  22.384  12.181  1.00  0.00     0.092 C 
HETATM   33  O7  UNL     1      13.131  23.661  13.340  1.00  0.00    -0.297 OA
ENDBRANCH  14  31
BRANCH  11  34
HETATM   34  C19 UNL     1      16.344  21.173  17.836  1.00  0.00    -0.059 C 
BRANCH  34  35
HETATM   35  C20 UNL     1      17.347  21.267  18.497  1.00  0.00    -0.101 C 
BRANCH  35  36
HETATM   36  C21 UNL     1      18.553  21.394  19.319  1.00  0.00     0.095 C 
BRANCH  36  37
HETATM   37  C22 UNL     1      19.372  22.614  18.883  1.00  0.00     0.022 C 
BRANCH  37  38
HETATM   38  C23 UNL     1      19.314  23.650  19.987  1.00  0.00     0.114 C 
BRANCH  38  39
HETATM   39  C24 UNL     1      20.215  24.779  19.749  1.00  0.00     0.172 C 
HETATM   40  O5  UNL     1      20.740  25.024  18.628  1.00  0.00    -0.648 OA
HETATM   41  O6  UNL     1      20.522  25.635  20.794  1.00  0.00    -0.648 OA
ENDBRANCH  38  39
ENDBRANCH  37  38
ENDBRANCH  36  37
ENDBRANCH  35  36
ENDBRANCH  34  35
ENDBRANCH  11  34
TORSDOF 17
ENDMDL
MODEL 3
REMARK VINA RESULT: -6.321608207      2.866      9.634
REMARK  17 active torsions:
REMARK  status: ('A' for Active; 'I' for Inactive)
REMARK    1  A    between atoms: O1_2  and  C2_3 
REMARK    2  A    between atoms: C2_3  and  C3_5 
REMARK    3  A    between atoms: C3_5  and  C4_6 
REMARK    4  A    between atoms: C4_6  and  C5_7 
REMARK    5  A    between atoms: C5_7  and  C6_8 
REMARK    6  A    between atoms: C6_8  and  C7_9 
REMARK    7  A    between atoms: C7_9  and  N1_10 
REMARK    8  A    between atoms: C9_12  and  O3_13 
REMARK    9  A    between atoms: O3_13  and  C10_14 
REMARK   10  A    between atoms: C10_14  and  C11_15 
REMARK   11  A    between atoms: C18_25  and  C19_26 
REMARK   12  A    between atoms: C19_26  and  C20_27 
REMARK   13  A    between atoms: C20_27  and  C21_28 
REMARK   14  A    between atoms: C21_28  and  C22_29 
REMARK   15  A    between atoms: C22_29  and  C23_30 
REMARK   16  A    between atoms: C23_30  and  C24_31 
REMARK   17  A    between atoms: C27_36  and  C28_37 
ROOT
HETATM    1  N1  UNL     1      16.614  21.407  16.460  1.00  0.00     0.096 N 
HETATM    2  C8  UNL     1      16.457  22.847  16.626  1.00  0.00     0.305 C 
HETATM    3  C9  UNL     1      15.115  23.064  17.297  1.00  0.00     0.161 C 
HETATM    4  C12 UNL     1      14.897  21.801  18.035  1.00  0.00     0.027 C 
HETATM    5  C13 UNL     1      15.180  21.995  19.560  1.00  0.00     0.015 C 
HETATM    6  C14 UNL     1      14.827  20.556  19.982  1.00  0.00     0.008 C 
HETATM    7  C15 UNL     1      13.749  20.085  19.074  1.00  0.00     0.016 C 
HETATM    8  C16 UNL     1      13.517  21.330  18.186  1.00  0.00     0.045 C 
HETATM    9  C17 UNL     1      12.843  20.701  17.056  1.00  0.00    -0.003 A 
HETATM   10  S1  UNL     1      11.749  20.962  15.781  1.00  0.00    -0.085 SA
HETATM   11  C18 UNL     1      11.707  19.389  15.111  1.00  0.00     0.059 A 
HETATM   12  C25 UNL     1      12.564  18.693  15.919  1.00  0.00     0.037 A 
HETATM   13  C26 UNL     1      13.153  19.384  16.930  1.00  0.00    -0.026 A 
HETATM   14  C27 UNL     1      14.141  19.109  18.028  1.00  0.00     0.054 C 
HETATM   15  C30 UNL     1      15.476  19.423  17.386  1.00  0.00     0.059 C 
HETATM   16  C31 UNL     1      15.941  20.811  17.620  1.00  0.00     0.236 C 
ENDROOT
BRANCH   1  17
HETATM   17  C7  UNL     1      18.072  21.204  16.558  1.00  0.00     0.273 C 
BRANCH  17  18
HETATM   18  C6  UNL     1      18.745  22.348  17.234  1.00  0.00     0.030 C 
BRANCH  18  19
HETATM   19  C5  UNL     1      19.112  21.879  18.634  1.00  0.00     0.002 C 
BRANCH  19  20
HETATM   20  C4  UNL     1      18.726  22.845  19.699  1.00  0.00     0.010 C 
BRANCH  20  21
HETATM   21  C3  UNL     1      18.814  24.286  19.345  1.00  0.00     0.111 C 
BRANCH  21  22
HETATM   22  C2  UNL     1      20.129  24.913  19.565  1.00  0.00     0.258 C 
HETATM   23  O2  UNL     1      20.411  25.444  20.662  1.00  0.00    -0.265 OA
BRANCH  22  24
HETATM   24  O1  UNL     1      21.089  24.932  18.563  1.00  0.00    -0.326 OA
HETATM   25  C1  UNL     1      20.857  25.492  17.289  1.00  0.00     0.213 C 
ENDBRANCH  22  24
ENDBRANCH  21  22
ENDBRANCH  20  21
ENDBRANCH  19  20
ENDBRANCH  18  19
ENDBRANCH  17  18
ENDBRANCH   1  17
BRANCH   3  26
HETATM   26  O3  UNL     1      14.218  23.328  16.266  1.00  0.00    -0.374 OA
BRANCH  26  27
HETATM   27  C10 UNL     1      14.972  23.462  15.106  1.00  0.00     0.267 C 
BRANCH  27  28
HETATM   28  C11 UNL     1      14.380  22.836  13.918  1.00  0.00     0.254 C 
HETATM   29  N2  UNL     1      15.019  21.705  13.304  1.00  0.00    -0.060 NA
HETATM   30  O4  UNL     1      13.327  23.280  13.437  1.00  0.00    -0.275 OA
ENDBRANCH  27  28
ENDBRANCH  26  27
ENDBRANCH   3  26
BRANCH  14  31
HETATM   31  C28 UNL     1      14.072  17.699  18.474  1.00  0.00     0.136 C 
HETATM   32  C29 UNL     1      13.012  17.156  19.341  1.00  0.00     0.092 C 
HETATM   33  O7  UNL     1      14.953  16.949  18.094  1.00  0.00    -0.297 OA
ENDBRANCH  14  31
BRANCH  11  34
HETATM   34  C19 UNL     1      10.950  18.888  13.967  1.00  0.00    -0.059 C 
BRANCH  34  35
HETATM   35  C20 UNL     1      10.344  18.477  13.011  1.00  0.00    -0.101 C 
BRANCH  35  36
HETATM   36  C21 UNL     1       9.629  17.971  11.836  1.00  0.00     0.095 C 
BRANCH  36  37
HETATM   37  C22 UNL     1      10.348  16.747  11.258  1.00  0.00     0.022 C 
BRANCH  37  38
HETATM   38  C23 UNL     1      11.768  17.146  10.909  1.00  0.00     0.114 C 
BRANCH  38  39
HETATM   39  C24 UNL     1      12.769  16.355  11.628  1.00  0.00     0.172 C 
HETATM   40  O5  UNL     1      13.990  16.328  11.311  1.00  0.00    -0.648 OA
HETATM   41  O6  UNL     1      12.378  15.588  12.714  1.00  0.00    -0.648 OA
ENDBRANCH  38  39
ENDBRANCH  37  38
ENDBRANCH  36  37
ENDBRANCH  35  36
ENDBRANCH  34  35
ENDBRANCH  11  34
TORSDOF 17
ENDMDL
MODEL 4
REMARK VINA RESULT: -6.305151146      3.537      6.921
REMARK  17 active torsions:
REMARK  status: ('A' for Active; 'I' for Inactive)
REMARK    1  A    between atoms: O1_2  and  C2_3 
REMARK    2  A    between atoms: C2_3  and  C3_5 
REMARK    3  A    between atoms: C3_5  and  C4_6 
REMARK    4  A    between atoms: C4_6  and  C5_7 
REMARK    5  A    between atoms: C5_7  and  C6_8 
REMARK    6  A    between atoms: C6_8  and  C7_9 
REMARK    7  A    between atoms: C7_9  and  N1_10 
REMARK    8  A    between atoms: C9_12  and  O3_13 
REMARK    9  A    between atoms: O3_13  and  C10_14 
REMARK   10  A    between atoms: C10_14  and  C11_15 
REMARK   11  A    between atoms: C18_25  and  C19_26 
REMARK   12  A    between atoms: C19_26  and  C20_27 
REMARK   13  A    between atoms: C20_27  and  C21_28 
REMARK   14  A    between atoms: C21_28  and  C22_29 
REMARK   15  A    between atoms: C22_29  and  C23_30 
REMARK   16  A    between atoms: C23_30  and  C24_31 
REMARK   17  A    between atoms: C27_36  and  C28_37 
ROOT
HETATM    1  N1  UNL     1      15.009  23.516  15.633  1.00  0.00     0.096 N 
HETATM    2  C8  UNL     1      15.639  23.112  14.382  1.00  0.00     0.305 C 
HETATM    3  C9  UNL     1      16.687  22.076  14.736  1.00  0.00     0.161 C 
HETATM    4  C12 UNL     1      16.174  21.492  15.995  1.00  0.00     0.027 C 
HETATM    5  C13 UNL     1      15.532  20.091  15.733  1.00  0.00     0.015 C 
HETATM    6  C14 UNL     1      15.168  19.796  17.201  1.00  0.00     0.008 C 
HETATM    7  C15 UNL     1      16.211  20.432  18.048  1.00  0.00     0.016 C 
HETATM    8  C16 UNL     1      17.156  21.038  16.984  1.00  0.00     0.045 C 
HETATM    9  C17 UNL     1      17.855  22.017  17.808  1.00  0.00    -0.003 A 
HETATM   10  S1  UNL     1      19.300  22.895  17.983  1.00  0.00    -0.085 SA
HETATM   11  C18 UNL     1      18.949  23.742  19.427  1.00  0.00     0.059 A 
HETATM   12  C25 UNL     1      17.690  23.306  19.735  1.00  0.00     0.037 A 
HETATM   13  C26 UNL     1      17.126  22.408  18.886  1.00  0.00    -0.026 A 
HETATM   14  C27 UNL     1      15.822  21.672  18.763  1.00  0.00     0.054 C 
HETATM   15  C30 UNL     1      14.971  22.604  17.926  1.00  0.00     0.059 C 
HETATM   16  C31 UNL     1      15.017  22.312  16.472  1.00  0.00     0.236 C 
ENDROOT
BRANCH   1  17
HETATM   17  C7  UNL     1      13.629  23.850  15.235  1.00  0.00     0.273 C 
BRANCH  17  18
HETATM   18  C6  UNL     1      13.209  23.101  14.017  1.00  0.00     0.030 C 
BRANCH  18  19
HETATM   19  C5  UNL     1      12.054  22.200  14.431  1.00  0.00     0.002 C 
BRANCH  19  20
HETATM   20  C4  UNL     1      12.245  20.778  14.034  1.00  0.00     0.010 C 
BRANCH  20  21
HETATM   21  C3  UNL     1      11.974  19.759  15.083  1.00  0.00     0.111 C 
BRANCH  21  22
HETATM   22  C2  UNL     1      10.710  19.931  15.820  1.00  0.00     0.258 C 
HETATM   23  O2  UNL     1       9.615  19.975  15.216  1.00  0.00    -0.265 OA
BRANCH  22  24
HETATM   24  O1  UNL     1      10.699  20.049  17.203  1.00  0.00    -0.326 OA
HETATM   25  C1  UNL     1      11.594  19.348  18.039  1.00  0.00     0.213 C 
ENDBRANCH  22  24
ENDBRANCH  21  22
ENDBRANCH  20  21
ENDBRANCH  19  20
ENDBRANCH  18  19
ENDBRANCH  17  18
ENDBRANCH   1  17
BRANCH   3  26
HETATM   26  O3  UNL     1      17.887  22.774  14.834  1.00  0.00    -0.374 OA
BRANCH  26  27
HETATM   27  C10 UNL     1      17.589  24.112  14.605  1.00  0.00     0.267 C 
BRANCH  27  28
HETATM   28  C11 UNL     1      18.320  25.055  15.460  1.00  0.00     0.254 C 
HETATM   29  N2  UNL     1      17.642  25.730  16.532  1.00  0.00    -0.060 NA
HETATM   30  O4  UNL     1      19.524  25.275  15.262  1.00  0.00    -0.275 OA
ENDBRANCH  27  28
ENDBRANCH  26  27
ENDBRANCH   3  26
BRANCH  14  31
HETATM   31  C28 UNL     1      15.213  21.428  20.090  1.00  0.00     0.136 C 
HETATM   32  C29 UNL     1      14.977  20.089  20.658  1.00  0.00     0.092 C 
HETATM   33  O7  UNL     1      14.891  22.402  20.745  1.00  0.00    -0.297 OA
ENDBRANCH  14  31
BRANCH  11  34
HETATM   34  C19 UNL     1      19.773  24.694  20.167  1.00  0.00    -0.059 C 
BRANCH  34  35
HETATM   35  C20 UNL     1      20.464  25.484  20.758  1.00  0.00    -0.101 C 
BRANCH  35  36
HETATM   36  C21 UNL     1      21.283  26.458  21.486  1.00  0.00     0.095 C 
BRANCH  36  37
HETATM   37  C22 UNL     1      21.579  27.675  20.602  1.00  0.00     0.022 C 
BRANCH  37  38
HETATM   38  C23 UNL     1      22.572  27.262  19.535  1.00  0.00     0.114 C 
BRANCH  38  39
HETATM   39  C24 UNL     1      22.143  27.640  18.188  1.00  0.00     0.172 C 
HETATM   40  O5  UNL     1      20.977  28.039  17.918  1.00  0.00    -0.648 OA
HETATM   41  O6  UNL     1      23.047  27.563  17.140  1.00  0.00    -0.648 OA
ENDBRANCH  38  39
ENDBRANCH  37  38
ENDBRANCH  36  37
ENDBRANCH  35  36
ENDBRANCH  34  35
ENDBRANCH  11  34
TORSDOF 17
ENDMDL
MODEL 5
REMARK VINA RESULT: -6.254244001      3.610      5.953
REMARK  17 active torsions:
REMARK  status: ('A' for Active; 'I' for Inactive)
REMARK    1  A    between atoms: O1_2  and  C2_3 
REMARK    2  A    between atoms: C2_3  and  C3_5 
REMARK    3  A    between atoms: C3_5  and  C4_6 
REMARK    4  A    between atoms: C4_6  and  C5_7 
REMARK    5  A    between atoms: C5_7  and  C6_8 
REMARK    6  A    between atoms: C6_8  and  C7_9 
REMARK    7  A    between atoms: C7_9  and  N1_10 
REMARK    8  A    between atoms: C9_12  and  O3_13 
REMARK    9  A    between atoms: O3_13  and  C10_14 
REMARK   10  A    between atoms: C10_14  and  C11_15 
REMARK   11  A    between atoms: C18_25  and  C19_26 
REMARK   12  A    between atoms: C19_26  and  C20_27 
REMARK   13  A    between atoms: C20_27  and  C21_28 
REMARK   14  A    between atoms: C21_28  and  C22_29 
REMARK   15  A    between atoms: C22_29  and  C23_30 
REMARK   16  A    between atoms: C23_30  and  C24_31 
REMARK   17  A    between atoms: C27_36  and  C28_37 
ROOT
HETATM    1  N1  UNL     1      15.229  19.576  17.720  1.00  0.00     0.096 N 
HETATM    2  C8  UNL     1      14.574  20.031  18.940  1.00  0.00     0.305 C 
HETATM    3  C9  UNL     1      13.989  21.396  18.639  1.00  0.00     0.161 C 
HETATM    4  C12 UNL     1      13.772  21.357  17.176  1.00  0.00     0.027 C 
HETATM    5  C13 UNL     1      12.260  21.139  16.847  1.00  0.00     0.015 C 
HETATM    6  C14 UNL     1      12.412  21.191  15.314  1.00  0.00     0.008 C 
HETATM    7  C15 UNL     1      13.519  22.137  15.015  1.00  0.00     0.016 C 
HETATM    8  C16 UNL     1      13.921  22.612  16.432  1.00  0.00     0.045 C 
HETATM    9  C17 UNL     1      15.255  23.127  16.148  1.00  0.00    -0.003 A 
HETATM   10  S1  UNL     1      16.442  24.235  16.648  1.00  0.00    -0.085 SA
HETATM   11  C18 UNL     1      17.630  23.943  15.453  1.00  0.00     0.059 A 
HETATM   12  C25 UNL     1      17.053  22.971  14.685  1.00  0.00     0.037 A 
HETATM   13  C26 UNL     1      15.815  22.550  15.053  1.00  0.00    -0.026 A 
HETATM   14  C27 UNL     1      14.807  21.540  14.585  1.00  0.00     0.054 C 
HETATM   15  C30 UNL     1      15.175  20.290  15.358  1.00  0.00     0.059 C 
HETATM   16  C31 UNL     1      14.421  20.126  16.624  1.00  0.00     0.236 C 
ENDROOT
BRANCH   1  17
HETATM   17  C7  UNL     1      15.083  18.110  17.772  1.00  0.00     0.273 C 
BRANCH  17  18
HETATM   18  C6  UNL     1      14.036  17.693  18.747  1.00  0.00     0.030 C 
BRANCH  18  19
HETATM   19  C5  UNL     1      12.996  16.903  17.965  1.00  0.00     0.002 C 
BRANCH  19  20
HETATM   20  C4  UNL     1      11.714  17.637  17.783  1.00  0.00     0.010 C 
BRANCH  20  21
HETATM   21  C3  UNL     1      11.157  17.659  16.404  1.00  0.00     0.111 C 
BRANCH  21  22
HETATM   22  C2  UNL     1      10.126  16.646  16.121  1.00  0.00     0.258 C 
HETATM   23  O2  UNL     1       9.338  16.784  15.160  1.00  0.00    -0.265 OA
BRANCH  22  24
HETATM   24  O1  UNL     1      10.001  15.512  16.911  1.00  0.00    -0.326 OA
HETATM   25  C1  UNL     1      10.582  14.272  16.570  1.00  0.00     0.213 C 
ENDBRANCH  22  24
ENDBRANCH  21  22
ENDBRANCH  20  21
ENDBRANCH  19  20
ENDBRANCH  18  19
ENDBRANCH  17  18
ENDBRANCH   1  17
BRANCH   3  26
HETATM   26  O3  UNL     1      14.931  22.316  19.090  1.00  0.00    -0.374 OA
BRANCH  26  27
HETATM   27  C10 UNL     1      16.000  21.580  19.587  1.00  0.00     0.267 C 
BRANCH  27  28
HETATM   28  C11 UNL     1      17.322  22.137  19.275  1.00  0.00     0.254 C 
HETATM   29  N2  UNL     1      18.209  21.436  18.388  1.00  0.00    -0.060 NA
HETATM   30  O4  UNL     1      17.681  23.213  19.777  1.00  0.00    -0.275 OA
ENDBRANCH  27  28
ENDBRANCH  26  27
ENDBRANCH   3  26
BRANCH  14  31
HETATM   31  C28 UNL     1      14.901  21.320  13.124  1.00  0.00     0.136 C 
HETATM   32  C29 UNL     1      14.949  22.403  12.126  1.00  0.00     0.092 C 
HETATM   33  O7  UNL     1      14.942  20.168  12.733  1.00  0.00    -0.297 OA
ENDBRANCH  14  31
BRANCH  11  34
HETATM   34  C19 UNL     1      18.939  24.566  15.275  1.00  0.00    -0.059 C 
BRANCH  34  35
HETATM   35  C20 UNL     1      20.008  25.100  15.126  1.00  0.00    -0.101 C 
BRANCH  35  36
HETATM   36  C21 UNL     1      21.304  25.755  14.919  1.00  0.00     0.095 C 
BRANCH  36  37
HETATM   37  C22 UNL     1      21.187  26.847  13.850  1.00  0.00     0.022 C 
BRANCH  37  38
HETATM   38  C23 UNL     1      22.333  27.821  14.034  1.00  0.00     0.114 C 
BRANCH  38  39
HETATM   39  C24 UNL     1      22.095  28.773  15.121  1.00  0.00     0.172 C 
HETATM   40  O5  UNL     1      20.955  29.232  15.404  1.00  0.00    -0.648 OA
HETATM   41  O6  UNL     1      23.163  29.206  15.890  1.00  0.00    -0.648 OA
ENDBRANCH  38  39
ENDBRANCH  37  38
ENDBRANCH  36  37
ENDBRANCH  35  36
ENDBRANCH  34  35
ENDBRANCH  11  34
TORSDOF 17
ENDMDL
