MODEL 1
REMARK VINA RESULT: -5.912714776      0.000      0.000
REMARK  12 active torsions:
REMARK  status: ('A' for Active; 'I' for Inactive)
REMARK    1  A    between atoms: N1_1  and  N2_4 
REMARK    2  A    between atoms: N2_4  and  N3_5 
REMARK    3  A    between atoms: N3_5  and  C1_7 
REMARK    4  A    between atoms: C3_9  and  C4_10 
REMARK    5  A    between atoms: C4_10  and  O1_11 
REMARK    6  A    between atoms: C9_18  and  O3_19 
REMARK    7  A    between atoms: C10_21  and  O4_22 
REMARK    8  A    between atoms: O4_22  and  C11_23 
REMARK    9  A    between atoms: C12_25  and  C13_26 
REMARK   10  A    between atoms: C13_26  and  O6_27 
REMARK   11  A    between atoms: C14_29  and  O7_30 
REMARK   12  A    between atoms: C15_32  and  O8_33 
ROOT
HETATM    1  C1  UNL     1      13.249  -8.273   6.062  1.00  0.00     0.146 C 
HETATM    2  C2  UNL     1      12.768  -9.414   5.247  1.00  0.00     0.040 C 
HETATM    3  C3  UNL     1      11.377  -9.255   4.711  1.00  0.00     0.049 C 
HETATM    4  C5  UNL     1      10.503  -9.027   5.904  1.00  0.00     0.095 C 
HETATM    5  C6  UNL     1       9.060  -9.044   5.486  1.00  0.00     0.043 C 
HETATM    6  C7  UNL     1       8.442  -9.838   6.649  1.00  0.00     0.029 C 
HETATM    7  C8  UNL     1       9.574 -10.841   6.867  1.00  0.00     0.169 C 
HETATM    8  O2  UNL     1      10.703 -10.082   6.784  1.00  0.00    -0.377 OA
HETATM    9  C9  UNL     1      10.837  -7.762   6.645  1.00  0.00     0.184 C 
HETATM   10  C10 UNL     1      12.255  -7.370   6.653  1.00  0.00     0.181 C 
ENDROOT
BRANCH  10  11
HETATM   11  O4  UNL     1      12.640  -7.071   7.974  1.00  0.00    -0.348 OA
BRANCH  11  12
HETATM   12  C11 UNL     1      12.467  -5.752   8.318  1.00  0.00     0.292 C 
HETATM   13  O5  UNL     1      12.077  -5.585   9.641  1.00  0.00    -0.348 OA
HETATM   14  C12 UNL     1      12.554  -4.344  10.052  1.00  0.00     0.179 C 
HETATM   15  C14 UNL     1      13.965  -4.362   9.504  1.00  0.00     0.182 C 
HETATM   16  C15 UNL     1      13.752  -4.974   8.136  1.00  0.00     0.204 C 
BRANCH  14  17
HETATM   17  C13 UNL     1      12.622  -4.256  11.555  1.00  0.00     0.198 C 
BRANCH  17  18
HETATM   18  O6  UNL     1      13.928  -4.404  12.021  1.00  0.00    -0.398 OA
ATOM     19  H6  UNL     1      13.947  -4.722  12.916  1.00  0.00     0.209 HD
ENDBRANCH  17  18
ENDBRANCH  14  17
BRANCH  15  20
HETATM   20  O7  UNL     1      14.508  -3.079   9.423  1.00  0.00    -0.390 OA
ATOM     21  H7  UNL     1      13.967  -2.497   8.903  1.00  0.00     0.210 HD
ENDBRANCH  15  20
BRANCH  16  22
HETATM   22  O8  UNL     1      14.833  -5.808   7.869  1.00  0.00    -0.388 OA
ATOM     23  H8  UNL     1      15.408  -5.896   8.620  1.00  0.00     0.210 HD
ENDBRANCH  16  22
ENDBRANCH  11  12
ENDBRANCH  10  11
BRANCH   1  24
HETATM   24  N3  UNL     1      14.204  -7.526   5.219  1.00  0.00    -0.245 N 
ATOM     25  H3  UNL     1      15.097  -7.957   4.982  1.00  0.00     0.197 HD
BRANCH  24  26
HETATM   26  N2  UNL     1      13.953  -6.405   4.799  1.00  0.00    -0.248 NA
BRANCH  26  27
HETATM   27  N1  UNL     1      13.680  -5.478   4.041  1.00  0.00    -0.261 N 
ATOM     28  H12 UNL     1      13.725  -6.031   3.185  1.00  0.00     0.193 HD
ATOM     29  H11 UNL     1      13.444  -4.549   3.694  1.00  0.00     0.193 HD
ENDBRANCH  26  27
ENDBRANCH  24  26
ENDBRANCH   1  24
BRANCH   9  30
HETATM   30  O3  UNL     1       9.993  -6.758   6.108  1.00  0.00    -0.390 OA
ATOM     31  H3  UNL     1      10.567  -6.065   5.805  1.00  0.00     0.210 HD
ENDBRANCH   9  30
BRANCH   3  32
HETATM   32  C4  UNL     1      11.310  -8.188   3.671  1.00  0.00     0.172 C 
BRANCH  32  33
HETATM   33  O1  UNL     1      12.428  -8.210   2.843  1.00  0.00    -0.400 OA
ATOM     34  H1  UNL     1      12.437  -7.469   2.248  1.00  0.00     0.209 HD
ENDBRANCH  32  33
ENDBRANCH   3  32
TORSDOF 12
ENDMDL
MODEL 2
REMARK VINA RESULT: -5.537790651      2.541      3.940
REMARK  12 active torsions:
REMARK  status: ('A' for Active; 'I' for Inactive)
REMARK    1  A    between atoms: N1_1  and  N2_4 
REMARK    2  A    between atoms: N2_4  and  N3_5 
REMARK    3  A    between atoms: N3_5  and  C1_7 
REMARK    4  A    between atoms: C3_9  and  C4_10 
REMARK    5  A    between atoms: C4_10  and  O1_11 
REMARK    6  A    between atoms: C9_18  and  O3_19 
REMARK    7  A    between atoms: C10_21  and  O4_22 
REMARK    8  A    between atoms: O4_22  and  C11_23 
REMARK    9  A    between atoms: C12_25  and  C13_26 
REMARK   10  A    between atoms: C13_26  and  O6_27 
REMARK   11  A    between atoms: C14_29  and  O7_30 
REMARK   12  A    between atoms: C15_32  and  O8_33 
ROOT
HETATM    1  C1  UNL     1      10.400  -6.669   4.524  1.00  0.00     0.146 C 
HETATM    2  C2  UNL     1      10.105  -7.342   3.236  1.00  0.00     0.040 C 
HETATM    3  C3  UNL     1      10.680  -8.720   3.107  1.00  0.00     0.049 C 
HETATM    4  C5  UNL     1      12.153  -8.570   3.321  1.00  0.00     0.095 C 
HETATM    5  C6  UNL     1      12.843  -9.871   3.023  1.00  0.00     0.043 C 
HETATM    6  C7  UNL     1      14.086  -9.362   2.274  1.00  0.00     0.029 C 
HETATM    7  C8  UNL     1      13.433  -8.219   1.499  1.00  0.00     0.169 C 
HETATM    8  O2  UNL     1      12.618  -7.625   2.417  1.00  0.00    -0.377 OA
HETATM    9  C9  UNL     1      12.500  -8.076   4.698  1.00  0.00     0.184 C 
HETATM   10  C10 UNL     1      11.542  -7.145   5.314  1.00  0.00     0.181 C 
ENDROOT
BRANCH  10  11
HETATM   11  O4  UNL     1      12.242  -6.032   5.817  1.00  0.00    -0.348 OA
BRANCH  11  12
HETATM   12  C11 UNL     1      12.569  -6.136   7.147  1.00  0.00     0.292 C 
HETATM   13  O5  UNL     1      13.764  -5.499   7.462  1.00  0.00    -0.348 OA
HETATM   14  C12 UNL     1      13.672  -5.096   8.790  1.00  0.00     0.179 C 
HETATM   15  C14 UNL     1      12.278  -4.509   8.835  1.00  0.00     0.182 C 
HETATM   16  C15 UNL     1      11.498  -5.515   8.015  1.00  0.00     0.204 C 
BRANCH  14  17
HETATM   17  C13 UNL     1      14.664  -4.004   9.099  1.00  0.00     0.198 C 
BRANCH  17  18
HETATM   18  O6  UNL     1      14.103  -3.010   9.900  1.00  0.00    -0.398 OA
ATOM     19  H6  UNL     1      14.721  -2.691  10.548  1.00  0.00     0.209 HD
ENDBRANCH  17  18
ENDBRANCH  14  17
BRANCH  15  20
HETATM   20  O7  UNL     1      11.794  -4.415  10.142  1.00  0.00    -0.390 OA
ATOM     21  H7  UNL     1      10.951  -3.978  10.177  1.00  0.00     0.210 HD
ENDBRANCH  15  20
BRANCH  16  22
HETATM   22  O8  UNL     1      10.558  -4.816   7.265  1.00  0.00    -0.388 OA
ATOM     23  H8  UNL     1      10.636  -3.877   7.382  1.00  0.00     0.210 HD
ENDBRANCH  16  22
ENDBRANCH  11  12
ENDBRANCH  10  11
BRANCH   1  24
HETATM   24  N3  UNL     1       9.156  -6.713   5.318  1.00  0.00    -0.245 N 
ATOM     25  H3  UNL     1       8.916  -7.571   5.814  1.00  0.00     0.197 HD
BRANCH  24  26
HETATM   26  N2  UNL     1       8.406  -5.749   5.396  1.00  0.00    -0.248 NA
BRANCH  26  27
HETATM   27  N1  UNL     1       7.993  -4.594   5.431  1.00  0.00    -0.261 N 
ATOM     28  H12 UNL     1       8.822  -4.178   5.006  1.00  0.00     0.193 HD
ATOM     29  H11 UNL     1       7.395  -3.784   5.593  1.00  0.00     0.193 HD
ENDBRANCH  26  27
ENDBRANCH  24  26
ENDBRANCH   1  24
BRANCH   9  30
HETATM   30  O3  UNL     1      12.725  -9.233   5.486  1.00  0.00    -0.390 OA
ATOM     31  H3  UNL     1      11.874  -9.496   5.816  1.00  0.00     0.210 HD
ENDBRANCH   9  30
BRANCH   3  32
HETATM   32  C4  UNL     1      10.007  -9.683   4.026  1.00  0.00     0.172 C 
BRANCH  32  33
HETATM   33  O1  UNL     1       8.623  -9.542   3.990  1.00  0.00    -0.400 OA
ATOM     34  H1  UNL     1       8.261  -9.855   3.169  1.00  0.00     0.209 HD
ENDBRANCH  32  33
ENDBRANCH   3  32
TORSDOF 12
ENDMDL
MODEL 3
REMARK VINA RESULT: -5.532225269      3.749      7.241
REMARK  12 active torsions:
REMARK  status: ('A' for Active; 'I' for Inactive)
REMARK    1  A    between atoms: N1_1  and  N2_4 
REMARK    2  A    between atoms: N2_4  and  N3_5 
REMARK    3  A    between atoms: N3_5  and  C1_7 
REMARK    4  A    between atoms: C3_9  and  C4_10 
REMARK    5  A    between atoms: C4_10  and  O1_11 
REMARK    6  A    between atoms: C9_18  and  O3_19 
REMARK    7  A    between atoms: C10_21  and  O4_22 
REMARK    8  A    between atoms: O4_22  and  C11_23 
REMARK    9  A    between atoms: C12_25  and  C13_26 
REMARK   10  A    between atoms: C13_26  and  O6_27 
REMARK   11  A    between atoms: C14_29  and  O7_30 
REMARK   12  A    between atoms: C15_32  and  O8_33 
ROOT
HETATM    1  C1  UNL     1      11.059  -7.918   2.695  1.00  0.00     0.146 C 
HETATM    2  C2  UNL     1      11.426  -6.482   2.724  1.00  0.00     0.040 C 
HETATM    3  C3  UNL     1      11.368  -5.851   4.083  1.00  0.00     0.049 C 
HETATM    4  C5  UNL     1       9.971  -6.070   4.575  1.00  0.00     0.095 C 
HETATM    5  C6  UNL     1       9.759  -5.307   5.852  1.00  0.00     0.043 C 
HETATM    6  C7  UNL     1       8.340  -4.763   5.618  1.00  0.00     0.029 C 
HETATM    7  C8  UNL     1       8.452  -4.466   4.123  1.00  0.00     0.169 C 
HETATM    8  O2  UNL     1       9.102  -5.556   3.623  1.00  0.00    -0.377 OA
HETATM    9  C9  UNL     1       9.630  -7.524   4.749  1.00  0.00     0.184 C 
HETATM   10  C10 UNL     1      10.258  -8.456   3.800  1.00  0.00     0.181 C 
ENDROOT
BRANCH  10  11
HETATM   11  O4  UNL     1       9.270  -9.309   3.273  1.00  0.00    -0.348 OA
BRANCH  11  12
HETATM   12  C11 UNL     1       8.789 -10.227   4.175  1.00  0.00     0.292 C 
HETATM   13  O5  UNL     1       7.563 -10.764   3.799  1.00  0.00    -0.348 OA
HETATM   14  C12 UNL     1       7.497 -12.044   4.341  1.00  0.00     0.179 C 
HETATM   15  C14 UNL     1       8.874 -12.583   4.021  1.00  0.00     0.182 C 
HETATM   16  C15 UNL     1       9.749 -11.386   4.329  1.00  0.00     0.204 C 
BRANCH  14  17
HETATM   17  C13 UNL     1       6.472 -12.886   3.626  1.00  0.00     0.198 C 
BRANCH  17  18
HETATM   18  O6  UNL     1       7.069 -13.904   2.883  1.00  0.00    -0.398 OA
ATOM     19  H6  UNL     1       6.678 -13.985   2.021  1.00  0.00     0.209 HD
ENDBRANCH  17  18
ENDBRANCH  14  17
BRANCH  15  20
HETATM   20  O7  UNL     1       9.200 -13.684   4.814  1.00  0.00    -0.390 OA
ATOM     21  H7  UNL     1      10.140 -13.802   4.889  1.00  0.00     0.210 HD
ENDBRANCH  15  20
BRANCH  16  22
HETATM   22  O8  UNL     1      10.768 -11.348   3.384  1.00  0.00    -0.388 OA
ATOM     23  H8  UNL     1      11.104 -12.214   3.188  1.00  0.00     0.210 HD
ENDBRANCH  16  22
ENDBRANCH  11  12
ENDBRANCH  10  11
BRANCH   1  24
HETATM   24  N3  UNL     1      12.319  -8.672   2.542  1.00  0.00    -0.245 N 
ATOM     25  H3  UNL     1      12.832  -8.606   1.663  1.00  0.00     0.197 HD
BRANCH  24  26
HETATM   26  N2  UNL     1      12.764  -9.374   3.440  1.00  0.00    -0.248 NA
BRANCH  26  27
HETATM   27  N1  UNL     1      13.490  -9.807   4.330  1.00  0.00    -0.261 N 
ATOM     28  H12 UNL     1      14.234 -10.122   3.708  1.00  0.00     0.193 HD
ATOM     29  H11 UNL     1      13.847 -10.060   5.251  1.00  0.00     0.193 HD
ENDBRANCH  26  27
ENDBRANCH  24  26
ENDBRANCH   1  24
BRANCH   9  30
HETATM   30  O3  UNL     1       9.921  -7.837   6.100  1.00  0.00    -0.390 OA
ATOM     31  H3  UNL     1      10.291  -7.048   6.479  1.00  0.00     0.210 HD
ENDBRANCH   9  30
BRANCH   3  32
HETATM   32  C4  UNL     1      12.438  -6.378   4.978  1.00  0.00     0.172 C 
BRANCH  32  33
HETATM   33  O1  UNL     1      13.638  -6.550   4.294  1.00  0.00    -0.400 OA
ATOM     34  H1  UNL     1      14.367  -6.163   4.765  1.00  0.00     0.209 HD
ENDBRANCH  32  33
ENDBRANCH   3  32
TORSDOF 12
ENDMDL
MODEL 4
REMARK VINA RESULT: -5.526025395      2.261      3.491
REMARK  12 active torsions:
REMARK  status: ('A' for Active; 'I' for Inactive)
REMARK    1  A    between atoms: N1_1  and  N2_4 
REMARK    2  A    between atoms: N2_4  and  N3_5 
REMARK    3  A    between atoms: N3_5  and  C1_7 
REMARK    4  A    between atoms: C3_9  and  C4_10 
REMARK    5  A    between atoms: C4_10  and  O1_11 
REMARK    6  A    between atoms: C9_18  and  O3_19 
REMARK    7  A    between atoms: C10_21  and  O4_22 
REMARK    8  A    between atoms: O4_22  and  C11_23 
REMARK    9  A    between atoms: C12_25  and  C13_26 
REMARK   10  A    between atoms: C13_26  and  O6_27 
REMARK   11  A    between atoms: C14_29  and  O7_30 
REMARK   12  A    between atoms: C15_32  and  O8_33 
ROOT
HETATM    1  C1  UNL     1      11.255  -5.480   6.419  1.00  0.00     0.146 C 
HETATM    2  C2  UNL     1      11.124  -6.258   5.165  1.00  0.00     0.040 C 
HETATM    3  C3  UNL     1      11.274  -7.741   5.332  1.00  0.00     0.049 C 
HETATM    4  C5  UNL     1      12.614  -7.947   5.967  1.00  0.00     0.095 C 
HETATM    5  C6  UNL     1      12.937  -9.413   6.003  1.00  0.00     0.043 C 
HETATM    6  C7  UNL     1      14.427  -9.379   5.623  1.00  0.00     0.029 C 
HETATM    7  C8  UNL     1      14.374  -8.252   4.592  1.00  0.00     0.169 C 
HETATM    8  O2  UNL     1      13.561  -7.321   5.169  1.00  0.00    -0.377 OA
HETATM    9  C9  UNL     1      12.715  -7.336   7.338  1.00  0.00     0.184 C 
HETATM   10  C10 UNL     1      11.952  -6.097   7.554  1.00  0.00     0.181 C 
ENDROOT
BRANCH  10  11
HETATM   11  O4  UNL     1      12.793  -5.138   8.148  1.00  0.00    -0.348 OA
BRANCH  11  12
HETATM   12  C11 UNL     1      12.191  -4.413   9.148  1.00  0.00     0.292 C 
HETATM   13  O5  UNL     1      11.681  -5.213  10.164  1.00  0.00    -0.348 OA
HETATM   14  C12 UNL     1      11.713  -4.457  11.331  1.00  0.00     0.179 C 
HETATM   15  C14 UNL     1      13.091  -3.835  11.254  1.00  0.00     0.182 C 
HETATM   16  C15 UNL     1      13.174  -3.460   9.790  1.00  0.00     0.204 C 
BRANCH  14  17
HETATM   17  C13 UNL     1      11.650  -5.338  12.553  1.00  0.00     0.198 C 
BRANCH  17  18
HETATM   18  O6  UNL     1      12.923  -5.673  13.013  1.00  0.00    -0.398 OA
ATOM     19  H6  UNL     1      13.092  -6.604  12.931  1.00  0.00     0.209 HD
ENDBRANCH  17  18
ENDBRANCH  14  17
BRANCH  15  20
HETATM   20  O7  UNL     1      13.207  -2.721  12.086  1.00  0.00    -0.390 OA
ATOM     21  H7  UNL     1      13.925  -2.156  11.825  1.00  0.00     0.210 HD
ENDBRANCH  15  20
BRANCH  16  22
HETATM   22  O8  UNL     1      14.477  -3.690   9.364  1.00  0.00    -0.388 OA
ATOM     23  H8  UNL     1      15.112  -3.506  10.046  1.00  0.00     0.210 HD
ENDBRANCH  16  22
ENDBRANCH  11  12
ENDBRANCH  10  11
BRANCH   1  24
HETATM   24  N3  UNL     1       9.892  -5.064   6.802  1.00  0.00    -0.245 N 
ATOM     25  H3  UNL     1       9.665  -4.956   7.790  1.00  0.00     0.197 HD
BRANCH  24  26
HETATM   26  N2  UNL     1       9.025  -4.846   5.965  1.00  0.00    -0.248 NA
BRANCH  26  27
HETATM   27  N1  UNL     1       7.960  -4.872   5.357  1.00  0.00    -0.261 N 
ATOM     28  H12 UNL     1       7.780  -5.864   5.512  1.00  0.00     0.193 HD
ATOM     29  H11 UNL     1       7.148  -4.581   4.813  1.00  0.00     0.193 HD
ENDBRANCH  26  27
ENDBRANCH  24  26
ENDBRANCH   1  24
BRANCH   9  30
HETATM   30  O3  UNL     1      12.368  -8.362   8.252  1.00  0.00    -0.390 OA
ATOM     31  H3  UNL     1      13.111  -8.455   8.837  1.00  0.00     0.210 HD
ENDBRANCH   9  30
BRANCH   3  32
HETATM   32  C4  UNL     1      10.127  -8.326   6.084  1.00  0.00     0.172 C 
BRANCH  32  33
HETATM   33  O1  UNL     1       8.908  -7.850   5.610  1.00  0.00    -0.400 OA
ATOM     34  H1  UNL     1       8.266  -7.777   6.307  1.00  0.00     0.209 HD
ENDBRANCH  32  33
ENDBRANCH   3  32
TORSDOF 12
ENDMDL
MODEL 5
REMARK VINA RESULT: -5.520372552      4.515      6.333
REMARK  12 active torsions:
REMARK  status: ('A' for Active; 'I' for Inactive)
REMARK    1  A    between atoms: N1_1  and  N2_4 
REMARK    2  A    between atoms: N2_4  and  N3_5 
REMARK    3  A    between atoms: N3_5  and  C1_7 
REMARK    4  A    between atoms: C3_9  and  C4_10 
REMARK    5  A    between atoms: C4_10  and  O1_11 
REMARK    6  A    between atoms: C9_18  and  O3_19 
REMARK    7  A    between atoms: C10_21  and  O4_22 
REMARK    8  A    between atoms: O4_22  and  C11_23 
REMARK    9  A    between atoms: C12_25  and  C13_26 
REMARK   10  A    between atoms: C13_26  and  O6_27 
REMARK   11  A    between atoms: C14_29  and  O7_30 
REMARK   12  A    between atoms: C15_32  and  O8_33 
ROOT
HETATM    1  C1  UNL     1       9.396  -8.842   6.064  1.00  0.00     0.146 C 
HETATM    2  C2  UNL     1       8.699  -9.891   6.846  1.00  0.00     0.040 C 
HETATM    3  C3  UNL     1       8.927 -11.290   6.355  1.00  0.00     0.049 C 
HETATM    4  C5  UNL     1       8.493 -11.295   4.922  1.00  0.00     0.095 C 
HETATM    5  C6  UNL     1       8.506 -12.702   4.395  1.00  0.00     0.043 C 
HETATM    6  C7  UNL     1       7.210 -12.701   3.568  1.00  0.00     0.029 C 
HETATM    7  C8  UNL     1       6.349 -11.843   4.493  1.00  0.00     0.169 C 
HETATM    8  O2  UNL     1       7.185 -10.835   4.874  1.00  0.00    -0.377 OA
HETATM    9  C9  UNL     1       9.317 -10.384   4.055  1.00  0.00     0.184 C 
HETATM   10  C10 UNL     1       9.818  -9.158   4.694  1.00  0.00     0.181 C 
ENDROOT
BRANCH  10  11
HETATM   11  O4  UNL     1       9.530  -8.057   3.864  1.00  0.00    -0.348 OA
BRANCH  11  12
HETATM   12  C11 UNL     1      10.583  -7.668   3.073  1.00  0.00     0.292 C 
HETATM   13  O5  UNL     1      10.262  -7.641   1.721  1.00  0.00    -0.348 OA
HETATM   14  C12 UNL     1      11.071  -6.675   1.130  1.00  0.00     0.179 C 
HETATM   15  C14 UNL     1      10.965  -5.539   2.124  1.00  0.00     0.182 C 
HETATM   16  C15 UNL     1      11.050  -6.277   3.442  1.00  0.00     0.204 C 
BRANCH  14  17
HETATM   17  C13 UNL     1      10.501  -6.218  -0.188  1.00  0.00     0.198 C 
BRANCH  17  18
HETATM   18  O6  UNL     1      10.900  -7.048  -1.237  1.00  0.00    -0.398 OA
ATOM     19  H6  UNL     1      10.667  -6.681  -2.082  1.00  0.00     0.209 HD
ENDBRANCH  17  18
ENDBRANCH  14  17
BRANCH  15  20
HETATM   20  O7  UNL     1      12.002  -4.617   1.974  1.00  0.00    -0.390 OA
ATOM     21  H7  UNL     1      12.537  -4.554   2.757  1.00  0.00     0.210 HD
ENDBRANCH  15  20
BRANCH  16  22
HETATM   22  O8  UNL     1      10.184  -5.657   4.336  1.00  0.00    -0.388 OA
ATOM     23  H8  UNL     1      10.430  -4.754   4.500  1.00  0.00     0.210 HD
ENDBRANCH  16  22
ENDBRANCH  11  12
ENDBRANCH  10  11
BRANCH   1  24
HETATM   24  N3  UNL     1      10.543  -8.400   6.880  1.00  0.00    -0.245 N 
ATOM     25  H3  UNL     1      11.079  -9.095   7.399  1.00  0.00     0.197 HD
BRANCH  24  26
HETATM   26  N2  UNL     1      10.868  -7.222   6.952  1.00  0.00    -0.248 NA
BRANCH  26  27
HETATM   27  N1  UNL     1      10.904  -6.042   7.284  1.00  0.00    -0.261 N 
ATOM     28  H12 UNL     1      10.420  -6.173   8.173  1.00  0.00     0.193 HD
ATOM     29  H11 UNL     1      11.086  -5.038   7.275  1.00  0.00     0.193 HD
ENDBRANCH  26  27
ENDBRANCH  24  26
ENDBRANCH   1  24
BRANCH   9  30
HETATM   30  O3  UNL     1      10.354 -11.186   3.516  1.00  0.00    -0.390 OA
ATOM     31  H3  UNL     1      10.265 -11.131   2.572  1.00  0.00     0.210 HD
ENDBRANCH   9  30
BRANCH   3  32
HETATM   32  C4  UNL     1      10.333 -11.729   6.587  1.00  0.00     0.172 C 
BRANCH  32  33
HETATM   33  O1  UNL     1      10.774 -11.384   7.861  1.00  0.00    -0.400 OA
ATOM     34  H1  UNL     1      11.160 -12.127   8.310  1.00  0.00     0.209 HD
ENDBRANCH  32  33
ENDBRANCH   3  32
TORSDOF 12
ENDMDL
