MODEL 1
REMARK VINA RESULT: -7.399966924      0.000      0.000
REMARK  10 active torsions:
REMARK  status: ('A' for Active; 'I' for Inactive)
REMARK    1  A    between atoms: C2_2  and  C3_3 
REMARK    2  A    between atoms: C4_4  and  C5_5 
REMARK    3  A    between atoms: C6_6  and  C8_8 
REMARK    4  A    between atoms: C8_8  and  C9_9 
REMARK    5  A    between atoms: C9_9  and  C10_10 
REMARK    6  A    between atoms: C16_17  and  C17_18 
REMARK    7  A    between atoms: C17_18  and  C18_19 
REMARK    8  A    between atoms: C18_19  and  C19_20 
REMARK    9  A    between atoms: C21_22  and  C22_23 
REMARK   10  A    between atoms: C23_24  and  C24_25 
ROOT
HETATM    1  C1  UNL     1      -8.830  11.752  -6.646  1.00  0.00     0.049 C 
HETATM    2  C2  UNL     1      -8.318  12.991  -6.088  1.00  0.00    -0.054 C 
HETATM    3  C16 UNL     1      -7.671  13.930  -6.776  1.00  0.00     0.062 C 
ENDROOT
BRANCH   2   4
HETATM    4  C3  UNL     1      -8.556  13.275  -4.684  1.00  0.00     0.007 C 
HETATM    5  C4  UNL     1      -8.105  14.355  -4.071  1.00  0.00     0.001 C 
BRANCH   5   6
HETATM    6  C5  UNL     1      -8.406  14.529  -2.666  1.00  0.00     0.002 C 
HETATM    7  C6  UNL     1      -8.924  15.630  -2.160  1.00  0.00    -0.084 C 
HETATM    8  C7  UNL     1      -9.146  15.586  -0.681  1.00  0.00     0.043 C 
BRANCH   7   9
HETATM    9  C8  UNL     1      -9.190  16.781  -3.032  1.00  0.00     0.034 C 
BRANCH   9  10
HETATM   10  C9  UNL     1      -7.981  17.293  -3.731  1.00  0.00     0.016 C 
BRANCH  10  11
HETATM   11  C10 UNL     1      -8.219  17.852  -5.073  1.00  0.00     0.055 C 
HETATM   12  C11 UNL     1      -8.191  19.378  -5.027  1.00  0.00     0.012 C 
HETATM   13  C12 UNL     1      -7.554  19.875  -6.305  1.00  0.00     0.001 C 
HETATM   14  C13 UNL     1      -7.988  19.072  -7.522  1.00  0.00     0.007 C 
HETATM   15  C14 UNL     1      -7.391  17.674  -7.478  1.00  0.00     0.079 C 
HETATM   16  C15 UNL     1      -7.137  17.392  -6.043  1.00  0.00     0.131 C 
HETATM   17  O1  UNL     1      -6.160  16.838  -5.616  1.00  0.00    -0.298 OA
ENDBRANCH  10  11
ENDBRANCH   9  10
ENDBRANCH   7   9
ENDBRANCH   5   6
ENDBRANCH   2   4
BRANCH   3  18
HETATM   18  C17 UNL     1      -7.301  14.067  -8.092  1.00  0.00    -0.127 C 
BRANCH  18  19
HETATM   19  C18 UNL     1      -6.970  14.189  -9.272  1.00  0.00     0.062 C 
BRANCH  19  20
HETATM   20  C19 UNL     1      -7.443  15.147 -10.295  1.00  0.00    -0.055 C 
HETATM   21  C20 UNL     1      -6.561  15.598 -11.366  1.00  0.00     0.049 C 
HETATM   22  C21 UNL     1      -8.714  15.532 -10.195  1.00  0.00     0.007 C 
BRANCH  22  23
HETATM   23  C22 UNL     1      -9.306  16.461 -11.120  1.00  0.00    -0.003 C 
HETATM   24  C23 UNL     1     -10.050  17.495 -10.675  1.00  0.00    -0.018 C 
BRANCH  24  25
HETATM   25  C24 UNL     1     -10.635  18.418 -11.649  1.00  0.00    -0.034 C 
HETATM   26  C25 UNL     1      -9.886  18.412 -12.964  1.00  0.00     0.018 C 
HETATM   27  C26 UNL     1     -10.521  19.820 -11.053  1.00  0.00     0.018 C 
HETATM   28  C27 UNL     1     -12.070  18.061 -11.896  1.00  0.00     0.018 C 
ENDBRANCH  24  25
ENDBRANCH  22  23
ENDBRANCH  19  20
ENDBRANCH  18  19
ENDBRANCH   3  18
TORSDOF 10
ENDMDL
MODEL 2
REMARK VINA RESULT: -7.335989541      0.893      1.153
REMARK  10 active torsions:
REMARK  status: ('A' for Active; 'I' for Inactive)
REMARK    1  A    between atoms: C2_2  and  C3_3 
REMARK    2  A    between atoms: C4_4  and  C5_5 
REMARK    3  A    between atoms: C6_6  and  C8_8 
REMARK    4  A    between atoms: C8_8  and  C9_9 
REMARK    5  A    between atoms: C9_9  and  C10_10 
REMARK    6  A    between atoms: C16_17  and  C17_18 
REMARK    7  A    between atoms: C17_18  and  C18_19 
REMARK    8  A    between atoms: C18_19  and  C19_20 
REMARK    9  A    between atoms: C21_22  and  C22_23 
REMARK   10  A    between atoms: C23_24  and  C24_25 
ROOT
HETATM    1  C1  UNL     1      -8.798  11.735  -6.550  1.00  0.00     0.049 C 
HETATM    2  C2  UNL     1      -8.333  13.024  -6.067  1.00  0.00    -0.054 C 
HETATM    3  C16 UNL     1      -7.719  13.943  -6.810  1.00  0.00     0.062 C 
ENDROOT
BRANCH   2   4
HETATM    4  C3  UNL     1      -8.585  13.383  -4.683  1.00  0.00     0.007 C 
HETATM    5  C4  UNL     1      -7.995  14.394  -4.073  1.00  0.00     0.001 C 
BRANCH   5   6
HETATM    6  C5  UNL     1      -8.327  14.655  -2.688  1.00  0.00     0.002 C 
HETATM    7  C6  UNL     1      -8.877  15.776  -2.266  1.00  0.00    -0.084 C 
HETATM    8  C7  UNL     1      -9.126  15.826  -0.791  1.00  0.00     0.043 C 
BRANCH   7   9
HETATM    9  C8  UNL     1      -9.150  16.860  -3.218  1.00  0.00     0.034 C 
BRANCH   9  10
HETATM   10  C9  UNL     1      -7.928  17.580  -3.669  1.00  0.00     0.016 C 
BRANCH  10  11
HETATM   11  C10 UNL     1      -7.755  17.671  -5.129  1.00  0.00     0.055 C 
HETATM   12  C11 UNL     1      -8.916  16.987  -5.847  1.00  0.00     0.012 C 
HETATM   13  C12 UNL     1      -9.229  17.780  -7.095  1.00  0.00     0.001 C 
HETATM   14  C13 UNL     1      -7.976  18.280  -7.798  1.00  0.00     0.007 C 
HETATM   15  C14 UNL     1      -7.305  19.370  -6.976  1.00  0.00     0.079 C 
HETATM   16  C15 UNL     1      -7.723  19.129  -5.572  1.00  0.00     0.131 C 
HETATM   17  O1  UNL     1      -8.027  19.991  -4.791  1.00  0.00    -0.298 OA
ENDBRANCH  10  11
ENDBRANCH   9  10
ENDBRANCH   7   9
ENDBRANCH   5   6
ENDBRANCH   2   4
BRANCH   3  18
HETATM   18  C17 UNL     1      -7.351  14.014  -8.132  1.00  0.00    -0.127 C 
BRANCH  18  19
HETATM   19  C18 UNL     1      -7.022  14.077  -9.317  1.00  0.00     0.062 C 
BRANCH  19  20
HETATM   20  C19 UNL     1      -7.397  15.063 -10.354  1.00  0.00    -0.055 C 
HETATM   21  C20 UNL     1      -6.488  15.385 -11.448  1.00  0.00     0.049 C 
HETATM   22  C21 UNL     1      -8.614  15.595 -10.243  1.00  0.00     0.007 C 
BRANCH  22  23
HETATM   23  C22 UNL     1      -9.109  16.568 -11.181  1.00  0.00    -0.003 C 
HETATM   24  C23 UNL     1     -10.114  17.402 -10.839  1.00  0.00    -0.018 C 
BRANCH  24  25
HETATM   25  C24 UNL     1     -10.590  18.378 -11.821  1.00  0.00    -0.034 C 
HETATM   26  C25 UNL     1      -9.804  18.318 -13.113  1.00  0.00     0.018 C 
HETATM   27  C26 UNL     1     -10.376  19.761 -11.209  1.00  0.00     0.018 C 
HETATM   28  C27 UNL     1     -12.041  18.145 -12.115  1.00  0.00     0.018 C 
ENDBRANCH  24  25
ENDBRANCH  22  23
ENDBRANCH  19  20
ENDBRANCH  18  19
ENDBRANCH   3  18
TORSDOF 10
ENDMDL
MODEL 3
REMARK VINA RESULT: -7.126518948      2.501      3.941
REMARK  10 active torsions:
REMARK  status: ('A' for Active; 'I' for Inactive)
REMARK    1  A    between atoms: C2_2  and  C3_3 
REMARK    2  A    between atoms: C4_4  and  C5_5 
REMARK    3  A    between atoms: C6_6  and  C8_8 
REMARK    4  A    between atoms: C8_8  and  C9_9 
REMARK    5  A    between atoms: C9_9  and  C10_10 
REMARK    6  A    between atoms: C16_17  and  C17_18 
REMARK    7  A    between atoms: C17_18  and  C18_19 
REMARK    8  A    between atoms: C18_19  and  C19_20 
REMARK    9  A    between atoms: C21_22  and  C22_23 
REMARK   10  A    between atoms: C23_24  and  C24_25 
ROOT
HETATM    1  C1  UNL     1      -9.014  11.818  -6.556  1.00  0.00     0.049 C 
HETATM    2  C2  UNL     1      -8.282  12.858  -5.853  1.00  0.00    -0.054 C 
HETATM    3  C16 UNL     1      -7.181  13.456  -6.303  1.00  0.00     0.062 C 
ENDROOT
BRANCH   2   4
HETATM    4  C3  UNL     1      -8.795  13.332  -4.579  1.00  0.00     0.007 C 
HETATM    5  C4  UNL     1      -8.135  14.162  -3.792  1.00  0.00     0.001 C 
BRANCH   5   6
HETATM    6  C5  UNL     1      -8.749  14.565  -2.544  1.00  0.00     0.002 C 
HETATM    7  C6  UNL     1      -8.725  15.799  -2.082  1.00  0.00    -0.084 C 
HETATM    8  C7  UNL     1      -9.420  15.982  -0.770  1.00  0.00     0.043 C 
BRANCH   7   9
HETATM    9  C8  UNL     1      -8.014  16.845  -2.828  1.00  0.00     0.034 C 
BRANCH   9  10
HETATM   10  C9  UNL     1      -8.780  17.378  -3.986  1.00  0.00     0.016 C 
BRANCH  10  11
HETATM   11  C10 UNL     1      -8.059  17.379  -5.270  1.00  0.00     0.055 C 
HETATM   12  C11 UNL     1      -8.904  16.716  -6.356  1.00  0.00     0.012 C 
HETATM   13  C12 UNL     1      -8.663  17.454  -7.654  1.00  0.00     0.001 C 
HETATM   14  C13 UNL     1      -7.206  17.847  -7.838  1.00  0.00     0.007 C 
HETATM   15  C14 UNL     1      -6.824  18.946  -6.858  1.00  0.00     0.079 C 
HETATM   16  C15 UNL     1      -7.760  18.806  -5.714  1.00  0.00     0.131 C 
HETATM   17  O1  UNL     1      -8.277  19.724  -5.137  1.00  0.00    -0.298 OA
ENDBRANCH  10  11
ENDBRANCH   9  10
ENDBRANCH   7   9
ENDBRANCH   5   6
ENDBRANCH   2   4
BRANCH   3  18
HETATM   18  C17 UNL     1      -6.429  13.339  -7.447  1.00  0.00    -0.127 C 
BRANCH  18  19
HETATM   19  C18 UNL     1      -5.756  13.235  -8.472  1.00  0.00     0.062 C 
BRANCH  19  20
HETATM   20  C19 UNL     1      -5.057  14.275  -9.258  1.00  0.00    -0.055 C 
HETATM   21  C20 UNL     1      -5.082  14.258 -10.717  1.00  0.00     0.049 C 
HETATM   22  C21 UNL     1      -4.449  15.230  -8.556  1.00  0.00     0.007 C 
BRANCH  22  23
HETATM   23  C22 UNL     1      -3.729  16.303  -9.190  1.00  0.00    -0.003 C 
HETATM   24  C23 UNL     1      -3.916  17.581  -8.799  1.00  0.00    -0.018 C 
BRANCH  24  25
HETATM   25  C24 UNL     1      -3.166  18.644  -9.469  1.00  0.00    -0.034 C 
HETATM   26  C25 UNL     1      -3.783  19.031 -10.796  1.00  0.00     0.018 C 
HETATM   27  C26 UNL     1      -1.769  18.090  -9.749  1.00  0.00     0.018 C 
HETATM   28  C27 UNL     1      -3.091  19.855  -8.588  1.00  0.00     0.018 C 
ENDBRANCH  24  25
ENDBRANCH  22  23
ENDBRANCH  19  20
ENDBRANCH  18  19
ENDBRANCH   3  18
TORSDOF 10
ENDMDL
MODEL 4
REMARK VINA RESULT: -6.981239593      1.054      1.261
REMARK  10 active torsions:
REMARK  status: ('A' for Active; 'I' for Inactive)
REMARK    1  A    between atoms: C2_2  and  C3_3 
REMARK    2  A    between atoms: C4_4  and  C5_5 
REMARK    3  A    between atoms: C6_6  and  C8_8 
REMARK    4  A    between atoms: C8_8  and  C9_9 
REMARK    5  A    between atoms: C9_9  and  C10_10 
REMARK    6  A    between atoms: C16_17  and  C17_18 
REMARK    7  A    between atoms: C17_18  and  C18_19 
REMARK    8  A    between atoms: C18_19  and  C19_20 
REMARK    9  A    between atoms: C21_22  and  C22_23 
REMARK   10  A    between atoms: C23_24  and  C24_25 
ROOT
HETATM    1  C1  UNL     1      -8.644  11.747  -7.408  1.00  0.00     0.049 C 
HETATM    2  C2  UNL     1      -8.209  12.958  -6.733  1.00  0.00    -0.054 C 
HETATM    3  C16 UNL     1      -7.574  13.973  -7.317  1.00  0.00     0.062 C 
ENDROOT
BRANCH   2   4
HETATM    4  C3  UNL     1      -8.519  13.121  -5.323  1.00  0.00     0.007 C 
HETATM    5  C4  UNL     1      -8.126  14.158  -4.606  1.00  0.00     0.001 C 
BRANCH   5   6
HETATM    6  C5  UNL     1      -8.496  14.211  -3.208  1.00  0.00     0.002 C 
HETATM    7  C6  UNL     1      -8.478  15.313  -2.487  1.00  0.00    -0.084 C 
HETATM    8  C7  UNL     1      -8.896  15.129  -1.062  1.00  0.00     0.043 C 
BRANCH   7   9
HETATM    9  C8  UNL     1      -8.027  16.574  -3.090  1.00  0.00     0.034 C 
BRANCH   9  10
HETATM   10  C9  UNL     1      -8.824  16.986  -4.277  1.00  0.00     0.016 C 
BRANCH  10  11
HETATM   11  C10 UNL     1      -8.075  17.715  -5.315  1.00  0.00     0.055 C 
HETATM   12  C11 UNL     1      -6.646  17.184  -5.414  1.00  0.00     0.012 C 
HETATM   13  C12 UNL     1      -6.233  17.216  -6.868  1.00  0.00     0.001 C 
HETATM   14  C13 UNL     1      -6.724  18.464  -7.586  1.00  0.00     0.007 C 
HETATM   15  C14 UNL     1      -8.234  18.417  -7.761  1.00  0.00     0.079 C 
HETATM   16  C15 UNL     1      -8.737  17.537  -6.676  1.00  0.00     0.131 C 
HETATM   17  O1  UNL     1      -9.609  16.720  -6.806  1.00  0.00    -0.298 OA
ENDBRANCH  10  11
ENDBRANCH   9  10
ENDBRANCH   7   9
ENDBRANCH   5   6
ENDBRANCH   2   4
BRANCH   3  18
HETATM   18  C17 UNL     1      -7.155  14.227  -8.600  1.00  0.00    -0.127 C 
BRANCH  18  19
HETATM   19  C18 UNL     1      -6.779  14.455  -9.750  1.00  0.00     0.062 C 
BRANCH  19  20
HETATM   20  C19 UNL     1      -7.262  15.458 -10.724  1.00  0.00    -0.055 C 
HETATM   21  C20 UNL     1      -6.440  15.855 -11.863  1.00  0.00     0.049 C 
HETATM   22  C21 UNL     1      -8.488  15.935 -10.515  1.00  0.00     0.007 C 
BRANCH  22  23
HETATM   23  C22 UNL     1      -9.083  16.918 -11.382  1.00  0.00    -0.003 C 
HETATM   24  C23 UNL     1     -10.115  17.675 -10.956  1.00  0.00    -0.018 C 
BRANCH  24  25
HETATM   25  C24 UNL     1     -10.693  18.663 -11.868  1.00  0.00    -0.034 C 
HETATM   26  C25 UNL     1      -9.918  18.767 -13.164  1.00  0.00     0.018 C 
HETATM   27  C26 UNL     1     -10.609  20.016 -11.165  1.00  0.00     0.018 C 
HETATM   28  C27 UNL     1     -12.118  18.309 -12.173  1.00  0.00     0.018 C 
ENDBRANCH  24  25
ENDBRANCH  22  23
ENDBRANCH  19  20
ENDBRANCH  18  19
ENDBRANCH   3  18
TORSDOF 10
ENDMDL
MODEL 5
REMARK VINA RESULT: -6.787147404      2.159      5.138
REMARK  10 active torsions:
REMARK  status: ('A' for Active; 'I' for Inactive)
REMARK    1  A    between atoms: C2_2  and  C3_3 
REMARK    2  A    between atoms: C4_4  and  C5_5 
REMARK    3  A    between atoms: C6_6  and  C8_8 
REMARK    4  A    between atoms: C8_8  and  C9_9 
REMARK    5  A    between atoms: C9_9  and  C10_10 
REMARK    6  A    between atoms: C16_17  and  C17_18 
REMARK    7  A    between atoms: C17_18  and  C18_19 
REMARK    8  A    between atoms: C18_19  and  C19_20 
REMARK    9  A    between atoms: C21_22  and  C22_23 
REMARK   10  A    between atoms: C23_24  and  C24_25 
ROOT
HETATM    1  C1  UNL     1      -7.968  19.822  -6.112  1.00  0.00     0.049 C 
HETATM    2  C2  UNL     1      -8.211  18.390  -6.070  1.00  0.00    -0.054 C 
HETATM    3  C16 UNL     1      -7.952  17.541  -7.062  1.00  0.00     0.062 C 
ENDROOT
BRANCH   2   4
HETATM    4  C3  UNL     1      -8.735  17.806  -4.847  1.00  0.00     0.007 C 
HETATM    5  C4  UNL     1      -7.972  17.401  -3.848  1.00  0.00     0.001 C 
BRANCH   5   6
HETATM    6  C5  UNL     1      -8.609  16.835  -2.678  1.00  0.00     0.002 C 
HETATM    7  C6  UNL     1      -8.506  15.568  -2.330  1.00  0.00    -0.084 C 
HETATM    8  C7  UNL     1      -9.254  15.205  -1.086  1.00  0.00     0.043 C 
BRANCH   7   9
HETATM    9  C8  UNL     1      -7.742  14.638  -3.171  1.00  0.00     0.034 C 
BRANCH   9  10
HETATM   10  C9  UNL     1      -8.592  13.795  -4.054  1.00  0.00     0.016 C 
BRANCH  10  11
HETATM   11  C10 UNL     1      -8.429  14.033  -5.499  1.00  0.00     0.055 C 
HETATM   12  C11 UNL     1      -6.950  14.189  -5.849  1.00  0.00     0.012 C 
HETATM   13  C12 UNL     1      -6.718  13.555  -7.201  1.00  0.00     0.001 C 
HETATM   14  C13 UNL     1      -7.853  13.831  -8.176  1.00  0.00     0.007 C 
HETATM   15  C14 UNL     1      -9.106  13.074  -7.762  1.00  0.00     0.079 C 
HETATM   16  C15 UNL     1      -8.979  12.858  -6.299  1.00  0.00     0.131 C 
HETATM   17  O1  UNL     1      -9.276  11.843  -5.728  1.00  0.00    -0.298 OA
ENDBRANCH  10  11
ENDBRANCH   9  10
ENDBRANCH   7   9
ENDBRANCH   5   6
ENDBRANCH   2   4
BRANCH   3  18
HETATM   18  C17 UNL     1      -7.423  17.676  -8.323  1.00  0.00    -0.127 C 
BRANCH  18  19
HETATM   19  C18 UNL     1      -6.950  17.798  -9.453  1.00  0.00     0.062 C 
BRANCH  19  20
HETATM   20  C19 UNL     1      -6.898  16.829 -10.569  1.00  0.00    -0.055 C 
HETATM   21  C20 UNL     1      -7.445  17.163 -11.880  1.00  0.00     0.049 C 
HETATM   22  C21 UNL     1      -6.295  15.670 -10.311  1.00  0.00     0.007 C 
BRANCH  22  23
HETATM   23  C22 UNL     1      -6.174  14.634 -11.304  1.00  0.00    -0.003 C 
HETATM   24  C23 UNL     1      -5.565  13.467 -11.008  1.00  0.00    -0.018 C 
BRANCH  24  25
HETATM   25  C24 UNL     1      -5.463  12.439 -12.045  1.00  0.00    -0.034 C 
HETATM   26  C25 UNL     1      -4.379  11.427 -11.742  1.00  0.00     0.018 C 
HETATM   27  C26 UNL     1      -5.083  13.155 -13.340  1.00  0.00     0.018 C 
HETATM   28  C27 UNL     1      -6.774  11.728 -12.196  1.00  0.00     0.018 C 
ENDBRANCH  24  25
ENDBRANCH  22  23
ENDBRANCH  19  20
ENDBRANCH  18  19
ENDBRANCH   3  18
TORSDOF 10
ENDMDL
