MODEL 1
REMARK VINA RESULT: -10.064701410      0.000      0.000
REMARK  3 active torsions:
REMARK  status: ('A' for Active; 'I' for Inactive)
REMARK    1  A    between atoms: C2_9  and  S1_10 
REMARK    2  A    between atoms: S1_10  and  C3_11 
REMARK    3  A    between atoms: C6_15  and  C7_16 
ROOT
HETATM    1  C7  UNL     1      18.174  -4.168   5.929  1.00  0.00    -0.067 C 
HETATM    2  C8  UNL     1      18.196  -3.445   4.632  1.00  0.00     0.035 C 
HETATM    3  C9  UNL     1      19.537  -2.861   4.303  1.00  0.00     0.010 C 
HETATM    4  C10 UNL     1      20.290  -2.334   5.520  1.00  0.00    -0.004 C 
HETATM    5  C11 UNL     1      20.256  -3.252   6.691  1.00  0.00    -0.005 C 
HETATM    6  C12 UNL     1      18.757  -3.495   7.056  1.00  0.00     0.040 C 
HETATM    7  C13 UNL     1      21.081  -2.805   7.812  1.00  0.00     0.015 C 
HETATM    8  C14 UNL     1      22.561  -2.729   7.503  1.00  0.00    -0.038 C 
HETATM    9  C15 UNL     1      23.393  -3.067   8.730  1.00  0.00     0.015 C 
HETATM   10  C16 UNL     1      23.015  -3.699   6.434  1.00  0.00     0.010 C 
HETATM   11  C17 UNL     1      22.552  -3.303   5.053  1.00  0.00     0.008 C 
HETATM   12  C18 UNL     1      21.704  -2.067   5.073  1.00  0.00     0.021 C 
HETATM   13  C19 UNL     1      22.354  -0.902   5.785  1.00  0.00     0.195 C 
HETATM   14  N5  UNL     1      21.334   0.088   6.007  1.00  0.00    -0.070 N 
ATOM     15  H51 UNL     1      20.528  -0.322   6.480  1.00  0.00     0.277 HD
ATOM     16  H52 UNL     1      20.894   0.358   5.127  1.00  0.00     0.277 HD
HETATM   17  C20 UNL     1      21.805   1.247   6.717  1.00  0.00     0.232 C 
HETATM   18  C21 UNL     1      23.073   1.030   7.483  1.00  0.00     0.028 C 
HETATM   19  C22 UNL     1      22.914  -0.334   8.173  1.00  0.00     0.009 C 
HETATM   20  C23 UNL     1      23.003  -1.358   7.070  1.00  0.00     0.025 C 
ENDROOT
BRANCH   1  21
HETATM   21  C6  UNL     1      17.070  -5.175   6.106  1.00  0.00    -0.009 A 
HETATM   22  C3  UNL     1      15.747  -4.853   5.964  1.00  0.00     0.059 A 
HETATM   23  S2  UNL     1      14.934  -6.215   6.542  1.00  0.00    -0.094 SA
HETATM   24  C4  UNL     1      16.224  -7.206   6.961  1.00  0.00     0.052 A 
HETATM   25  C5  UNL     1      17.324  -6.414   6.638  1.00  0.00     0.021 A 
BRANCH  22  26
HETATM   26  S1  UNL     1      14.986  -3.337   5.275  1.00  0.00    -0.043 SA
BRANCH  26  27
HETATM   27  C2  UNL     1      14.072  -3.883   3.827  1.00  0.00     0.183 A 
HETATM   28  N1  UNL     1      14.096  -3.143   2.636  1.00  0.00    -0.258 N 
HETATM   29  C1  UNL     1      14.923  -1.954   2.420  1.00  0.00     0.181 C 
HETATM   30  N2  UNL     1      13.298  -3.725   1.790  1.00  0.00    -0.224 N 
HETATM   31  N3  UNL     1      12.768  -4.775   2.349  1.00  0.00    -0.226 N 
ATOM     32  H2  UNL     1      13.116  -3.408   0.838  1.00  0.00     0.210 HD
HETATM   33  N4  UNL     1      13.252  -4.866   3.599  1.00  0.00    -0.263 N 
ATOM     34  H3  UNL     1      12.103  -5.415   1.915  1.00  0.00     0.210 HD
ATOM     35  H4  UNL     1      13.011  -5.597   4.269  1.00  0.00     0.190 HD
ENDBRANCH  26  27
ENDBRANCH  22  26
ENDBRANCH   1  21
TORSDOF 3
ENDMDL
MODEL 2
REMARK VINA RESULT: -9.689288683      1.169      1.412
REMARK  3 active torsions:
REMARK  status: ('A' for Active; 'I' for Inactive)
REMARK    1  A    between atoms: C2_9  and  S1_10 
REMARK    2  A    between atoms: S1_10  and  C3_11 
REMARK    3  A    between atoms: C6_15  and  C7_16 
ROOT
HETATM    1  C7  UNL     1      18.379  -4.489   6.562  1.00  0.00    -0.067 C 
HETATM    2  C8  UNL     1      18.183  -4.150   5.130  1.00  0.00     0.035 C 
HETATM    3  C9  UNL     1      19.370  -3.471   4.515  1.00  0.00     0.010 C 
HETATM    4  C10 UNL     1      20.092  -2.521   5.465  1.00  0.00    -0.004 C 
HETATM    5  C11 UNL     1      20.304  -3.081   6.828  1.00  0.00    -0.005 C 
HETATM    6  C12 UNL     1      18.901  -3.451   7.407  1.00  0.00     0.040 C 
HETATM    7  C13 UNL     1      21.103  -2.221   7.698  1.00  0.00     0.015 C 
HETATM    8  C14 UNL     1      22.522  -1.997   7.216  1.00  0.00    -0.038 C 
HETATM    9  C15 UNL     1      23.480  -1.852   8.388  1.00  0.00     0.015 C 
HETATM   10  C16 UNL     1      23.075  -3.135   6.387  1.00  0.00     0.010 C 
HETATM   11  C17 UNL     1      22.458  -3.206   5.010  1.00  0.00     0.008 C 
HETATM   12  C18 UNL     1      21.400  -2.162   4.810  1.00  0.00     0.021 C 
HETATM   13  C19 UNL     1      21.871  -0.760   5.123  1.00  0.00     0.195 C 
HETATM   14  N5  UNL     1      20.704   0.077   5.198  1.00  0.00    -0.070 N 
ATOM     15  H51 UNL     1      20.020  -0.313   5.846  1.00  0.00     0.277 HD
ATOM     16  H52 UNL     1      20.165   0.025   4.333  1.00  0.00     0.277 HD
HETATM   17  C20 UNL     1      21.000   1.445   5.531  1.00  0.00     0.232 C 
HETATM   18  C21 UNL     1      22.333   1.649   6.180  1.00  0.00     0.028 C 
HETATM   19  C22 UNL     1      22.472   0.515   7.209  1.00  0.00     0.009 C 
HETATM   20  C23 UNL     1      22.676  -0.741   6.401  1.00  0.00     0.025 C 
ENDROOT
BRANCH   1  21
HETATM   21  C6  UNL     1      17.493  -5.572   7.112  1.00  0.00    -0.009 A 
HETATM   22  C3  UNL     1      16.129  -5.543   6.993  1.00  0.00     0.059 A 
HETATM   23  S2  UNL     1      15.607  -6.790   8.005  1.00  0.00    -0.094 SA
HETATM   24  C4  UNL     1      17.073  -7.369   8.585  1.00  0.00     0.052 A 
HETATM   25  C5  UNL     1      17.993  -6.531   7.957  1.00  0.00     0.021 A 
BRANCH  22  26
HETATM   26  S1  UNL     1      15.075  -4.459   5.960  1.00  0.00    -0.043 SA
BRANCH  26  27
HETATM   27  C2  UNL     1      14.349  -5.545   4.724  1.00  0.00     0.183 A 
HETATM   28  N1  UNL     1      13.799  -5.029   3.542  1.00  0.00    -0.258 N 
HETATM   29  C1  UNL     1      13.856  -3.619   3.153  1.00  0.00     0.181 C 
HETATM   30  N2  UNL     1      13.286  -6.021   2.876  1.00  0.00    -0.224 N 
HETATM   31  N3  UNL     1      13.465  -7.126   3.542  1.00  0.00    -0.226 N 
ATOM     32  H2  UNL     1      12.818  -5.945   1.973  1.00  0.00     0.210 HD
HETATM   33  N4  UNL     1      14.121  -6.825   4.674  1.00  0.00    -0.263 N 
ATOM     34  H3  UNL     1      13.161  -8.056   3.254  1.00  0.00     0.210 HD
ATOM     35  H4  UNL     1      14.399  -7.498   5.388  1.00  0.00     0.190 HD
ENDBRANCH  26  27
ENDBRANCH  22  26
ENDBRANCH   1  21
TORSDOF 3
ENDMDL
MODEL 3
REMARK VINA RESULT: -9.433744110      1.610      2.880
REMARK  3 active torsions:
REMARK  status: ('A' for Active; 'I' for Inactive)
REMARK    1  A    between atoms: C2_9  and  S1_10 
REMARK    2  A    between atoms: S1_10  and  C3_11 
REMARK    3  A    between atoms: C6_15  and  C7_16 
ROOT
HETATM    1  C7  UNL     1      17.844  -4.769   6.247  1.00  0.00    -0.067 C 
HETATM    2  C8  UNL     1      17.888  -4.435   7.693  1.00  0.00     0.035 C 
HETATM    3  C9  UNL     1      18.794  -3.281   8.005  1.00  0.00     0.010 C 
HETATM    4  C10 UNL     1      20.050  -3.237   7.140  1.00  0.00    -0.004 C 
HETATM    5  C11 UNL     1      19.791  -3.481   5.695  1.00  0.00    -0.005 C 
HETATM    6  C12 UNL     1      19.105  -4.879   5.569  1.00  0.00     0.040 C 
HETATM    7  C13 UNL     1      20.973  -3.315   4.852  1.00  0.00     0.015 C 
HETATM    8  C14 UNL     1      21.541  -1.911   4.846  1.00  0.00    -0.038 C 
HETATM    9  C15 UNL     1      22.142  -1.571   3.492  1.00  0.00     0.015 C 
HETATM   10  C16 UNL     1      20.512  -0.833   5.108  1.00  0.00     0.010 C 
HETATM   11  C17 UNL     1      20.051  -0.804   6.546  1.00  0.00     0.008 C 
HETATM   12  C18 UNL     1      20.684  -1.890   7.365  1.00  0.00     0.021 C 
HETATM   13  C19 UNL     1      22.193  -1.907   7.277  1.00  0.00     0.195 C 
HETATM   14  N5  UNL     1      22.640  -3.157   7.833  1.00  0.00    -0.070 N 
ATOM     15  H51 UNL     1      22.163  -3.942   7.388  1.00  0.00     0.277 HD
ATOM     16  H52 UNL     1      22.297  -3.272   8.787  1.00  0.00     0.277 HD
HETATM   17  C20 UNL     1      24.066  -3.331   7.779  1.00  0.00     0.232 C 
HETATM   18  C21 UNL     1      24.759  -2.459   6.780  1.00  0.00     0.028 C 
HETATM   19  C22 UNL     1      23.889  -2.505   5.514  1.00  0.00     0.009 C 
HETATM   20  C23 UNL     1      22.646  -1.719   5.848  1.00  0.00     0.025 C 
ENDROOT
BRANCH   1  21
HETATM   21  C6  UNL     1      16.639  -5.541   5.784  1.00  0.00    -0.009 A 
HETATM   22  C3  UNL     1      15.428  -4.948   5.547  1.00  0.00     0.059 A 
HETATM   23  S2  UNL     1      14.371  -6.250   5.348  1.00  0.00    -0.094 SA
HETATM   24  C4  UNL     1      15.418  -7.548   5.549  1.00  0.00     0.052 A 
HETATM   25  C5  UNL     1      16.634  -6.913   5.793  1.00  0.00     0.021 A 
BRANCH  22  26
HETATM   26  S1  UNL     1      15.009  -3.170   5.420  1.00  0.00    -0.043 SA
BRANCH  26  27
HETATM   27  C2  UNL     1      15.199  -2.763   3.679  1.00  0.00     0.183 A 
HETATM   28  N1  UNL     1      14.246  -3.167   2.734  1.00  0.00    -0.258 N 
HETATM   29  C1  UNL     1      12.989  -3.840   3.066  1.00  0.00     0.181 C 
HETATM   30  N2  UNL     1      14.671  -2.803   1.560  1.00  0.00    -0.224 N 
HETATM   31  N3  UNL     1      15.819  -2.202   1.684  1.00  0.00    -0.226 N 
ATOM     32  H2  UNL     1      14.181  -2.964   0.680  1.00  0.00     0.210 HD
HETATM   33  N4  UNL     1      16.135  -2.179   2.990  1.00  0.00    -0.263 N 
ATOM     34  H3  UNL     1      16.380  -1.816   0.925  1.00  0.00     0.210 HD
ATOM     35  H4  UNL     1      16.981  -1.765   3.381  1.00  0.00     0.190 HD
ENDBRANCH  26  27
ENDBRANCH  22  26
ENDBRANCH   1  21
TORSDOF 3
ENDMDL
MODEL 4
REMARK VINA RESULT: -9.265749577      1.938      2.456
REMARK  3 active torsions:
REMARK  status: ('A' for Active; 'I' for Inactive)
REMARK    1  A    between atoms: C2_9  and  S1_10 
REMARK    2  A    between atoms: S1_10  and  C3_11 
REMARK    3  A    between atoms: C6_15  and  C7_16 
ROOT
HETATM    1  C7  UNL     1      18.800  -4.432   7.850  1.00  0.00    -0.067 C 
HETATM    2  C8  UNL     1      18.270  -3.784   6.623  1.00  0.00     0.035 C 
HETATM    3  C9  UNL     1      19.338  -3.158   5.778  1.00  0.00     0.010 C 
HETATM    4  C10 UNL     1      20.468  -2.528   6.585  1.00  0.00    -0.004 C 
HETATM    5  C11 UNL     1      20.950  -3.377   7.707  1.00  0.00    -0.005 C 
HETATM    6  C12 UNL     1      19.729  -3.668   8.636  1.00  0.00     0.040 C 
HETATM    7  C13 UNL     1      22.113  -2.828   8.401  1.00  0.00     0.015 C 
HETATM    8  C14 UNL     1      23.350  -2.702   7.537  1.00  0.00    -0.038 C 
HETATM    9  C15 UNL     1      24.613  -2.929   8.353  1.00  0.00     0.015 C 
HETATM   10  C16 UNL     1      23.417  -3.710   6.410  1.00  0.00     0.010 C 
HETATM   11  C17 UNL     1      22.430  -3.415   5.306  1.00  0.00     0.008 C 
HETATM   12  C18 UNL     1      21.577  -2.220   5.613  1.00  0.00     0.021 C 
HETATM   13  C19 UNL     1      22.375  -0.988   5.973  1.00  0.00     0.195 C 
HETATM   14  N5  UNL     1      21.459  -0.035   6.541  1.00  0.00    -0.070 N 
ATOM     15  H51 UNL     1      20.928  -0.455   7.305  1.00  0.00     0.277 HD
ATOM     16  H52 UNL     1      20.695   0.163   5.894  1.00  0.00     0.277 HD
HETATM   17  C20 UNL     1      22.092   1.183   6.970  1.00  0.00     0.232 C 
HETATM   18  C21 UNL     1      23.568   1.070   7.188  1.00  0.00     0.028 C 
HETATM   19  C22 UNL     1      23.778  -0.258   7.933  1.00  0.00     0.009 C 
HETATM   20  C23 UNL     1      23.500  -1.338   6.919  1.00  0.00     0.025 C 
ENDROOT
BRANCH   1  21
HETATM   21  C6  UNL     1      17.919  -5.476   8.479  1.00  0.00    -0.009 A 
HETATM   22  C3  UNL     1      17.211  -6.387   7.741  1.00  0.00     0.059 A 
HETATM   23  S2  UNL     1      16.185  -7.113   8.870  1.00  0.00    -0.094 SA
HETATM   24  C4  UNL     1      16.626  -6.301  10.273  1.00  0.00     0.052 A 
HETATM   25  C5  UNL     1      17.607  -5.425   9.814  1.00  0.00     0.021 A 
BRANCH  22  26
HETATM   26  S1  UNL     1      17.338  -6.792   5.961  1.00  0.00    -0.043 SA
BRANCH  26  27
HETATM   27  C2  UNL     1      15.645  -7.040   5.410  1.00  0.00     0.183 A 
HETATM   28  N1  UNL     1      14.762  -5.958   5.277  1.00  0.00    -0.258 N 
HETATM   29  C1  UNL     1      15.143  -4.556   5.460  1.00  0.00     0.181 C 
HETATM   30  N2  UNL     1      13.600  -6.431   4.938  1.00  0.00    -0.224 N 
HETATM   31  N3  UNL     1      13.674  -7.729   4.845  1.00  0.00    -0.226 N 
ATOM     32  H2  UNL     1      12.763  -5.874   4.770  1.00  0.00     0.210 HD
HETATM   33  N4  UNL     1      14.934  -8.093   5.134  1.00  0.00    -0.263 N 
ATOM     34  H3  UNL     1      12.909  -8.357   4.598  1.00  0.00     0.210 HD
ATOM     35  H4  UNL     1      15.281  -9.052   5.136  1.00  0.00     0.190 HD
ENDBRANCH  26  27
ENDBRANCH  22  26
ENDBRANCH   1  21
TORSDOF 3
ENDMDL
MODEL 5
REMARK VINA RESULT: -9.023708253      2.459      3.196
REMARK  3 active torsions:
REMARK  status: ('A' for Active; 'I' for Inactive)
REMARK    1  A    between atoms: C2_9  and  S1_10 
REMARK    2  A    between atoms: S1_10  and  C3_11 
REMARK    3  A    between atoms: C6_15  and  C7_16 
ROOT
HETATM    1  C7  UNL     1      18.701  -4.223   8.241  1.00  0.00    -0.067 C 
HETATM    2  C8  UNL     1      17.894  -3.960   7.022  1.00  0.00     0.035 C 
HETATM    3  C9  UNL     1      18.719  -3.509   5.854  1.00  0.00     0.010 C 
HETATM    4  C10 UNL     1      19.892  -2.613   6.241  1.00  0.00    -0.004 C 
HETATM    5  C11 UNL     1      20.656  -3.102   7.420  1.00  0.00    -0.005 C 
HETATM    6  C12 UNL     1      19.657  -3.218   8.615  1.00  0.00     0.040 C 
HETATM    7  C13 UNL     1      21.851  -2.312   7.713  1.00  0.00     0.015 C 
HETATM    8  C14 UNL     1      22.895  -2.336   6.617  1.00  0.00    -0.038 C 
HETATM    9  C15 UNL     1      24.298  -2.254   7.198  1.00  0.00     0.015 C 
HETATM   10  C16 UNL     1      22.882  -3.599   5.784  1.00  0.00     0.010 C 
HETATM   11  C17 UNL     1      21.691  -3.674   4.859  1.00  0.00     0.008 C 
HETATM   12  C18 UNL     1      20.772  -2.500   5.024  1.00  0.00     0.021 C 
HETATM   13  C19 UNL     1      21.472  -1.166   4.903  1.00  0.00     0.195 C 
HETATM   14  N5  UNL     1      20.563  -0.161   5.388  1.00  0.00    -0.070 N 
ATOM     15  H51 UNL     1      20.226  -0.398   6.321  1.00  0.00     0.277 HD
ATOM     16  H52 UNL     1      19.681  -0.192   4.876  1.00  0.00     0.277 HD
HETATM   17  C20 UNL     1      21.116   1.167   5.370  1.00  0.00     0.232 C 
HETATM   18  C21 UNL     1      22.610   1.216   5.312  1.00  0.00     0.028 C 
HETATM   19  C22 UNL     1      23.099   0.148   6.305  1.00  0.00     0.009 C 
HETATM   20  C23 UNL     1      22.776  -1.177   5.664  1.00  0.00     0.025 C 
ENDROOT
BRANCH   1  21
HETATM   21  C6  UNL     1      18.070  -5.121   9.269  1.00  0.00    -0.009 A 
HETATM   22  C3  UNL     1      17.414  -6.277   8.939  1.00  0.00     0.059 A 
HETATM   23  S2  UNL     1      16.658  -6.739  10.376  1.00  0.00    -0.094 SA
HETATM   24  C4  UNL     1      17.150  -5.509  11.409  1.00  0.00     0.052 A 
HETATM   25  C5  UNL     1      17.926  -4.711  10.571  1.00  0.00     0.021 A 
BRANCH  22  26
HETATM   26  S1  UNL     1      17.371  -7.174   7.343  1.00  0.00    -0.043 SA
BRANCH  26  27
HETATM   27  C2  UNL     1      15.747  -6.832   6.652  1.00  0.00     0.183 A 
HETATM   28  N1  UNL     1      15.301  -7.489   5.496  1.00  0.00    -0.258 N 
HETATM   29  C1  UNL     1      16.036  -8.560   4.821  1.00  0.00     0.181 C 
HETATM   30  N2  UNL     1      14.138  -7.000   5.184  1.00  0.00    -0.224 N 
HETATM   31  N3  UNL     1      13.810  -6.083   6.049  1.00  0.00    -0.226 N 
ATOM     32  H2  UNL     1      13.571  -7.289   4.387  1.00  0.00     0.210 HD
HETATM   33  N4  UNL     1      14.803  -5.989   6.948  1.00  0.00    -0.263 N 
ATOM     34  H3  UNL     1      12.951  -5.533   6.044  1.00  0.00     0.210 HD
ATOM     35  H4  UNL     1      14.814  -5.351   7.745  1.00  0.00     0.190 HD
ENDBRANCH  26  27
ENDBRANCH  22  26
ENDBRANCH   1  21
TORSDOF 3
ENDMDL
