MODEL 1
REMARK VINA RESULT: -12.001616664      0.000      0.000
REMARK  3 active torsions:
REMARK  status: ('A' for Active; 'I' for Inactive)
REMARK    1  A    between atoms: C6_10  and  C7_11 
REMARK    2  A    between atoms: C7_11  and  O1_12 
REMARK    3  A    between atoms: O1_12  and  C8_13 
ROOT
HETATM    1  C1  UNL     1      15.712   2.532  -3.724  1.00  0.00     0.038 C 
HETATM    2  C2  UNL     1      15.263   3.253  -2.720  1.00  0.00     0.006 C 
HETATM    3  N1  UNL     1      16.085   3.620  -1.616  1.00  0.00    -0.346 N 
ATOM      4  H1  UNL     1      16.907   3.062  -1.387  1.00  0.00     0.167 HD
HETATM    5  C3  UNL     1      15.764   4.759  -0.834  1.00  0.00     0.112 A 
HETATM    6  C4  UNL     1      16.535   5.132   0.230  1.00  0.00     0.079 A 
HETATM    7  C5  UNL     1      16.229   6.248   1.003  1.00  0.00     0.051 A 
HETATM    8  N2  UNL     1      16.802   6.828   2.080  1.00  0.00    -0.357 N 
ATOM      9  H2  UNL     1      17.646   6.496   2.546  1.00  0.00     0.166 HD
HETATM   10  C6  UNL     1      16.085   7.914   2.446  1.00  0.00     0.035 A 
HETATM   11  C16 UNL     1      15.027   8.018   1.567  1.00  0.00     0.046 A 
HETATM   12  C17 UNL     1      15.114   6.973   0.659  1.00  0.00     0.061 A 
HETATM   13  C18 UNL     1      14.358   6.576  -0.413  1.00  0.00     0.261 A 
HETATM   14  O2  UNL     1      13.333   7.278  -0.693  1.00  0.00    -0.267 OA
HETATM   15  N3  UNL     1      14.677   5.477  -1.157  1.00  0.00    -0.299 N 
HETATM   16  C19 UNL     1      13.790   5.189  -2.248  1.00  0.00     0.144 C 
HETATM   17  C20 UNL     1      13.845   3.740  -2.673  1.00  0.00     0.049 C 
HETATM   18  C21 UNL     1      13.214   3.514  -4.017  1.00  0.00     0.018 C 
ENDROOT
BRANCH  10  19
HETATM   19  C7  UNL     1      16.421   8.774   3.595  1.00  0.00     0.232 C 
BRANCH  19  20
HETATM   20  O1  UNL     1      15.887   8.457   4.816  1.00  0.00    -0.344 OA
BRANCH  20  21
HETATM   21  C8  UNL     1      15.048   9.133   5.644  1.00  0.00     0.081 A 
HETATM   22  C9  UNL     1      14.135  10.054   5.178  1.00  0.00    -0.027 A 
HETATM   23  C10 UNL     1      13.981  10.360   3.709  1.00  0.00     0.051 C 
HETATM   24  C11 UNL     1      13.318  10.703   6.082  1.00  0.00     0.028 A 
HETATM   25  C12 UNL     1      13.412  10.435   7.428  1.00  0.00     0.012 A 
HETATM   26 BR1  UNL     1      12.248  11.375   8.607  1.00  0.00    -0.051 Br
HETATM   27  C13 UNL     1      14.343   9.496   7.891  1.00  0.00     0.028 A 
HETATM   28  C14 UNL     1      15.158   8.847   7.008  1.00  0.00    -0.027 A 
HETATM   29  C15 UNL     1      16.145   7.850   7.509  1.00  0.00     0.051 C 
ENDBRANCH  20  21
ENDBRANCH  19  20
ENDBRANCH  10  19
TORSDOF 3
ENDMDL
MODEL 2
REMARK VINA RESULT: -11.929218832      0.237      1.673
REMARK  3 active torsions:
REMARK  status: ('A' for Active; 'I' for Inactive)
REMARK    1  A    between atoms: C6_10  and  C7_11 
REMARK    2  A    between atoms: C7_11  and  O1_12 
REMARK    3  A    between atoms: O1_12  and  C8_13 
ROOT
HETATM    1  C1  UNL     1      16.084   2.335  -3.674  1.00  0.00     0.038 C 
HETATM    2  C2  UNL     1      15.585   3.052  -2.691  1.00  0.00     0.006 C 
HETATM    3  N1  UNL     1      16.378   3.507  -1.599  1.00  0.00    -0.346 N 
ATOM      4  H1  UNL     1      17.237   3.015  -1.355  1.00  0.00     0.167 HD
HETATM    5  C3  UNL     1      15.977   4.643  -0.851  1.00  0.00     0.112 A 
HETATM    6  C4  UNL     1      16.720   5.100   0.201  1.00  0.00     0.079 A 
HETATM    7  C5  UNL     1      16.336   6.215   0.941  1.00  0.00     0.051 A 
HETATM    8  N2  UNL     1      16.866   6.864   2.001  1.00  0.00    -0.357 N 
ATOM      9  H2  UNL     1      17.731   6.606   2.475  1.00  0.00     0.166 HD
HETATM   10  C6  UNL     1      16.075   7.908   2.335  1.00  0.00     0.035 A 
HETATM   11  C16 UNL     1      15.013   7.912   1.455  1.00  0.00     0.046 A 
HETATM   12  C17 UNL     1      15.173   6.850   0.578  1.00  0.00     0.061 A 
HETATM   13  C18 UNL     1      14.448   6.370  -0.482  1.00  0.00     0.261 A 
HETATM   14  O2  UNL     1      13.377   6.991  -0.781  1.00  0.00    -0.267 OA
HETATM   15  N3  UNL     1      14.843   5.275  -1.194  1.00  0.00    -0.299 N 
HETATM   16  C19 UNL     1      13.980   4.894  -2.274  1.00  0.00     0.144 C 
HETATM   17  C20 UNL     1      14.136   3.440  -2.657  1.00  0.00     0.049 C 
HETATM   18  C21 UNL     1      13.524   3.132  -3.993  1.00  0.00     0.018 C 
ENDROOT
BRANCH  10  19
HETATM   19  C7  UNL     1      16.349   8.823   3.458  1.00  0.00     0.232 C 
BRANCH  19  20
HETATM   20  O1  UNL     1      15.915   8.461   4.706  1.00  0.00    -0.344 OA
BRANCH  20  21
HETATM   21  C8  UNL     1      15.112   9.086   5.607  1.00  0.00     0.081 A 
HETATM   22  C9  UNL     1      15.174   8.820   6.958  1.00  0.00    -0.027 A 
HETATM   23  C10 UNL     1      16.157   7.834   7.538  1.00  0.00     0.051 C 
HETATM   24  C11 UNL     1      14.323   9.493   7.812  1.00  0.00     0.028 A 
HETATM   25  C12 UNL     1      13.428  10.416   7.323  1.00  0.00     0.012 A 
HETATM   26 BR1  UNL     1      12.290  11.300   8.569  1.00  0.00    -0.051 Br
HETATM   27  C13 UNL     1      13.373  10.678   5.948  1.00  0.00     0.028 A 
HETATM   28  C14 UNL     1      14.209  10.020   5.092  1.00  0.00    -0.027 A 
HETATM   29  C15 UNL     1      14.145  10.306   3.632  1.00  0.00     0.051 C 
ENDBRANCH  20  21
ENDBRANCH  19  20
ENDBRANCH  10  19
TORSDOF 3
ENDMDL
MODEL 3
REMARK VINA RESULT: -11.850582134      1.212      2.487
REMARK  3 active torsions:
REMARK  status: ('A' for Active; 'I' for Inactive)
REMARK    1  A    between atoms: C6_10  and  C7_11 
REMARK    2  A    between atoms: C7_11  and  O1_12 
REMARK    3  A    between atoms: O1_12  and  C8_13 
ROOT
HETATM    1  C1  UNL     1      12.899   3.526  -3.755  1.00  0.00     0.038 C 
HETATM    2  C2  UNL     1      13.802   4.213  -3.092  1.00  0.00     0.006 C 
HETATM    3  N1  UNL     1      13.458   5.287  -2.222  1.00  0.00    -0.346 N 
ATOM      4  H1  UNL     1      12.576   5.783  -2.351  1.00  0.00     0.167 HD
HETATM    5  C3  UNL     1      14.338   5.669  -1.177  1.00  0.00     0.112 A 
HETATM    6  C4  UNL     1      14.032   6.695  -0.329  1.00  0.00     0.079 A 
HETATM    7  C5  UNL     1      14.888   7.077   0.701  1.00  0.00     0.051 A 
HETATM    8  N2  UNL     1      14.836   8.029   1.657  1.00  0.00    -0.357 N 
ATOM      9  H2  UNL     1      14.071   8.692   1.786  1.00  0.00     0.166 HD
HETATM   10  C6  UNL     1      15.952   7.970   2.417  1.00  0.00     0.035 A 
HETATM   11  C16 UNL     1      16.729   6.945   1.919  1.00  0.00     0.046 A 
HETATM   12  C17 UNL     1      16.064   6.382   0.840  1.00  0.00     0.061 A 
HETATM   13  C18 UNL     1      16.346   5.357  -0.025  1.00  0.00     0.261 A 
HETATM   14  O2  UNL     1      17.449   4.742   0.143  1.00  0.00    -0.267 OA
HETATM   15  N3  UNL     1      15.492   4.999  -1.028  1.00  0.00    -0.299 N 
HETATM   16  C19 UNL     1      15.925   3.907  -1.851  1.00  0.00     0.144 C 
HETATM   17  C20 UNL     1      15.266   3.908  -3.210  1.00  0.00     0.049 C 
HETATM   18  C21 UNL     1      15.428   2.597  -3.925  1.00  0.00     0.018 C 
ENDROOT
BRANCH  10  19
HETATM   19  C7  UNL     1      16.230   8.877   3.545  1.00  0.00     0.232 C 
BRANCH  19  20
HETATM   20  O1  UNL     1      15.829   8.493   4.797  1.00  0.00    -0.344 OA
BRANCH  20  21
HETATM   21  C8  UNL     1      15.045   9.099   5.727  1.00  0.00     0.081 A 
HETATM   22  C9  UNL     1      15.139   8.809   7.071  1.00  0.00    -0.027 A 
HETATM   23  C10 UNL     1      16.138   7.817   7.611  1.00  0.00     0.051 C 
HETATM   24  C11 UNL     1      14.306   9.464   7.957  1.00  0.00     0.028 A 
HETATM   25  C12 UNL     1      13.397  10.392   7.505  1.00  0.00     0.012 A 
HETATM   26 BR1  UNL     1      12.285  11.249   8.793  1.00  0.00    -0.051 Br
HETATM   27  C13 UNL     1      13.310  10.679   6.137  1.00  0.00     0.028 A 
HETATM   28  C14 UNL     1      14.128  10.039   5.250  1.00  0.00    -0.027 A 
HETATM   29  C15 UNL     1      14.029  10.351   3.797  1.00  0.00     0.051 C 
ENDBRANCH  20  21
ENDBRANCH  19  20
ENDBRANCH  10  19
TORSDOF 3
ENDMDL
MODEL 4
REMARK VINA RESULT: -11.058722087      4.536     10.066
REMARK  3 active torsions:
REMARK  status: ('A' for Active; 'I' for Inactive)
REMARK    1  A    between atoms: C6_10  and  C7_11 
REMARK    2  A    between atoms: C7_11  and  O1_12 
REMARK    3  A    between atoms: O1_12  and  C8_13 
ROOT
HETATM    1  C1  UNL     1      15.855   8.753   5.006  1.00  0.00     0.038 C 
HETATM    2  C2  UNL     1      15.728   8.583   3.709  1.00  0.00     0.006 C 
HETATM    3  N1  UNL     1      16.359   7.510   3.015  1.00  0.00    -0.346 N 
ATOM      4  H1  UNL     1      17.188   7.067   3.410  1.00  0.00     0.167 HD
HETATM    5  C3  UNL     1      15.837   7.056   1.777  1.00  0.00     0.112 A 
HETATM    6  C4  UNL     1      16.423   6.029   1.092  1.00  0.00     0.079 A 
HETATM    7  C5  UNL     1      15.917   5.575  -0.124  1.00  0.00     0.051 A 
HETATM    8  N2  UNL     1      16.288   4.606  -0.989  1.00  0.00    -0.357 N 
ATOM      9  H2  UNL     1      17.089   3.987  -0.869  1.00  0.00     0.166 HD
HETATM   10  C6  UNL     1      15.435   4.584  -2.037  1.00  0.00     0.035 A 
HETATM   11  C16 UNL     1      14.498   5.572  -1.820  1.00  0.00     0.046 A 
HETATM   12  C17 UNL     1      14.798   6.197  -0.619  1.00  0.00     0.061 A 
HETATM   13  C18 UNL     1      14.230   7.225   0.089  1.00  0.00     0.261 A 
HETATM   14  O2  UNL     1      13.194   7.772  -0.410  1.00  0.00    -0.267 OA
HETATM   15  N3  UNL     1      14.743   7.654   1.279  1.00  0.00    -0.299 N 
HETATM   16  C19 UNL     1      14.039   8.738   1.902  1.00  0.00     0.144 C 
HETATM   17  C20 UNL     1      14.905   9.513   2.868  1.00  0.00     0.049 C 
HETATM   18  C21 UNL     1      14.098  10.395   3.777  1.00  0.00     0.018 C 
ENDROOT
BRANCH  10  19
HETATM   19  C7  UNL     1      15.555   3.657  -3.177  1.00  0.00     0.232 C 
BRANCH  19  20
HETATM   20  O1  UNL     1      16.102   2.422  -2.950  1.00  0.00    -0.344 OA
BRANCH  20  21
HETATM   21  C8  UNL     1      17.062   1.718  -3.605  1.00  0.00     0.081 A 
HETATM   22  C9  UNL     1      18.358   1.635  -3.144  1.00  0.00    -0.027 A 
HETATM   23  C10 UNL     1      18.800   2.298  -1.863  1.00  0.00     0.051 C 
HETATM   24  C11 UNL     1      19.280   0.903  -3.867  1.00  0.00     0.028 A 
HETATM   25  C12 UNL     1      18.910   0.265  -5.028  1.00  0.00     0.012 A 
HETATM   26 BR1  UNL     1      20.243  -0.723  -5.964  1.00  0.00    -0.051 Br
HETATM   27  C13 UNL     1      17.590   0.356  -5.487  1.00  0.00     0.028 A 
HETATM   28  C14 UNL     1      16.669   1.077  -4.783  1.00  0.00    -0.027 A 
HETATM   29  C15 UNL     1      15.267   1.168  -5.278  1.00  0.00     0.051 C 
ENDBRANCH  20  21
ENDBRANCH  19  20
ENDBRANCH  10  19
TORSDOF 3
ENDMDL
MODEL 5
REMARK VINA RESULT: -10.890151320      4.920     10.338
REMARK  3 active torsions:
REMARK  status: ('A' for Active; 'I' for Inactive)
REMARK    1  A    between atoms: C6_10  and  C7_11 
REMARK    2  A    between atoms: C7_11  and  O1_12 
REMARK    3  A    between atoms: O1_12  and  C8_13 
ROOT
HETATM    1  C1  UNL     1      15.977   8.400   4.144  1.00  0.00     0.038 C 
HETATM    2  C2  UNL     1      15.867   8.128   2.863  1.00  0.00     0.006 C 
HETATM    3  N1  UNL     1      16.575   7.057   2.247  1.00  0.00    -0.346 N 
ATOM      4  H1  UNL     1      17.433   6.704   2.670  1.00  0.00     0.167 HD
HETATM    5  C3  UNL     1      16.091   6.478   1.045  1.00  0.00     0.112 A 
HETATM    6  C4  UNL     1      16.752   5.450   0.434  1.00  0.00     0.079 A 
HETATM    7  C5  UNL     1      16.284   4.875  -0.744  1.00  0.00     0.051 A 
HETATM    8  N2  UNL     1      16.726   3.876  -1.538  1.00  0.00    -0.357 N 
ATOM      9  H2  UNL     1      17.570   3.326  -1.377  1.00  0.00     0.166 HD
HETATM   10  C6  UNL     1      15.880   3.716  -2.581  1.00  0.00     0.035 A 
HETATM   11  C16 UNL     1      14.874   4.648  -2.433  1.00  0.00     0.046 A 
HETATM   12  C17 UNL     1      15.124   5.378  -1.281  1.00  0.00     0.061 A 
HETATM   13  C18 UNL     1      14.482   6.410  -0.646  1.00  0.00     0.261 A 
HETATM   14  O2  UNL     1      13.411   6.844  -1.181  1.00  0.00    -0.267 OA
HETATM   15  N3  UNL     1      14.959   6.959   0.509  1.00  0.00    -0.299 N 
HETATM   16  C19 UNL     1      14.176   8.031   1.053  1.00  0.00     0.144 C 
HETATM   17  C20 UNL     1      14.981   8.934   1.960  1.00  0.00     0.049 C 
HETATM   18  C21 UNL     1      14.110   9.819   2.805  1.00  0.00     0.018 C 
ENDROOT
BRANCH  10  19
HETATM   19  C7  UNL     1      16.070   2.722  -3.651  1.00  0.00     0.232 C 
BRANCH  19  20
HETATM   20  O1  UNL     1      16.838   1.621  -3.380  1.00  0.00    -0.344 OA
BRANCH  20  21
HETATM   21  C8  UNL     1      17.863   1.038  -4.055  1.00  0.00     0.081 A 
HETATM   22  C9  UNL     1      17.672   0.342  -5.229  1.00  0.00    -0.027 A 
HETATM   23  C10 UNL     1      16.312   0.199  -5.866  1.00  0.00     0.051 C 
HETATM   24  C11 UNL     1      18.764  -0.225  -5.856  1.00  0.00     0.028 A 
HETATM   25  C12 UNL     1      20.023  -0.098  -5.318  1.00  0.00     0.012 A 
HETATM   26 BR1  UNL     1      21.475  -0.911  -6.246  1.00  0.00    -0.051 Br
HETATM   27  C13 UNL     1      20.206   0.612  -4.125  1.00  0.00     0.028 A 
HETATM   28  C14 UNL     1      19.136   1.178  -3.494  1.00  0.00    -0.027 A 
HETATM   29  C15 UNL     1      19.340   1.932  -2.226  1.00  0.00     0.051 C 
ENDBRANCH  20  21
ENDBRANCH  19  20
ENDBRANCH  10  19
TORSDOF 3
ENDMDL
