MODEL 1
REMARK VINA RESULT: -9.130718457      0.000      0.000
REMARK  15 active torsions:
REMARK  status: ('A' for Active; 'I' for Inactive)
REMARK    1  A    between atoms: C1_2  and  C2_4 
REMARK    2  A    between atoms: C2_4  and  C3_5 
REMARK    3  A    between atoms: C3_5  and  C4_6 
REMARK    4  A    between atoms: C4_6  and  C5_7 
REMARK    5  A    between atoms: C4_6  and  N3_15 
REMARK    6  A    between atoms: C5_7  and  N2_8 
REMARK       I    between atoms: N2_8  and  C6_10 
REMARK    7  A    between atoms: C6_10  and  C7_12 
REMARK       I    between atoms: N3_15  and  C10_16 
REMARK    8  A    between atoms: N3_15  and  C24_32 
REMARK    9  A    between atoms: C10_16  and  C11_18 
REMARK   10  A    between atoms: C15_22  and  O4_23 
REMARK   11  A    between atoms: O4_23  and  C16_24 
REMARK   12  A    between atoms: C27_35  and  C28_36 
REMARK       I    between atoms: C28_36  and  N4_38 
REMARK   13  A    between atoms: N4_38  and  S1_40 
REMARK   14  A    between atoms: S1_40  and  C29_43 
REMARK   15  A    between atoms: C29_43  and  C30_44 
ROOT
HETATM    1  N3  UNL     1      17.700  23.292  17.925  1.00  0.00    -0.305 N 
HETATM    2  C10 UNL     1      18.496  23.553  19.085  1.00  0.00     0.229 C 
HETATM    3  O3  UNL     1      18.495  22.694  20.047  1.00  0.00    -0.273 OA
ENDROOT
BRANCH   1   4
HETATM    4  C4  UNL     1      17.683  24.138  16.781  1.00  0.00     0.112 C 
BRANCH   4   5
HETATM    5  C3  UNL     1      16.417  24.055  15.939  1.00  0.00     0.036 C 
BRANCH   5   6
HETATM    6  C2  UNL     1      16.510  23.200  14.748  1.00  0.00     0.101 C 
BRANCH   6   7
HETATM    7  C1  UNL     1      15.414  22.188  14.787  1.00  0.00     0.231 C 
HETATM    8  N1  UNL     1      14.112  22.519  15.246  1.00  0.00    -0.062 NA
HETATM    9  O1  UNL     1      15.583  20.994  14.416  1.00  0.00    -0.277 OA
ENDBRANCH   6   7
ENDBRANCH   5   6
ENDBRANCH   4   5
BRANCH   4  10
HETATM   10  C5  UNL     1      18.903  24.120  15.918  1.00  0.00     0.148 C 
BRANCH  10  11
HETATM   11  N2  UNL     1      19.387  25.370  15.457  1.00  0.00    -0.359 N 
HETATM   12  C6  UNL     1      20.590  25.628  14.777  1.00  0.00     0.221 C 
HETATM   13  O2  UNL     1      21.347  24.660  14.529  1.00  0.00    -0.273 OA
ATOM     14  H2  UNL     1      18.793  26.178  15.640  1.00  0.00     0.162 HD
BRANCH  12  15
HETATM   15  C7  UNL     1      21.033  26.983  14.323  1.00  0.00     0.078 A 
HETATM   16  C8  UNL     1      21.887  27.724  15.295  1.00  0.00     0.015 A 
HETATM   17  C9  UNL     1      20.483  28.129  15.088  1.00  0.00     0.015 A 
ENDBRANCH  12  15
ENDBRANCH  10  11
ENDBRANCH   4  10
ENDBRANCH   1   4
BRANCH   1  18
HETATM   18  C24 UNL     1      16.930  22.071  18.053  1.00  0.00     0.080 A 
HETATM   19  C25 UNL     1      17.206  20.811  17.636  1.00  0.00     0.039 A 
HETATM   20  C26 UNL     1      16.293  19.845  17.904  1.00  0.00     0.027 A 
HETATM   21  C27 UNL     1      15.163  20.230  18.577  1.00  0.00     0.075 A 
HETATM   22  S2  UNL     1      15.414  21.904  18.808  1.00  0.00    -0.067 SA
BRANCH  21  23
HETATM   23  C28 UNL     1      14.028  19.395  18.995  1.00  0.00     0.271 C 
HETATM   24  O5  UNL     1      14.170  18.592  19.941  1.00  0.00    -0.266 OA
HETATM   25  N4  UNL     1      12.810  19.542  18.298  1.00  0.00    -0.250 N 
ATOM     26  H4  UNL     1      12.727  20.210  17.531  1.00  0.00     0.181 HD
BRANCH  25  27
HETATM   27  S1  UNL     1      11.465  18.572  18.764  1.00  0.00     0.233 S 
HETATM   28  O6  UNL     1      10.229  19.069  18.066  1.00  0.00    -0.206 OA
HETATM   29  O7  UNL     1      11.264  18.705  20.231  1.00  0.00    -0.206 OA
BRANCH  27  30
HETATM   30  C29 UNL     1      11.802  16.869  18.310  1.00  0.00     0.168 C 
BRANCH  30  31
HETATM   31  C30 UNL     1      10.734  16.434  17.336  1.00  0.00     0.001 A 
HETATM   32  C31 UNL     1      10.756  14.969  17.019  1.00  0.00     0.006 A 
HETATM   33  C32 UNL     1      11.142  15.925  15.962  1.00  0.00     0.006 A 
ENDBRANCH  30  31
ENDBRANCH  27  30
ENDBRANCH  25  27
ENDBRANCH  21  23
ENDBRANCH   1  18
BRANCH   2  34
HETATM   34  C11 UNL     1      19.345  24.724  19.324  1.00  0.00     0.078 C 
HETATM   35  C12 UNL     1      19.394  24.914  20.845  1.00  0.00     0.014 C 
HETATM   36  C13 UNL     1      20.753  25.272  21.337  1.00  0.00     0.003 C 
HETATM   37  C14 UNL     1      21.256  26.520  20.675  1.00  0.00     0.032 C 
HETATM   38  C15 UNL     1      22.231  26.219  19.556  1.00  0.00     0.122 C 
HETATM   39  C22 UNL     1      21.541  25.576  18.409  1.00  0.00     0.033 C 
HETATM   40  C23 UNL     1      20.753  24.376  18.815  1.00  0.00     0.016 C 
BRANCH  38  41
HETATM   41  O4  UNL     1      23.321  25.482  19.954  1.00  0.00    -0.381 OA
BRANCH  41  42
HETATM   42  C16 UNL     1      24.313  25.442  18.976  1.00  0.00     0.122 C 
HETATM   43  C17 UNL     1      25.380  24.404  19.246  1.00  0.00     0.032 C 
HETATM   44  C18 UNL     1      26.304  24.414  18.023  1.00  0.00     0.002 C 
HETATM   45  C19 UNL     1      26.846  25.769  17.712  1.00  0.00     0.000 C 
HETATM   46  C20 UNL     1      25.806  26.854  17.668  1.00  0.00     0.002 C 
HETATM   47  C21 UNL     1      25.002  26.791  18.950  1.00  0.00     0.032 C 
ENDBRANCH  41  42
ENDBRANCH  38  41
ENDBRANCH   2  34
TORSDOF 15
ENDMDL
MODEL 2
REMARK VINA RESULT: -9.018589588      1.212      1.378
REMARK  15 active torsions:
REMARK  status: ('A' for Active; 'I' for Inactive)
REMARK    1  A    between atoms: C1_2  and  C2_4 
REMARK    2  A    between atoms: C2_4  and  C3_5 
REMARK    3  A    between atoms: C3_5  and  C4_6 
REMARK    4  A    between atoms: C4_6  and  C5_7 
REMARK    5  A    between atoms: C4_6  and  N3_15 
REMARK    6  A    between atoms: C5_7  and  N2_8 
REMARK       I    between atoms: N2_8  and  C6_10 
REMARK    7  A    between atoms: C6_10  and  C7_12 
REMARK       I    between atoms: N3_15  and  C10_16 
REMARK    8  A    between atoms: N3_15  and  C24_32 
REMARK    9  A    between atoms: C10_16  and  C11_18 
REMARK   10  A    between atoms: C15_22  and  O4_23 
REMARK   11  A    between atoms: O4_23  and  C16_24 
REMARK   12  A    between atoms: C27_35  and  C28_36 
REMARK       I    between atoms: C28_36  and  N4_38 
REMARK   13  A    between atoms: N4_38  and  S1_40 
REMARK   14  A    between atoms: S1_40  and  C29_43 
REMARK   15  A    between atoms: C29_43  and  C30_44 
ROOT
HETATM    1  N3  UNL     1      17.630  23.232  17.933  1.00  0.00    -0.305 N 
HETATM    2  C10 UNL     1      18.447  23.483  19.081  1.00  0.00     0.229 C 
HETATM    3  O3  UNL     1      18.459  22.619  20.038  1.00  0.00    -0.273 OA
ENDROOT
BRANCH   1   4
HETATM    4  C4  UNL     1      17.597  24.084  16.795  1.00  0.00     0.112 C 
BRANCH   4   5
HETATM    5  C3  UNL     1      16.333  23.983  15.952  1.00  0.00     0.036 C 
BRANCH   5   6
HETATM    6  C2  UNL     1      16.442  23.139  14.754  1.00  0.00     0.101 C 
BRANCH   6   7
HETATM    7  C1  UNL     1      15.316  22.159  14.743  1.00  0.00     0.231 C 
HETATM    8  N1  UNL     1      15.366  20.978  13.956  1.00  0.00    -0.062 NA
HETATM    9  O1  UNL     1      14.269  22.325  15.426  1.00  0.00    -0.277 OA
ENDBRANCH   6   7
ENDBRANCH   5   6
ENDBRANCH   4   5
BRANCH   4  10
HETATM   10  C5  UNL     1      18.817  24.094  15.932  1.00  0.00     0.148 C 
BRANCH  10  11
HETATM   11  N2  UNL     1      19.297  25.358  15.505  1.00  0.00    -0.359 N 
HETATM   12  C6  UNL     1      20.495  25.637  14.825  1.00  0.00     0.221 C 
HETATM   13  O2  UNL     1      21.252  24.678  14.544  1.00  0.00    -0.273 OA
ATOM     14  H2  UNL     1      18.703  26.159  15.716  1.00  0.00     0.162 HD
BRANCH  12  15
HETATM   15  C7  UNL     1      20.935  27.006  14.409  1.00  0.00     0.078 A 
HETATM   16  C8  UNL     1      21.554  27.823  15.491  1.00  0.00     0.015 A 
HETATM   17  C9  UNL     1      20.189  28.134  15.022  1.00  0.00     0.015 A 
ENDBRANCH  12  15
ENDBRANCH  10  11
ENDBRANCH   4  10
ENDBRANCH   1   4
BRANCH   1  18
HETATM   18  C24 UNL     1      16.857  22.014  18.068  1.00  0.00     0.080 A 
HETATM   19  C25 UNL     1      17.095  20.765  17.596  1.00  0.00     0.039 A 
HETATM   20  C26 UNL     1      16.190  19.799  17.887  1.00  0.00     0.027 A 
HETATM   21  C27 UNL     1      15.106  20.171  18.637  1.00  0.00     0.075 A 
HETATM   22  S2  UNL     1      15.386  21.834  18.906  1.00  0.00    -0.067 SA
BRANCH  21  23
HETATM   23  C28 UNL     1      13.989  19.332  19.095  1.00  0.00     0.271 C 
HETATM   24  O5  UNL     1      14.070  18.745  20.196  1.00  0.00    -0.266 OA
HETATM   25  N4  UNL     1      12.858  19.226  18.258  1.00  0.00    -0.250 N 
ATOM     26  H4  UNL     1      12.823  19.722  17.367  1.00  0.00     0.181 HD
BRANCH  25  27
HETATM   27  S1  UNL     1      11.537  18.246  18.769  1.00  0.00     0.233 S 
HETATM   28  O6  UNL     1      11.087  18.691  20.133  1.00  0.00    -0.206 OA
HETATM   29  O7  UNL     1      11.995  16.835  18.860  1.00  0.00    -0.206 OA
BRANCH  27  30
HETATM   30  C29 UNL     1      10.204  18.417  17.580  1.00  0.00     0.168 C 
BRANCH  30  31
HETATM   31  C30 UNL     1      10.315  19.788  16.959  1.00  0.00     0.001 A 
HETATM   32  C31 UNL     1       9.234  20.100  15.970  1.00  0.00     0.006 A 
HETATM   33  C32 UNL     1      10.611  19.910  15.472  1.00  0.00     0.006 A 
ENDBRANCH  30  31
ENDBRANCH  27  30
ENDBRANCH  25  27
ENDBRANCH  21  23
ENDBRANCH   1  18
BRANCH   2  34
HETATM   34  C11 UNL     1      19.304  24.650  19.311  1.00  0.00     0.078 C 
HETATM   35  C12 UNL     1      19.336  24.865  20.829  1.00  0.00     0.014 C 
HETATM   36  C13 UNL     1      20.692  25.218  21.334  1.00  0.00     0.003 C 
HETATM   37  C14 UNL     1      21.216  26.449  20.657  1.00  0.00     0.032 C 
HETATM   38  C15 UNL     1      22.203  26.118  19.557  1.00  0.00     0.122 C 
HETATM   39  C22 UNL     1      21.522  25.463  18.412  1.00  0.00     0.033 C 
HETATM   40  C23 UNL     1      20.716  24.278  18.827  1.00  0.00     0.016 C 
BRANCH  38  41
HETATM   41  O4  UNL     1      23.280  25.377  19.982  1.00  0.00    -0.381 OA
BRANCH  41  42
HETATM   42  C16 UNL     1      24.288  25.317  19.022  1.00  0.00     0.122 C 
HETATM   43  C17 UNL     1      25.331  24.260  19.312  1.00  0.00     0.032 C 
HETATM   44  C18 UNL     1      26.276  24.251  18.106  1.00  0.00     0.002 C 
HETATM   45  C19 UNL     1      26.848  25.595  17.802  1.00  0.00     0.000 C 
HETATM   46  C20 UNL     1      25.828  26.699  17.737  1.00  0.00     0.002 C 
HETATM   47  C21 UNL     1      25.001  26.653  19.005  1.00  0.00     0.032 C 
ENDBRANCH  41  42
ENDBRANCH  38  41
ENDBRANCH   2  34
TORSDOF 15
ENDMDL
MODEL 3
REMARK VINA RESULT: -8.926035854      1.469      1.794
REMARK  15 active torsions:
REMARK  status: ('A' for Active; 'I' for Inactive)
REMARK    1  A    between atoms: C1_2  and  C2_4 
REMARK    2  A    between atoms: C2_4  and  C3_5 
REMARK    3  A    between atoms: C3_5  and  C4_6 
REMARK    4  A    between atoms: C4_6  and  C5_7 
REMARK    5  A    between atoms: C4_6  and  N3_15 
REMARK    6  A    between atoms: C5_7  and  N2_8 
REMARK       I    between atoms: N2_8  and  C6_10 
REMARK    7  A    between atoms: C6_10  and  C7_12 
REMARK       I    between atoms: N3_15  and  C10_16 
REMARK    8  A    between atoms: N3_15  and  C24_32 
REMARK    9  A    between atoms: C10_16  and  C11_18 
REMARK   10  A    between atoms: C15_22  and  O4_23 
REMARK   11  A    between atoms: O4_23  and  C16_24 
REMARK   12  A    between atoms: C27_35  and  C28_36 
REMARK       I    between atoms: C28_36  and  N4_38 
REMARK   13  A    between atoms: N4_38  and  S1_40 
REMARK   14  A    between atoms: S1_40  and  C29_43 
REMARK   15  A    between atoms: C29_43  and  C30_44 
ROOT
HETATM    1  N3  UNL     1      17.530  23.121  17.948  1.00  0.00    -0.305 N 
HETATM    2  C10 UNL     1      18.360  23.323  19.096  1.00  0.00     0.229 C 
HETATM    3  O3  UNL     1      18.360  22.433  20.029  1.00  0.00    -0.273 OA
ENDROOT
BRANCH   1   4
HETATM    4  C4  UNL     1      17.508  24.005  16.833  1.00  0.00     0.112 C 
BRANCH   4   5
HETATM    5  C3  UNL     1      16.229  23.967  16.008  1.00  0.00     0.036 C 
BRANCH   5   6
HETATM    6  C2  UNL     1      16.314  23.206  14.754  1.00  0.00     0.101 C 
BRANCH   6   7
HETATM    7  C1  UNL     1      15.239  22.170  14.737  1.00  0.00     0.231 C 
HETATM    8  N1  UNL     1      15.357  20.989  13.958  1.00  0.00    -0.062 NA
HETATM    9  O1  UNL     1      14.178  22.286  15.409  1.00  0.00    -0.277 OA
ENDBRANCH   6   7
ENDBRANCH   5   6
ENDBRANCH   4   5
BRANCH   4  10
HETATM   10  C5  UNL     1      18.715  24.000  15.952  1.00  0.00     0.148 C 
BRANCH  10  11
HETATM   11  N2  UNL     1      19.460  25.204  15.869  1.00  0.00    -0.359 N 
HETATM   12  C6  UNL     1      19.208  26.316  15.047  1.00  0.00     0.221 C 
HETATM   13  O2  UNL     1      18.213  26.274  14.286  1.00  0.00    -0.273 OA
ATOM     14  H2  UNL     1      20.275  25.271  16.478  1.00  0.00     0.162 HD
BRANCH  12  15
HETATM   15  C7  UNL     1      20.047  27.554  15.016  1.00  0.00     0.078 A 
HETATM   16  C8  UNL     1      21.168  27.529  14.033  1.00  0.00     0.015 A 
HETATM   17  C9  UNL     1      21.449  27.392  15.476  1.00  0.00     0.015 A 
ENDBRANCH  12  15
ENDBRANCH  10  11
ENDBRANCH   4  10
ENDBRANCH   1   4
BRANCH   1  18
HETATM   18  C24 UNL     1      16.732  21.916  18.054  1.00  0.00     0.080 A 
HETATM   19  C25 UNL     1      16.948  20.673  17.559  1.00  0.00     0.039 A 
HETATM   20  C26 UNL     1      16.022  19.719  17.826  1.00  0.00     0.027 A 
HETATM   21  C27 UNL     1      14.942  20.098  18.578  1.00  0.00     0.075 A 
HETATM   22  S2  UNL     1      15.254  21.750  18.882  1.00  0.00    -0.067 SA
BRANCH  21  23
HETATM   23  C28 UNL     1      13.806  19.273  19.015  1.00  0.00     0.271 C 
HETATM   24  O5  UNL     1      13.939  18.512  19.997  1.00  0.00    -0.266 OA
HETATM   25  N4  UNL     1      12.598  19.381  18.293  1.00  0.00    -0.250 N 
ATOM     26  H4  UNL     1      12.522  20.015  17.498  1.00  0.00     0.181 HD
BRANCH  25  27
HETATM   27  S1  UNL     1      11.253  18.421  18.780  1.00  0.00     0.233 S 
HETATM   28  O6  UNL     1      10.022  18.888  18.054  1.00  0.00    -0.206 OA
HETATM   29  O7  UNL     1      11.038  18.604  20.240  1.00  0.00    -0.206 OA
BRANCH  27  30
HETATM   30  C29 UNL     1      11.602  16.705  18.388  1.00  0.00     0.168 C 
BRANCH  30  31
HETATM   31  C30 UNL     1      10.642  16.277  17.305  1.00  0.00     0.001 A 
HETATM   32  C31 UNL     1      10.775  14.840  16.903  1.00  0.00     0.006 A 
HETATM   33  C32 UNL     1      11.187  15.882  15.940  1.00  0.00     0.006 A 
ENDBRANCH  30  31
ENDBRANCH  27  30
ENDBRANCH  25  27
ENDBRANCH  21  23
ENDBRANCH   1  18
BRANCH   2  34
HETATM   34  C11 UNL     1      19.244  24.465  19.352  1.00  0.00     0.078 C 
HETATM   35  C12 UNL     1      19.150  24.750  20.856  1.00  0.00     0.014 C 
HETATM   36  C13 UNL     1      20.470  25.072  21.465  1.00  0.00     0.003 C 
HETATM   37  C14 UNL     1      21.105  26.248  20.786  1.00  0.00     0.032 C 
HETATM   38  C15 UNL     1      22.170  25.827  19.795  1.00  0.00     0.122 C 
HETATM   39  C22 UNL     1      21.565  25.146  18.622  1.00  0.00     0.033 C 
HETATM   40  C23 UNL     1      20.675  24.015  19.014  1.00  0.00     0.016 C 
BRANCH  38  41
HETATM   41  O4  UNL     1      23.172  25.064  20.348  1.00  0.00    -0.381 OA
BRANCH  41  42
HETATM   42  C16 UNL     1      23.999  25.812  21.184  1.00  0.00     0.122 C 
HETATM   43  C17 UNL     1      25.428  25.899  20.692  1.00  0.00     0.032 C 
HETATM   44  C18 UNL     1      26.152  26.850  21.652  1.00  0.00     0.002 C 
HETATM   45  C19 UNL     1      26.029  26.441  23.082  1.00  0.00     0.000 C 
HETATM   46  C20 UNL     1      24.623  26.130  23.516  1.00  0.00     0.002 C 
HETATM   47  C21 UNL     1      24.035  25.135  22.538  1.00  0.00     0.032 C 
ENDBRANCH  41  42
ENDBRANCH  38  41
ENDBRANCH   2  34
TORSDOF 15
ENDMDL
MODEL 4
REMARK VINA RESULT: -8.890706756      3.776     11.886
REMARK  15 active torsions:
REMARK  status: ('A' for Active; 'I' for Inactive)
REMARK    1  A    between atoms: C1_2  and  C2_4 
REMARK    2  A    between atoms: C2_4  and  C3_5 
REMARK    3  A    between atoms: C3_5  and  C4_6 
REMARK    4  A    between atoms: C4_6  and  C5_7 
REMARK    5  A    between atoms: C4_6  and  N3_15 
REMARK    6  A    between atoms: C5_7  and  N2_8 
REMARK       I    between atoms: N2_8  and  C6_10 
REMARK    7  A    between atoms: C6_10  and  C7_12 
REMARK       I    between atoms: N3_15  and  C10_16 
REMARK    8  A    between atoms: N3_15  and  C24_32 
REMARK    9  A    between atoms: C10_16  and  C11_18 
REMARK   10  A    between atoms: C15_22  and  O4_23 
REMARK   11  A    between atoms: O4_23  and  C16_24 
REMARK   12  A    between atoms: C27_35  and  C28_36 
REMARK       I    between atoms: C28_36  and  N4_38 
REMARK   13  A    between atoms: N4_38  and  S1_40 
REMARK   14  A    between atoms: S1_40  and  C29_43 
REMARK   15  A    between atoms: C29_43  and  C30_44 
ROOT
HETATM    1  N3  UNL     1      14.816  21.445  16.329  1.00  0.00    -0.305 N 
HETATM    2  C10 UNL     1      14.037  21.444  15.129  1.00  0.00     0.229 C 
HETATM    3  O3  UNL     1      14.192  22.406  14.285  1.00  0.00    -0.273 OA
ENDROOT
BRANCH   1   4
HETATM    4  C4  UNL     1      14.772  20.398  17.292  1.00  0.00     0.112 C 
BRANCH   4   5
HETATM    5  C3  UNL     1      13.626  20.490  18.289  1.00  0.00     0.036 C 
BRANCH   5   6
HETATM    6  C2  UNL     1      12.687  19.361  18.273  1.00  0.00     0.101 C 
BRANCH   6   7
HETATM    7  C1  UNL     1      12.513  18.849  19.664  1.00  0.00     0.231 C 
HETATM    8  N1  UNL     1      11.233  18.517  20.181  1.00  0.00    -0.062 NA
HETATM    9  O1  UNL     1      13.486  18.685  20.450  1.00  0.00    -0.277 OA
ENDBRANCH   6   7
ENDBRANCH   5   6
ENDBRANCH   4   5
BRANCH   4  10
HETATM   10  C5  UNL     1      16.057  20.069  17.980  1.00  0.00     0.148 C 
BRANCH  10  11
HETATM   11  N2  UNL     1      16.454  20.912  19.048  1.00  0.00    -0.359 N 
HETATM   12  C6  UNL     1      17.725  21.466  19.280  1.00  0.00     0.221 C 
HETATM   13  O2  UNL     1      18.640  21.205  18.463  1.00  0.00    -0.273 OA
ATOM     14  H2  UNL     1      15.731  21.145  19.728  1.00  0.00     0.162 HD
BRANCH  12  15
HETATM   15  C7  UNL     1      18.066  22.349  20.438  1.00  0.00     0.078 A 
HETATM   16  C8  UNL     1      17.977  23.811  20.162  1.00  0.00     0.015 A 
HETATM   17  C9  UNL     1      19.297  23.163  20.284  1.00  0.00     0.015 A 
ENDBRANCH  12  15
ENDBRANCH  10  11
ENDBRANCH   4  10
ENDBRANCH   1   4
BRANCH   1  18
HETATM   18  C24 UNL     1      15.651  22.624  16.439  1.00  0.00     0.080 A 
HETATM   19  C25 UNL     1      15.447  23.786  17.106  1.00  0.00     0.039 A 
HETATM   20  C26 UNL     1      16.418  24.730  17.040  1.00  0.00     0.027 A 
HETATM   21  C27 UNL     1      17.529  24.424  16.299  1.00  0.00     0.075 A 
HETATM   22  S2  UNL     1      17.182  22.852  15.729  1.00  0.00    -0.067 SA
BRANCH  21  23
HETATM   23  C28 UNL     1      18.721  25.253  16.066  1.00  0.00     0.271 C 
HETATM   24  O5  UNL     1      19.346  25.145  14.990  1.00  0.00    -0.266 OA
HETATM   25  N4  UNL     1      19.110  26.148  17.086  1.00  0.00    -0.250 N 
ATOM     26  H4  UNL     1      18.575  26.213  17.952  1.00  0.00     0.181 HD
BRANCH  25  27
HETATM   27  S1  UNL     1      20.506  27.127  16.841  1.00  0.00     0.233 S 
HETATM   28  O6  UNL     1      21.717  26.243  16.722  1.00  0.00    -0.206 OA
HETATM   29  O7  UNL     1      20.682  28.013  18.021  1.00  0.00    -0.206 OA
BRANCH  27  30
HETATM   30  C29 UNL     1      20.277  28.085  15.341  1.00  0.00     0.168 C 
BRANCH  30  31
HETATM   31  C30 UNL     1      21.522  27.928  14.502  1.00  0.00     0.001 A 
HETATM   32  C31 UNL     1      22.509  29.045  14.656  1.00  0.00     0.006 A 
HETATM   33  C32 UNL     1      21.789  28.913  13.373  1.00  0.00     0.006 A 
ENDBRANCH  30  31
ENDBRANCH  27  30
ENDBRANCH  25  27
ENDBRANCH  21  23
ENDBRANCH   1  18
BRANCH   2  34
HETATM   34  C11 UNL     1      13.044  20.444  14.727  1.00  0.00     0.078 C 
HETATM   35  C12 UNL     1      11.671  21.102  14.917  1.00  0.00     0.014 C 
HETATM   36  C13 UNL     1      10.727  20.797  13.808  1.00  0.00     0.003 C 
HETATM   37  C14 UNL     1      10.538  19.318  13.650  1.00  0.00     0.032 C 
HETATM   38  C15 UNL     1      11.357  18.758  12.506  1.00  0.00     0.122 C 
HETATM   39  C22 UNL     1      12.808  18.803  12.819  1.00  0.00     0.033 C 
HETATM   40  C23 UNL     1      13.262  20.163  13.230  1.00  0.00     0.016 C 
BRANCH  38  41
HETATM   41  O4  UNL     1      11.094  19.350  11.293  1.00  0.00    -0.381 OA
BRANCH  41  42
HETATM   42  C16 UNL     1       9.976  18.798  10.672  1.00  0.00     0.122 C 
HETATM   43  C17 UNL     1      10.323  17.857   9.539  1.00  0.00     0.032 C 
HETATM   44  C18 UNL     1       8.997  17.254   9.063  1.00  0.00     0.002 C 
HETATM   45  C19 UNL     1       7.983  18.287   8.700  1.00  0.00     0.000 C 
HETATM   46  C20 UNL     1       7.799  19.361   9.736  1.00  0.00     0.002 C 
HETATM   47  C21 UNL     1       9.162  19.927  10.078  1.00  0.00     0.032 C 
ENDBRANCH  41  42
ENDBRANCH  38  41
ENDBRANCH   2  34
TORSDOF 15
ENDMDL
MODEL 5
REMARK VINA RESULT: -8.708412038      2.852      6.456
REMARK  15 active torsions:
REMARK  status: ('A' for Active; 'I' for Inactive)
REMARK    1  A    between atoms: C1_2  and  C2_4 
REMARK    2  A    between atoms: C2_4  and  C3_5 
REMARK    3  A    between atoms: C3_5  and  C4_6 
REMARK    4  A    between atoms: C4_6  and  C5_7 
REMARK    5  A    between atoms: C4_6  and  N3_15 
REMARK    6  A    between atoms: C5_7  and  N2_8 
REMARK       I    between atoms: N2_8  and  C6_10 
REMARK    7  A    between atoms: C6_10  and  C7_12 
REMARK       I    between atoms: N3_15  and  C10_16 
REMARK    8  A    between atoms: N3_15  and  C24_32 
REMARK    9  A    between atoms: C10_16  and  C11_18 
REMARK   10  A    between atoms: C15_22  and  O4_23 
REMARK   11  A    between atoms: O4_23  and  C16_24 
REMARK   12  A    between atoms: C27_35  and  C28_36 
REMARK       I    between atoms: C28_36  and  N4_38 
REMARK   13  A    between atoms: N4_38  and  S1_40 
REMARK   14  A    between atoms: S1_40  and  C29_43 
REMARK   15  A    between atoms: C29_43  and  C30_44 
ROOT
HETATM    1  N3  UNL     1      15.335  22.442  16.705  1.00  0.00    -0.305 N 
HETATM    2  C10 UNL     1      16.296  23.212  15.976  1.00  0.00     0.229 C 
HETATM    3  O3  UNL     1      16.151  23.344  14.702  1.00  0.00    -0.273 OA
ENDROOT
BRANCH   1   4
HETATM    4  C4  UNL     1      15.363  22.291  18.119  1.00  0.00     0.112 C 
BRANCH   4   5
HETATM    5  C3  UNL     1      16.635  21.667  18.674  1.00  0.00     0.036 C 
BRANCH   5   6
HETATM    6  C2  UNL     1      17.263  22.399  19.783  1.00  0.00     0.101 C 
BRANCH   6   7
HETATM    7  C1  UNL     1      18.544  21.727  20.149  1.00  0.00     0.231 C 
HETATM    8  N1  UNL     1      18.846  21.382  21.492  1.00  0.00    -0.062 NA
HETATM    9  O1  UNL     1      19.421  21.430  19.291  1.00  0.00    -0.277 OA
ENDBRANCH   6   7
ENDBRANCH   5   6
ENDBRANCH   4   5
BRANCH   4  10
HETATM   10  C5  UNL     1      14.150  21.689  18.752  1.00  0.00     0.148 C 
BRANCH  10  11
HETATM   11  N2  UNL     1      14.169  20.291  18.984  1.00  0.00    -0.359 N 
HETATM   12  C6  UNL     1      13.191  19.346  18.628  1.00  0.00     0.221 C 
HETATM   13  O2  UNL     1      12.167  19.754  18.029  1.00  0.00    -0.273 OA
ATOM     14  H2  UNL     1      14.990  19.926  19.467  1.00  0.00     0.162 HD
BRANCH  12  15
HETATM   15  C7  UNL     1      13.284  17.880  18.912  1.00  0.00     0.078 A 
HETATM   16  C8  UNL     1      14.369  17.165  18.182  1.00  0.00     0.015 A 
HETATM   17  C9  UNL     1      12.962  16.983  17.775  1.00  0.00     0.015 A 
ENDBRANCH  12  15
ENDBRANCH  10  11
ENDBRANCH   4  10
ENDBRANCH   1   4
BRANCH   1  18
HETATM   18  C24 UNL     1      14.337  21.849  15.837  1.00  0.00     0.080 A 
HETATM   19  C25 UNL     1      13.196  22.372  15.325  1.00  0.00     0.039 A 
HETATM   20  C26 UNL     1      12.446  21.579  14.521  1.00  0.00     0.027 A 
HETATM   21  C27 UNL     1      12.909  20.310  14.296  1.00  0.00     0.075 A 
HETATM   22  S2  UNL     1      14.357  20.270  15.201  1.00  0.00    -0.067 SA
BRANCH  21  23
HETATM   23  C28 UNL     1      12.302  19.256  13.469  1.00  0.00     0.271 C 
HETATM   24  O5  UNL     1      12.389  19.322  12.225  1.00  0.00    -0.266 OA
HETATM   25  N4  UNL     1      11.639  18.201  14.131  1.00  0.00    -0.250 N 
ATOM     26  H4  UNL     1      11.589  18.175  15.149  1.00  0.00     0.181 HD
BRANCH  25  27
HETATM   27  S1  UNL     1      10.915  16.956  13.186  1.00  0.00     0.233 S 
HETATM   28  O6  UNL     1      11.987  16.213  12.438  1.00  0.00    -0.206 OA
HETATM   29  O7  UNL     1       9.994  17.577  12.198  1.00  0.00    -0.206 OA
BRANCH  27  30
HETATM   30  C29 UNL     1      10.030  15.845  14.284  1.00  0.00     0.168 C 
BRANCH  30  31
HETATM   31  C30 UNL     1      11.053  15.093  15.099  1.00  0.00     0.001 A 
HETATM   32  C31 UNL     1      10.841  13.610  15.129  1.00  0.00     0.006 A 
HETATM   33  C32 UNL     1      10.616  14.380  16.369  1.00  0.00     0.006 A 
ENDBRANCH  30  31
ENDBRANCH  27  30
ENDBRANCH  25  27
ENDBRANCH  21  23
ENDBRANCH   1  18
BRANCH   2  34
HETATM   34  C11 UNL     1      17.472  23.895  16.523  1.00  0.00     0.078 C 
HETATM   35  C12 UNL     1      18.663  22.959  16.280  1.00  0.00     0.014 C 
HETATM   36  C13 UNL     1      19.885  23.684  15.836  1.00  0.00     0.003 C 
HETATM   37  C14 UNL     1      20.285  24.729  16.834  1.00  0.00     0.032 C 
HETATM   38  C15 UNL     1      19.852  26.118  16.409  1.00  0.00     0.122 C 
HETATM   39  C22 UNL     1      18.375  26.255  16.468  1.00  0.00     0.033 C 
HETATM   40  C23 UNL     1      17.670  25.183  15.706  1.00  0.00     0.016 C 
BRANCH  38  41
HETATM   41  O4  UNL     1      20.337  26.498  15.180  1.00  0.00    -0.381 OA
BRANCH  41  42
HETATM   42  C16 UNL     1      21.320  27.479  15.285  1.00  0.00     0.122 C 
HETATM   43  C17 UNL     1      21.376  28.402  14.086  1.00  0.00     0.032 C 
HETATM   44  C18 UNL     1      22.411  29.480  14.426  1.00  0.00     0.002 C 
HETATM   45  C19 UNL     1      23.736  28.915  14.815  1.00  0.00     0.000 C 
HETATM   46  C20 UNL     1      23.663  27.828  15.851  1.00  0.00     0.002 C 
HETATM   47  C21 UNL     1      22.665  26.791  15.379  1.00  0.00     0.032 C 
ENDBRANCH  41  42
ENDBRANCH  38  41
ENDBRANCH   2  34
TORSDOF 15
ENDMDL
