MODEL 1
REMARK VINA RESULT: -9.241358973      0.000      0.000
REMARK  19 active torsions:
REMARK  status: ('A' for Active; 'I' for Inactive)
REMARK    1  A    between atoms: C2_2  and  C3_3 
REMARK    2  A    between atoms: C3_3  and  C4_4 
REMARK    3  A    between atoms: C4_4  and  N1_5 
REMARK       I    between atoms: N1_5  and  C5_7 
REMARK    4  A    between atoms: C5_7  and  C6_9 
REMARK    5  A    between atoms: N2_11  and  C8_12 
REMARK    6  A    between atoms: N3_21  and  C17_22 
REMARK    7  A    between atoms: C17_22  and  O2_23 
REMARK    8  A    between atoms: C17_22  and  C18_25 
REMARK    9  A    between atoms: C18_25  and  C19_26 
REMARK   10  A    between atoms: C18_25  and  N4_33 
REMARK   11  A    between atoms: C19_26  and  C20_27 
REMARK   12  A    between atoms: C20_27  and  C21_28 
REMARK   13  A    between atoms: C21_28  and  O4_30 
REMARK   14  A    between atoms: O4_30  and  C22_31 
REMARK       I    between atoms: N4_33  and  C24_35 
REMARK   15  A    between atoms: C24_35  and  C25_37 
REMARK   16  A    between atoms: C25_37  and  N5_38 
REMARK   17  A    between atoms: C25_37  and  C33_49 
REMARK       I    between atoms: N5_38  and  C26_40 
REMARK   18  A    between atoms: C26_40  and  O7_42 
REMARK   19  A    between atoms: O7_42  and  C27_43 
ROOT
HETATM    1  C18 UNL     1      18.319  23.714  19.793  1.00  0.00     0.159 C 
ENDROOT
BRANCH   1   2
HETATM    2  C17 UNL     1      18.124  22.380  19.235  1.00  0.00     0.137 C 
BRANCH   2   3
HETATM    3  N3  UNL     1      16.983  21.807  18.637  1.00  0.00    -0.347 N 
HETATM    4  C6  UNL     1      15.630  22.258  18.963  1.00  0.00     0.206 C 
HETATM    5  C7  UNL     1      14.741  21.114  19.339  1.00  0.00     0.308 C 
HETATM    6  N2  UNL     1      15.215  19.846  18.822  1.00  0.00     0.101 N 
HETATM    7  C15 UNL     1      15.852  19.943  17.563  1.00  0.00     0.293 C 
HETATM    8  C16 UNL     1      17.131  20.739  17.681  1.00  0.00     0.156 C 
BRANCH   4   9
HETATM    9  C5  UNL     1      15.074  23.107  17.889  1.00  0.00     0.242 C 
HETATM   10  N1  UNL     1      14.201  22.591  16.897  1.00  0.00    -0.359 N 
ATOM     11  H1  UNL     1      13.963  21.601  16.944  1.00  0.00     0.162 HD
HETATM   12  O1  UNL     1      15.367  24.326  17.826  1.00  0.00    -0.271 OA
BRANCH  10  13
HETATM   13  C4  UNL     1      13.634  23.354  15.841  1.00  0.00     0.122 C 
BRANCH  13  14
HETATM   14  C3  UNL     1      13.847  22.865  14.454  1.00  0.00     0.019 C 
BRANCH  14  15
HETATM   15  C2  UNL     1      14.836  21.773  14.277  1.00  0.00    -0.003 C 
HETATM   16  C1  UNL     1      15.495  21.690  12.942  1.00  0.00     0.005 C 
ENDBRANCH  14  15
ENDBRANCH  13  14
ENDBRANCH  10  13
ENDBRANCH   4   9
BRANCH   6  17
HETATM   17  C8  UNL     1      14.155  18.846  18.857  1.00  0.00     0.156 C 
HETATM   18  C9  UNL     1      14.558  17.600  18.084  1.00  0.00     0.049 C 
HETATM   19  C10 UNL     1      13.871  18.425  20.258  1.00  0.00     0.041 C 
HETATM   20  C11 UNL     1      12.575  17.651  20.385  1.00  0.00     0.002 C 
HETATM   21  C12 UNL     1      11.415  18.316  19.725  1.00  0.00     0.000 C 
HETATM   22  C13 UNL     1      11.728  18.599  18.285  1.00  0.00     0.002 C 
HETATM   23  C14 UNL     1      12.970  19.447  18.136  1.00  0.00     0.041 C 
ENDBRANCH   6  17
ENDBRANCH   2   3
BRANCH   2  24
HETATM   24  O2  UNL     1      19.140  21.560  19.275  1.00  0.00    -0.348 OA
ATOM     25  H2  UNL     1      19.823  21.849  19.869  1.00  0.00     0.219 HD
ENDBRANCH   2  24
ENDBRANCH   1   2
BRANCH   1  26
HETATM   26  C19 UNL     1      19.465  23.880  20.739  1.00  0.00     0.043 C 
BRANCH  26  27
HETATM   27  C20 UNL     1      19.647  25.238  21.315  1.00  0.00     0.113 C 
BRANCH  27  28
HETATM   28  C21 UNL     1      21.004  25.717  20.868  1.00  0.00     0.258 C 
HETATM   29  O3  UNL     1      21.326  26.936  20.984  1.00  0.00    -0.265 OA
BRANCH  28  30
HETATM   30  O4  UNL     1      21.948  24.877  20.321  1.00  0.00    -0.322 OA
BRANCH  30  31
HETATM   31  C22 UNL     1      23.010  25.305  19.508  1.00  0.00     0.174 C 
HETATM   32  C23 UNL     1      24.355  25.266  20.168  1.00  0.00     0.034 C 
ENDBRANCH  30  31
ENDBRANCH  28  30
ENDBRANCH  27  28
ENDBRANCH  26  27
ENDBRANCH   1  26
BRANCH   1  33
HETATM   33  N4  UNL     1      18.392  24.673  18.694  1.00  0.00    -0.347 N 
HETATM   34  C24 UNL     1      19.348  24.669  17.688  1.00  0.00     0.241 C 
HETATM   35  O5  UNL     1      20.246  23.771  17.699  1.00  0.00    -0.271 OA
ATOM     36  H4  UNL     1      17.683  25.407  18.664  1.00  0.00     0.163 HD
BRANCH  34  37
HETATM   37  C25 UNL     1      19.401  25.645  16.587  1.00  0.00     0.182 C 
BRANCH  37  38
HETATM   38  N5  UNL     1      20.753  26.124  16.350  1.00  0.00    -0.323 N 
HETATM   39  C26 UNL     1      21.268  27.268  17.007  1.00  0.00     0.361 C 
HETATM   40  O6  UNL     1      20.548  27.903  17.830  1.00  0.00    -0.238 OA
ATOM     41  H5  UNL     1      21.348  25.622  15.691  1.00  0.00     0.165 HD
BRANCH  39  42
HETATM   42  O7  UNL     1      22.547  27.742  16.797  1.00  0.00    -0.299 OA
BRANCH  42  43
HETATM   43  C27 UNL     1      23.248  27.624  15.564  1.00  0.00     0.133 C 
HETATM   44  C28 UNL     1      22.725  28.624  14.575  1.00  0.00     0.032 C 
HETATM   45  C29 UNL     1      23.193  30.028  14.799  1.00  0.00     0.002 C 
HETATM   46  C30 UNL     1      24.612  30.149  15.261  1.00  0.00     0.000 C 
HETATM   47  C31 UNL     1      25.371  28.867  15.055  1.00  0.00     0.002 C 
HETATM   48  C32 UNL     1      24.743  27.706  15.756  1.00  0.00     0.032 C 
ENDBRANCH  42  43
ENDBRANCH  39  42
ENDBRANCH  37  38
BRANCH  37  49
HETATM   49  C33 UNL     1      18.797  25.168  15.286  1.00  0.00     0.009 C 
HETATM   50  C34 UNL     1      17.773  24.094  15.455  1.00  0.00     0.012 C 
HETATM   51  C35 UNL     1      18.400  26.263  14.343  1.00  0.00     0.012 C 
ENDBRANCH  37  49
ENDBRANCH  34  37
ENDBRANCH   1  33
TORSDOF 19
ENDMDL
MODEL 2
REMARK VINA RESULT: -9.051000839      1.325      1.962
REMARK  19 active torsions:
REMARK  status: ('A' for Active; 'I' for Inactive)
REMARK    1  A    between atoms: C2_2  and  C3_3 
REMARK    2  A    between atoms: C3_3  and  C4_4 
REMARK    3  A    between atoms: C4_4  and  N1_5 
REMARK       I    between atoms: N1_5  and  C5_7 
REMARK    4  A    between atoms: C5_7  and  C6_9 
REMARK    5  A    between atoms: N2_11  and  C8_12 
REMARK    6  A    between atoms: N3_21  and  C17_22 
REMARK    7  A    between atoms: C17_22  and  O2_23 
REMARK    8  A    between atoms: C17_22  and  C18_25 
REMARK    9  A    between atoms: C18_25  and  C19_26 
REMARK   10  A    between atoms: C18_25  and  N4_33 
REMARK   11  A    between atoms: C19_26  and  C20_27 
REMARK   12  A    between atoms: C20_27  and  C21_28 
REMARK   13  A    between atoms: C21_28  and  O4_30 
REMARK   14  A    between atoms: O4_30  and  C22_31 
REMARK       I    between atoms: N4_33  and  C24_35 
REMARK   15  A    between atoms: C24_35  and  C25_37 
REMARK   16  A    between atoms: C25_37  and  N5_38 
REMARK   17  A    between atoms: C25_37  and  C33_49 
REMARK       I    between atoms: N5_38  and  C26_40 
REMARK   18  A    between atoms: C26_40  and  O7_42 
REMARK   19  A    between atoms: O7_42  and  C27_43 
ROOT
HETATM    1  C18 UNL     1      18.195  24.002  19.208  1.00  0.00     0.159 C 
ENDROOT
BRANCH   1   2
HETATM    2  C17 UNL     1      18.105  22.586  18.873  1.00  0.00     0.137 C 
BRANCH   2   3
HETATM    3  N3  UNL     1      17.039  21.856  18.307  1.00  0.00    -0.347 N 
HETATM    4  C6  UNL     1      15.659  22.339  18.355  1.00  0.00     0.206 C 
HETATM    5  C7  UNL     1      14.728  21.300  18.897  1.00  0.00     0.308 C 
HETATM    6  N2  UNL     1      15.253  19.956  18.765  1.00  0.00     0.101 N 
HETATM    7  C15 UNL     1      16.034  19.758  17.602  1.00  0.00     0.293 C 
HETATM    8  C16 UNL     1      17.294  20.590  17.667  1.00  0.00     0.156 C 
BRANCH   4   9
HETATM    9  C5  UNL     1      15.236  22.885  17.049  1.00  0.00     0.242 C 
HETATM   10  N1  UNL     1      13.928  22.685  16.536  1.00  0.00    -0.359 N 
ATOM     11  H1  UNL     1      13.275  22.144  17.103  1.00  0.00     0.162 HD
HETATM   12  O1  UNL     1      16.038  23.549  16.348  1.00  0.00    -0.271 OA
BRANCH  10  13
HETATM   13  C4  UNL     1      13.462  23.184  15.290  1.00  0.00     0.122 C 
BRANCH  13  14
HETATM   14  C3  UNL     1      13.176  22.191  14.222  1.00  0.00     0.019 C 
BRANCH  14  15
HETATM   15  C2  UNL     1      14.234  21.190  13.942  1.00  0.00    -0.003 C 
HETATM   16  C1  UNL     1      15.433  21.685  13.205  1.00  0.00     0.005 C 
ENDBRANCH  14  15
ENDBRANCH  13  14
ENDBRANCH  10  13
ENDBRANCH   4   9
BRANCH   6  17
HETATM   17  C8  UNL     1      14.192  18.969  18.923  1.00  0.00     0.156 C 
HETATM   18  C9  UNL     1      14.514  17.698  18.152  1.00  0.00     0.049 C 
HETATM   19  C10 UNL     1      14.032  18.591  20.355  1.00  0.00     0.041 C 
HETATM   20  C11 UNL     1      12.746  17.835  20.620  1.00  0.00     0.002 C 
HETATM   21  C12 UNL     1      11.537  18.493  20.048  1.00  0.00     0.000 C 
HETATM   22  C13 UNL     1      11.722  18.733  18.578  1.00  0.00     0.002 C 
HETATM   23  C14 UNL     1      12.953  19.564  18.294  1.00  0.00     0.041 C 
ENDBRANCH   6  17
ENDBRANCH   2   3
BRANCH   2  24
HETATM   24  O2  UNL     1      19.152  21.845  19.117  1.00  0.00    -0.348 OA
ATOM     25  H2  UNL     1      19.311  21.726  20.046  1.00  0.00     0.219 HD
ENDBRANCH   2  24
ENDBRANCH   1   2
BRANCH   1  26
HETATM   26  C19 UNL     1      18.466  24.332  20.641  1.00  0.00     0.043 C 
BRANCH  26  27
HETATM   27  C20 UNL     1      19.833  24.026  21.137  1.00  0.00     0.113 C 
BRANCH  27  28
HETATM   28  C21 UNL     1      20.743  25.086  20.572  1.00  0.00     0.258 C 
HETATM   29  O3  UNL     1      21.766  24.763  19.900  1.00  0.00    -0.265 OA
BRANCH  28  30
HETATM   30  O4  UNL     1      20.520  26.432  20.752  1.00  0.00    -0.322 OA
BRANCH  30  31
HETATM   31  C22 UNL     1      21.493  27.341  21.200  1.00  0.00     0.174 C 
HETATM   32  C23 UNL     1      21.846  27.210  22.651  1.00  0.00     0.034 C 
ENDBRANCH  30  31
ENDBRANCH  28  30
ENDBRANCH  27  28
ENDBRANCH  26  27
ENDBRANCH   1  26
BRANCH   1  33
HETATM   33  N4  UNL     1      19.172  24.631  18.323  1.00  0.00    -0.347 N 
HETATM   34  C24 UNL     1      18.882  25.584  17.357  1.00  0.00     0.241 C 
HETATM   35  O5  UNL     1      17.678  25.957  17.205  1.00  0.00    -0.271 OA
ATOM     36  H4  UNL     1      20.147  24.347  18.423  1.00  0.00     0.163 HD
BRANCH  34  37
HETATM   37  C25 UNL     1      19.884  26.207  16.477  1.00  0.00     0.182 C 
BRANCH  37  38
HETATM   38  N5  UNL     1      21.224  26.129  17.037  1.00  0.00    -0.323 N 
HETATM   39  C26 UNL     1      21.899  27.273  17.525  1.00  0.00     0.361 C 
HETATM   40  O6  UNL     1      21.337  28.406  17.484  1.00  0.00    -0.238 OA
ATOM     41  H5  UNL     1      21.690  25.223  17.079  1.00  0.00     0.165 HD
BRANCH  39  42
HETATM   42  O7  UNL     1      23.171  27.223  18.059  1.00  0.00    -0.299 OA
BRANCH  42  43
HETATM   43  C27 UNL     1      24.305  27.854  17.477  1.00  0.00     0.133 C 
HETATM   44  C28 UNL     1      25.483  27.756  18.402  1.00  0.00     0.032 C 
HETATM   45  C29 UNL     1      26.144  26.413  18.430  1.00  0.00     0.002 C 
HETATM   46  C30 UNL     1      26.211  25.720  17.104  1.00  0.00     0.000 C 
HETATM   47  C31 UNL     1      25.928  26.667  15.972  1.00  0.00     0.002 C 
HETATM   48  C32 UNL     1      24.594  27.327  16.092  1.00  0.00     0.032 C 
ENDBRANCH  42  43
ENDBRANCH  39  42
ENDBRANCH  37  38
BRANCH  37  49
HETATM   49  C33 UNL     1      19.896  25.685  15.059  1.00  0.00     0.009 C 
HETATM   50  C34 UNL     1      19.015  26.449  14.126  1.00  0.00     0.012 C 
HETATM   51  C35 UNL     1      21.261  25.382  14.516  1.00  0.00     0.012 C 
ENDBRANCH  37  49
ENDBRANCH  34  37
ENDBRANCH   1  33
TORSDOF 19
ENDMDL
MODEL 3
REMARK VINA RESULT: -9.033573366      2.888     11.159
REMARK  19 active torsions:
REMARK  status: ('A' for Active; 'I' for Inactive)
REMARK    1  A    between atoms: C2_2  and  C3_3 
REMARK    2  A    between atoms: C3_3  and  C4_4 
REMARK    3  A    between atoms: C4_4  and  N1_5 
REMARK       I    between atoms: N1_5  and  C5_7 
REMARK    4  A    between atoms: C5_7  and  C6_9 
REMARK    5  A    between atoms: N2_11  and  C8_12 
REMARK    6  A    between atoms: N3_21  and  C17_22 
REMARK    7  A    between atoms: C17_22  and  O2_23 
REMARK    8  A    between atoms: C17_22  and  C18_25 
REMARK    9  A    between atoms: C18_25  and  C19_26 
REMARK   10  A    between atoms: C18_25  and  N4_33 
REMARK   11  A    between atoms: C19_26  and  C20_27 
REMARK   12  A    between atoms: C20_27  and  C21_28 
REMARK   13  A    between atoms: C21_28  and  O4_30 
REMARK   14  A    between atoms: O4_30  and  C22_31 
REMARK       I    between atoms: N4_33  and  C24_35 
REMARK   15  A    between atoms: C24_35  and  C25_37 
REMARK   16  A    between atoms: C25_37  and  N5_38 
REMARK   17  A    between atoms: C25_37  and  C33_49 
REMARK       I    between atoms: N5_38  and  C26_40 
REMARK   18  A    between atoms: C26_40  and  O7_42 
REMARK   19  A    between atoms: O7_42  and  C27_43 
ROOT
HETATM    1  C18 UNL     1      14.534  22.485  16.890  1.00  0.00     0.159 C 
ENDROOT
BRANCH   1   2
HETATM    2  C17 UNL     1      15.934  22.087  16.803  1.00  0.00     0.137 C 
BRANCH   2   3
HETATM    3  N3  UNL     1      17.106  22.852  16.979  1.00  0.00    -0.347 N 
HETATM    4  C6  UNL     1      17.104  24.107  17.731  1.00  0.00     0.206 C 
HETATM    5  C7  UNL     1      17.727  25.221  16.950  1.00  0.00     0.308 C 
HETATM    6  N2  UNL     1      18.616  24.745  15.910  1.00  0.00     0.101 N 
HETATM    7  C15 UNL     1      19.314  23.562  16.251  1.00  0.00     0.293 C 
HETATM    8  C16 UNL     1      18.349  22.409  16.400  1.00  0.00     0.156 C 
BRANCH   4   9
HETATM    9  C5  UNL     1      17.695  23.928  19.074  1.00  0.00     0.242 C 
HETATM   10  N1  UNL     1      18.657  24.828  19.600  1.00  0.00    -0.359 N 
ATOM     11  H1  UNL     1      18.936  25.617  19.016  1.00  0.00     0.162 HD
HETATM   12  O1  UNL     1      17.356  22.956  19.793  1.00  0.00    -0.271 OA
BRANCH  10  13
HETATM   13  C4  UNL     1      19.261  24.711  20.881  1.00  0.00     0.122 C 
BRANCH  13  14
HETATM   14  C3  UNL     1      20.739  24.851  20.954  1.00  0.00     0.019 C 
BRANCH  14  15
HETATM   15  C2  UNL     1      21.476  24.819  19.667  1.00  0.00    -0.003 C 
HETATM   16  C1  UNL     1      22.315  26.012  19.357  1.00  0.00     0.005 C 
ENDBRANCH  14  15
ENDBRANCH  13  14
ENDBRANCH  10  13
ENDBRANCH   4   9
BRANCH   6  17
HETATM   17  C8  UNL     1      19.490  25.817  15.447  1.00  0.00     0.156 C 
HETATM   18  C9  UNL     1      18.835  26.604  14.322  1.00  0.00     0.049 C 
HETATM   19  C10 UNL     1      19.778  26.776  16.550  1.00  0.00     0.041 C 
HETATM   20  C11 UNL     1      20.928  27.709  16.228  1.00  0.00     0.002 C 
HETATM   21  C12 UNL     1      22.144  27.007  15.727  1.00  0.00     0.000 C 
HETATM   22  C13 UNL     1      21.801  26.153  14.541  1.00  0.00     0.002 C 
HETATM   23  C14 UNL     1      20.716  25.152  14.864  1.00  0.00     0.041 C 
ENDBRANCH   6  17
ENDBRANCH   2   3
BRANCH   2  24
HETATM   24  O2  UNL     1      16.184  20.836  16.522  1.00  0.00    -0.348 OA
ATOM     25  H2  UNL     1      15.510  20.246  16.837  1.00  0.00     0.219 HD
ENDBRANCH   2  24
ENDBRANCH   1   2
BRANCH   1  26
HETATM   26  C19 UNL     1      13.997  23.288  15.748  1.00  0.00     0.043 C 
BRANCH  26  27
HETATM   27  C20 UNL     1      13.958  22.604  14.429  1.00  0.00     0.113 C 
BRANCH  27  28
HETATM   28  C21 UNL     1      12.893  21.542  14.525  1.00  0.00     0.258 C 
HETATM   29  O3  UNL     1      11.687  21.859  14.746  1.00  0.00    -0.265 OA
BRANCH  28  30
HETATM   30  O4  UNL     1      13.164  20.201  14.382  1.00  0.00    -0.322 OA
BRANCH  30  31
HETATM   31  C22 UNL     1      13.301  19.551  13.144  1.00  0.00     0.174 C 
HETATM   32  C23 UNL     1      12.008  19.123  12.518  1.00  0.00     0.034 C 
ENDBRANCH  30  31
ENDBRANCH  28  30
ENDBRANCH  27  28
ENDBRANCH  26  27
ENDBRANCH   1  26
BRANCH   1  33
HETATM   33  N4  UNL     1      13.723  21.295  17.132  1.00  0.00    -0.347 N 
HETATM   34  C24 UNL     1      13.699  20.570  18.315  1.00  0.00     0.241 C 
HETATM   35  O5  UNL     1      14.432  20.946  19.281  1.00  0.00    -0.271 OA
ATOM     36  H4  UNL     1      13.127  20.970  16.371  1.00  0.00     0.163 HD
BRANCH  34  37
HETATM   37  C25 UNL     1      12.871  19.373  18.540  1.00  0.00     0.182 C 
BRANCH  37  38
HETATM   38  N5  UNL     1      12.269  18.890  17.308  1.00  0.00    -0.323 N 
HETATM   39  C26 UNL     1      10.928  19.185  16.963  1.00  0.00     0.361 C 
HETATM   40  O6  UNL     1      10.217  19.891  17.735  1.00  0.00    -0.238 OA
ATOM     41  H5  UNL     1      12.829  18.320  16.673  1.00  0.00     0.165 HD
BRANCH  39  42
HETATM   42  O7  UNL     1      10.335  18.736  15.800  1.00  0.00    -0.299 OA
BRANCH  42  43
HETATM   43  C27 UNL     1       9.511  17.579  15.721  1.00  0.00     0.133 C 
HETATM   44  C28 UNL     1      10.069  16.614  14.716  1.00  0.00     0.032 C 
HETATM   45  C29 UNL     1      11.256  15.835  15.191  1.00  0.00     0.002 C 
HETATM   46  C30 UNL     1      11.199  15.421  16.629  1.00  0.00     0.000 C 
HETATM   47  C31 UNL     1       9.811  15.563  17.190  1.00  0.00     0.002 C 
HETATM   48  C32 UNL     1       9.283  16.956  17.077  1.00  0.00     0.032 C 
ENDBRANCH  42  43
ENDBRANCH  39  42
ENDBRANCH  37  38
BRANCH  37  49
HETATM   49  C33 UNL     1      13.577  18.235  19.239  1.00  0.00     0.009 C 
HETATM   50  C34 UNL     1      12.699  17.457  20.163  1.00  0.00     0.012 C 
HETATM   51  C35 UNL     1      14.442  17.394  18.349  1.00  0.00     0.012 C 
ENDBRANCH  37  49
ENDBRANCH  34  37
ENDBRANCH   1  33
TORSDOF 19
ENDMDL
MODEL 4
REMARK VINA RESULT: -8.951750213      2.921     11.204
REMARK  19 active torsions:
REMARK  status: ('A' for Active; 'I' for Inactive)
REMARK    1  A    between atoms: C2_2  and  C3_3 
REMARK    2  A    between atoms: C3_3  and  C4_4 
REMARK    3  A    between atoms: C4_4  and  N1_5 
REMARK       I    between atoms: N1_5  and  C5_7 
REMARK    4  A    between atoms: C5_7  and  C6_9 
REMARK    5  A    between atoms: N2_11  and  C8_12 
REMARK    6  A    between atoms: N3_21  and  C17_22 
REMARK    7  A    between atoms: C17_22  and  O2_23 
REMARK    8  A    between atoms: C17_22  and  C18_25 
REMARK    9  A    between atoms: C18_25  and  C19_26 
REMARK   10  A    between atoms: C18_25  and  N4_33 
REMARK   11  A    between atoms: C19_26  and  C20_27 
REMARK   12  A    between atoms: C20_27  and  C21_28 
REMARK   13  A    between atoms: C21_28  and  O4_30 
REMARK   14  A    between atoms: O4_30  and  C22_31 
REMARK       I    between atoms: N4_33  and  C24_35 
REMARK   15  A    between atoms: C24_35  and  C25_37 
REMARK   16  A    between atoms: C25_37  and  N5_38 
REMARK   17  A    between atoms: C25_37  and  C33_49 
REMARK       I    between atoms: N5_38  and  C26_40 
REMARK   18  A    between atoms: C26_40  and  O7_42 
REMARK   19  A    between atoms: O7_42  and  C27_43 
ROOT
HETATM    1  C18 UNL     1      14.610  22.767  17.140  1.00  0.00     0.159 C 
ENDROOT
BRANCH   1   2
HETATM    2  C17 UNL     1      15.724  22.866  18.077  1.00  0.00     0.137 C 
BRANCH   2   3
HETATM    3  N3  UNL     1      17.019  23.394  17.891  1.00  0.00    -0.347 N 
HETATM    4  C6  UNL     1      17.423  24.675  18.470  1.00  0.00     0.206 C 
HETATM    5  C7  UNL     1      18.021  25.583  17.442  1.00  0.00     0.308 C 
HETATM    6  N2  UNL     1      18.530  24.865  16.291  1.00  0.00     0.101 N 
HETATM    7  C15 UNL     1      19.070  23.594  16.602  1.00  0.00     0.293 C 
HETATM    8  C16 UNL     1      17.984  22.670  17.101  1.00  0.00     0.156 C 
BRANCH   4   9
HETATM    9  C5  UNL     1      18.285  24.479  19.655  1.00  0.00     0.242 C 
HETATM   10  N1  UNL     1      19.469  25.233  19.858  1.00  0.00    -0.359 N 
ATOM     11  H1  UNL     1      19.715  25.927  19.152  1.00  0.00     0.162 HD
HETATM   12  O1  UNL     1      17.986  23.624  20.524  1.00  0.00    -0.271 OA
BRANCH  10  13
HETATM   13  C4  UNL     1      20.337  25.093  20.975  1.00  0.00     0.122 C 
BRANCH  13  14
HETATM   14  C3  UNL     1      21.797  25.204  20.722  1.00  0.00     0.019 C 
BRANCH  14  15
HETATM   15  C2  UNL     1      22.213  25.470  19.323  1.00  0.00    -0.003 C 
HETATM   16  C1  UNL     1      22.716  26.844  19.032  1.00  0.00     0.005 C 
ENDBRANCH  14  15
ENDBRANCH  13  14
ENDBRANCH  10  13
ENDBRANCH   4   9
BRANCH   6  17
HETATM   17  C8  UNL     1      19.438  25.704  15.519  1.00  0.00     0.156 C 
HETATM   18  C9  UNL     1      18.738  26.283  14.299  1.00  0.00     0.049 C 
HETATM   19  C10 UNL     1      19.922  26.851  16.338  1.00  0.00     0.041 C 
HETATM   20  C11 UNL     1      21.107  27.558  15.711  1.00  0.00     0.002 C 
HETATM   21  C12 UNL     1      22.199  26.635  15.291  1.00  0.00     0.000 C 
HETATM   22  C13 UNL     1      21.661  25.578  14.370  1.00  0.00     0.002 C 
HETATM   23  C14 UNL     1      20.535  24.798  15.009  1.00  0.00     0.041 C 
ENDBRANCH   6  17
ENDBRANCH   2   3
BRANCH   2  24
HETATM   24  O2  UNL     1      15.533  22.409  19.285  1.00  0.00    -0.348 OA
ATOM     25  H2  UNL     1      16.066  22.851  19.935  1.00  0.00     0.219 HD
ENDBRANCH   2  24
ENDBRANCH   1   2
BRANCH   1  26
HETATM   26  C19 UNL     1      14.966  22.594  15.698  1.00  0.00     0.043 C 
BRANCH  26  27
HETATM   27  C20 UNL     1      13.832  22.348  14.770  1.00  0.00     0.113 C 
BRANCH  27  28
HETATM   28  C21 UNL     1      14.057  20.985  14.166  1.00  0.00     0.258 C 
HETATM   29  O3  UNL     1      15.147  20.712  13.586  1.00  0.00    -0.265 OA
BRANCH  28  30
HETATM   30  O4  UNL     1      13.111  19.985  14.212  1.00  0.00    -0.322 OA
BRANCH  30  31
HETATM   31  C22 UNL     1      12.628  19.303  13.084  1.00  0.00     0.174 C 
HETATM   32  C23 UNL     1      11.219  19.645  12.705  1.00  0.00     0.034 C 
ENDBRANCH  30  31
ENDBRANCH  28  30
ENDBRANCH  27  28
ENDBRANCH  26  27
ENDBRANCH   1  26
BRANCH   1  33
HETATM   33  N4  UNL     1      13.708  21.714  17.597  1.00  0.00    -0.347 N 
HETATM   34  C24 UNL     1      14.037  20.371  17.712  1.00  0.00     0.241 C 
HETATM   35  O5  UNL     1      15.210  19.998  17.399  1.00  0.00    -0.271 OA
ATOM     36  H4  UNL     1      12.758  21.988  17.852  1.00  0.00     0.163 HD
BRANCH  34  37
HETATM   37  C25 UNL     1      13.111  19.325  18.178  1.00  0.00     0.182 C 
BRANCH  37  38
HETATM   38  N5  UNL     1      12.321  18.773  17.089  1.00  0.00    -0.323 N 
HETATM   39  C26 UNL     1      10.956  19.103  16.912  1.00  0.00     0.361 C 
HETATM   40  O6  UNL     1      10.389  19.902  17.712  1.00  0.00    -0.238 OA
ATOM     41  H5  UNL     1      12.764  18.129  16.433  1.00  0.00     0.165 HD
BRANCH  39  42
HETATM   42  O7  UNL     1      10.186  18.591  15.887  1.00  0.00    -0.299 OA
BRANCH  42  43
HETATM   43  C27 UNL     1       9.385  17.421  16.001  1.00  0.00     0.133 C 
HETATM   44  C28 UNL     1       9.768  16.427  14.944  1.00  0.00     0.032 C 
HETATM   45  C29 UNL     1      11.036  15.681  15.220  1.00  0.00     0.002 C 
HETATM   46  C30 UNL     1      11.251  15.321  16.657  1.00  0.00     0.000 C 
HETATM   47  C31 UNL     1       9.987  15.466  17.458  1.00  0.00     0.002 C 
HETATM   48  C32 UNL     1       9.420  16.847  17.396  1.00  0.00     0.032 C 
ENDBRANCH  42  43
ENDBRANCH  39  42
ENDBRANCH  37  38
BRANCH  37  49
HETATM   49  C33 UNL     1      13.761  18.202  18.952  1.00  0.00     0.009 C 
HETATM   50  C34 UNL     1      13.049  17.850  20.216  1.00  0.00     0.012 C 
HETATM   51  C35 UNL     1      14.169  17.023  18.120  1.00  0.00     0.012 C 
ENDBRANCH  37  49
ENDBRANCH  34  37
ENDBRANCH   1  33
TORSDOF 19
ENDMDL
MODEL 5
REMARK VINA RESULT: -8.918646360      2.882     10.431
REMARK  19 active torsions:
REMARK  status: ('A' for Active; 'I' for Inactive)
REMARK    1  A    between atoms: C2_2  and  C3_3 
REMARK    2  A    between atoms: C3_3  and  C4_4 
REMARK    3  A    between atoms: C4_4  and  N1_5 
REMARK       I    between atoms: N1_5  and  C5_7 
REMARK    4  A    between atoms: C5_7  and  C6_9 
REMARK    5  A    between atoms: N2_11  and  C8_12 
REMARK    6  A    between atoms: N3_21  and  C17_22 
REMARK    7  A    between atoms: C17_22  and  O2_23 
REMARK    8  A    between atoms: C17_22  and  C18_25 
REMARK    9  A    between atoms: C18_25  and  C19_26 
REMARK   10  A    between atoms: C18_25  and  N4_33 
REMARK   11  A    between atoms: C19_26  and  C20_27 
REMARK   12  A    between atoms: C20_27  and  C21_28 
REMARK   13  A    between atoms: C21_28  and  O4_30 
REMARK   14  A    between atoms: O4_30  and  C22_31 
REMARK       I    between atoms: N4_33  and  C24_35 
REMARK   15  A    between atoms: C24_35  and  C25_37 
REMARK   16  A    between atoms: C25_37  and  N5_38 
REMARK   17  A    between atoms: C25_37  and  C33_49 
REMARK       I    between atoms: N5_38  and  C26_40 
REMARK   18  A    between atoms: C26_40  and  O7_42 
REMARK   19  A    between atoms: O7_42  and  C27_43 
ROOT
HETATM    1  C18 UNL     1      14.882  22.543  18.129  1.00  0.00     0.159 C 
ENDROOT
BRANCH   1   2
HETATM    2  C17 UNL     1      16.261  22.105  17.943  1.00  0.00     0.137 C 
BRANCH   2   3
HETATM    3  N3  UNL     1      17.443  22.865  17.817  1.00  0.00    -0.347 N 
HETATM    4  C6  UNL     1      17.596  24.169  18.462  1.00  0.00     0.206 C 
HETATM    5  C7  UNL     1      18.041  25.217  17.490  1.00  0.00     0.308 C 
HETATM    6  N2  UNL     1      18.696  24.657  16.326  1.00  0.00     0.101 N 
HETATM    7  C15 UNL     1      19.450  23.491  16.598  1.00  0.00     0.293 C 
HETATM    8  C16 UNL     1      18.539  22.364  17.027  1.00  0.00     0.156 C 
BRANCH   4   9
HETATM    9  C5  UNL     1      18.453  24.077  19.662  1.00  0.00     0.242 C 
HETATM   10  N1  UNL     1      19.371  25.100  20.013  1.00  0.00    -0.359 N 
ATOM     11  H1  UNL     1      19.425  25.916  19.404  1.00  0.00     0.162 HD
HETATM   12  O1  UNL     1      18.391  23.072  20.412  1.00  0.00    -0.271 OA
BRANCH  10  13
HETATM   13  C4  UNL     1      20.221  25.070  21.152  1.00  0.00     0.122 C 
BRANCH  13  14
HETATM   14  C3  UNL     1      21.686  25.122  20.911  1.00  0.00     0.019 C 
BRANCH  14  15
HETATM   15  C2  UNL     1      22.134  25.021  19.500  1.00  0.00    -0.003 C 
HETATM   16  C1  UNL     1      22.836  26.213  18.944  1.00  0.00     0.005 C 
ENDBRANCH  14  15
ENDBRANCH  13  14
ENDBRANCH  10  13
ENDBRANCH   4   9
BRANCH   6  17
HETATM   17  C8  UNL     1      19.453  25.681  15.617  1.00  0.00     0.156 C 
HETATM   18  C9  UNL     1      18.635  26.271  14.478  1.00  0.00     0.049 C 
HETATM   19  C10 UNL     1      19.811  26.801  16.531  1.00  0.00     0.041 C 
HETATM   20  C11 UNL     1      20.867  27.719  15.947  1.00  0.00     0.002 C 
HETATM   21  C12 UNL     1      22.054  26.997  15.409  1.00  0.00     0.000 C 
HETATM   22  C13 UNL     1      21.626  25.967  14.403  1.00  0.00     0.002 C 
HETATM   23  C14 UNL     1      20.640  24.985  14.991  1.00  0.00     0.041 C 
ENDBRANCH   6  17
ENDBRANCH   2   3
BRANCH   2  24
HETATM   24  O2  UNL     1      16.477  20.819  17.880  1.00  0.00    -0.348 OA
ATOM     25  H2  UNL     1      15.931  20.384  17.236  1.00  0.00     0.219 HD
ENDBRANCH   2  24
ENDBRANCH   1   2
BRANCH   1  26
HETATM   26  C19 UNL     1      14.453  23.744  17.347  1.00  0.00     0.043 C 
BRANCH  26  27
HETATM   27  C20 UNL     1      14.920  23.809  15.938  1.00  0.00     0.113 C 
BRANCH  27  28
HETATM   28  C21 UNL     1      13.884  23.099  15.107  1.00  0.00     0.258 C 
HETATM   29  O3  UNL     1      12.952  23.749  14.549  1.00  0.00    -0.265 OA
BRANCH  28  30
HETATM   30  O4  UNL     1      13.891  21.736  14.913  1.00  0.00    -0.322 OA
BRANCH  30  31
HETATM   31  C22 UNL     1      14.946  21.030  14.312  1.00  0.00     0.174 C 
HETATM   32  C23 UNL     1      15.380  21.570  12.982  1.00  0.00     0.034 C 
ENDBRANCH  30  31
ENDBRANCH  28  30
ENDBRANCH  27  28
ENDBRANCH  26  27
ENDBRANCH   1  26
BRANCH   1  33
HETATM   33  N4  UNL     1      13.995  21.407  17.891  1.00  0.00    -0.347 N 
HETATM   34  C24 UNL     1      13.735  20.390  18.798  1.00  0.00     0.241 C 
HETATM   35  O5  UNL     1      14.301  20.421  19.934  1.00  0.00    -0.271 OA
ATOM     36  H4  UNL     1      13.529  21.358  16.985  1.00  0.00     0.163 HD
BRANCH  34  37
HETATM   37  C25 UNL     1      12.834  19.255  18.539  1.00  0.00     0.182 C 
BRANCH  37  38
HETATM   38  N5  UNL     1      12.432  19.188  17.143  1.00  0.00    -0.323 N 
HETATM   39  C26 UNL     1      11.101  19.447  16.733  1.00  0.00     0.361 C 
HETATM   40  O6  UNL     1      10.223  19.750  17.590  1.00  0.00    -0.238 OA
ATOM     41  H5  UNL     1      13.129  18.947  16.438  1.00  0.00     0.165 HD
BRANCH  39  42
HETATM   42  O7  UNL     1      10.697  19.388  15.415  1.00  0.00    -0.299 OA
BRANCH  42  43
HETATM   43  C27 UNL     1      10.737  20.491  14.518  1.00  0.00     0.133 C 
HETATM   44  C28 UNL     1      11.286  20.059  13.190  1.00  0.00     0.032 C 
HETATM   45  C29 UNL     1      10.321  19.297  12.335  1.00  0.00     0.002 C 
HETATM   46  C30 UNL     1       8.905  19.779  12.406  1.00  0.00     0.000 C 
HETATM   47  C31 UNL     1       8.817  21.141  13.036  1.00  0.00     0.002 C 
HETATM   48  C32 UNL     1       9.398  21.180  14.411  1.00  0.00     0.032 C 
ENDBRANCH  42  43
ENDBRANCH  39  42
ENDBRANCH  37  38
BRANCH  37  49
HETATM   49  C33 UNL     1      13.364  17.910  18.979  1.00  0.00     0.009 C 
HETATM   50  C34 UNL     1      12.306  16.973  19.461  1.00  0.00     0.012 C 
HETATM   51  C35 UNL     1      14.360  17.294  18.042  1.00  0.00     0.012 C 
ENDBRANCH  37  49
ENDBRANCH  34  37
ENDBRANCH   1  33
TORSDOF 19
ENDMDL
