MODEL 1
REMARK VINA RESULT: -7.003875115      0.000      0.000
REMARK  5 active torsions:
REMARK  status: ('A' for Active; 'I' for Inactive)
REMARK    1  A    between atoms: O1_2  and  C2_3 
REMARK    2  A    between atoms: C2_3  and  C3_4 
REMARK    3  A    between atoms: C2_3  and  C7_11 
REMARK    4  A    between atoms: C3_4  and  S1_5 
REMARK    5  A    between atoms: S1_5  and  C4_6 
REMARK       I    between atoms: C4_6  and  N1_8 
ROOT
HETATM    1  C7  UNL     1     -28.652  11.288  78.646  1.00  0.00     0.156 A 
HETATM    2  N2  UNL     1     -27.981  11.424  77.491  1.00  0.00    -0.331 N 
ATOM      3  H2  UNL     1     -28.389  11.680  76.592  1.00  0.00     0.168 HD
HETATM    4  C8  UNL     1     -26.695  11.169  77.714  1.00  0.00     0.129 A 
HETATM    5  C9  UNL     1     -26.599  10.870  79.057  1.00  0.00     0.177 A 
HETATM    6  O3  UNL     1     -27.802  10.947  79.609  1.00  0.00    -0.276 OA
HETATM    7  N3  UNL     1     -25.334  10.546  79.619  1.00  0.00    -0.352 N 
ATOM      8  H3  UNL     1     -25.260   9.953  80.445  1.00  0.00     0.163 HD
HETATM    9  C10 UNL     1     -24.153  11.090  78.977  1.00  0.00     0.247 C 
HETATM   10  N4  UNL     1     -24.240  10.809  77.547  1.00  0.00    -0.359 N 
ATOM     11  H4  UNL     1     -23.463  10.399  77.028  1.00  0.00     0.162 HD
HETATM   12  C11 UNL     1     -25.473  11.141  76.919  1.00  0.00     0.127 C 
HETATM   13  N5  UNL     1     -25.519  11.416  75.651  1.00  0.00    -0.384 N 
ATOM     14  H51 UNL     1     -24.664  11.396  75.095  1.00  0.00     0.157 HD
ATOM     15  H52 UNL     1     -26.403  11.654  75.201  1.00  0.00     0.157 HD
ENDROOT
BRANCH   1  16
HETATM   16  C2  UNL     1     -30.092  11.490  78.793  1.00  0.00     0.205 C 
BRANCH  16  17
HETATM   17  O1  UNL     1     -30.831  10.323  78.773  1.00  0.00    -0.382 OA
HETATM   18  C1  UNL     1     -32.163  10.513  79.110  1.00  0.00     0.202 C 
ENDBRANCH  16  17
BRANCH  16  19
HETATM   19  C3  UNL     1     -30.593  12.368  77.667  1.00  0.00     0.124 C 
BRANCH  19  20
HETATM   20  S1  UNL     1     -30.335  14.081  78.139  1.00  0.00    -0.066 SA
BRANCH  20  21
HETATM   21  C4  UNL     1     -29.283  14.881  76.910  1.00  0.00     0.281 C 
HETATM   22  O2  UNL     1     -28.150  14.392  76.638  1.00  0.00    -0.260 OA
HETATM   23  N1  UNL     1     -29.744  16.050  76.263  1.00  0.00    -0.352 N 
HETATM   24  C5  UNL     1     -31.039  16.595  76.584  1.00  0.00     0.152 C 
HETATM   25  C6  UNL     1     -28.911  16.690  75.284  1.00  0.00     0.152 C 
ENDBRANCH  20  21
ENDBRANCH  19  20
ENDBRANCH  16  19
ENDBRANCH   1  16
TORSDOF 5
ENDMDL
MODEL 2
REMARK VINA RESULT: -6.982764902      3.169      5.328
REMARK  5 active torsions:
REMARK  status: ('A' for Active; 'I' for Inactive)
REMARK    1  A    between atoms: O1_2  and  C2_3 
REMARK    2  A    between atoms: C2_3  and  C3_4 
REMARK    3  A    between atoms: C2_3  and  C7_11 
REMARK    4  A    between atoms: C3_4  and  S1_5 
REMARK    5  A    between atoms: S1_5  and  C4_6 
REMARK       I    between atoms: C4_6  and  N1_8 
ROOT
HETATM    1  C7  UNL     1     -24.806  11.311  78.169  1.00  0.00     0.156 A 
HETATM    2  N2  UNL     1     -23.912  10.516  77.559  1.00  0.00    -0.331 N 
ATOM      3  H2  UNL     1     -24.020  10.100  76.633  1.00  0.00     0.168 HD
HETATM    4  C8  UNL     1     -22.864  10.361  78.361  1.00  0.00     0.129 A 
HETATM    5  C9  UNL     1     -23.147  11.094  79.494  1.00  0.00     0.177 A 
HETATM    6  O3  UNL     1     -24.335  11.666  79.359  1.00  0.00    -0.276 OA
HETATM    7  N3  UNL     1     -22.209  11.133  80.562  1.00  0.00    -0.352 N 
ATOM      8  H3  UNL     1     -22.510  11.297  81.522  1.00  0.00     0.163 HD
HETATM    9  C10 UNL     1     -20.811  10.932  80.237  1.00  0.00     0.247 C 
HETATM   10  N4  UNL     1     -20.701   9.731  79.414  1.00  0.00    -0.359 N 
ATOM     11  H4  UNL     1     -20.024   8.996  79.619  1.00  0.00     0.162 HD
HETATM   12  C11 UNL     1     -21.593   9.648  78.309  1.00  0.00     0.127 C 
HETATM   13  N5  UNL     1     -21.287   8.945  77.260  1.00  0.00    -0.384 N 
ATOM     14  H51 UNL     1     -20.398   8.446  77.224  1.00  0.00     0.157 HD
ATOM     15  H52 UNL     1     -21.927   8.886  76.468  1.00  0.00     0.157 HD
ENDROOT
BRANCH   1  16
HETATM   16  C2  UNL     1     -26.088  11.709  77.589  1.00  0.00     0.205 C 
BRANCH  16  17
HETATM   17  O1  UNL     1     -26.706  12.755  78.249  1.00  0.00    -0.382 OA
HETATM   18  C1  UNL     1     -26.432  13.993  77.688  1.00  0.00     0.202 C 
ENDBRANCH  16  17
BRANCH  16  19
HETATM   19  C3  UNL     1     -27.037  10.530  77.611  1.00  0.00     0.124 C 
BRANCH  19  20
HETATM   20  S1  UNL     1     -28.636  11.114  78.180  1.00  0.00    -0.066 SA
BRANCH  20  21
HETATM   21  C4  UNL     1     -29.403   9.838  79.201  1.00  0.00     0.281 C 
HETATM   22  O2  UNL     1     -30.243   9.045  78.689  1.00  0.00    -0.260 OA
HETATM   23  N1  UNL     1     -29.049   9.740  80.565  1.00  0.00    -0.352 N 
HETATM   24  C5  UNL     1     -28.088  10.652  81.133  1.00  0.00     0.152 C 
HETATM   25  C6  UNL     1     -29.655   8.727  81.381  1.00  0.00     0.152 C 
ENDBRANCH  20  21
ENDBRANCH  19  20
ENDBRANCH  16  19
ENDBRANCH   1  16
TORSDOF 5
ENDMDL
MODEL 3
REMARK VINA RESULT: -6.972767575      2.576      4.580
REMARK  5 active torsions:
REMARK  status: ('A' for Active; 'I' for Inactive)
REMARK    1  A    between atoms: O1_2  and  C2_3 
REMARK    2  A    between atoms: C2_3  and  C3_4 
REMARK    3  A    between atoms: C2_3  and  C7_11 
REMARK    4  A    between atoms: C3_4  and  S1_5 
REMARK    5  A    between atoms: S1_5  and  C4_6 
REMARK       I    between atoms: C4_6  and  N1_8 
ROOT
HETATM    1  C7  UNL     1     -24.704  11.278  78.226  1.00  0.00     0.156 A 
HETATM    2  N2  UNL     1     -23.866  10.410  77.635  1.00  0.00    -0.331 N 
ATOM      3  H2  UNL     1     -24.026   9.942  76.743  1.00  0.00     0.168 HD
HETATM    4  C8  UNL     1     -22.792  10.264  78.406  1.00  0.00     0.129 A 
HETATM    5  C9  UNL     1     -23.002  11.078  79.499  1.00  0.00     0.177 A 
HETATM    6  O3  UNL     1     -24.171  11.688  79.372  1.00  0.00    -0.276 OA
HETATM    7  N3  UNL     1     -22.021  11.147  80.526  1.00  0.00    -0.352 N 
ATOM      8  H3  UNL     1     -22.276  11.383  81.484  1.00  0.00     0.163 HD
HETATM    9  C10 UNL     1     -20.645  10.869  80.162  1.00  0.00     0.247 C 
HETATM   10  N4  UNL     1     -20.614   9.615  79.415  1.00  0.00    -0.359 N 
ATOM     11  H4  UNL     1     -19.958   8.867  79.641  1.00  0.00     0.162 HD
HETATM   12  C11 UNL     1     -21.553   9.498  78.352  1.00  0.00     0.127 C 
HETATM   13  N5  UNL     1     -21.316   8.719  77.340  1.00  0.00    -0.384 N 
ATOM     14  H51 UNL     1     -20.449   8.183  77.303  1.00  0.00     0.157 HD
ATOM     15  H52 UNL     1     -21.990   8.636  76.578  1.00  0.00     0.157 HD
ENDROOT
BRANCH   1  16
HETATM   16  C2  UNL     1     -25.991  11.690  77.671  1.00  0.00     0.205 C 
BRANCH  16  17
HETATM   17  O1  UNL     1     -26.459  12.894  78.163  1.00  0.00    -0.382 OA
HETATM   18  C1  UNL     1     -26.310  13.945  77.271  1.00  0.00     0.202 C 
ENDBRANCH  16  17
BRANCH  16  19
HETATM   19  C3  UNL     1     -27.031  10.635  77.977  1.00  0.00     0.124 C 
BRANCH  19  20
HETATM   20  S1  UNL     1     -28.023  11.215  79.357  1.00  0.00    -0.066 SA
BRANCH  20  21
HETATM   21  C4  UNL     1     -29.771  11.044  78.943  1.00  0.00     0.281 C 
HETATM   22  O2  UNL     1     -30.290   9.894  78.871  1.00  0.00    -0.260 OA
HETATM   23  N1  UNL     1     -30.541  12.205  78.704  1.00  0.00    -0.352 N 
HETATM   24  C5  UNL     1     -29.933  13.509  78.790  1.00  0.00     0.152 C 
HETATM   25  C6  UNL     1     -31.932  12.074  78.374  1.00  0.00     0.152 C 
ENDBRANCH  20  21
ENDBRANCH  19  20
ENDBRANCH  16  19
ENDBRANCH   1  16
TORSDOF 5
ENDMDL
MODEL 4
REMARK VINA RESULT: -6.913941610      2.442      3.691
REMARK  5 active torsions:
REMARK  status: ('A' for Active; 'I' for Inactive)
REMARK    1  A    between atoms: O1_2  and  C2_3 
REMARK    2  A    between atoms: C2_3  and  C3_4 
REMARK    3  A    between atoms: C2_3  and  C7_11 
REMARK    4  A    between atoms: C3_4  and  S1_5 
REMARK    5  A    between atoms: S1_5  and  C4_6 
REMARK       I    between atoms: C4_6  and  N1_8 
ROOT
HETATM    1  C7  UNL     1     -24.864  11.167  78.464  1.00  0.00     0.156 A 
HETATM    2  N2  UNL     1     -24.009  10.375  77.797  1.00  0.00    -0.331 N 
ATOM      3  H2  UNL     1     -24.198   9.909  76.909  1.00  0.00     0.168 HD
HETATM    4  C8  UNL     1     -22.874  10.298  78.486  1.00  0.00     0.129 A 
HETATM    5  C9  UNL     1     -23.064  11.076  79.608  1.00  0.00     0.177 A 
HETATM    6  O3  UNL     1     -24.281  11.598  79.578  1.00  0.00    -0.276 OA
HETATM    7  N3  UNL     1     -22.018  11.203  80.563  1.00  0.00    -0.352 N 
ATOM      8  H3  UNL     1     -22.220  11.404  81.543  1.00  0.00     0.163 HD
HETATM    9  C10 UNL     1     -20.656  11.036  80.097  1.00  0.00     0.247 C 
HETATM   10  N4  UNL     1     -20.586   9.800  79.322  1.00  0.00    -0.359 N 
ATOM     11  H4  UNL     1     -19.861   9.101  79.485  1.00  0.00     0.162 HD
HETATM   12  C11 UNL     1     -21.588   9.630  78.327  1.00  0.00     0.127 C 
HETATM   13  N5  UNL     1     -21.369   8.887  77.284  1.00  0.00    -0.384 N 
ATOM     14  H51 UNL     1     -20.469   8.419  77.174  1.00  0.00     0.157 HD
ATOM     15  H52 UNL     1     -22.087   8.765  76.571  1.00  0.00     0.157 HD
ENDROOT
BRANCH   1  16
HETATM   16  C2  UNL     1     -26.216  11.488  78.011  1.00  0.00     0.205 C 
BRANCH  16  17
HETATM   17  O1  UNL     1     -26.928  10.400  77.544  1.00  0.00    -0.382 OA
HETATM   18  C1  UNL     1     -28.119  10.193  78.223  1.00  0.00     0.202 C 
ENDBRANCH  16  17
BRANCH  16  19
HETATM   19  C3  UNL     1     -26.143  12.503  76.891  1.00  0.00     0.124 C 
BRANCH  19  20
HETATM   20  S1  UNL     1     -26.649  14.095  77.549  1.00  0.00    -0.066 SA
BRANCH  20  21
HETATM   21  C4  UNL     1     -28.442  14.107  77.754  1.00  0.00     0.281 C 
HETATM   22  O2  UNL     1     -28.973  13.430  78.680  1.00  0.00    -0.260 OA
HETATM   23  N1  UNL     1     -29.232  14.879  76.873  1.00  0.00    -0.352 N 
HETATM   24  C5  UNL     1     -28.610  15.646  75.823  1.00  0.00     0.152 C 
HETATM   25  C6  UNL     1     -30.659  14.892  77.032  1.00  0.00     0.152 C 
ENDBRANCH  20  21
ENDBRANCH  19  20
ENDBRANCH  16  19
ENDBRANCH   1  16
TORSDOF 5
ENDMDL
MODEL 5
REMARK VINA RESULT: -6.868394764      4.292      8.043
REMARK  5 active torsions:
REMARK  status: ('A' for Active; 'I' for Inactive)
REMARK    1  A    between atoms: O1_2  and  C2_3 
REMARK    2  A    between atoms: C2_3  and  C3_4 
REMARK    3  A    between atoms: C2_3  and  C7_11 
REMARK    4  A    between atoms: C3_4  and  S1_5 
REMARK    5  A    between atoms: S1_5  and  C4_6 
REMARK       I    between atoms: C4_6  and  N1_8 
ROOT
HETATM    1  C7  UNL     1     -23.714  10.391  78.970  1.00  0.00     0.156 A 
HETATM    2  N2  UNL     1     -23.981  10.712  77.693  1.00  0.00    -0.331 N 
ATOM      3  H2  UNL     1     -23.298  10.761  76.936  1.00  0.00     0.168 HD
HETATM    4  C8  UNL     1     -25.283  10.954  77.579  1.00  0.00     0.129 A 
HETATM    5  C9  UNL     1     -25.811  10.769  78.840  1.00  0.00     0.177 A 
HETATM    6  O3  UNL     1     -24.840  10.427  79.674  1.00  0.00    -0.276 OA
HETATM    7  N3  UNL     1     -27.204  10.956  79.056  1.00  0.00    -0.352 N 
ATOM      8  H3  UNL     1     -27.564  11.226  79.971  1.00  0.00     0.163 HD
HETATM    9  C10 UNL     1     -28.093  10.749  77.931  1.00  0.00     0.247 C 
HETATM   10  N4  UNL     1     -27.577  11.507  76.794  1.00  0.00    -0.359 N 
ATOM     11  H4  UNL     1     -28.173  12.121  76.239  1.00  0.00     0.162 HD
HETATM   12  C11 UNL     1     -26.195  11.337  76.507  1.00  0.00     0.127 C 
HETATM   13  N5  UNL     1     -25.738  11.521  75.305  1.00  0.00    -0.384 N 
ATOM     14  H51 UNL     1     -26.376  11.790  74.555  1.00  0.00     0.157 HD
ATOM     15  H52 UNL     1     -24.747  11.399  75.099  1.00  0.00     0.157 HD
ENDROOT
BRANCH   1  16
HETATM   16  C2  UNL     1     -22.384  10.058  79.476  1.00  0.00     0.205 C 
BRANCH  16  17
HETATM   17  O1  UNL     1     -21.933  10.900  80.475  1.00  0.00    -0.382 OA
HETATM   18  C1  UNL     1     -20.658  11.392  80.242  1.00  0.00     0.202 C 
ENDBRANCH  16  17
BRANCH  16  19
HETATM   19  C3  UNL     1     -21.384  10.119  78.341  1.00  0.00     0.124 C 
BRANCH  19  20
HETATM   20  S1  UNL     1     -21.084   8.442  77.774  1.00  0.00    -0.066 SA
BRANCH  20  21
HETATM   21  C4  UNL     1     -21.634   7.282  79.043  1.00  0.00     0.281 C 
HETATM   22  O2  UNL     1     -21.019   7.217  80.145  1.00  0.00    -0.260 OA
HETATM   23  N1  UNL     1     -22.753   6.458  78.787  1.00  0.00    -0.352 N 
HETATM   24  C5  UNL     1     -23.444   6.545  77.524  1.00  0.00     0.152 C 
HETATM   25  C6  UNL     1     -23.195   5.534  79.792  1.00  0.00     0.152 C 
ENDBRANCH  20  21
ENDBRANCH  19  20
ENDBRANCH  16  19
ENDBRANCH   1  16
TORSDOF 5
ENDMDL
