MODEL 1
REMARK VINA RESULT: -6.352229602      0.000      0.000
REMARK  9 active torsions:
REMARK  status: ('A' for Active; 'I' for Inactive)
REMARK    1  A    between atoms: C2_2  and  O1_3 
REMARK    2  A    between atoms: O1_3  and  C3_4 
REMARK    3  A    between atoms: C3_4  and  C4_6 
REMARK    4  A    between atoms: C5_7  and  O3_8 
REMARK    5  A    between atoms: N2_15  and  O4_17 
REMARK    6  A    between atoms: N3_19  and  C9_20 
REMARK    7  A    between atoms: C9_20  and  O5_21 
REMARK    8  A    between atoms: C9_20  and  O6_23 
REMARK    9  A    between atoms: O6_23  and  C10_24 
ROOT
HETATM    1  C4  UNL     1     -28.278  12.987  77.492  1.00  0.00     0.172 A 
HETATM    2  C5  UNL     1     -28.588  14.207  76.818  1.00  0.00     0.139 A 
HETATM    3  C6  UNL     1     -29.888  14.511  76.575  1.00  0.00     0.152 A 
HETATM    4  S1  UNL     1     -30.285  15.908  75.799  1.00  0.00    -0.057 SA
HETATM    5  N1  UNL     1     -30.881  13.703  76.949  1.00  0.00    -0.176 N 
ATOM      6  H1  UNL     1     -31.850  13.958  76.753  1.00  0.00     0.185 HD
HETATM    7  C7  UNL     1     -30.603  12.571  77.574  1.00  0.00     0.714 A 
HETATM    8  N2  UNL     1     -31.523  11.752  77.958  1.00  0.00    -0.096 N 
ATOM      9  H2  UNL     1     -31.235  10.898  78.434  1.00  0.00     0.213 HD
HETATM   10  N3  UNL     1     -29.289  12.201  77.853  1.00  0.00    -0.093 N 
ENDROOT
BRANCH  10  11
HETATM   11  C9  UNL     1     -29.112  10.986  78.518  1.00  0.00     0.284 C 
BRANCH  11  12
HETATM   12  O5  UNL     1     -28.690   9.958  77.818  1.00  0.00    -0.326 OA
ATOM     13  H5  UNL     1     -27.774   9.716  77.891  1.00  0.00     0.221 HD
ENDBRANCH  11  12
BRANCH  11  14
HETATM   14  O6  UNL     1     -29.297  10.636  79.801  1.00  0.00    -0.316 OA
BRANCH  14  15
HETATM   15  C10 UNL     1     -28.517  11.169  80.889  1.00  0.00     0.175 C 
HETATM   16  C11 UNL     1     -27.112  10.625  80.869  1.00  0.00     0.034 C 
ENDBRANCH  14  15
ENDBRANCH  11  14
ENDBRANCH  10  11
BRANCH   1  17
HETATM   17  C3  UNL     1     -26.877  12.715  77.728  1.00  0.00     0.314 C 
HETATM   18  O2  UNL     1     -26.057  13.213  78.483  1.00  0.00    -0.257 OA
BRANCH  17  19
HETATM   19  O1  UNL     1     -26.280  11.667  76.955  1.00  0.00    -0.317 OA
BRANCH  19  20
HETATM   20  C2  UNL     1     -25.003  11.165  77.322  1.00  0.00     0.175 C 
HETATM   21  C1  UNL     1     -25.048   9.837  77.997  1.00  0.00     0.034 C 
ENDBRANCH  19  20
ENDBRANCH  17  19
ENDBRANCH   1  17
BRANCH   2  22
HETATM   22  O3  UNL     1     -27.546  15.038  76.435  1.00  0.00    -0.356 OA
ATOM     23  H3  UNL     1     -27.319  15.771  76.994  1.00  0.00     0.218 HD
ENDBRANCH   2  22
BRANCH   8  24
HETATM   24  O4  UNL     1     -32.848  11.957  77.767  1.00  0.00    -0.271 OA
HETATM   25  C8  UNL     1     -33.727  10.863  78.053  1.00  0.00     0.238 C 
ENDBRANCH   8  24
TORSDOF 9
ENDMDL
MODEL 2
REMARK VINA RESULT: -6.259431248      2.319      4.830
REMARK  9 active torsions:
REMARK  status: ('A' for Active; 'I' for Inactive)
REMARK    1  A    between atoms: C2_2  and  O1_3 
REMARK    2  A    between atoms: O1_3  and  C3_4 
REMARK    3  A    between atoms: C3_4  and  C4_6 
REMARK    4  A    between atoms: C5_7  and  O3_8 
REMARK    5  A    between atoms: N2_15  and  O4_17 
REMARK    6  A    between atoms: N3_19  and  C9_20 
REMARK    7  A    between atoms: C9_20  and  O5_21 
REMARK    8  A    between atoms: C9_20  and  O6_23 
REMARK    9  A    between atoms: O6_23  and  C10_24 
ROOT
HETATM    1  C4  UNL     1     -29.698  13.225  77.846  1.00  0.00     0.172 A 
HETATM    2  C5  UNL     1     -28.271  13.225  77.830  1.00  0.00     0.139 A 
HETATM    3  C6  UNL     1     -27.609  12.122  78.263  1.00  0.00     0.152 A 
HETATM    4  S1  UNL     1     -25.963  12.085  78.262  1.00  0.00    -0.057 SA
HETATM    5  N1  UNL     1     -28.255  11.040  78.700  1.00  0.00    -0.176 N 
ATOM      6  H1  UNL     1     -27.732  10.224  79.019  1.00  0.00     0.185 HD
HETATM    7  C7  UNL     1     -29.578  11.031  78.717  1.00  0.00     0.714 A 
HETATM    8  N2  UNL     1     -30.254  10.013  79.130  1.00  0.00    -0.096 N 
ATOM      9  H2  UNL     1     -31.272  10.077  79.116  1.00  0.00     0.213 HD
HETATM   10  N3  UNL     1     -30.315  12.132  78.287  1.00  0.00    -0.093 N 
ENDROOT
BRANCH  10  11
HETATM   11  C9  UNL     1     -31.705  12.012  78.348  1.00  0.00     0.284 C 
BRANCH  11  12
HETATM   12  O5  UNL     1     -32.325  12.550  79.374  1.00  0.00    -0.326 OA
ATOM     13  H5  UNL     1     -33.242  12.339  79.501  1.00  0.00     0.221 HD
ENDBRANCH  11  12
BRANCH  11  14
HETATM   14  O6  UNL     1     -32.587  11.425  77.523  1.00  0.00    -0.316 OA
BRANCH  14  15
HETATM   15  C10 UNL     1     -33.796  10.786  77.978  1.00  0.00     0.175 C 
HETATM   16  C11 UNL     1     -34.979  11.204  77.143  1.00  0.00     0.034 C 
ENDBRANCH  14  15
ENDBRANCH  11  14
ENDBRANCH  10  11
BRANCH   1  17
HETATM   17  C3  UNL     1     -30.351  14.425  77.371  1.00  0.00     0.314 C 
HETATM   18  O2  UNL     1     -31.130  15.202  77.900  1.00  0.00    -0.257 OA
BRANCH  17  19
HETATM   19  O1  UNL     1     -30.067  14.833  76.027  1.00  0.00    -0.317 OA
BRANCH  19  20
HETATM   20  C2  UNL     1     -30.211  16.197  75.663  1.00  0.00     0.175 C 
HETATM   21  C1  UNL     1     -28.925  16.870  75.321  1.00  0.00     0.034 C 
ENDBRANCH  19  20
ENDBRANCH  17  19
ENDBRANCH   1  17
BRANCH   2  22
HETATM   22  O3  UNL     1     -27.611  14.356  77.374  1.00  0.00    -0.356 OA
ATOM     23  H3  UNL     1     -26.664  14.334  77.304  1.00  0.00     0.218 HD
ENDBRANCH   2  22
BRANCH   8  24
HETATM   24  O4  UNL     1     -29.697   8.865  79.581  1.00  0.00    -0.271 OA
HETATM   25  C8  UNL     1     -30.492   7.676  79.502  1.00  0.00     0.238 C 
ENDBRANCH   8  24
TORSDOF 9
ENDMDL
MODEL 3
REMARK VINA RESULT: -6.184141009      1.724      3.003
REMARK  9 active torsions:
REMARK  status: ('A' for Active; 'I' for Inactive)
REMARK    1  A    between atoms: C2_2  and  O1_3 
REMARK    2  A    between atoms: O1_3  and  C3_4 
REMARK    3  A    between atoms: C3_4  and  C4_6 
REMARK    4  A    between atoms: C5_7  and  O3_8 
REMARK    5  A    between atoms: N2_15  and  O4_17 
REMARK    6  A    between atoms: N3_19  and  C9_20 
REMARK    7  A    between atoms: C9_20  and  O5_21 
REMARK    8  A    between atoms: C9_20  and  O6_23 
REMARK    9  A    between atoms: O6_23  and  C10_24 
ROOT
HETATM    1  C4  UNL     1     -28.899  13.439  77.392  1.00  0.00     0.172 A 
HETATM    2  C5  UNL     1     -28.478  14.557  76.611  1.00  0.00     0.139 A 
HETATM    3  C6  UNL     1     -29.375  15.534  76.325  1.00  0.00     0.152 A 
HETATM    4  S1  UNL     1     -28.926  16.839  75.427  1.00  0.00    -0.057 SA
HETATM    5  N1  UNL     1     -30.636  15.479  76.754  1.00  0.00    -0.176 N 
ATOM      6  H1  UNL     1     -31.289  16.229  76.526  1.00  0.00     0.185 HD
HETATM    7  C7  UNL     1     -31.036  14.446  77.479  1.00  0.00     0.714 A 
HETATM    8  N2  UNL     1     -32.243  14.340  77.920  1.00  0.00    -0.096 N 
ATOM      9  H2  UNL     1     -32.481  13.516  78.471  1.00  0.00     0.213 HD
HETATM   10  N3  UNL     1     -30.163  13.410  77.805  1.00  0.00    -0.093 N 
ENDROOT
BRANCH  10  11
HETATM   11  C9  UNL     1     -30.692  12.371  78.575  1.00  0.00     0.284 C 
BRANCH  11  12
HETATM   12  O5  UNL     1     -30.527  12.426  79.877  1.00  0.00    -0.326 OA
ATOM     13  H5  UNL     1     -30.860  13.188  80.336  1.00  0.00     0.221 HD
ENDBRANCH  11  12
BRANCH  11  14
HETATM   14  O6  UNL     1     -31.372  11.265  78.234  1.00  0.00    -0.316 OA
BRANCH  14  15
HETATM   15  C10 UNL     1     -32.587  10.848  78.886  1.00  0.00     0.175 C 
HETATM   16  C11 UNL     1     -33.776  11.008  77.974  1.00  0.00     0.034 C 
ENDBRANCH  14  15
ENDBRANCH  11  14
ENDBRANCH  10  11
BRANCH   1  17
HETATM   17  C3  UNL     1     -27.902  12.428  77.668  1.00  0.00     0.314 C 
HETATM   18  O2  UNL     1     -27.299  11.648  76.948  1.00  0.00    -0.257 OA
BRANCH  17  19
HETATM   19  O1  UNL     1     -27.501  12.266  79.034  1.00  0.00    -0.317 OA
BRANCH  19  20
HETATM   20  C2  UNL     1     -27.175  10.972  79.520  1.00  0.00     0.175 C 
HETATM   21  C1  UNL     1     -27.710  10.687  80.882  1.00  0.00     0.034 C 
ENDBRANCH  19  20
ENDBRANCH  17  19
ENDBRANCH   1  17
BRANCH   2  22
HETATM   22  O3  UNL     1     -27.163  14.603  76.170  1.00  0.00    -0.356 OA
ATOM     23  H3  UNL     1     -26.799  15.441  75.911  1.00  0.00     0.218 HD
ENDBRANCH   2  22
BRANCH   8  24
HETATM   24  O4  UNL     1     -33.215  15.255  77.695  1.00  0.00    -0.271 OA
HETATM   25  C8  UNL     1     -34.466  15.060  78.367  1.00  0.00     0.238 C 
ENDBRANCH   8  24
TORSDOF 9
ENDMDL
MODEL 4
REMARK VINA RESULT: -6.092415523      2.405      5.071
REMARK  9 active torsions:
REMARK  status: ('A' for Active; 'I' for Inactive)
REMARK    1  A    between atoms: C2_2  and  O1_3 
REMARK    2  A    between atoms: O1_3  and  C3_4 
REMARK    3  A    between atoms: C3_4  and  C4_6 
REMARK    4  A    between atoms: C5_7  and  O3_8 
REMARK    5  A    between atoms: N2_15  and  O4_17 
REMARK    6  A    between atoms: N3_19  and  C9_20 
REMARK    7  A    between atoms: C9_20  and  O5_21 
REMARK    8  A    between atoms: C9_20  and  O6_23 
REMARK    9  A    between atoms: O6_23  and  C10_24 
ROOT
HETATM    1  C4  UNL     1     -29.643  13.034  77.400  1.00  0.00     0.172 A 
HETATM    2  C5  UNL     1     -28.224  12.958  77.264  1.00  0.00     0.139 A 
HETATM    3  C6  UNL     1     -27.571  11.882  77.771  1.00  0.00     0.152 A 
HETATM    4  S1  UNL     1     -25.935  11.759  77.634  1.00  0.00    -0.057 SA
HETATM    5  N1  UNL     1     -28.219  10.894  78.390  1.00  0.00    -0.176 N 
ATOM      6  H1  UNL     1     -27.703  10.095  78.761  1.00  0.00     0.185 HD
HETATM    7  C7  UNL     1     -29.535  10.955  78.521  1.00  0.00     0.714 A 
HETATM    8  N2  UNL     1     -30.212  10.030  79.110  1.00  0.00    -0.096 N 
ATOM      9  H2  UNL     1     -31.223  10.144  79.175  1.00  0.00     0.213 HD
HETATM   10  N3  UNL     1     -30.262  12.034  78.023  1.00  0.00    -0.093 N 
ENDROOT
BRANCH  10  11
HETATM   11  C9  UNL     1     -31.644  11.995  78.216  1.00  0.00     0.284 C 
BRANCH  11  12
HETATM   12  O5  UNL     1     -32.135  12.594  79.276  1.00  0.00    -0.326 OA
ATOM     13  H5  UNL     1     -32.940  12.254  79.648  1.00  0.00     0.221 HD
ENDBRANCH  11  12
BRANCH  11  14
HETATM   14  O6  UNL     1     -32.630  11.436  77.495  1.00  0.00    -0.316 OA
BRANCH  14  15
HETATM   15  C10 UNL     1     -33.794  10.824  78.083  1.00  0.00     0.175 C 
HETATM   16  C11 UNL     1     -35.059  11.346  77.452  1.00  0.00     0.034 C 
ENDBRANCH  14  15
ENDBRANCH  11  14
ENDBRANCH  10  11
BRANCH   1  17
HETATM   17  C3  UNL     1     -30.286  14.202  76.840  1.00  0.00     0.314 C 
HETATM   18  O2  UNL     1     -30.382  14.620  75.697  1.00  0.00    -0.257 OA
BRANCH  17  19
HETATM   19  O1  UNL     1     -30.960  15.075  77.755  1.00  0.00    -0.317 OA
BRANCH  19  20
HETATM   20  C2  UNL     1     -31.986  15.933  77.279  1.00  0.00     0.175 C 
HETATM   21  C1  UNL     1     -33.353  15.547  77.731  1.00  0.00     0.034 C 
ENDBRANCH  19  20
ENDBRANCH  17  19
ENDBRANCH   1  17
BRANCH   2  22
HETATM   22  O3  UNL     1     -27.562  13.992  76.618  1.00  0.00    -0.356 OA
ATOM     23  H3  UNL     1     -27.924  14.869  76.673  1.00  0.00     0.218 HD
ENDBRANCH   2  22
BRANCH   8  24
HETATM   24  O4  UNL     1     -29.663   8.916  79.649  1.00  0.00    -0.271 OA
HETATM   25  C8  UNL     1     -30.395   7.692  79.509  1.00  0.00     0.238 C 
ENDBRANCH   8  24
TORSDOF 9
ENDMDL
MODEL 5
REMARK VINA RESULT: -6.058133071      2.451      4.806
REMARK  9 active torsions:
REMARK  status: ('A' for Active; 'I' for Inactive)
REMARK    1  A    between atoms: C2_2  and  O1_3 
REMARK    2  A    between atoms: O1_3  and  C3_4 
REMARK    3  A    between atoms: C3_4  and  C4_6 
REMARK    4  A    between atoms: C5_7  and  O3_8 
REMARK    5  A    between atoms: N2_15  and  O4_17 
REMARK    6  A    between atoms: N3_19  and  C9_20 
REMARK    7  A    between atoms: C9_20  and  O5_21 
REMARK    8  A    between atoms: C9_20  and  O6_23 
REMARK    9  A    between atoms: O6_23  and  C10_24 
ROOT
HETATM    1  C4  UNL     1     -28.914  12.620  77.793  1.00  0.00     0.172 A 
HETATM    2  C5  UNL     1     -27.488  12.556  77.820  1.00  0.00     0.139 A 
HETATM    3  C6  UNL     1     -26.884  11.730  78.711  1.00  0.00     0.152 A 
HETATM    4  S1  UNL     1     -25.242  11.630  78.772  1.00  0.00    -0.057 SA
HETATM    5  N1  UNL     1     -27.585  10.978  79.560  1.00  0.00    -0.176 N 
ATOM      6  H1  UNL     1     -27.104  10.365  80.219  1.00  0.00     0.185 HD
HETATM    7  C7  UNL     1     -28.907  11.030  79.542  1.00  0.00     0.714 A 
HETATM    8  N2  UNL     1     -29.635  10.325  80.341  1.00  0.00    -0.096 N 
ATOM      9  H2  UNL     1     -30.648  10.417  80.271  1.00  0.00     0.213 HD
HETATM   10  N3  UNL     1     -29.587  11.858  78.652  1.00  0.00    -0.093 N 
ENDROOT
BRANCH  10  11
HETATM   11  C9  UNL     1     -30.982  11.833  78.720  1.00  0.00     0.284 C 
BRANCH  11  12
HETATM   12  O5  UNL     1     -31.569  12.621  79.592  1.00  0.00    -0.326 OA
ATOM     13  H5  UNL     1     -31.476  13.560  79.476  1.00  0.00     0.221 HD
ENDBRANCH  11  12
BRANCH  11  14
HETATM   14  O6  UNL     1     -31.896  11.127  78.036  1.00  0.00    -0.316 OA
BRANCH  14  15
HETATM   15  C10 UNL     1     -33.157  10.709  78.595  1.00  0.00     0.175 C 
HETATM   16  C11 UNL     1     -34.302  11.082  77.689  1.00  0.00     0.034 C 
ENDBRANCH  14  15
ENDBRANCH  11  14
ENDBRANCH  10  11
BRANCH   1  17
HETATM   17  C3  UNL     1     -29.505  13.514  76.822  1.00  0.00     0.314 C 
HETATM   18  O2  UNL     1     -30.287  13.331  75.903  1.00  0.00    -0.257 OA
BRANCH  17  19
HETATM   19  O1  UNL     1     -29.140  14.897  76.906  1.00  0.00    -0.317 OA
BRANCH  19  20
HETATM   20  C2  UNL     1     -29.818  15.851  76.102  1.00  0.00     0.175 C 
HETATM   21  C1  UNL     1     -28.909  16.748  75.333  1.00  0.00     0.034 C 
ENDBRANCH  19  20
ENDBRANCH  17  19
ENDBRANCH   1  17
BRANCH   2  22
HETATM   22  O3  UNL     1     -26.771  13.344  76.931  1.00  0.00    -0.356 OA
ATOM     23  H3  UNL     1     -26.265  14.071  77.275  1.00  0.00     0.218 HD
ENDBRANCH   2  22
BRANCH   8  24
HETATM   24  O4  UNL     1     -29.137   9.471  81.265  1.00  0.00    -0.271 OA
HETATM   25  C8  UNL     1     -29.870   8.264  81.503  1.00  0.00     0.238 C 
ENDBRANCH   8  24
TORSDOF 9
ENDMDL
