MODEL 1
REMARK VINA RESULT: -7.101316462      0.000      0.000
REMARK  8 active torsions:
REMARK  status: ('A' for Active; 'I' for Inactive)
REMARK    1  A    between atoms: C3_3  and  C4_4 
REMARK    2  A    between atoms: C4_4  and  C5_5 
REMARK    3  A    between atoms: C5_5  and  C6_6 
REMARK    4  A    between atoms: C6_6  and  N1_7 
REMARK    5  A    between atoms: N1_7  and  C7_10 
REMARK    6  A    between atoms: C7_10  and  C8_11 
REMARK    7  A    between atoms: C8_11  and  S1_12 
REMARK    8  A    between atoms: S1_12  and  C9_13 
ROOT
HETATM    1  C1  UNL     1      -9.203  15.553 -13.980  1.00  0.00     0.012 C 
HETATM    2  C2  UNL     1      -8.539  15.450 -14.979  1.00  0.00    -0.117 C 
HETATM    3  C3  UNL     1      -7.716  15.342 -16.174  1.00  0.00     0.093 C 
ENDROOT
BRANCH   3   4
HETATM    4  C4  UNL     1      -8.628  15.220 -17.395  1.00  0.00     0.014 C 
BRANCH   4   5
HETATM    5  C5  UNL     1      -9.271  13.854 -17.293  1.00  0.00     0.028 C 
BRANCH   5   6
HETATM    6  C6  UNL     1     -10.419  13.651 -18.244  1.00  0.00     0.232 C 
BRANCH   6   7
HETATM    7  N1  UNL     1     -10.807  12.257 -18.162  1.00  0.00    -0.074 N 
ATOM      8  H12 UNL     1     -11.574  12.130 -17.502  1.00  0.00     0.277 HD
ATOM      9  H11 UNL     1     -11.273  11.956 -19.018  1.00  0.00     0.277 HD
BRANCH   7  10
HETATM   10  C7  UNL     1      -9.698  11.382 -17.842  1.00  0.00     0.242 C 
BRANCH  10  11
HETATM   11  C8  UNL     1      -9.378  10.416 -18.945  1.00  0.00     0.110 C 
BRANCH  11  12
HETATM   12  S1  UNL     1      -7.591  10.333 -19.218  1.00  0.00    -0.092 SA
BRANCH  12  13
HETATM   13  C9  UNL     1      -6.971  11.990 -19.471  1.00  0.00     0.146 A 
HETATM   14  N2  UNL     1      -7.537  12.802 -20.420  1.00  0.00    -0.336 N 
HETATM   15  C10 UNL     1      -7.115  14.058 -20.624  1.00  0.00     0.048 A 
ATOM     16  H2  UNL     1      -8.302  12.439 -20.989  1.00  0.00     0.168 HD
HETATM   17  C11 UNL     1      -7.640  14.923 -21.560  1.00  0.00     0.032 A 
HETATM   18  C15 UNL     1      -6.072  14.512 -19.831  1.00  0.00     0.036 A 
HETATM   19  C12 UNL     1      -7.161  16.205 -21.722  1.00  0.00     0.026 A 
HETATM   20  C13 UNL     1      -6.122  16.658 -20.932  1.00  0.00     0.035 A 
HETATM   21 CL1  UNL     1      -5.525  18.277 -21.141  1.00  0.00    -0.084 Cl
HETATM   22  C14 UNL     1      -5.584  15.810 -19.991  1.00  0.00     0.041 A 
HETATM   23  C16 UNL     1      -5.509  13.691 -18.881  1.00  0.00     0.113 A 
HETATM   24  N3  UNL     1      -4.547  14.107 -18.145  1.00  0.00    -0.385 N 
HETATM   25  N4  UNL     1      -5.965  12.429 -18.709  1.00  0.00    -0.323 N 
ATOM     26  H32 UNL     1      -4.203  15.059 -18.274  1.00  0.00     0.157 HD
ATOM     27  H31 UNL     1      -4.130  13.498 -17.441  1.00  0.00     0.157 HD
ATOM     28  H4  UNL     1      -5.546  11.820 -18.006  1.00  0.00     0.169 HD
ENDBRANCH  12  13
ENDBRANCH  11  12
ENDBRANCH  10  11
ENDBRANCH   7  10
ENDBRANCH   6   7
ENDBRANCH   5   6
ENDBRANCH   4   5
ENDBRANCH   3   4
TORSDOF 8
ENDMDL
MODEL 2
REMARK VINA RESULT: -7.086812612      1.702      1.972
REMARK  8 active torsions:
REMARK  status: ('A' for Active; 'I' for Inactive)
REMARK    1  A    between atoms: C3_3  and  C4_4 
REMARK    2  A    between atoms: C4_4  and  C5_5 
REMARK    3  A    between atoms: C5_5  and  C6_6 
REMARK    4  A    between atoms: C6_6  and  N1_7 
REMARK    5  A    between atoms: N1_7  and  C7_10 
REMARK    6  A    between atoms: C7_10  and  C8_11 
REMARK    7  A    between atoms: C8_11  and  S1_12 
REMARK    8  A    between atoms: S1_12  and  C9_13 
ROOT
HETATM    1  C1  UNL     1      -9.238  15.711 -13.892  1.00  0.00     0.012 C 
HETATM    2  C2  UNL     1      -8.589  15.526 -14.888  1.00  0.00    -0.117 C 
HETATM    3  C3  UNL     1      -7.782  15.320 -16.082  1.00  0.00     0.093 C 
ENDROOT
BRANCH   3   4
HETATM    4  C4  UNL     1      -8.710  15.178 -17.288  1.00  0.00     0.014 C 
BRANCH   4   5
HETATM    5  C5  UNL     1      -9.591  13.984 -16.992  1.00  0.00     0.028 C 
BRANCH   5   6
HETATM    6  C6  UNL     1     -10.420  13.535 -18.164  1.00  0.00     0.232 C 
BRANCH   6   7
HETATM    7  N1  UNL     1     -10.831  12.169 -17.906  1.00  0.00    -0.074 N 
ATOM      8  H12 UNL     1     -10.072  11.633 -17.484  1.00  0.00     0.277 HD
ATOM      9  H11 UNL     1     -11.506  12.128 -17.143  1.00  0.00     0.277 HD
BRANCH   7  10
HETATM   10  C7  UNL     1     -11.342  11.502 -19.086  1.00  0.00     0.242 C 
BRANCH  10  11
HETATM   11  C8  UNL     1     -10.546  10.287 -19.463  1.00  0.00     0.110 C 
BRANCH  11  12
HETATM   12  S1  UNL     1      -9.307  10.704 -20.715  1.00  0.00    -0.092 SA
BRANCH  12  13
HETATM   13  C9  UNL     1      -8.016  11.671 -19.947  1.00  0.00     0.146 A 
HETATM   14  N2  UNL     1      -7.447  12.723 -20.618  1.00  0.00    -0.336 N 
HETATM   15  C10 UNL     1      -6.493  13.486 -20.067  1.00  0.00     0.048 A 
ATOM     16  H2  UNL     1      -7.760  12.931 -21.567  1.00  0.00     0.168 HD
HETATM   17  C11 UNL     1      -5.882  14.554 -20.688  1.00  0.00     0.032 A 
HETATM   18  C15 UNL     1      -6.096  13.168 -18.776  1.00  0.00     0.036 A 
HETATM   19  C12 UNL     1      -4.904  15.300 -20.066  1.00  0.00     0.026 A 
HETATM   20  C13 UNL     1      -4.508  14.985 -18.781  1.00  0.00     0.035 A 
HETATM   21 CL1  UNL     1      -3.276  15.932 -18.003  1.00  0.00    -0.084 Cl
HETATM   22  C14 UNL     1      -5.106  13.922 -18.143  1.00  0.00     0.041 A 
HETATM   23  C16 UNL     1      -6.671  12.111 -18.109  1.00  0.00     0.113 A 
HETATM   24  N3  UNL     1      -6.309  11.817 -16.917  1.00  0.00    -0.385 N 
HETATM   25  N4  UNL     1      -7.631  11.367 -18.704  1.00  0.00    -0.323 N 
ATOM     26  H32 UNL     1      -5.585  12.378 -16.468  1.00  0.00     0.157 HD
ATOM     27  H31 UNL     1      -6.735  11.033 -16.422  1.00  0.00     0.157 HD
ATOM     28  H4  UNL     1      -8.056  10.582 -18.209  1.00  0.00     0.169 HD
ENDBRANCH  12  13
ENDBRANCH  11  12
ENDBRANCH  10  11
ENDBRANCH   7  10
ENDBRANCH   6   7
ENDBRANCH   5   6
ENDBRANCH   4   5
ENDBRANCH   3   4
TORSDOF 8
ENDMDL
MODEL 3
REMARK VINA RESULT: -7.043898638      2.205      3.068
REMARK  8 active torsions:
REMARK  status: ('A' for Active; 'I' for Inactive)
REMARK    1  A    between atoms: C3_3  and  C4_4 
REMARK    2  A    between atoms: C4_4  and  C5_5 
REMARK    3  A    between atoms: C5_5  and  C6_6 
REMARK    4  A    between atoms: C6_6  and  N1_7 
REMARK    5  A    between atoms: N1_7  and  C7_10 
REMARK    6  A    between atoms: C7_10  and  C8_11 
REMARK    7  A    between atoms: C8_11  and  S1_12 
REMARK    8  A    between atoms: S1_12  and  C9_13 
ROOT
HETATM    1  C1  UNL     1      -8.276  15.196 -15.849  1.00  0.00     0.012 C 
HETATM    2  C2  UNL     1      -9.041  14.532 -16.500  1.00  0.00    -0.117 C 
HETATM    3  C3  UNL     1      -9.988  13.748 -17.279  1.00  0.00     0.093 C 
ENDROOT
BRANCH   3   4
HETATM    4  C4  UNL     1      -9.515  12.295 -17.314  1.00  0.00     0.014 C 
BRANCH   4   5
HETATM    5  C5  UNL     1     -10.458  11.578 -18.257  1.00  0.00     0.028 C 
BRANCH   5   6
HETATM    6  C6  UNL     1     -10.124  10.126 -18.461  1.00  0.00     0.232 C 
BRANCH   6   7
HETATM    7  N1  UNL     1     -11.116   9.578 -19.365  1.00  0.00    -0.074 N 
ATOM      8  H12 UNL     1     -10.797   8.695 -19.766  1.00  0.00     0.277 HD
ATOM      9  H11 UNL     1     -11.932   9.241 -18.853  1.00  0.00     0.277 HD
BRANCH   7  10
HETATM   10  C7  UNL     1     -11.505  10.508 -20.404  1.00  0.00     0.242 C 
BRANCH  10  11
HETATM   11  C8  UNL     1     -11.487   9.896 -21.775  1.00  0.00     0.110 C 
BRANCH  11  12
HETATM   12  S1  UNL     1     -10.216  10.674 -22.801  1.00  0.00    -0.092 SA
BRANCH  12  13
HETATM   13  C9  UNL     1      -8.993  11.420 -21.733  1.00  0.00     0.146 A 
HETATM   14  N2  UNL     1      -9.036  12.764 -21.466  1.00  0.00    -0.336 N 
HETATM   15  C10 UNL     1      -8.151  13.356 -20.652  1.00  0.00     0.048 A 
ATOM     16  H2  UNL     1      -9.765  13.331 -21.899  1.00  0.00     0.168 HD
HETATM   17  C11 UNL     1      -8.139  14.699 -20.343  1.00  0.00     0.032 A 
HETATM   18  C15 UNL     1      -7.176  12.549 -20.083  1.00  0.00     0.036 A 
HETATM   19  C12 UNL     1      -7.200  15.248 -19.498  1.00  0.00     0.026 A 
HETATM   20  C13 UNL     1      -6.228  14.446 -18.931  1.00  0.00     0.035 A 
HETATM   21 CL1  UNL     1      -5.048  15.146 -17.865  1.00  0.00    -0.084 Cl
HETATM   22  C14 UNL     1      -6.222  13.101 -19.226  1.00  0.00     0.041 A 
HETATM   23  C16 UNL     1      -7.139  11.201 -20.357  1.00  0.00     0.113 A 
HETATM   24  N3  UNL     1      -6.242  10.453 -19.832  1.00  0.00    -0.385 N 
HETATM   25  N4  UNL     1      -8.051  10.645 -21.186  1.00  0.00    -0.323 N 
ATOM     26  H32 UNL     1      -5.553  10.872 -19.207  1.00  0.00     0.157 HD
ATOM     27  H31 UNL     1      -6.214   9.453 -20.035  1.00  0.00     0.157 HD
ATOM     28  H4  UNL     1      -8.022   9.646 -21.390  1.00  0.00     0.169 HD
ENDBRANCH  12  13
ENDBRANCH  11  12
ENDBRANCH  10  11
ENDBRANCH   7  10
ENDBRANCH   6   7
ENDBRANCH   5   6
ENDBRANCH   4   5
ENDBRANCH   3   4
TORSDOF 8
ENDMDL
MODEL 4
REMARK VINA RESULT: -6.961871382      2.649      4.612
REMARK  8 active torsions:
REMARK  status: ('A' for Active; 'I' for Inactive)
REMARK    1  A    between atoms: C3_3  and  C4_4 
REMARK    2  A    between atoms: C4_4  and  C5_5 
REMARK    3  A    between atoms: C5_5  and  C6_6 
REMARK    4  A    between atoms: C6_6  and  N1_7 
REMARK    5  A    between atoms: N1_7  and  C7_10 
REMARK    6  A    between atoms: C7_10  and  C8_11 
REMARK    7  A    between atoms: C8_11  and  S1_12 
REMARK    8  A    between atoms: S1_12  and  C9_13 
ROOT
HETATM    1  C1  UNL     1     -10.360  14.306 -19.366  1.00  0.00     0.012 C 
HETATM    2  C2  UNL     1     -10.542  13.226 -18.867  1.00  0.00    -0.117 C 
HETATM    3  C3  UNL     1     -10.736  11.923 -18.249  1.00  0.00     0.093 C 
ENDROOT
BRANCH   3   4
HETATM    4  C4  UNL     1     -11.488  11.018 -19.225  1.00  0.00     0.014 C 
BRANCH   4   5
HETATM    5  C5  UNL     1     -10.424  10.307 -20.032  1.00  0.00     0.028 C 
BRANCH   5   6
HETATM    6  C6  UNL     1     -10.700  10.278 -21.510  1.00  0.00     0.232 C 
BRANCH   6   7
HETATM    7  N1  UNL     1      -9.426  10.409 -22.190  1.00  0.00    -0.074 N 
ATOM      8  H12 UNL     1      -8.995   9.496 -22.335  1.00  0.00     0.277 HD
ATOM      9  H11 UNL     1      -9.558  10.686 -23.162  1.00  0.00     0.277 HD
BRANCH   7  10
HETATM   10  C7  UNL     1      -8.517  11.310 -21.513  1.00  0.00     0.242 C 
BRANCH  10  11
HETATM   11  C8  UNL     1      -7.074  10.960 -21.734  1.00  0.00     0.110 C 
BRANCH  11  12
HETATM   12  S1  UNL     1      -6.236  10.694 -20.152  1.00  0.00    -0.092 SA
BRANCH  12  13
HETATM   13  C9  UNL     1      -6.692  12.010 -19.032  1.00  0.00     0.146 A 
HETATM   14  N2  UNL     1      -7.238  11.718 -17.808  1.00  0.00    -0.336 N 
HETATM   15  C10 UNL     1      -7.571  12.676 -16.932  1.00  0.00     0.048 A 
ATOM     16  H2  UNL     1      -7.396  10.742 -17.557  1.00  0.00     0.168 HD
HETATM   17  C11 UNL     1      -8.123  12.449 -15.690  1.00  0.00     0.032 A 
HETATM   18  C15 UNL     1      -7.341  13.990 -17.312  1.00  0.00     0.036 A 
HETATM   19  C12 UNL     1      -8.445  13.480 -14.833  1.00  0.00     0.026 A 
HETATM   20  C13 UNL     1      -8.216  14.789 -15.210  1.00  0.00     0.035 A 
HETATM   21 CL1  UNL     1      -8.623  16.082 -14.124  1.00  0.00    -0.084 Cl
HETATM   22  C14 UNL     1      -7.665  15.036 -16.448  1.00  0.00     0.041 A 
HETATM   23  C16 UNL     1      -6.793  14.274 -18.542  1.00  0.00     0.113 A 
HETATM   24  N3  UNL     1      -6.576  15.486 -18.896  1.00  0.00    -0.385 N 
HETATM   25  N4  UNL     1      -6.472  13.276 -19.397  1.00  0.00    -0.323 N 
ATOM     26  H32 UNL     1      -6.818  16.239 -18.252  1.00  0.00     0.157 HD
ATOM     27  H31 UNL     1      -6.170  15.697 -19.808  1.00  0.00     0.157 HD
ATOM     28  H4  UNL     1      -6.068  13.488 -20.309  1.00  0.00     0.169 HD
ENDBRANCH  12  13
ENDBRANCH  11  12
ENDBRANCH  10  11
ENDBRANCH   7  10
ENDBRANCH   6   7
ENDBRANCH   5   6
ENDBRANCH   4   5
ENDBRANCH   3   4
TORSDOF 8
ENDMDL
MODEL 5
REMARK VINA RESULT: -6.925529772      0.818      1.997
REMARK  8 active torsions:
REMARK  status: ('A' for Active; 'I' for Inactive)
REMARK    1  A    between atoms: C3_3  and  C4_4 
REMARK    2  A    between atoms: C4_4  and  C5_5 
REMARK    3  A    between atoms: C5_5  and  C6_6 
REMARK    4  A    between atoms: C6_6  and  N1_7 
REMARK    5  A    between atoms: N1_7  and  C7_10 
REMARK    6  A    between atoms: C7_10  and  C8_11 
REMARK    7  A    between atoms: C8_11  and  S1_12 
REMARK    8  A    between atoms: S1_12  and  C9_13 
ROOT
HETATM    1  C1  UNL     1      -9.230  15.538 -14.114  1.00  0.00     0.012 C 
HETATM    2  C2  UNL     1      -8.529  15.426 -15.086  1.00  0.00    -0.117 C 
HETATM    3  C3  UNL     1      -7.660  15.308 -16.247  1.00  0.00     0.093 C 
ENDROOT
BRANCH   3   4
HETATM    4  C4  UNL     1      -8.524  15.162 -17.499  1.00  0.00     0.014 C 
BRANCH   4   5
HETATM    5  C5  UNL     1      -9.273  13.857 -17.333  1.00  0.00     0.028 C 
BRANCH   5   6
HETATM    6  C6  UNL     1     -10.407  13.679 -18.304  1.00  0.00     0.232 C 
BRANCH   6   7
HETATM    7  N1  UNL     1     -10.848  12.301 -18.207  1.00  0.00    -0.074 N 
ATOM      8  H12 UNL     1     -11.668  12.222 -17.606  1.00  0.00     0.277 HD
ATOM      9  H11 UNL     1     -11.256  11.985 -19.087  1.00  0.00     0.277 HD
BRANCH   7  10
HETATM   10  C7  UNL     1      -9.797  11.404 -17.771  1.00  0.00     0.242 C 
BRANCH  10  11
HETATM   11  C8  UNL     1      -9.461  10.357 -18.792  1.00  0.00     0.110 C 
BRANCH  11  12
HETATM   12  S1  UNL     1      -7.680  10.326 -19.107  1.00  0.00    -0.092 SA
BRANCH  12  13
HETATM   13  C9  UNL     1      -7.158  11.957 -19.617  1.00  0.00     0.146 A 
HETATM   14  N2  UNL     1      -6.083  12.559 -19.015  1.00  0.00    -0.336 N 
HETATM   15  C10 UNL     1      -5.647  13.772 -19.385  1.00  0.00     0.048 A 
ATOM     16  H2  UNL     1      -5.600  12.069 -18.262  1.00  0.00     0.168 HD
HETATM   17  C11 UNL     1      -4.576  14.430 -18.821  1.00  0.00     0.032 A 
HETATM   18  C15 UNL     1      -6.333  14.404 -20.413  1.00  0.00     0.036 A 
HETATM   19  C12 UNL     1      -4.178  15.679 -19.247  1.00  0.00     0.026 A 
HETATM   20  C13 UNL     1      -4.859  16.309 -20.270  1.00  0.00     0.035 A 
HETATM   21 CL1  UNL     1      -4.349  17.883 -20.803  1.00  0.00    -0.084 Cl
HETATM   22  C14 UNL     1      -5.932  15.668 -20.847  1.00  0.00     0.041 A 
HETATM   23  C16 UNL     1      -7.411  13.793 -21.012  1.00  0.00     0.113 A 
HETATM   24  N3  UNL     1      -8.044  14.373 -21.962  1.00  0.00    -0.385 N 
HETATM   25  N4  UNL     1      -7.817  12.569 -20.606  1.00  0.00    -0.323 N 
ATOM     26  H32 UNL     1      -7.738  15.296 -22.269  1.00  0.00     0.157 HD
ATOM     27  H31 UNL     1      -8.843  13.920 -22.406  1.00  0.00     0.157 HD
ATOM     28  H4  UNL     1      -8.618  12.118 -21.049  1.00  0.00     0.169 HD
ENDBRANCH  12  13
ENDBRANCH  11  12
ENDBRANCH  10  11
ENDBRANCH   7  10
ENDBRANCH   6   7
ENDBRANCH   5   6
ENDBRANCH   4   5
ENDBRANCH   3   4
TORSDOF 8
ENDMDL
