MODEL 1
REMARK VINA RESULT: -6.906612203      0.000      0.000
REMARK  11 active torsions:
REMARK  status: ('A' for Active; 'I' for Inactive)
REMARK    1  A    between atoms: N1_1  and  C1_5 
REMARK    2  A    between atoms: C1_5  and  C2_6 
REMARK    3  A    between atoms: C2_6  and  C3_7 
REMARK    4  A    between atoms: C3_7  and  C4_8 
REMARK    5  A    between atoms: C4_8  and  C5_9 
REMARK    6  A    between atoms: C5_9  and  C6_10 
REMARK    7  A    between atoms: C6_10  and  N2_11 
REMARK    8  A    between atoms: N2_11  and  C7_13 
REMARK    9  A    between atoms: N3_16  and  C10_17 
REMARK   10  A    between atoms: C10_17  and  C11_18 
REMARK   11  A    between atoms: C17_25  and  O1_26 
ROOT
HETATM    1  C7  UNL     1      -8.807  12.768 -21.435  1.00  0.00     0.033 A 
HETATM    2  C8  UNL     1      -9.017  13.980 -20.822  1.00  0.00     0.046 A 
HETATM    3  C9  UNL     1      -8.285  14.354 -19.728  1.00  0.00     0.096 A 
HETATM    4  N3  UNL     1      -7.348  13.544 -19.233  1.00  0.00    -0.334 N 
HETATM    5  C17 UNL     1      -7.114  12.356 -19.801  1.00  0.00     0.144 A 
HETATM    6  C18 UNL     1      -7.843  11.938 -20.923  1.00  0.00     0.085 A 
ENDROOT
BRANCH   1   7
HETATM    7  N2  UNL     1      -9.484  12.410 -22.456  1.00  0.00    -0.390 N 
ATOM      8  H2  UNL     1      -9.560  13.063 -23.234  1.00  0.00     0.159 HD
BRANCH   7   9
HETATM    9  C6  UNL     1     -10.148  11.136 -22.574  1.00  0.00     0.119 C 
BRANCH   9  10
HETATM   10  C5  UNL     1     -11.410  11.074 -21.745  1.00  0.00     0.020 C 
BRANCH  10  11
HETATM   11  C4  UNL     1     -11.444   9.803 -20.960  1.00  0.00     0.002 C 
BRANCH  11  12
HETATM   12  C3  UNL     1     -10.698  10.049 -19.658  1.00  0.00     0.002 C 
BRANCH  12  13
HETATM   13  C2  UNL     1     -11.287  11.326 -19.057  1.00  0.00     0.027 C 
BRANCH  13  14
HETATM   14  C1  UNL     1     -10.344  11.773 -17.944  1.00  0.00     0.229 C 
BRANCH  14  15
HETATM   15  N1  UNL     1     -10.726  13.079 -17.453  1.00  0.00    -0.079 N 
ATOM     16  H13 UNL     1     -10.186  13.823 -17.896  1.00  0.00     0.274 HD
ATOM     17  H12 UNL     1     -11.653  13.351 -17.778  1.00  0.00     0.274 HD
ATOM     18  H11 UNL     1     -10.656  13.112 -16.436  1.00  0.00     0.274 HD
ENDBRANCH  14  15
ENDBRANCH  13  14
ENDBRANCH  12  13
ENDBRANCH  11  12
ENDBRANCH  10  11
ENDBRANCH   9  10
ENDBRANCH   7   9
ENDBRANCH   1   7
BRANCH   5  19
HETATM   19  O1  UNL     1      -6.161  11.450 -19.353  1.00  0.00    -0.346 OA
ATOM     20  H1  UNL     1      -5.224  11.567 -19.451  1.00  0.00     0.219 HD
ENDBRANCH   5  19
BRANCH   4  21
HETATM   21  C10 UNL     1      -6.579  13.953 -18.084  1.00  0.00     0.169 C 
BRANCH  21  22
HETATM   22  C11 UNL     1      -7.260  13.827 -16.797  1.00  0.00    -0.038 A 
HETATM   23  C12 UNL     1      -7.394  12.574 -16.204  1.00  0.00     0.009 A 
HETATM   24  C13 UNL     1      -8.024  12.416 -14.991  1.00  0.00     0.002 A 
HETATM   25  C14 UNL     1      -8.545  13.530 -14.329  1.00  0.00     0.024 A 
HETATM   26  C15 UNL     1      -8.412  14.785 -14.920  1.00  0.00     0.034 A 
HETATM   27 CL1  UNL     1      -9.054  16.204 -14.117  1.00  0.00    -0.084 Cl
HETATM   28  C16 UNL     1      -7.770  14.928 -16.151  1.00  0.00     0.032 A 
ENDBRANCH  21  22
ENDBRANCH   4  21
TORSDOF 11
ENDMDL
MODEL 2
REMARK VINA RESULT: -6.610040303      1.089      1.445
REMARK  11 active torsions:
REMARK  status: ('A' for Active; 'I' for Inactive)
REMARK    1  A    between atoms: N1_1  and  C1_5 
REMARK    2  A    between atoms: C1_5  and  C2_6 
REMARK    3  A    between atoms: C2_6  and  C3_7 
REMARK    4  A    between atoms: C3_7  and  C4_8 
REMARK    5  A    between atoms: C4_8  and  C5_9 
REMARK    6  A    between atoms: C5_9  and  C6_10 
REMARK    7  A    between atoms: C6_10  and  N2_11 
REMARK    8  A    between atoms: N2_11  and  C7_13 
REMARK    9  A    between atoms: N3_16  and  C10_17 
REMARK   10  A    between atoms: C10_17  and  C11_18 
REMARK   11  A    between atoms: C17_25  and  O1_26 
ROOT
HETATM    1  C7  UNL     1      -8.469  12.556 -21.479  1.00  0.00     0.033 A 
HETATM    2  C8  UNL     1      -7.300  12.103 -20.917  1.00  0.00     0.046 A 
HETATM    3  C9  UNL     1      -6.748  12.730 -19.833  1.00  0.00     0.096 A 
HETATM    4  N3  UNL     1      -7.339  13.800 -19.298  1.00  0.00    -0.334 N 
HETATM    5  C17 UNL     1      -8.478  14.271 -19.816  1.00  0.00     0.144 A 
HETATM    6  C18 UNL     1      -9.073  13.656 -20.927  1.00  0.00     0.085 A 
ENDROOT
BRANCH   1   7
HETATM    7  N2  UNL     1      -8.992  11.979 -22.490  1.00  0.00    -0.390 N 
ATOM      8  H2  UNL     1      -8.928  12.445 -23.394  1.00  0.00     0.159 HD
BRANCH   7   9
HETATM    9  C6  UNL     1      -9.668  10.707 -22.431  1.00  0.00     0.119 C 
BRANCH   9  10
HETATM   10  C5  UNL     1     -11.115  10.851 -22.024  1.00  0.00     0.020 C 
BRANCH  10  11
HETATM   11  C4  UNL     1     -11.455   9.841 -20.976  1.00  0.00     0.002 C 
BRANCH  11  12
HETATM   12  C3  UNL     1     -10.613  10.154 -19.749  1.00  0.00     0.002 C 
BRANCH  12  13
HETATM   13  C2  UNL     1     -11.313  11.306 -19.027  1.00  0.00     0.027 C 
BRANCH  13  14
HETATM   14  C1  UNL     1     -10.357  11.805 -17.948  1.00  0.00     0.229 C 
BRANCH  14  15
HETATM   15  N1  UNL     1     -10.747  13.123 -17.497  1.00  0.00    -0.079 N 
ATOM     16  H13 UNL     1     -11.760  13.244 -17.511  1.00  0.00     0.274 HD
ATOM     17  H12 UNL     1     -10.593  13.243 -16.497  1.00  0.00     0.274 HD
ATOM     18  H11 UNL     1     -10.272  13.841 -18.043  1.00  0.00     0.274 HD
ENDBRANCH  14  15
ENDBRANCH  13  14
ENDBRANCH  12  13
ENDBRANCH  11  12
ENDBRANCH  10  11
ENDBRANCH   9  10
ENDBRANCH   7   9
ENDBRANCH   1   7
BRANCH   5  19
HETATM   19  O1  UNL     1      -9.160  15.378 -19.327  1.00  0.00    -0.346 OA
ATOM     20  H1  UNL     1      -9.491  15.452 -18.439  1.00  0.00     0.219 HD
ENDBRANCH   5  19
BRANCH   4  21
HETATM   21  C10 UNL     1      -6.750  14.447 -18.152  1.00  0.00     0.169 C 
BRANCH  21  22
HETATM   22  C11 UNL     1      -7.355  14.114 -16.865  1.00  0.00    -0.038 A 
HETATM   23  C12 UNL     1      -7.361  12.794 -16.423  1.00  0.00     0.009 A 
HETATM   24  C13 UNL     1      -7.916  12.442 -15.213  1.00  0.00     0.002 A 
HETATM   25  C14 UNL     1      -8.490  13.423 -14.402  1.00  0.00     0.024 A 
HETATM   26  C15 UNL     1      -8.486  14.745 -14.842  1.00  0.00     0.034 A 
HETATM   27 CL1  UNL     1      -9.198  16.001 -13.849  1.00  0.00    -0.084 Cl
HETATM   28  C16 UNL     1      -7.918  15.085 -16.071  1.00  0.00     0.032 A 
ENDBRANCH  21  22
ENDBRANCH   4  21
TORSDOF 11
ENDMDL
MODEL 3
REMARK VINA RESULT: -6.403383553      3.890      5.375
REMARK  11 active torsions:
REMARK  status: ('A' for Active; 'I' for Inactive)
REMARK    1  A    between atoms: N1_1  and  C1_5 
REMARK    2  A    between atoms: C1_5  and  C2_6 
REMARK    3  A    between atoms: C2_6  and  C3_7 
REMARK    4  A    between atoms: C3_7  and  C4_8 
REMARK    5  A    between atoms: C4_8  and  C5_9 
REMARK    6  A    between atoms: C5_9  and  C6_10 
REMARK    7  A    between atoms: C6_10  and  N2_11 
REMARK    8  A    between atoms: N2_11  and  C7_13 
REMARK    9  A    between atoms: N3_16  and  C10_17 
REMARK   10  A    between atoms: C10_17  and  C11_18 
REMARK   11  A    between atoms: C17_25  and  O1_26 
ROOT
HETATM    1  C7  UNL     1      -7.372  16.371 -21.722  1.00  0.00     0.033 A 
HETATM    2  C8  UNL     1      -8.065  15.533 -20.882  1.00  0.00     0.046 A 
HETATM    3  C9  UNL     1      -7.499  15.066 -19.727  1.00  0.00     0.096 A 
HETATM    4  N3  UNL     1      -6.256  15.417 -19.393  1.00  0.00    -0.334 N 
HETATM    5  C17 UNL     1      -5.549  16.230 -20.185  1.00  0.00     0.144 A 
HETATM    6  C18 UNL     1      -6.095  16.729 -21.376  1.00  0.00     0.085 A 
ENDROOT
BRANCH   1   7
HETATM    7  N2  UNL     1      -7.891  16.812 -22.802  1.00  0.00    -0.390 N 
ATOM      8  H2  UNL     1      -8.903  16.753 -22.907  1.00  0.00     0.159 HD
BRANCH   7   9
HETATM    9  C6  UNL     1      -7.131  17.390 -23.882  1.00  0.00     0.119 C 
BRANCH   9  10
HETATM   10  C5  UNL     1      -7.939  18.390 -24.675  1.00  0.00     0.020 C 
BRANCH  10  11
HETATM   11  C4  UNL     1      -8.649  19.322 -23.748  1.00  0.00     0.002 C 
BRANCH  11  12
HETATM   12  C3  UNL     1     -10.103  19.388 -24.191  1.00  0.00     0.002 C 
BRANCH  12  13
HETATM   13  C2  UNL     1     -10.913  19.774 -22.952  1.00  0.00     0.027 C 
BRANCH  13  14
HETATM   14  C1  UNL     1     -10.114  19.320 -21.735  1.00  0.00     0.229 C 
BRANCH  14  15
HETATM   15  N1  UNL     1     -10.770  18.205 -21.087  1.00  0.00    -0.079 N 
ATOM     16  H13 UNL     1     -11.207  18.481 -20.208  1.00  0.00     0.274 HD
ATOM     17  H12 UNL     1     -11.609  17.915 -21.589  1.00  0.00     0.274 HD
ATOM     18  H11 UNL     1     -10.118  17.432 -20.961  1.00  0.00     0.274 HD
ENDBRANCH  14  15
ENDBRANCH  13  14
ENDBRANCH  12  13
ENDBRANCH  11  12
ENDBRANCH  10  11
ENDBRANCH   9  10
ENDBRANCH   7   9
ENDBRANCH   1   7
BRANCH   5  19
HETATM   19  O1  UNL     1      -4.251  16.646 -19.918  1.00  0.00    -0.346 OA
ATOM     20  H1  UNL     1      -3.473  16.223 -20.262  1.00  0.00     0.219 HD
ENDBRANCH   5  19
BRANCH   4  21
HETATM   21  C10 UNL     1      -5.675  14.922 -18.170  1.00  0.00     0.169 C 
BRANCH  21  22
HETATM   22  C11 UNL     1      -6.624  14.389 -17.196  1.00  0.00    -0.038 A 
HETATM   23  C12 UNL     1      -6.838  13.015 -17.118  1.00  0.00     0.009 A 
HETATM   24  C13 UNL     1      -7.719  12.474 -16.210  1.00  0.00     0.002 A 
HETATM   25  C14 UNL     1      -8.421  13.312 -15.340  1.00  0.00     0.024 A 
HETATM   26  C15 UNL     1      -8.208  14.687 -15.416  1.00  0.00     0.034 A 
HETATM   27 CL1  UNL     1      -9.073  15.767 -14.341  1.00  0.00    -0.084 Cl
HETATM   28  C16 UNL     1      -7.311  15.219 -16.343  1.00  0.00     0.032 A 
ENDBRANCH  21  22
ENDBRANCH   4  21
TORSDOF 11
ENDMDL
MODEL 4
REMARK VINA RESULT: -6.327171196      3.855      5.707
REMARK  11 active torsions:
REMARK  status: ('A' for Active; 'I' for Inactive)
REMARK    1  A    between atoms: N1_1  and  C1_5 
REMARK    2  A    between atoms: C1_5  and  C2_6 
REMARK    3  A    between atoms: C2_6  and  C3_7 
REMARK    4  A    between atoms: C3_7  and  C4_8 
REMARK    5  A    between atoms: C4_8  and  C5_9 
REMARK    6  A    between atoms: C5_9  and  C6_10 
REMARK    7  A    between atoms: C6_10  and  N2_11 
REMARK    8  A    between atoms: N2_11  and  C7_13 
REMARK    9  A    between atoms: N3_16  and  C10_17 
REMARK   10  A    between atoms: C10_17  and  C11_18 
REMARK   11  A    between atoms: C17_25  and  O1_26 
ROOT
HETATM    1  C7  UNL     1      -8.007  16.713 -21.078  1.00  0.00     0.033 A 
HETATM    2  C8  UNL     1      -8.748  15.839 -20.319  1.00  0.00     0.046 A 
HETATM    3  C9  UNL     1      -8.154  15.047 -19.373  1.00  0.00     0.096 A 
HETATM    4  N3  UNL     1      -6.838  15.110 -19.169  1.00  0.00    -0.334 N 
HETATM    5  C17 UNL     1      -6.082  15.948 -19.887  1.00  0.00     0.144 A 
HETATM    6  C18 UNL     1      -6.654  16.774 -20.865  1.00  0.00     0.085 A 
ENDROOT
BRANCH   1   7
HETATM    7  N2  UNL     1      -8.550  17.456 -21.963  1.00  0.00    -0.390 N 
ATOM      8  H2  UNL     1      -8.262  17.333 -22.933  1.00  0.00     0.159 HD
BRANCH   7   9
HETATM    9  C6  UNL     1      -9.545  18.457 -21.673  1.00  0.00     0.119 C 
BRANCH   9  10
HETATM   10  C5  UNL     1      -9.480  19.619 -22.636  1.00  0.00     0.020 C 
BRANCH  10  11
HETATM   11  C4  UNL     1     -10.776  19.752 -23.367  1.00  0.00     0.002 C 
BRANCH  11  12
HETATM   12  C3  UNL     1     -10.526  19.368 -24.817  1.00  0.00     0.002 C 
BRANCH  12  13
HETATM   13  C2  UNL     1      -9.009  19.367 -25.007  1.00  0.00     0.027 C 
BRANCH  13  14
HETATM   14  C1  UNL     1      -8.635  18.018 -25.613  1.00  0.00     0.229 C 
BRANCH  14  15
HETATM   15  N1  UNL     1      -9.644  17.029 -25.305  1.00  0.00    -0.079 N 
ATOM     16  H13 UNL     1     -10.582  17.362 -25.527  1.00  0.00     0.274 HD
ATOM     17  H12 UNL     1      -9.608  16.237 -25.947  1.00  0.00     0.274 HD
ATOM     18  H11 UNL     1      -9.566  16.732 -24.332  1.00  0.00     0.274 HD
ENDBRANCH  14  15
ENDBRANCH  13  14
ENDBRANCH  12  13
ENDBRANCH  11  12
ENDBRANCH  10  11
ENDBRANCH   9  10
ENDBRANCH   7   9
ENDBRANCH   1   7
BRANCH   5  19
HETATM   19  O1  UNL     1      -4.707  16.079 -19.744  1.00  0.00    -0.346 OA
ATOM     20  H1  UNL     1      -4.208  16.833 -20.036  1.00  0.00     0.219 HD
ENDBRANCH   5  19
BRANCH   4  21
HETATM   21  C10 UNL     1      -6.227  14.275 -18.165  1.00  0.00     0.169 C 
BRANCH  21  22
HETATM   22  C11 UNL     1      -7.045  14.016 -16.983  1.00  0.00    -0.038 A 
HETATM   23  C12 UNL     1      -7.334  12.704 -16.615  1.00  0.00     0.009 A 
HETATM   24  C13 UNL     1      -8.097  12.419 -15.505  1.00  0.00     0.002 A 
HETATM   25  C14 UNL     1      -8.599  13.460 -14.722  1.00  0.00     0.024 A 
HETATM   26  C15 UNL     1      -8.311  14.773 -15.088  1.00  0.00     0.034 A 
HETATM   27 CL1  UNL     1      -8.926  16.104 -14.128  1.00  0.00    -0.084 Cl
HETATM   28  C16 UNL     1      -7.536  15.045 -16.216  1.00  0.00     0.032 A 
ENDBRANCH  21  22
ENDBRANCH   4  21
TORSDOF 11
ENDMDL
MODEL 5
REMARK VINA RESULT: -6.270830800      3.639      5.438
REMARK  11 active torsions:
REMARK  status: ('A' for Active; 'I' for Inactive)
REMARK    1  A    between atoms: N1_1  and  C1_5 
REMARK    2  A    between atoms: C1_5  and  C2_6 
REMARK    3  A    between atoms: C2_6  and  C3_7 
REMARK    4  A    between atoms: C3_7  and  C4_8 
REMARK    5  A    between atoms: C4_8  and  C5_9 
REMARK    6  A    between atoms: C5_9  and  C6_10 
REMARK    7  A    between atoms: C6_10  and  N2_11 
REMARK    8  A    between atoms: N2_11  and  C7_13 
REMARK    9  A    between atoms: N3_16  and  C10_17 
REMARK   10  A    between atoms: C10_17  and  C11_18 
REMARK   11  A    between atoms: C17_25  and  O1_26 
ROOT
HETATM    1  C7  UNL     1      -6.711  16.058 -20.651  1.00  0.00     0.033 A 
HETATM    2  C8  UNL     1      -6.224  15.039 -19.867  1.00  0.00     0.046 A 
HETATM    3  C9  UNL     1      -7.065  14.263 -19.116  1.00  0.00     0.096 A 
HETATM    4  N3  UNL     1      -8.381  14.483 -19.130  1.00  0.00    -0.334 N 
HETATM    5  C17 UNL     1      -8.893  15.465 -19.878  1.00  0.00     0.144 A 
HETATM    6  C18 UNL     1      -8.064  16.281 -20.662  1.00  0.00     0.085 A 
ENDROOT
BRANCH   1   7
HETATM    7  N2  UNL     1      -5.936  16.788 -21.355  1.00  0.00    -0.390 N 
ATOM      8  H2  UNL     1      -5.039  16.396 -21.643  1.00  0.00     0.159 HD
BRANCH   7   9
HETATM    9  C6  UNL     1      -6.252  18.132 -21.769  1.00  0.00     0.119 C 
BRANCH   9  10
HETATM   10  C5  UNL     1      -6.464  18.232 -23.261  1.00  0.00     0.020 C 
BRANCH  10  11
HETATM   11  C4  UNL     1      -7.569  19.193 -23.557  1.00  0.00     0.002 C 
BRANCH  11  12
HETATM   12  C3  UNL     1      -8.848  18.385 -23.717  1.00  0.00     0.002 C 
BRANCH  12  13
HETATM   13  C2  UNL     1      -9.984  19.272 -23.207  1.00  0.00     0.027 C 
BRANCH  13  14
HETATM   14  C1  UNL     1      -9.923  19.246 -21.682  1.00  0.00     0.229 C 
BRANCH  14  15
HETATM   15  N1  UNL     1     -10.979  18.416 -21.148  1.00  0.00    -0.079 N 
ATOM     16  H13 UNL     1     -11.610  18.087 -21.880  1.00  0.00     0.274 HD
ATOM     17  H12 UNL     1     -10.629  17.511 -20.833  1.00  0.00     0.274 HD
ATOM     18  H11 UNL     1     -11.480  18.907 -20.408  1.00  0.00     0.274 HD
ENDBRANCH  14  15
ENDBRANCH  13  14
ENDBRANCH  12  13
ENDBRANCH  11  12
ENDBRANCH  10  11
ENDBRANCH   9  10
ENDBRANCH   7   9
ENDBRANCH   1   7
BRANCH   5  19
HETATM   19  O1  UNL     1     -10.247  15.767 -19.953  1.00  0.00    -0.346 OA
ATOM     20  H1  UNL     1     -10.738  16.193 -19.261  1.00  0.00     0.219 HD
ENDBRANCH   5  19
BRANCH   4  21
HETATM   21  C10 UNL     1      -9.255  13.654 -18.338  1.00  0.00     0.169 C 
BRANCH  21  22
HETATM   22  C11 UNL     1      -8.973  13.636 -16.905  1.00  0.00    -0.038 A 
HETATM   23  C12 UNL     1      -8.533  12.460 -16.301  1.00  0.00     0.009 A 
HETATM   24  C13 UNL     1      -8.251  12.405 -14.955  1.00  0.00     0.002 A 
HETATM   25  C14 UNL     1      -8.406  13.547 -14.166  1.00  0.00     0.024 A 
HETATM   26  C15 UNL     1      -8.847  14.723 -14.768  1.00  0.00     0.034 A 
HETATM   27 CL1  UNL     1      -9.053  16.174 -13.807  1.00  0.00    -0.084 Cl
HETATM   28  C16 UNL     1      -9.128  14.763 -16.134  1.00  0.00     0.032 A 
ENDBRANCH  21  22
ENDBRANCH   4  21
TORSDOF 11
ENDMDL
