MODEL 1
REMARK VINA RESULT: -10.029631607      0.000      0.000
REMARK  11 active torsions:
REMARK  status: ('A' for Active; 'I' for Inactive)
REMARK    1  A    between atoms: C2_2  and  N1_4 
REMARK       I    between atoms: N1_4  and  C4_6 
REMARK       I    between atoms: C4_6  and  N2_8 
REMARK       I    between atoms: N3_11  and  C7_12 
REMARK    2  A    between atoms: C7_12  and  C8_14 
REMARK    3  A    between atoms: C8_14  and  N4_15 
REMARK    4  A    between atoms: C8_14  and  C29_42 
REMARK    5  A    between atoms: N4_15  and  C9_17 
REMARK    6  A    between atoms: C9_17  and  O3_18 
REMARK    7  A    between atoms: C9_17  and  C10_20 
REMARK    8  A    between atoms: C10_20  and  C11_21 
REMARK    9  A    between atoms: C10_20  and  N5_28 
REMARK   10  A    between atoms: C11_21  and  C12_22 
REMARK       I    between atoms: N5_28  and  C18_30 
REMARK   11  A    between atoms: C18_30  and  C19_32 
REMARK       I    between atoms: C29_42  and  N6_44 
ROOT
HETATM    1  N4  UNL     1       3.306 -14.743  26.550  1.00  0.00    -0.352 N 
ATOM      2  H4  UNL     1       3.144 -14.621  25.551  1.00  0.00     0.162 HD
ENDROOT
BRANCH   1   3
HETATM    3  C8  UNL     1       4.710 -14.835  27.097  1.00  0.00     0.269 C 
BRANCH   3   4
HETATM    4  C7  UNL     1       5.265 -16.138  26.738  1.00  0.00     0.252 C 
HETATM    5  N3  UNL     1       6.143 -16.936  27.483  1.00  0.00    -0.347 N 
HETATM    6  C6  UNL     1       6.579 -18.256  26.934  1.00  0.00     0.146 C 
HETATM    7  C34 UNL     1       6.674 -16.580  28.770  1.00  0.00     0.146 C 
HETATM    8  C5  UNL     1       8.092 -18.264  27.102  1.00  0.00     0.147 C 
HETATM    9  N2  UNL     1       8.338 -18.305  28.534  1.00  0.00    -0.331 N 
HETATM   10  C4  UNL     1       9.497 -18.992  28.977  1.00  0.00     0.318 C 
HETATM   11  C35 UNL     1       7.430 -17.682  29.449  1.00  0.00     0.147 C 
HETATM   12  N1  UNL     1       9.783 -19.053  30.353  1.00  0.00    -0.339 N 
HETATM   13  O1  UNL     1      10.285 -19.556  28.166  1.00  0.00    -0.247 OA
ATOM     14  H1  UNL     1       9.163 -18.606  31.029  1.00  0.00     0.164 HD
HETATM   15  O2  UNL     1       4.920 -16.640  25.604  1.00  0.00    -0.270 OA
BRANCH  12  16
HETATM   16  C2  UNL     1      10.967 -19.759  30.798  1.00  0.00     0.078 C 
HETATM   17  C1  UNL     1      11.940 -18.693  31.285  1.00  0.00     0.032 C 
HETATM   18  C3  UNL     1      10.673 -20.789  31.835  1.00  0.00     0.032 C 
ENDBRANCH  12  16
ENDBRANCH   3   4
BRANCH   3  19
HETATM   19  C29 UNL     1       5.385 -13.668  26.459  1.00  0.00     0.252 C 
HETATM   20  O5  UNL     1       6.241 -13.060  27.216  1.00  0.00    -0.270 OA
HETATM   21  N6  UNL     1       5.222 -13.167  25.176  1.00  0.00    -0.346 N 
HETATM   22  C30 UNL     1       5.955 -11.939  24.811  1.00  0.00     0.152 C 
HETATM   23  C33 UNL     1       4.464 -13.716  24.083  1.00  0.00     0.152 C 
HETATM   24  C31 UNL     1       4.857 -10.879  24.639  1.00  0.00     0.187 C 
HETATM   25  O6  UNL     1       3.727 -11.416  24.085  1.00  0.00    -0.388 OA
HETATM   26  C32 UNL     1       3.895 -12.531  23.309  1.00  0.00     0.187 C 
ENDBRANCH   3  19
ENDBRANCH   1   3
BRANCH   1  27
HETATM   27  C9  UNL     1       2.245 -14.826  27.428  1.00  0.00     0.135 C 
BRANCH  27  28
HETATM   28  O3  UNL     1       1.670 -13.642  27.686  1.00  0.00    -0.348 OA
ATOM     29  H3  UNL     1       1.483 -13.505  28.607  1.00  0.00     0.219 HD
ENDBRANCH  27  28
BRANCH  27  30
HETATM   30  C10 UNL     1       1.593 -15.901  28.128  1.00  0.00     0.159 C 
BRANCH  30  31
HETATM   31  C11 UNL     1       2.278 -17.038  28.752  1.00  0.00     0.038 C 
BRANCH  31  32
HETATM   32  C12 UNL     1       2.429 -17.247  30.190  1.00  0.00    -0.012 C 
HETATM   33  C13 UNL     1       3.839 -17.943  30.325  1.00  0.00     0.005 C 
HETATM   34  C14 UNL     1       4.314 -17.712  31.723  1.00  0.00     0.000 C 
HETATM   35  C15 UNL     1       3.209 -18.151  32.677  1.00  0.00     0.000 C 
HETATM   36  C16 UNL     1       2.183 -19.002  31.955  1.00  0.00     0.000 C 
HETATM   37  C17 UNL     1       1.473 -18.171  30.890  1.00  0.00     0.005 C 
ENDBRANCH  31  32
ENDBRANCH  30  31
BRANCH  30  38
HETATM   38  N5  UNL     1       0.744 -15.328  29.235  1.00  0.00    -0.348 N 
HETATM   39  C18 UNL     1      -0.620 -15.519  29.206  1.00  0.00     0.227 C 
HETATM   40  O4  UNL     1      -1.137 -16.169  28.236  1.00  0.00    -0.273 OA
ATOM     41  H5  UNL     1       1.176 -14.804  29.996  1.00  0.00     0.163 HD
BRANCH  39  42
HETATM   42  C19 UNL     1      -1.565 -15.021  30.239  1.00  0.00     0.042 C 
HETATM   43  C20 UNL     1      -2.949 -15.439  29.879  1.00  0.00     0.024 C 
HETATM   44  C21 UNL     1      -3.929 -15.014  30.980  1.00  0.00    -0.013 C 
HETATM   45  C22 UNL     1      -3.463 -15.658  32.257  1.00  0.00     0.009 C 
HETATM   46  C26 UNL     1      -3.925 -13.513  31.057  1.00  0.00     0.009 C 
HETATM   47  C23 UNL     1      -2.117 -15.095  32.649  1.00  0.00    -0.013 C 
HETATM   48  C24 UNL     1      -2.137 -13.592  32.718  1.00  0.00     0.009 C 
HETATM   49  C28 UNL     1      -1.122 -15.501  31.586  1.00  0.00     0.024 C 
HETATM   50  C25 UNL     1      -2.511 -13.062  31.362  1.00  0.00    -0.013 C 
HETATM   51  C27 UNL     1      -1.555 -13.501  30.286  1.00  0.00     0.024 C 
ENDBRANCH  39  42
ENDBRANCH  30  38
ENDBRANCH  27  30
ENDBRANCH   1  27
TORSDOF 11
ENDMDL
MODEL 2
REMARK VINA RESULT: -9.868816188      1.959      5.848
REMARK  11 active torsions:
REMARK  status: ('A' for Active; 'I' for Inactive)
REMARK    1  A    between atoms: C2_2  and  N1_4 
REMARK       I    between atoms: N1_4  and  C4_6 
REMARK       I    between atoms: C4_6  and  N2_8 
REMARK       I    between atoms: N3_11  and  C7_12 
REMARK    2  A    between atoms: C7_12  and  C8_14 
REMARK    3  A    between atoms: C8_14  and  N4_15 
REMARK    4  A    between atoms: C8_14  and  C29_42 
REMARK    5  A    between atoms: N4_15  and  C9_17 
REMARK    6  A    between atoms: C9_17  and  O3_18 
REMARK    7  A    between atoms: C9_17  and  C10_20 
REMARK    8  A    between atoms: C10_20  and  C11_21 
REMARK    9  A    between atoms: C10_20  and  N5_28 
REMARK   10  A    between atoms: C11_21  and  C12_22 
REMARK       I    between atoms: N5_28  and  C18_30 
REMARK   11  A    between atoms: C18_30  and  C19_32 
REMARK       I    between atoms: C29_42  and  N6_44 
ROOT
HETATM    1  N4  UNL     1       3.643 -15.559  28.196  1.00  0.00    -0.352 N 
ATOM      2  H4  UNL     1       4.113 -14.896  28.813  1.00  0.00     0.162 HD
ENDROOT
BRANCH   1   3
HETATM    3  C8  UNL     1       4.432 -16.370  27.197  1.00  0.00     0.269 C 
BRANCH   3   4
HETATM    4  C7  UNL     1       4.446 -15.654  25.923  1.00  0.00     0.252 C 
HETATM    5  N3  UNL     1       4.791 -14.317  25.690  1.00  0.00    -0.347 N 
HETATM    6  C6  UNL     1       4.753 -13.782  24.295  1.00  0.00     0.146 C 
HETATM    7  C34 UNL     1       5.190 -13.389  26.711  1.00  0.00     0.146 C 
HETATM    8  C5  UNL     1       3.983 -12.473  24.402  1.00  0.00     0.147 C 
HETATM    9  N2  UNL     1       4.824 -11.573  25.171  1.00  0.00    -0.331 N 
HETATM   10  C4  UNL     1       4.751 -10.191  24.865  1.00  0.00     0.318 C 
HETATM   11  C35 UNL     1       5.698 -12.079  26.188  1.00  0.00     0.147 C 
HETATM   12  N1  UNL     1       5.541  -9.278  25.588  1.00  0.00    -0.339 N 
HETATM   13  O1  UNL     1       3.992  -9.751  23.955  1.00  0.00    -0.247 OA
ATOM     14  H1  UNL     1       6.162  -9.605  26.328  1.00  0.00     0.164 HD
HETATM   15  O2  UNL     1       4.106 -16.309  24.868  1.00  0.00    -0.270 OA
BRANCH  12  16
HETATM   16  C2  UNL     1       5.462  -7.867  25.268  1.00  0.00     0.078 C 
HETATM   17  C1  UNL     1       4.548  -7.243  26.315  1.00  0.00     0.032 C 
HETATM   18  C3  UNL     1       6.799  -7.211  25.203  1.00  0.00     0.032 C 
ENDBRANCH  12  16
ENDBRANCH   3   4
BRANCH   3  19
HETATM   19  C29 UNL     1       5.762 -16.499  27.859  1.00  0.00     0.252 C 
HETATM   20  O5  UNL     1       5.843 -15.933  29.020  1.00  0.00    -0.270 OA
HETATM   21  N6  UNL     1       6.901 -17.144  27.400  1.00  0.00    -0.346 N 
HETATM   22  C30 UNL     1       8.127 -17.056  28.216  1.00  0.00     0.152 C 
HETATM   23  C33 UNL     1       7.061 -17.972  26.233  1.00  0.00     0.152 C 
HETATM   24  C31 UNL     1       9.085 -16.206  27.370  1.00  0.00     0.187 C 
HETATM   25  O6  UNL     1       8.946 -16.475  26.035  1.00  0.00    -0.388 OA
HETATM   26  C32 UNL     1       8.469 -17.716  25.708  1.00  0.00     0.187 C 
ENDBRANCH   3  19
ENDBRANCH   1   3
BRANCH   1  27
HETATM   27  C9  UNL     1       2.276 -15.729  28.258  1.00  0.00     0.135 C 
BRANCH  27  28
HETATM   28  O3  UNL     1       1.587 -14.743  27.665  1.00  0.00    -0.348 OA
ATOM     29  H3  UNL     1       2.120 -13.988  27.444  1.00  0.00     0.219 HD
ENDBRANCH  27  28
BRANCH  27  30
HETATM   30  C10 UNL     1       1.406 -16.736  28.805  1.00  0.00     0.159 C 
BRANCH  30  31
HETATM   31  C11 UNL     1       1.847 -18.017  29.367  1.00  0.00     0.038 C 
BRANCH  31  32
HETATM   32  C12 UNL     1       2.852 -18.178  30.415  1.00  0.00    -0.012 C 
HETATM   33  C13 UNL     1       3.774 -19.343  29.879  1.00  0.00     0.005 C 
HETATM   34  C14 UNL     1       5.090 -19.220  30.576  1.00  0.00     0.000 C 
HETATM   35  C15 UNL     1       4.828 -19.153  32.076  1.00  0.00     0.000 C 
HETATM   36  C16 UNL     1       3.414 -19.599  32.393  1.00  0.00     0.000 C 
HETATM   37  C17 UNL     1       2.409 -18.630  31.777  1.00  0.00     0.005 C 
ENDBRANCH  31  32
ENDBRANCH  30  31
BRANCH  30  38
HETATM   38  N5  UNL     1       0.565 -16.124  29.897  1.00  0.00    -0.348 N 
HETATM   39  C18 UNL     1      -0.710 -15.689  29.603  1.00  0.00     0.227 C 
HETATM   40  O4  UNL     1      -1.147 -15.806  28.409  1.00  0.00    -0.273 OA
ATOM     41  H5  UNL     1       0.936 -16.032  30.842  1.00  0.00     0.163 HD
BRANCH  39  42
HETATM   42  C19 UNL     1      -1.643 -15.084  30.587  1.00  0.00     0.042 C 
HETATM   43  C20 UNL     1      -3.043 -15.267  30.111  1.00  0.00     0.024 C 
HETATM   44  C21 UNL     1      -4.029 -14.731  31.157  1.00  0.00    -0.013 C 
HETATM   45  C22 UNL     1      -3.768 -15.481  32.434  1.00  0.00     0.009 C 
HETATM   46  C26 UNL     1      -3.800 -13.252  31.302  1.00  0.00     0.009 C 
HETATM   47  C23 UNL     1      -2.385 -15.150  32.946  1.00  0.00    -0.013 C 
HETATM   48  C24 UNL     1      -2.179 -13.666  33.081  1.00  0.00     0.009 C 
HETATM   49  C28 UNL     1      -1.385 -15.672  31.940  1.00  0.00     0.024 C 
HETATM   50  C25 UNL     1      -2.360 -13.039  31.726  1.00  0.00    -0.013 C 
HETATM   51  C27 UNL     1      -1.403 -13.587  30.703  1.00  0.00     0.024 C 
ENDBRANCH  39  42
ENDBRANCH  30  38
ENDBRANCH  27  30
ENDBRANCH   1  27
TORSDOF 11
ENDMDL
MODEL 3
REMARK VINA RESULT: -9.765864174      1.082      1.915
REMARK  11 active torsions:
REMARK  status: ('A' for Active; 'I' for Inactive)
REMARK    1  A    between atoms: C2_2  and  N1_4 
REMARK       I    between atoms: N1_4  and  C4_6 
REMARK       I    between atoms: C4_6  and  N2_8 
REMARK       I    between atoms: N3_11  and  C7_12 
REMARK    2  A    between atoms: C7_12  and  C8_14 
REMARK    3  A    between atoms: C8_14  and  N4_15 
REMARK    4  A    between atoms: C8_14  and  C29_42 
REMARK    5  A    between atoms: N4_15  and  C9_17 
REMARK    6  A    between atoms: C9_17  and  O3_18 
REMARK    7  A    between atoms: C9_17  and  C10_20 
REMARK    8  A    between atoms: C10_20  and  C11_21 
REMARK    9  A    between atoms: C10_20  and  N5_28 
REMARK   10  A    between atoms: C11_21  and  C12_22 
REMARK       I    between atoms: N5_28  and  C18_30 
REMARK   11  A    between atoms: C18_30  and  C19_32 
REMARK       I    between atoms: C29_42  and  N6_44 
ROOT
HETATM    1  N4  UNL     1       3.374 -14.786  26.630  1.00  0.00    -0.352 N 
ATOM      2  H4  UNL     1       3.262 -14.664  25.624  1.00  0.00     0.162 HD
ENDROOT
BRANCH   1   3
HETATM    3  C8  UNL     1       4.748 -14.906  27.243  1.00  0.00     0.269 C 
BRANCH   3   4
HETATM    4  C7  UNL     1       5.312 -16.202  26.872  1.00  0.00     0.252 C 
HETATM    5  N3  UNL     1       6.203 -16.996  27.606  1.00  0.00    -0.347 N 
HETATM    6  C6  UNL     1       6.647 -18.308  27.046  1.00  0.00     0.146 C 
HETATM    7  C34 UNL     1       6.741 -16.643  28.890  1.00  0.00     0.146 C 
HETATM    8  C5  UNL     1       8.162 -18.303  27.201  1.00  0.00     0.147 C 
HETATM    9  N2  UNL     1       8.420 -18.351  28.630  1.00  0.00    -0.331 N 
HETATM   10  C4  UNL     1       9.588 -19.029  29.060  1.00  0.00     0.318 C 
HETATM   11  C35 UNL     1       7.513 -17.741  29.557  1.00  0.00     0.147 C 
HETATM   12  N1  UNL     1       9.886 -19.095  30.434  1.00  0.00    -0.339 N 
HETATM   13  O1  UNL     1      10.376 -19.581  28.240  1.00  0.00    -0.247 OA
ATOM     14  H1  UNL     1       9.268 -18.658  31.118  1.00  0.00     0.164 HD
HETATM   15  O2  UNL     1       4.963 -16.701  25.738  1.00  0.00    -0.270 OA
BRANCH  12  16
HETATM   16  C2  UNL     1      11.080 -19.792  30.866  1.00  0.00     0.078 C 
HETATM   17  C1  UNL     1      11.992 -18.736  31.475  1.00  0.00     0.032 C 
HETATM   18  C3  UNL     1      10.790 -20.915  31.802  1.00  0.00     0.032 C 
ENDBRANCH  12  16
ENDBRANCH   3   4
BRANCH   3  19
HETATM   19  C29 UNL     1       5.461 -13.725  26.676  1.00  0.00     0.252 C 
HETATM   20  O5  UNL     1       6.132 -13.969  25.596  1.00  0.00    -0.270 OA
HETATM   21  N6  UNL     1       5.489 -12.420  27.145  1.00  0.00    -0.346 N 
HETATM   22  C30 UNL     1       6.345 -11.446  26.441  1.00  0.00     0.152 C 
HETATM   23  C33 UNL     1       4.733 -11.832  28.219  1.00  0.00     0.152 C 
HETATM   24  C31 UNL     1       7.455 -11.119  27.450  1.00  0.00     0.187 C 
HETATM   25  O6  UNL     1       6.973 -11.089  28.731  1.00  0.00    -0.388 OA
HETATM   26  C32 UNL     1       5.643 -10.802  28.878  1.00  0.00     0.187 C 
ENDBRANCH   3  19
ENDBRANCH   1   3
BRANCH   1  27
HETATM   27  C9  UNL     1       2.271 -14.847  27.456  1.00  0.00     0.135 C 
BRANCH  27  28
HETATM   28  O3  UNL     1       1.698 -13.653  27.672  1.00  0.00    -0.348 OA
ATOM     29  H3  UNL     1       0.817 -13.587  27.326  1.00  0.00     0.219 HD
ENDBRANCH  27  28
BRANCH  27  30
HETATM   30  C10 UNL     1       1.573 -15.905  28.137  1.00  0.00     0.159 C 
BRANCH  30  31
HETATM   31  C11 UNL     1       2.211 -17.070  28.761  1.00  0.00     0.038 C 
BRANCH  31  32
HETATM   32  C12 UNL     1       2.400 -17.259  30.198  1.00  0.00    -0.012 C 
HETATM   33  C13 UNL     1       3.810 -17.962  30.303  1.00  0.00     0.005 C 
HETATM   34  C14 UNL     1       4.325 -17.713  31.684  1.00  0.00     0.000 C 
HETATM   35  C15 UNL     1       3.245 -18.132  32.674  1.00  0.00     0.000 C 
HETATM   36  C16 UNL     1       2.195 -18.987  31.993  1.00  0.00     0.000 C 
HETATM   37  C17 UNL     1       1.459 -18.167  30.936  1.00  0.00     0.005 C 
ENDBRANCH  31  32
ENDBRANCH  30  31
BRANCH  30  38
HETATM   38  N5  UNL     1       0.727 -15.313  29.235  1.00  0.00    -0.348 N 
HETATM   39  C18 UNL     1      -0.635 -15.525  29.226  1.00  0.00     0.227 C 
HETATM   40  O4  UNL     1      -1.152 -16.210  28.280  1.00  0.00    -0.273 OA
ATOM     41  H5  UNL     1       1.157 -14.762  29.977  1.00  0.00     0.163 HD
BRANCH  39  42
HETATM   42  C19 UNL     1      -1.577 -15.012  30.254  1.00  0.00     0.042 C 
HETATM   43  C20 UNL     1      -1.164 -15.518  31.592  1.00  0.00     0.024 C 
HETATM   44  C21 UNL     1      -2.069 -14.926  32.681  1.00  0.00    -0.013 C 
HETATM   45  C22 UNL     1      -1.950 -13.429  32.586  1.00  0.00     0.009 C 
HETATM   46  C26 UNL     1      -3.472 -15.407  32.437  1.00  0.00     0.009 C 
HETATM   47  C23 UNL     1      -2.510 -12.956  31.265  1.00  0.00    -0.013 C 
HETATM   48  C24 UNL     1      -3.913 -13.452  31.043  1.00  0.00     0.009 C 
HETATM   49  C28 UNL     1      -1.636 -13.518  30.167  1.00  0.00     0.024 C 
HETATM   50  C25 UNL     1      -3.891 -14.955  31.053  1.00  0.00    -0.013 C 
HETATM   51  C27 UNL     1      -2.984 -15.525  29.995  1.00  0.00     0.024 C 
ENDBRANCH  39  42
ENDBRANCH  30  38
ENDBRANCH  27  30
ENDBRANCH   1  27
TORSDOF 11
ENDMDL
MODEL 4
REMARK VINA RESULT: -9.756302239      1.083      1.543
REMARK  11 active torsions:
REMARK  status: ('A' for Active; 'I' for Inactive)
REMARK    1  A    between atoms: C2_2  and  N1_4 
REMARK       I    between atoms: N1_4  and  C4_6 
REMARK       I    between atoms: C4_6  and  N2_8 
REMARK       I    between atoms: N3_11  and  C7_12 
REMARK    2  A    between atoms: C7_12  and  C8_14 
REMARK    3  A    between atoms: C8_14  and  N4_15 
REMARK    4  A    between atoms: C8_14  and  C29_42 
REMARK    5  A    between atoms: N4_15  and  C9_17 
REMARK    6  A    between atoms: C9_17  and  O3_18 
REMARK    7  A    between atoms: C9_17  and  C10_20 
REMARK    8  A    between atoms: C10_20  and  C11_21 
REMARK    9  A    between atoms: C10_20  and  N5_28 
REMARK   10  A    between atoms: C11_21  and  C12_22 
REMARK       I    between atoms: N5_28  and  C18_30 
REMARK   11  A    between atoms: C18_30  and  C19_32 
REMARK       I    between atoms: C29_42  and  N6_44 
ROOT
HETATM    1  N4  UNL     1       3.471 -14.827  26.584  1.00  0.00    -0.352 N 
ATOM      2  H4  UNL     1       3.354 -14.714  25.577  1.00  0.00     0.162 HD
ENDROOT
BRANCH   1   3
HETATM    3  C8  UNL     1       4.850 -14.932  27.190  1.00  0.00     0.269 C 
BRANCH   3   4
HETATM    4  C7  UNL     1       5.422 -16.227  26.825  1.00  0.00     0.252 C 
HETATM    5  N3  UNL     1       6.290 -17.029  27.577  1.00  0.00    -0.347 N 
HETATM    6  C6  UNL     1       6.747 -18.338  27.019  1.00  0.00     0.146 C 
HETATM    7  C34 UNL     1       6.792 -16.687  28.879  1.00  0.00     0.146 C 
HETATM    8  C5  UNL     1       8.256 -18.338  27.218  1.00  0.00     0.147 C 
HETATM    9  N2  UNL     1       8.473 -18.397  28.654  1.00  0.00    -0.331 N 
HETATM   10  C4  UNL     1       9.627 -19.082  29.111  1.00  0.00     0.318 C 
HETATM   11  C35 UNL     1       7.542 -17.793  29.559  1.00  0.00     0.147 C 
HETATM   12  N1  UNL     1       9.885 -19.160  30.492  1.00  0.00    -0.339 N 
HETATM   13  O1  UNL     1      10.437 -19.629  28.309  1.00  0.00    -0.247 OA
ATOM     14  H1  UNL     1       9.249 -18.726  31.162  1.00  0.00     0.164 HD
HETATM   15  O2  UNL     1       5.104 -16.716  25.677  1.00  0.00    -0.270 OA
BRANCH  12  16
HETATM   16  C2  UNL     1      11.065 -19.864  30.952  1.00  0.00     0.078 C 
HETATM   17  C1  UNL     1      11.959 -18.815  31.602  1.00  0.00     0.032 C 
HETATM   18  C3  UNL     1      10.745 -20.997  31.866  1.00  0.00     0.032 C 
ENDBRANCH  12  16
ENDBRANCH   3   4
BRANCH   3  19
HETATM   19  C29 UNL     1       5.552 -13.751  26.611  1.00  0.00     0.252 C 
HETATM   20  O5  UNL     1       6.262 -14.008  25.560  1.00  0.00    -0.270 OA
HETATM   21  N6  UNL     1       5.531 -12.433  27.042  1.00  0.00    -0.346 N 
HETATM   22  C30 UNL     1       6.385 -11.457  26.337  1.00  0.00     0.152 C 
HETATM   23  C33 UNL     1       4.728 -11.833  28.074  1.00  0.00     0.152 C 
HETATM   24  C31 UNL     1       7.454 -11.073  27.370  1.00  0.00     0.187 C 
HETATM   25  O6  UNL     1       6.931 -11.019  28.634  1.00  0.00    -0.388 OA
HETATM   26  C32 UNL     1       5.590 -10.761  28.730  1.00  0.00     0.187 C 
ENDBRANCH   3  19
ENDBRANCH   1   3
BRANCH   1  27
HETATM   27  C9  UNL     1       2.374 -14.888  27.416  1.00  0.00     0.135 C 
BRANCH  27  28
HETATM   28  O3  UNL     1       1.791 -13.697  27.620  1.00  0.00    -0.348 OA
ATOM     29  H3  UNL     1       2.205 -13.185  28.304  1.00  0.00     0.219 HD
ENDBRANCH  27  28
BRANCH  27  30
HETATM   30  C10 UNL     1       1.690 -15.944  28.115  1.00  0.00     0.159 C 
BRANCH  30  31
HETATM   31  C11 UNL     1       2.343 -17.093  28.752  1.00  0.00     0.038 C 
BRANCH  31  32
HETATM   32  C12 UNL     1       2.513 -17.275  30.192  1.00  0.00    -0.012 C 
HETATM   33  C13 UNL     1       3.911 -17.999  30.318  1.00  0.00     0.005 C 
HETATM   34  C14 UNL     1       4.413 -17.749  31.703  1.00  0.00     0.000 C 
HETATM   35  C15 UNL     1       3.316 -18.145  32.684  1.00  0.00     0.000 C 
HETATM   36  C16 UNL     1       2.261 -18.988  31.996  1.00  0.00     0.000 C 
HETATM   37  C17 UNL     1       1.550 -18.164  30.926  1.00  0.00     0.005 C 
ENDBRANCH  31  32
ENDBRANCH  30  31
BRANCH  30  38
HETATM   38  N5  UNL     1       0.842 -15.346  29.209  1.00  0.00    -0.348 N 
HETATM   39  C18 UNL     1      -0.524 -15.527  29.179  1.00  0.00     0.227 C 
HETATM   40  O4  UNL     1      -1.042 -16.188  28.218  1.00  0.00    -0.273 OA
ATOM     41  H5  UNL     1       1.276 -14.814  29.964  1.00  0.00     0.163 HD
BRANCH  39  42
HETATM   42  C19 UNL     1      -1.467 -15.004  30.200  1.00  0.00     0.042 C 
HETATM   43  C20 UNL     1      -2.851 -15.432  29.852  1.00  0.00     0.024 C 
HETATM   44  C21 UNL     1      -3.831 -14.982  30.944  1.00  0.00    -0.013 C 
HETATM   45  C22 UNL     1      -3.363 -15.593  32.236  1.00  0.00     0.009 C 
HETATM   46  C26 UNL     1      -3.828 -13.479  30.985  1.00  0.00     0.009 C 
HETATM   47  C23 UNL     1      -2.017 -15.020  32.612  1.00  0.00    -0.013 C 
HETATM   48  C24 UNL     1      -2.038 -13.516  32.645  1.00  0.00     0.009 C 
HETATM   49  C28 UNL     1      -1.023 -15.451  31.558  1.00  0.00     0.024 C 
HETATM   50  C25 UNL     1      -2.414 -13.019  31.276  1.00  0.00    -0.013 C 
HETATM   51  C27 UNL     1      -1.458 -13.484  30.211  1.00  0.00     0.024 C 
ENDBRANCH  39  42
ENDBRANCH  30  38
ENDBRANCH  27  30
ENDBRANCH   1  27
TORSDOF 11
ENDMDL
MODEL 5
REMARK VINA RESULT: -9.671851041      1.184      2.144
REMARK  11 active torsions:
REMARK  status: ('A' for Active; 'I' for Inactive)
REMARK    1  A    between atoms: C2_2  and  N1_4 
REMARK       I    between atoms: N1_4  and  C4_6 
REMARK       I    between atoms: C4_6  and  N2_8 
REMARK       I    between atoms: N3_11  and  C7_12 
REMARK    2  A    between atoms: C7_12  and  C8_14 
REMARK    3  A    between atoms: C8_14  and  N4_15 
REMARK    4  A    between atoms: C8_14  and  C29_42 
REMARK    5  A    between atoms: N4_15  and  C9_17 
REMARK    6  A    between atoms: C9_17  and  O3_18 
REMARK    7  A    between atoms: C9_17  and  C10_20 
REMARK    8  A    between atoms: C10_20  and  C11_21 
REMARK    9  A    between atoms: C10_20  and  N5_28 
REMARK   10  A    between atoms: C11_21  and  C12_22 
REMARK       I    between atoms: N5_28  and  C18_30 
REMARK   11  A    between atoms: C18_30  and  C19_32 
REMARK       I    between atoms: C29_42  and  N6_44 
ROOT
HETATM    1  N4  UNL     1       3.400 -14.920  26.735  1.00  0.00    -0.352 N 
ATOM      2  H4  UNL     1       3.323 -14.823  25.723  1.00  0.00     0.162 HD
ENDROOT
BRANCH   1   3
HETATM    3  C8  UNL     1       4.753 -15.017  27.398  1.00  0.00     0.269 C 
BRANCH   3   4
HETATM    4  C7  UNL     1       5.424 -16.220  26.910  1.00  0.00     0.252 C 
HETATM    5  N3  UNL     1       6.261 -17.089  27.622  1.00  0.00    -0.347 N 
HETATM    6  C6  UNL     1       6.837 -18.282  26.931  1.00  0.00     0.146 C 
HETATM    7  C34 UNL     1       6.621 -16.924  29.003  1.00  0.00     0.146 C 
HETATM    8  C5  UNL     1       8.319 -18.252  27.277  1.00  0.00     0.147 C 
HETATM    9  N2  UNL     1       8.406 -18.514  28.703  1.00  0.00    -0.331 N 
HETATM   10  C4  UNL     1       9.547 -19.212  29.171  1.00  0.00     0.318 C 
HETATM   11  C35 UNL     1       7.363 -18.087  29.589  1.00  0.00     0.147 C 
HETATM   12  N1  UNL     1       9.681 -19.483  30.545  1.00  0.00    -0.339 N 
HETATM   13  O1  UNL     1      10.456 -19.602  28.383  1.00  0.00    -0.247 OA
ATOM     14  H1  UNL     1       8.963 -19.178  31.203  1.00  0.00     0.164 HD
HETATM   15  O2  UNL     1       5.241 -16.547  25.679  1.00  0.00    -0.270 OA
BRANCH  12  16
HETATM   16  C2  UNL     1      10.849 -20.199  31.015  1.00  0.00     0.078 C 
HETATM   17  C1  UNL     1      11.830 -19.140  31.502  1.00  0.00     0.032 C 
HETATM   18  C3  UNL     1      10.527 -21.213  32.058  1.00  0.00     0.032 C 
ENDBRANCH  12  16
ENDBRANCH   3   4
BRANCH   3  19
HETATM   19  C29 UNL     1       5.401 -13.733  27.005  1.00  0.00     0.252 C 
HETATM   20  O5  UNL     1       4.948 -13.214  25.910  1.00  0.00    -0.270 OA
HETATM   21  N6  UNL     1       6.405 -13.033  27.657  1.00  0.00    -0.346 N 
HETATM   22  C30 UNL     1       6.937 -11.817  27.013  1.00  0.00     0.152 C 
HETATM   23  C33 UNL     1       6.989 -13.287  28.948  1.00  0.00     0.152 C 
HETATM   24  C31 UNL     1       8.375 -12.190  26.627  1.00  0.00     0.187 C 
HETATM   25  O6  UNL     1       8.951 -12.999  27.569  1.00  0.00    -0.388 OA
HETATM   26  C32 UNL     1       8.460 -12.900  28.843  1.00  0.00     0.187 C 
ENDBRANCH   3  19
ENDBRANCH   1   3
BRANCH   1  27
HETATM   27  C9  UNL     1       2.269 -14.964  27.524  1.00  0.00     0.135 C 
BRANCH  27  28
HETATM   28  O3  UNL     1       1.672 -13.771  27.670  1.00  0.00    -0.348 OA
ATOM     29  H3  UNL     1       1.543 -13.521  28.577  1.00  0.00     0.219 HD
ENDBRANCH  27  28
BRANCH  27  30
HETATM   30  C10 UNL     1       1.564 -16.004  28.224  1.00  0.00     0.159 C 
BRANCH  30  31
HETATM   31  C11 UNL     1       2.190 -17.176  28.845  1.00  0.00     0.038 C 
BRANCH  31  32
HETATM   32  C12 UNL     1       2.376 -17.372  30.281  1.00  0.00    -0.012 C 
HETATM   33  C13 UNL     1       3.714 -18.204  30.378  1.00  0.00     0.005 C 
HETATM   34  C14 UNL     1       4.264 -17.996  31.752  1.00  0.00     0.000 C 
HETATM   35  C15 UNL     1       3.160 -18.304  32.757  1.00  0.00     0.000 C 
HETATM   36  C16 UNL     1       2.027 -19.061  32.092  1.00  0.00     0.000 C 
HETATM   37  C17 UNL     1       1.361 -18.183  31.036  1.00  0.00     0.005 C 
ENDBRANCH  31  32
ENDBRANCH  30  31
BRANCH  30  38
HETATM   38  N5  UNL     1       0.748 -15.389  29.334  1.00  0.00    -0.348 N 
HETATM   39  C18 UNL     1      -0.623 -15.529  29.320  1.00  0.00     0.227 C 
HETATM   40  O4  UNL     1      -1.173 -16.168  28.362  1.00  0.00    -0.273 OA
ATOM     41  H5  UNL     1       1.207 -14.875  30.085  1.00  0.00     0.163 HD
BRANCH  39  42
HETATM   42  C19 UNL     1      -1.538 -14.986  30.357  1.00  0.00     0.042 C 
HETATM   43  C20 UNL     1      -1.428 -13.500  30.377  1.00  0.00     0.024 C 
HETATM   44  C21 UNL     1      -2.432 -12.913  31.378  1.00  0.00    -0.013 C 
HETATM   45  C22 UNL     1      -3.800 -13.368  30.949  1.00  0.00     0.009 C 
HETATM   46  C26 UNL     1      -2.067 -13.403  32.751  1.00  0.00     0.009 C 
HETATM   47  C23 UNL     1      -3.901 -14.870  31.080  1.00  0.00    -0.013 C 
HETATM   48  C24 UNL     1      -3.529 -15.337  32.461  1.00  0.00     0.009 C 
HETATM   49  C28 UNL     1      -2.926 -15.484  30.100  1.00  0.00     0.024 C 
HETATM   50  C25 UNL     1      -2.112 -14.918  32.736  1.00  0.00    -0.013 C 
HETATM   51  C27 UNL     1      -1.138 -15.483  31.737  1.00  0.00     0.024 C 
ENDBRANCH  39  42
ENDBRANCH  30  38
ENDBRANCH  27  30
ENDBRANCH   1  27
TORSDOF 11
ENDMDL
