MODEL 1
REMARK VINA RESULT: -10.305467594      0.000      0.000
REMARK  16 active torsions:
REMARK  status: ('A' for Active; 'I' for Inactive)
REMARK    1  A    between atoms: N1_2  and  C2_5 
REMARK    2  A    between atoms: C2_5  and  C4_7 
REMARK       I    between atoms: C4_7  and  N2_9 
REMARK    3  A    between atoms: C7_12  and  C8_13 
REMARK       I    between atoms: C8_13  and  N3_15 
REMARK    4  A    between atoms: N3_15  and  C9_16 
REMARK    5  A    between atoms: C9_16  and  C10_17 
REMARK    6  A    between atoms: C9_16  and  C31_49 
REMARK    7  A    between atoms: C10_17  and  O3_18 
REMARK    8  A    between atoms: C10_17  and  N4_20 
REMARK    9  A    between atoms: N5_23  and  C13_24 
REMARK   10  A    between atoms: C13_24  and  O4_25 
REMARK   11  A    between atoms: C13_24  and  N6_27 
REMARK   12  A    between atoms: N6_27  and  C14_29 
REMARK   13  A    between atoms: C14_29  and  C15_30 
REMARK   14  A    between atoms: C14_29  and  C25_43 
REMARK   15  A    between atoms: C15_30  and  O5_31 
REMARK   16  A    between atoms: C15_30  and  N7_33 
ROOT
HETATM    1  N4  UNL     1      -1.563 -16.818  32.381  1.00  0.00    -0.336 N 
HETATM    2  C11 UNL     1      -2.845 -16.848  32.957  1.00  0.00     0.086 C 
HETATM    3  C12 UNL     1      -3.317 -18.065  33.665  1.00  0.00     0.171 C 
HETATM    4  N5  UNL     1      -2.332 -19.011  34.102  1.00  0.00    -0.341 N 
HETATM    5  C29 UNL     1      -0.937 -18.485  34.083  1.00  0.00     0.147 C 
HETATM    6  C30 UNL     1      -0.642 -17.953  32.722  1.00  0.00     0.150 C 
ENDROOT
BRANCH   1   7
HETATM    7  C10 UNL     1      -1.003 -15.885  31.521  1.00  0.00     0.180 C 
BRANCH   7   8
HETATM    8  C9  UNL     1      -0.626 -15.729  30.130  1.00  0.00     0.142 C 
BRANCH   8   9
HETATM    9  N3  UNL     1       0.669 -16.200  29.864  1.00  0.00    -0.370 NA
HETATM   10  C8  UNL     1       1.919 -16.637  29.597  1.00  0.00     0.296 C 
HETATM   11  O2  UNL     1       2.860 -16.021  28.962  1.00  0.00    -0.257 OA
BRANCH  10  12
HETATM   12  C7  UNL     1       2.406 -18.020  30.053  1.00  0.00     0.096 C 
HETATM   13  C6  UNL     1       3.178 -18.629  28.924  1.00  0.00     0.035 C 
HETATM   14  C5  UNL     1       4.040 -19.781  29.268  1.00  0.00     0.127 C 
HETATM   15  N2  UNL     1       4.717 -19.599  30.549  1.00  0.00    -0.350 N 
HETATM   16  C4  UNL     1       6.066 -19.940  30.613  1.00  0.00     0.250 C 
HETATM   17  C35 UNL     1       3.937 -19.123  31.642  1.00  0.00     0.127 C 
HETATM   18  O1  UNL     1       6.685 -20.437  29.588  1.00  0.00    -0.271 OA
HETATM   19  C34 UNL     1       3.233 -17.852  31.285  1.00  0.00     0.035 C 
BRANCH  16  20
HETATM   20  C2  UNL     1       6.898 -19.779  31.813  1.00  0.00     0.272 C 
HETATM   21  C3  UNL     1       7.564 -18.388  31.728  1.00  0.00     0.050 C 
BRANCH  20  22
HETATM   22  N1  UNL     1       7.983 -20.775  31.808  1.00  0.00    -0.067 N 
HETATM   23  C1  UNL     1       8.994 -20.400  32.759  1.00  0.00     0.267 C 
ATOM     24  H12 UNL     1       8.368 -20.917  30.874  1.00  0.00     0.277 HD
ATOM     25  H11 UNL     1       7.636 -21.720  31.971  1.00  0.00     0.277 HD
ENDBRANCH  20  22
ENDBRANCH  16  20
ENDBRANCH  10  12
ENDBRANCH   8   9
BRANCH   8  26
HETATM   26  C31 UNL     1      -0.955 -14.446  29.470  1.00  0.00     0.046 C 
HETATM   27  C32 UNL     1      -0.599 -14.414  28.007  1.00  0.00     0.017 C 
HETATM   28  C33 UNL     1      -2.500 -14.321  29.556  1.00  0.00     0.017 C 
ENDBRANCH   8  26
ENDBRANCH   7   8
BRANCH   7  29
HETATM   29  O3  UNL     1      -0.707 -14.733  32.191  1.00  0.00    -0.344 OA
ATOM     30  H3  UNL     1      -1.517 -14.325  32.473  1.00  0.00     0.219 HD
ENDBRANCH   7  29
ENDBRANCH   1   7
BRANCH   4  31
HETATM   31  C13 UNL     1      -2.518 -20.296  34.586  1.00  0.00     0.220 C 
BRANCH  31  32
HETATM   32  O4  UNL     1      -3.719 -20.773  34.393  1.00  0.00    -0.332 OA
ATOM     33  H4  UNL     1      -4.315 -20.632  35.118  1.00  0.00     0.220 HD
ENDBRANCH  31  32
BRANCH  31  34
HETATM   34  N6  UNL     1      -1.606 -21.104  35.226  1.00  0.00    -0.321 N 
ATOM     35  H6  UNL     1      -0.774 -21.345  34.689  1.00  0.00     0.169 HD
BRANCH  34  36
HETATM   36  C14 UNL     1      -1.672 -21.661  36.572  1.00  0.00     0.071 C 
BRANCH  36  37
HETATM   37  C15 UNL     1      -2.158 -20.629  37.481  1.00  0.00     0.162 C 
BRANCH  37  38
HETATM   38  O5  UNL     1      -1.272 -19.599  37.608  1.00  0.00    -0.345 OA
ATOM     39  H5  UNL     1      -0.724 -19.693  38.378  1.00  0.00     0.219 HD
ENDBRANCH  37  38
BRANCH  37  40
HETATM   40  N7  UNL     1      -3.270 -20.377  38.274  1.00  0.00    -0.360 N 
HETATM   41  C16 UNL     1      -4.139 -19.254  37.844  1.00  0.00     0.125 C 
HETATM   42  C17 UNL     1      -4.577 -18.417  38.945  1.00  0.00     0.025 C 
HETATM   43  C18 UNL     1      -4.711 -18.939  40.315  1.00  0.00    -0.007 C 
HETATM   44  C19 UNL     1      -6.210 -19.054  40.664  1.00  0.00     0.005 C 
HETATM   45  C23 UNL     1      -3.978 -20.156  40.656  1.00  0.00     0.008 C 
HETATM   46  C20 UNL     1      -6.245 -19.095  42.176  1.00  0.00     0.000 C 
HETATM   47  C21 UNL     1      -5.556 -20.344  42.643  1.00  0.00     0.000 C 
HETATM   48  C22 UNL     1      -4.710 -21.044  41.646  1.00  0.00     0.006 C 
HETATM   49  C24 UNL     1      -3.587 -21.039  39.480  1.00  0.00     0.130 C 
ENDBRANCH  37  40
ENDBRANCH  36  37
BRANCH  36  50
HETATM   50  C25 UNL     1      -0.760 -22.728  36.932  1.00  0.00    -0.004 C 
HETATM   51  C26 UNL     1      -0.318 -22.588  38.385  1.00  0.00     0.021 C 
HETATM   52  C27 UNL     1       0.368 -23.043  35.982  1.00  0.00     0.021 C 
HETATM   53  C28 UNL     1      -1.547 -24.090  36.968  1.00  0.00     0.021 C 
ENDBRANCH  36  50
ENDBRANCH  34  36
ENDBRANCH  31  34
ENDBRANCH   4  31
TORSDOF 16
ENDMDL
MODEL 2
REMARK VINA RESULT: -10.200956806      2.900     11.712
REMARK  16 active torsions:
REMARK  status: ('A' for Active; 'I' for Inactive)
REMARK    1  A    between atoms: N1_2  and  C2_5 
REMARK    2  A    between atoms: C2_5  and  C4_7 
REMARK       I    between atoms: C4_7  and  N2_9 
REMARK    3  A    between atoms: C7_12  and  C8_13 
REMARK       I    between atoms: C8_13  and  N3_15 
REMARK    4  A    between atoms: N3_15  and  C9_16 
REMARK    5  A    between atoms: C9_16  and  C10_17 
REMARK    6  A    between atoms: C9_16  and  C31_49 
REMARK    7  A    between atoms: C10_17  and  O3_18 
REMARK    8  A    between atoms: C10_17  and  N4_20 
REMARK    9  A    between atoms: N5_23  and  C13_24 
REMARK   10  A    between atoms: C13_24  and  O4_25 
REMARK   11  A    between atoms: C13_24  and  N6_27 
REMARK   12  A    between atoms: N6_27  and  C14_29 
REMARK   13  A    between atoms: C14_29  and  C15_30 
REMARK   14  A    between atoms: C14_29  and  C25_43 
REMARK   15  A    between atoms: C15_30  and  O5_31 
REMARK   16  A    between atoms: C15_30  and  N7_33 
ROOT
HETATM    1  N4  UNL     1      -2.428 -20.680  35.331  1.00  0.00    -0.336 N 
HETATM    2  C11 UNL     1      -1.443 -19.678  35.282  1.00  0.00     0.086 C 
HETATM    3  C12 UNL     1      -1.635 -18.485  34.417  1.00  0.00     0.171 C 
HETATM    4  N5  UNL     1      -2.966 -18.180  33.982  1.00  0.00    -0.341 N 
HETATM    5  C29 UNL     1      -4.030 -18.910  34.730  1.00  0.00     0.147 C 
HETATM    6  C30 UNL     1      -3.741 -20.370  34.675  1.00  0.00     0.150 C 
ENDROOT
BRANCH   1   7
HETATM    7  C10 UNL     1      -2.373 -21.944  35.899  1.00  0.00     0.180 C 
BRANCH   7   8
HETATM    8  C9  UNL     1      -1.613 -22.702  36.874  1.00  0.00     0.142 C 
BRANCH   8   9
HETATM    9  N3  UNL     1      -1.135 -21.906  37.926  1.00  0.00    -0.370 NA
HETATM   10  C8  UNL     1      -0.657 -21.147  38.937  1.00  0.00     0.296 C 
HETATM   11  O2  UNL     1       0.543 -21.119  39.413  1.00  0.00    -0.257 OA
BRANCH  10  12
HETATM   12  C7  UNL     1      -1.551 -20.156  39.695  1.00  0.00     0.096 C 
HETATM   13  C6  UNL     1      -2.885 -20.127  39.014  1.00  0.00     0.035 C 
HETATM   14  C5  UNL     1      -3.999 -19.533  39.785  1.00  0.00     0.127 C 
HETATM   15  N2  UNL     1      -3.951 -19.904  41.197  1.00  0.00    -0.350 N 
HETATM   16  C4  UNL     1      -5.149 -20.279  41.800  1.00  0.00     0.250 C 
HETATM   17  C35 UNL     1      -2.691 -19.817  41.856  1.00  0.00     0.127 C 
HETATM   18  O1  UNL     1      -6.268 -20.260  41.145  1.00  0.00    -0.271 OA
HETATM   19  C34 UNL     1      -1.646 -20.594  41.120  1.00  0.00     0.035 C 
BRANCH  16  20
HETATM   20  C2  UNL     1      -5.265 -20.716  43.198  1.00  0.00     0.272 C 
HETATM   21  C3  UNL     1      -5.143 -22.256  43.210  1.00  0.00     0.050 C 
BRANCH  20  22
HETATM   22  N1  UNL     1      -6.602 -20.387  43.718  1.00  0.00    -0.067 N 
HETATM   23  C1  UNL     1      -6.791 -21.001  45.004  1.00  0.00     0.267 C 
ATOM     24  H12 UNL     1      -7.341 -20.638  43.061  1.00  0.00     0.277 HD
ATOM     25  H11 UNL     1      -6.765 -19.380  43.748  1.00  0.00     0.277 HD
ENDBRANCH  20  22
ENDBRANCH  16  20
ENDBRANCH  10  12
ENDBRANCH   8   9
BRANCH   8  26
HETATM   26  C31 UNL     1      -0.635 -23.690  36.365  1.00  0.00     0.046 C 
HETATM   27  C32 UNL     1       0.744 -23.120  36.162  1.00  0.00     0.017 C 
HETATM   28  C33 UNL     1      -0.515 -24.764  37.479  1.00  0.00     0.017 C 
ENDBRANCH   8  26
ENDBRANCH   7   8
BRANCH   7  29
HETATM   29  O3  UNL     1      -3.348 -22.746  35.380  1.00  0.00    -0.344 OA
ATOM     30  H3  UNL     1      -3.454 -22.543  34.458  1.00  0.00     0.219 HD
ENDBRANCH   7  29
ENDBRANCH   1   7
BRANCH   4  31
HETATM   31  C13 UNL     1      -3.377 -17.269  33.022  1.00  0.00     0.220 C 
BRANCH  31  32
HETATM   32  O4  UNL     1      -4.326 -17.708  32.239  1.00  0.00    -0.332 OA
ATOM     33  H4  UNL     1      -5.150 -17.873  32.680  1.00  0.00     0.220 HD
ENDBRANCH  31  32
BRANCH  31  34
HETATM   34  N6  UNL     1      -2.914 -15.991  32.809  1.00  0.00    -0.321 N 
ATOM     35  H6  UNL     1      -3.163 -15.305  33.522  1.00  0.00     0.169 HD
BRANCH  34  36
HETATM   36  C14 UNL     1      -2.115 -15.486  31.700  1.00  0.00     0.071 C 
BRANCH  36  37
HETATM   37  C15 UNL     1      -0.779 -16.066  31.785  1.00  0.00     0.162 C 
BRANCH  37  38
HETATM   38  O5  UNL     1      -0.209 -15.862  33.007  1.00  0.00    -0.345 OA
ATOM     39  H5  UNL     1       0.456 -15.184  32.981  1.00  0.00     0.219 HD
ENDBRANCH  37  38
BRANCH  37  40
HETATM   40  N7  UNL     1       0.103 -16.774  30.979  1.00  0.00    -0.360 N 
HETATM   41  C16 UNL     1       0.515 -18.110  31.476  1.00  0.00     0.125 C 
HETATM   42  C17 UNL     1       1.933 -18.370  31.307  1.00  0.00     0.025 C 
HETATM   43  C18 UNL     1       2.720 -17.732  30.240  1.00  0.00    -0.007 C 
HETATM   44  C19 UNL     1       3.065 -18.790  29.170  1.00  0.00     0.005 C 
HETATM   45  C23 UNL     1       2.194 -16.507  29.643  1.00  0.00     0.008 C 
HETATM   46  C20 UNL     1       4.246 -18.205  28.426  1.00  0.00     0.000 C 
HETATM   47  C21 UNL     1       3.804 -16.954  27.725  1.00  0.00     0.000 C 
HETATM   48  C22 UNL     1       2.515 -16.369  28.166  1.00  0.00     0.006 C 
HETATM   49  C24 UNL     1       0.694 -16.297  29.789  1.00  0.00     0.130 C 
ENDBRANCH  37  40
ENDBRANCH  36  37
BRANCH  36  50
HETATM   50  C25 UNL     1      -2.424 -14.180  31.152  1.00  0.00    -0.004 C 
HETATM   51  C26 UNL     1      -2.258 -14.182  29.636  1.00  0.00     0.021 C 
HETATM   52  C27 UNL     1      -1.824 -12.973  31.827  1.00  0.00     0.021 C 
HETATM   53  C28 UNL     1      -3.966 -13.907  31.305  1.00  0.00     0.021 C 
ENDBRANCH  36  50
ENDBRANCH  34  36
ENDBRANCH  31  34
ENDBRANCH   4  31
TORSDOF 16
ENDMDL
MODEL 3
REMARK VINA RESULT: -10.169821047      1.569      1.959
REMARK  16 active torsions:
REMARK  status: ('A' for Active; 'I' for Inactive)
REMARK    1  A    between atoms: N1_2  and  C2_5 
REMARK    2  A    between atoms: C2_5  and  C4_7 
REMARK       I    between atoms: C4_7  and  N2_9 
REMARK    3  A    between atoms: C7_12  and  C8_13 
REMARK       I    between atoms: C8_13  and  N3_15 
REMARK    4  A    between atoms: N3_15  and  C9_16 
REMARK    5  A    between atoms: C9_16  and  C10_17 
REMARK    6  A    between atoms: C9_16  and  C31_49 
REMARK    7  A    between atoms: C10_17  and  O3_18 
REMARK    8  A    between atoms: C10_17  and  N4_20 
REMARK    9  A    between atoms: N5_23  and  C13_24 
REMARK   10  A    between atoms: C13_24  and  O4_25 
REMARK   11  A    between atoms: C13_24  and  N6_27 
REMARK   12  A    between atoms: N6_27  and  C14_29 
REMARK   13  A    between atoms: C14_29  and  C15_30 
REMARK   14  A    between atoms: C14_29  and  C25_43 
REMARK   15  A    between atoms: C15_30  and  O5_31 
REMARK   16  A    between atoms: C15_30  and  N7_33 
ROOT
HETATM    1  N4  UNL     1      -2.290 -17.204  33.192  1.00  0.00    -0.336 N 
HETATM    2  C11 UNL     1      -3.550 -17.825  33.252  1.00  0.00     0.086 C 
HETATM    3  C12 UNL     1      -3.683 -19.189  33.825  1.00  0.00     0.171 C 
HETATM    4  N5  UNL     1      -2.626 -19.670  34.665  1.00  0.00    -0.341 N 
HETATM    5  C29 UNL     1      -1.687 -18.606  35.124  1.00  0.00     0.147 C 
HETATM    6  C30 UNL     1      -1.171 -17.873  33.934  1.00  0.00     0.150 C 
ENDROOT
BRANCH   1   7
HETATM    7  C10 UNL     1      -1.908 -16.045  32.533  1.00  0.00     0.180 C 
BRANCH   7   8
HETATM    8  C9  UNL     1      -2.244 -15.260  31.362  1.00  0.00     0.142 C 
BRANCH   8   9
HETATM    9  N3  UNL     1      -1.328 -15.433  30.313  1.00  0.00    -0.370 NA
HETATM   10  C8  UNL     1      -0.455 -15.584  29.293  1.00  0.00     0.296 C 
HETATM   11  O2  UNL     1      -0.338 -14.860  28.230  1.00  0.00    -0.257 OA
BRANCH  10  12
HETATM   12  C7  UNL     1       0.579 -16.719  29.277  1.00  0.00     0.096 C 
HETATM   13  C6  UNL     1       1.871 -16.155  28.773  1.00  0.00     0.035 C 
HETATM   14  C5  UNL     1       3.082 -16.968  29.025  1.00  0.00     0.127 C 
HETATM   15  N2  UNL     1       3.065 -17.584  30.349  1.00  0.00    -0.350 N 
HETATM   16  C4  UNL     1       4.244 -17.540  31.089  1.00  0.00     0.250 C 
HETATM   17  C35 UNL     1       1.857 -18.215  30.765  1.00  0.00     0.127 C 
HETATM   18  O1  UNL     1       5.324 -17.009  30.606  1.00  0.00    -0.271 OA
HETATM   19  C34 UNL     1       0.697 -17.276  30.657  1.00  0.00     0.035 C 
BRANCH  16  20
HETATM   20  C2  UNL     1       4.382 -18.078  32.450  1.00  0.00     0.272 C 
HETATM   21  C3  UNL     1       5.081 -16.996  33.303  1.00  0.00     0.050 C 
BRANCH  20  22
HETATM   22  N1  UNL     1       5.267 -19.254  32.437  1.00  0.00    -0.067 N 
HETATM   23  C1  UNL     1       6.232 -19.150  33.498  1.00  0.00     0.267 C 
ATOM     24  H12 UNL     1       5.710 -19.390  31.528  1.00  0.00     0.277 HD
ATOM     25  H11 UNL     1       4.744 -20.128  32.480  1.00  0.00     0.277 HD
ENDBRANCH  20  22
ENDBRANCH  16  20
ENDBRANCH  10  12
ENDBRANCH   8   9
BRANCH   8  26
HETATM   26  C31 UNL     1      -2.670 -13.858  31.574  1.00  0.00     0.046 C 
HETATM   27  C32 UNL     1      -1.845 -12.858  30.808  1.00  0.00     0.017 C 
HETATM   28  C33 UNL     1      -4.113 -13.774  31.008  1.00  0.00     0.017 C 
ENDBRANCH   8  26
ENDBRANCH   7   8
BRANCH   7  29
HETATM   29  O3  UNL     1      -0.882 -15.434  33.194  1.00  0.00    -0.344 OA
ATOM     30  H3  UNL     1      -0.363 -16.096  33.634  1.00  0.00     0.219 HD
ENDBRANCH   7  29
ENDBRANCH   1   7
BRANCH   4  31
HETATM   31  C13 UNL     1      -2.412 -20.954  35.141  1.00  0.00     0.220 C 
BRANCH  31  32
HETATM   32  O4  UNL     1      -3.356 -21.803  34.834  1.00  0.00    -0.332 OA
ATOM     33  H4  UNL     1      -3.557 -22.426  35.522  1.00  0.00     0.220 HD
ENDBRANCH  31  32
BRANCH  31  34
HETATM   34  N6  UNL     1      -1.346 -21.421  35.876  1.00  0.00    -0.321 N 
ATOM     35  H6  UNL     1      -0.444 -21.415  35.400  1.00  0.00     0.169 HD
BRANCH  34  36
HETATM   36  C14 UNL     1      -1.336 -21.923  37.244  1.00  0.00     0.071 C 
BRANCH  36  37
HETATM   37  C15 UNL     1      -1.847 -20.882  38.128  1.00  0.00     0.162 C 
BRANCH  37  38
HETATM   38  O5  UNL     1      -0.907 -19.929  38.393  1.00  0.00    -0.345 OA
ATOM     39  H5  UNL     1      -0.040 -20.302  38.494  1.00  0.00     0.219 HD
ENDBRANCH  37  38
BRANCH  37  40
HETATM   40  N7  UNL     1      -3.022 -20.565  38.796  1.00  0.00    -0.360 N 
HETATM   41  C16 UNL     1      -3.898 -19.563  38.139  1.00  0.00     0.125 C 
HETATM   42  C17 UNL     1      -4.446 -18.589  39.065  1.00  0.00     0.025 C 
HETATM   43  C18 UNL     1      -4.661 -18.902  40.487  1.00  0.00    -0.007 C 
HETATM   44  C19 UNL     1      -6.176 -19.033  40.749  1.00  0.00     0.005 C 
HETATM   45  C23 UNL     1      -3.911 -20.017  41.061  1.00  0.00     0.008 C 
HETATM   46  C20 UNL     1      -6.320 -18.844  42.243  1.00  0.00     0.000 C 
HETATM   47  C21 UNL     1      -5.623 -19.973  42.944  1.00  0.00     0.000 C 
HETATM   48  C22 UNL     1      -4.681 -20.776  42.127  1.00  0.00     0.006 C 
HETATM   49  C24 UNL     1      -3.403 -21.049  40.066  1.00  0.00     0.130 C 
ENDBRANCH  37  40
ENDBRANCH  36  37
BRANCH  36  50
HETATM   50  C25 UNL     1      -0.355 -22.924  37.614  1.00  0.00    -0.004 C 
HETATM   51  C26 UNL     1       0.155 -22.678  39.030  1.00  0.00     0.021 C 
HETATM   52  C27 UNL     1       0.735 -23.243  36.623  1.00  0.00     0.021 C 
HETATM   53  C28 UNL     1      -1.071 -24.317  37.771  1.00  0.00     0.021 C 
ENDBRANCH  36  50
ENDBRANCH  34  36
ENDBRANCH  31  34
ENDBRANCH   4  31
TORSDOF 16
ENDMDL
MODEL 4
REMARK VINA RESULT: -10.005472061      2.770     11.512
REMARK  16 active torsions:
REMARK  status: ('A' for Active; 'I' for Inactive)
REMARK    1  A    between atoms: N1_2  and  C2_5 
REMARK    2  A    between atoms: C2_5  and  C4_7 
REMARK       I    between atoms: C4_7  and  N2_9 
REMARK    3  A    between atoms: C7_12  and  C8_13 
REMARK       I    between atoms: C8_13  and  N3_15 
REMARK    4  A    between atoms: N3_15  and  C9_16 
REMARK    5  A    between atoms: C9_16  and  C10_17 
REMARK    6  A    between atoms: C9_16  and  C31_49 
REMARK    7  A    between atoms: C10_17  and  O3_18 
REMARK    8  A    between atoms: C10_17  and  N4_20 
REMARK    9  A    between atoms: N5_23  and  C13_24 
REMARK   10  A    between atoms: C13_24  and  O4_25 
REMARK   11  A    between atoms: C13_24  and  N6_27 
REMARK   12  A    between atoms: N6_27  and  C14_29 
REMARK   13  A    between atoms: C14_29  and  C15_30 
REMARK   14  A    between atoms: C14_29  and  C25_43 
REMARK   15  A    between atoms: C15_30  and  O5_31 
REMARK   16  A    between atoms: C15_30  and  N7_33 
ROOT
HETATM    1  N4  UNL     1      -2.286 -20.497  35.168  1.00  0.00    -0.336 N 
HETATM    2  C11 UNL     1      -1.229 -19.571  35.172  1.00  0.00     0.086 C 
HETATM    3  C12 UNL     1      -1.286 -18.369  34.300  1.00  0.00     0.171 C 
HETATM    4  N5  UNL     1      -2.566 -17.966  33.796  1.00  0.00    -0.341 N 
HETATM    5  C29 UNL     1      -3.719 -18.613  34.487  1.00  0.00     0.147 C 
HETATM    6  C30 UNL     1      -3.537 -20.092  34.445  1.00  0.00     0.150 C 
ENDROOT
BRANCH   1   7
HETATM    7  C10 UNL     1      -2.355 -21.760  35.736  1.00  0.00     0.180 C 
BRANCH   7   8
HETATM    8  C9  UNL     1      -1.669 -22.591  36.706  1.00  0.00     0.142 C 
BRANCH   8   9
HETATM    9  N3  UNL     1      -1.209 -21.862  37.813  1.00  0.00    -0.370 NA
HETATM   10  C8  UNL     1      -0.748 -21.170  38.878  1.00  0.00     0.296 C 
HETATM   11  O2  UNL     1       0.432 -21.208  39.403  1.00  0.00    -0.257 OA
BRANCH  10  12
HETATM   12  C7  UNL     1      -1.638 -20.184  39.647  1.00  0.00     0.096 C 
HETATM   13  C6  UNL     1      -2.991 -20.191  39.005  1.00  0.00     0.035 C 
HETATM   14  C5  UNL     1      -4.094 -19.606  39.799  1.00  0.00     0.127 C 
HETATM   15  N2  UNL     1      -3.998 -19.953  41.215  1.00  0.00    -0.350 N 
HETATM   16  C4  UNL     1      -5.170 -20.340  41.859  1.00  0.00     0.250 C 
HETATM   17  C35 UNL     1      -2.721 -19.831  41.835  1.00  0.00     0.127 C 
HETATM   18  O1  UNL     1      -6.308 -20.353  41.237  1.00  0.00    -0.271 OA
HETATM   19  C34 UNL     1      -1.682 -20.600  41.080  1.00  0.00     0.035 C 
BRANCH  16  20
HETATM   20  C2  UNL     1      -5.236 -20.757  43.267  1.00  0.00     0.272 C 
HETATM   21  C3  UNL     1      -5.106 -22.296  43.298  1.00  0.00     0.050 C 
BRANCH  20  22
HETATM   22  N1  UNL     1      -6.557 -20.426  43.827  1.00  0.00    -0.067 N 
HETATM   23  C1  UNL     1      -6.794 -21.204  45.012  1.00  0.00     0.267 C 
ATOM     24  H12 UNL     1      -7.303 -20.537  43.139  1.00  0.00     0.277 HD
ATOM     25  H11 UNL     1      -6.660 -19.426  43.999  1.00  0.00     0.277 HD
ENDBRANCH  20  22
ENDBRANCH  16  20
ENDBRANCH  10  12
ENDBRANCH   8   9
BRANCH   8  26
HETATM   26  C31 UNL     1      -0.708 -23.593  36.193  1.00  0.00     0.046 C 
HETATM   27  C32 UNL     1       0.648 -23.019  35.880  1.00  0.00     0.017 C 
HETATM   28  C33 UNL     1      -0.507 -24.605  37.354  1.00  0.00     0.017 C 
ENDBRANCH   8  26
ENDBRANCH   7   8
BRANCH   7  29
HETATM   29  O3  UNL     1      -3.410 -22.459  35.224  1.00  0.00    -0.344 OA
ATOM     30  H3  UNL     1      -4.217 -22.071  35.537  1.00  0.00     0.219 HD
ENDBRANCH   7  29
ENDBRANCH   1   7
BRANCH   4  31
HETATM   31  C13 UNL     1      -2.858 -17.030  32.818  1.00  0.00     0.220 C 
BRANCH  31  32
HETATM   32  O4  UNL     1      -3.977 -17.251  32.181  1.00  0.00    -0.332 OA
ATOM     33  H4  UNL     1      -3.968 -16.977  31.272  1.00  0.00     0.220 HD
ENDBRANCH  31  32
BRANCH  31  34
HETATM   34  N6  UNL     1      -2.125 -15.923  32.454  1.00  0.00    -0.321 N 
ATOM     35  H6  UNL     1      -1.521 -15.535  33.178  1.00  0.00     0.169 HD
BRANCH  34  36
HETATM   36  C14 UNL     1      -2.097 -15.233  31.171  1.00  0.00     0.071 C 
BRANCH  36  37
HETATM   37  C15 UNL     1      -1.090 -15.862  30.324  1.00  0.00     0.162 C 
BRANCH  37  38
HETATM   38  O5  UNL     1      -1.547 -16.071  29.055  1.00  0.00    -0.345 OA
ATOM     39  H5  UNL     1      -1.118 -15.504  28.424  1.00  0.00     0.219 HD
ENDBRANCH  37  38
BRANCH  37  40
HETATM   40  N7  UNL     1       0.216 -16.323  30.423  1.00  0.00    -0.360 N 
HETATM   41  C16 UNL     1       1.068 -16.139  29.222  1.00  0.00     0.125 C 
HETATM   42  C17 UNL     1       1.884 -17.300  28.918  1.00  0.00     0.025 C 
HETATM   43  C18 UNL     1       2.317 -18.243  29.961  1.00  0.00    -0.007 C 
HETATM   44  C19 UNL     1       3.828 -18.059  30.209  1.00  0.00     0.005 C 
HETATM   45  C23 UNL     1       1.559 -18.272  31.210  1.00  0.00     0.008 C 
HETATM   46  C20 UNL     1       4.263 -19.347  30.874  1.00  0.00     0.000 C 
HETATM   47  C21 UNL     1       3.578 -19.460  32.205  1.00  0.00     0.000 C 
HETATM   48  C22 UNL     1       2.417 -18.565  32.428  1.00  0.00     0.006 C 
HETATM   49  C24 UNL     1       0.762 -17.015  31.526  1.00  0.00     0.130 C 
ENDBRANCH  37  40
ENDBRANCH  36  37
BRANCH  36  50
HETATM   50  C25 UNL     1      -2.472 -13.833  31.122  1.00  0.00    -0.004 C 
HETATM   51  C26 UNL     1      -3.990 -13.686  31.103  1.00  0.00     0.021 C 
HETATM   52  C27 UNL     1      -1.764 -12.948  30.129  1.00  0.00     0.021 C 
HETATM   53  C28 UNL     1      -2.103 -13.151  32.490  1.00  0.00     0.021 C 
ENDBRANCH  36  50
ENDBRANCH  34  36
ENDBRANCH  31  34
ENDBRANCH   4  31
TORSDOF 16
ENDMDL
MODEL 5
REMARK VINA RESULT: -9.915899977      2.134      2.524
REMARK  16 active torsions:
REMARK  status: ('A' for Active; 'I' for Inactive)
REMARK    1  A    between atoms: N1_2  and  C2_5 
REMARK    2  A    between atoms: C2_5  and  C4_7 
REMARK       I    between atoms: C4_7  and  N2_9 
REMARK    3  A    between atoms: C7_12  and  C8_13 
REMARK       I    between atoms: C8_13  and  N3_15 
REMARK    4  A    between atoms: N3_15  and  C9_16 
REMARK    5  A    between atoms: C9_16  and  C10_17 
REMARK    6  A    between atoms: C9_16  and  C31_49 
REMARK    7  A    between atoms: C10_17  and  O3_18 
REMARK    8  A    between atoms: C10_17  and  N4_20 
REMARK    9  A    between atoms: N5_23  and  C13_24 
REMARK   10  A    between atoms: C13_24  and  O4_25 
REMARK   11  A    between atoms: C13_24  and  N6_27 
REMARK   12  A    between atoms: N6_27  and  C14_29 
REMARK   13  A    between atoms: C14_29  and  C15_30 
REMARK   14  A    between atoms: C14_29  and  C25_43 
REMARK   15  A    between atoms: C15_30  and  O5_31 
REMARK   16  A    between atoms: C15_30  and  N7_33 
ROOT
HETATM    1  N4  UNL     1      -1.527 -16.906  32.417  1.00  0.00    -0.336 N 
HETATM    2  C11 UNL     1      -2.826 -16.955  32.953  1.00  0.00     0.086 C 
HETATM    3  C12 UNL     1      -3.296 -18.174  33.659  1.00  0.00     0.171 C 
HETATM    4  N5  UNL     1      -2.308 -19.096  34.136  1.00  0.00    -0.341 N 
HETATM    5  C29 UNL     1      -0.923 -18.543  34.155  1.00  0.00     0.147 C 
HETATM    6  C30 UNL     1      -0.596 -18.019  32.799  1.00  0.00     0.150 C 
ENDROOT
BRANCH   1   7
HETATM    7  C10 UNL     1      -0.959 -15.971  31.564  1.00  0.00     0.180 C 
BRANCH   7   8
HETATM    8  C9  UNL     1      -0.464 -15.847  30.208  1.00  0.00     0.142 C 
BRANCH   8   9
HETATM    9  N3  UNL     1       0.837 -16.351  30.058  1.00  0.00    -0.370 NA
HETATM   10  C8  UNL     1       2.093 -16.834  29.934  1.00  0.00     0.296 C 
HETATM   11  O2  UNL     1       2.979 -16.996  30.859  1.00  0.00    -0.257 OA
BRANCH  10  12
HETATM   12  C7  UNL     1       2.656 -17.279  28.576  1.00  0.00     0.096 C 
HETATM   13  C6  UNL     1       3.005 -16.048  27.799  1.00  0.00     0.035 C 
HETATM   14  C5  UNL     1       3.895 -16.242  26.633  1.00  0.00     0.127 C 
HETATM   15  N2  UNL     1       4.953 -17.213  26.903  1.00  0.00    -0.350 N 
HETATM   16  C4  UNL     1       6.240 -16.890  26.479  1.00  0.00     0.250 C 
HETATM   17  C35 UNL     1       4.580 -18.428  27.546  1.00  0.00     0.127 C 
HETATM   18  O1  UNL     1       6.481 -15.792  25.834  1.00  0.00    -0.271 OA
HETATM   19  C34 UNL     1       3.839 -18.158  28.817  1.00  0.00     0.035 C 
BRANCH  16  20
HETATM   20  C2  UNL     1       7.418 -17.738  26.708  1.00  0.00     0.272 C 
HETATM   21  C3  UNL     1       8.656 -16.813  26.712  1.00  0.00     0.050 C 
BRANCH  20  22
HETATM   22  N1  UNL     1       7.586 -18.676  25.587  1.00  0.00    -0.067 N 
HETATM   23  C1  UNL     1       8.977 -19.004  25.429  1.00  0.00     0.267 C 
ATOM     24  H12 UNL     1       7.176 -18.319  24.724  1.00  0.00     0.277 HD
ATOM     25  H11 UNL     1       7.007 -19.509  25.694  1.00  0.00     0.277 HD
ENDBRANCH  20  22
ENDBRANCH  16  20
ENDBRANCH  10  12
ENDBRANCH   8   9
BRANCH   8  26
HETATM   26  C31 UNL     1      -0.708 -14.569  29.502  1.00  0.00     0.046 C 
HETATM   27  C32 UNL     1      -0.213 -14.564  28.080  1.00  0.00     0.017 C 
HETATM   28  C33 UNL     1      -2.252 -14.420  29.439  1.00  0.00     0.017 C 
ENDBRANCH   8  26
ENDBRANCH   7   8
BRANCH   7  29
HETATM   29  O3  UNL     1      -0.814 -14.770  32.198  1.00  0.00    -0.344 OA
ATOM     30  H3  UNL     1      -0.982 -14.890  33.125  1.00  0.00     0.219 HD
ENDBRANCH   7  29
ENDBRANCH   1   7
BRANCH   4  31
HETATM   31  C13 UNL     1      -2.484 -20.379  34.628  1.00  0.00     0.220 C 
BRANCH  31  32
HETATM   32  O4  UNL     1      -3.679 -20.869  34.432  1.00  0.00    -0.332 OA
ATOM     33  H4  UNL     1      -3.970 -20.836  33.529  1.00  0.00     0.220 HD
ENDBRANCH  31  32
BRANCH  31  34
HETATM   34  N6  UNL     1      -1.567 -21.174  35.278  1.00  0.00    -0.321 N 
ATOM     35  H6  UNL     1      -0.730 -21.410  34.747  1.00  0.00     0.169 HD
BRANCH  34  36
HETATM   36  C14 UNL     1      -1.635 -21.724  36.626  1.00  0.00     0.071 C 
BRANCH  36  37
HETATM   37  C15 UNL     1      -2.121 -20.687  37.530  1.00  0.00     0.162 C 
BRANCH  37  38
HETATM   38  O5  UNL     1      -1.222 -19.672  37.675  1.00  0.00    -0.345 OA
ATOM     39  H5  UNL     1      -0.893 -19.365  36.838  1.00  0.00     0.219 HD
ENDBRANCH  37  38
BRANCH  37  40
HETATM   40  N7  UNL     1      -3.243 -20.421  38.304  1.00  0.00    -0.360 N 
HETATM   41  C16 UNL     1      -4.114 -19.315  37.835  1.00  0.00     0.125 C 
HETATM   42  C17 UNL     1      -4.567 -18.451  38.909  1.00  0.00     0.025 C 
HETATM   43  C18 UNL     1      -4.714 -18.937  40.291  1.00  0.00    -0.007 C 
HETATM   44  C19 UNL     1      -6.215 -19.050  40.627  1.00  0.00     0.005 C 
HETATM   45  C23 UNL     1      -3.978 -20.140  40.672  1.00  0.00     0.008 C 
HETATM   46  C20 UNL     1      -6.266 -19.051  42.139  1.00  0.00     0.000 C 
HETATM   47  C21 UNL     1      -5.576 -20.283  42.646  1.00  0.00     0.000 C 
HETATM   48  C22 UNL     1      -4.716 -21.005  41.678  1.00  0.00     0.006 C 
HETATM   49  C24 UNL     1      -3.569 -21.052  39.524  1.00  0.00     0.130 C 
ENDBRANCH  37  40
ENDBRANCH  36  37
BRANCH  36  50
HETATM   50  C25 UNL     1      -0.725 -22.791  36.993  1.00  0.00    -0.004 C 
HETATM   51  C26 UNL     1      -0.264 -22.629  38.438  1.00  0.00     0.021 C 
HETATM   52  C27 UNL     1       0.389 -23.128  36.034  1.00  0.00     0.021 C 
HETATM   53  C28 UNL     1      -1.519 -24.147  37.062  1.00  0.00     0.021 C 
ENDBRANCH  36  50
ENDBRANCH  34  36
ENDBRANCH  31  34
ENDBRANCH   4  31
TORSDOF 16
ENDMDL
