MODEL 1
REMARK VINA RESULT: -8.459592487      0.000      0.000
REMARK  7 active torsions:
REMARK  status: ('A' for Active; 'I' for Inactive)
REMARK    1  A    between atoms: C4_4  and  S1_5 
REMARK    2  A    between atoms: S1_5  and  C5_6 
REMARK    3  A    between atoms: C5_6  and  C6_7 
REMARK    4  A    between atoms: C6_7  and  C7_8 
REMARK    5  A    between atoms: C7_8  and  C8_9 
REMARK    6  A    between atoms: C8_9  and  C9_10 
REMARK    7  A    between atoms: C9_10  and  N1_11 
ROOT
HETATM    1  C6  UNL     1     238.766 -27.870 352.940  1.00  0.00     0.010 C 
ENDROOT
BRANCH   1   2
HETATM    2  C5  UNL     1     238.158 -29.089 352.315  1.00  0.00     0.081 C 
BRANCH   2   3
HETATM    3  S1  UNL     1     237.112 -28.638 350.921  1.00  0.00    -0.112 SA
BRANCH   3   4
HETATM    4  C4  UNL     1     235.528 -28.115 351.574  1.00  0.00     0.069 A 
HETATM    5  C3  UNL     1     235.425 -26.908 352.272  1.00  0.00     0.037 A 
HETATM    6  C2  UNL     1     234.246 -26.464 352.791  1.00  0.00     0.004 A 
HETATM    7  C1  UNL     1     233.098 -27.213 352.641  1.00  0.00     0.017 A 
HETATM    8  C15 UNL     1     233.226 -28.402 351.949  1.00  0.00     0.089 A 
HETATM    9  N2  UNL     1     234.404 -28.834 351.436  1.00  0.00    -0.361 N 
ATOM     10  H2  UNL     1     234.436 -29.722 350.935  1.00  0.00     0.165 HD
ENDBRANCH   3   4
ENDBRANCH   2   3
ENDBRANCH   1   2
BRANCH   1  11
HETATM   11  C7  UNL     1     239.182 -26.835 351.941  1.00  0.00     0.002 C 
BRANCH  11  12
HETATM   12  C8  UNL     1     239.836 -25.621 352.565  1.00  0.00     0.030 C 
BRANCH  12  13
HETATM   13  C9  UNL     1     241.258 -25.961 352.941  1.00  0.00     0.272 C 
BRANCH  13  14
HETATM   14  N1  UNL     1     242.084 -24.769 353.094  1.00  0.00     0.088 N 
HETATM   15  C10 UNL     1     242.549 -24.731 354.464  1.00  0.00     0.272 C 
HETATM   16  C11 UNL     1     243.051 -23.368 354.862  1.00  0.00     0.030 C 
HETATM   17  C12 UNL     1     243.227 -22.437 353.680  1.00  0.00     0.003 C 
HETATM   18  C13 UNL     1     241.955 -22.324 352.887  1.00  0.00     0.030 C 
HETATM   19  C14 UNL     1     241.228 -23.642 352.777  1.00  0.00     0.272 C 
ENDBRANCH  13  14
ENDBRANCH  12  13
ENDBRANCH  11  12
ENDBRANCH   1  11
TORSDOF 7
ENDMDL
MODEL 2
REMARK VINA RESULT: -8.383202055      0.938      1.560
REMARK  7 active torsions:
REMARK  status: ('A' for Active; 'I' for Inactive)
REMARK    1  A    between atoms: C4_4  and  S1_5 
REMARK    2  A    between atoms: S1_5  and  C5_6 
REMARK    3  A    between atoms: C5_6  and  C6_7 
REMARK    4  A    between atoms: C6_7  and  C7_8 
REMARK    5  A    between atoms: C7_8  and  C8_9 
REMARK    6  A    between atoms: C8_9  and  C9_10 
REMARK    7  A    between atoms: C9_10  and  N1_11 
ROOT
HETATM    1  C6  UNL     1     239.418 -27.911 350.612  1.00  0.00     0.010 C 
ENDROOT
BRANCH   1   2
HETATM    2  C5  UNL     1     238.165 -28.665 350.280  1.00  0.00     0.081 C 
BRANCH   2   3
HETATM    3  S1  UNL     1     237.422 -29.355 351.768  1.00  0.00    -0.112 SA
BRANCH   3   4
HETATM    4  C4  UNL     1     235.835 -28.559 352.004  1.00  0.00     0.069 A 
HETATM    5  C3  UNL     1     235.774 -27.188 352.269  1.00  0.00     0.037 A 
HETATM    6  C2  UNL     1     234.594 -26.533 352.460  1.00  0.00     0.004 A 
HETATM    7  C1  UNL     1     233.402 -27.224 352.395  1.00  0.00     0.017 A 
HETATM    8  C15 UNL     1     233.488 -28.577 352.133  1.00  0.00     0.089 A 
HETATM    9  N2  UNL     1     234.667 -29.218 351.945  1.00  0.00    -0.361 N 
ATOM     10  H2  UNL     1     234.668 -30.220 351.756  1.00  0.00     0.165 HD
ENDBRANCH   3   4
ENDBRANCH   2   3
ENDBRANCH   1   2
BRANCH   1  11
HETATM   11  C7  UNL     1     239.525 -27.545 352.060  1.00  0.00     0.002 C 
BRANCH  11  12
HETATM   12  C8  UNL     1     239.430 -26.057 352.316  1.00  0.00     0.030 C 
BRANCH  12  13
HETATM   13  C9  UNL     1     240.742 -25.405 351.953  1.00  0.00     0.272 C 
BRANCH  13  14
HETATM   14  N1  UNL     1     241.297 -24.637 353.061  1.00  0.00     0.088 N 
HETATM   15  C10 UNL     1     241.945 -23.469 352.504  1.00  0.00     0.272 C 
HETATM   16  C11 UNL     1     242.900 -22.824 353.475  1.00  0.00     0.030 C 
HETATM   17  C12 UNL     1     242.754 -23.356 354.885  1.00  0.00     0.003 C 
HETATM   18  C13 UNL     1     242.894 -24.852 354.916  1.00  0.00     0.030 C 
HETATM   19  C14 UNL     1     242.237 -25.515 353.730  1.00  0.00     0.272 C 
ENDBRANCH  13  14
ENDBRANCH  12  13
ENDBRANCH  11  12
ENDBRANCH   1  11
TORSDOF 7
ENDMDL
MODEL 3
REMARK VINA RESULT: -8.357949650      2.057      8.528
REMARK  7 active torsions:
REMARK  status: ('A' for Active; 'I' for Inactive)
REMARK    1  A    between atoms: C4_4  and  S1_5 
REMARK    2  A    between atoms: S1_5  and  C5_6 
REMARK    3  A    between atoms: C5_6  and  C6_7 
REMARK    4  A    between atoms: C6_7  and  C7_8 
REMARK    5  A    between atoms: C7_8  and  C8_9 
REMARK    6  A    between atoms: C8_9  and  C9_10 
REMARK    7  A    between atoms: C9_10  and  N1_11 
ROOT
HETATM    1  C6  UNL     1     240.089 -26.520 352.955  1.00  0.00     0.010 C 
ENDROOT
BRANCH   1   2
HETATM    2  C5  UNL     1     240.644 -25.146 352.727  1.00  0.00     0.081 C 
BRANCH   2   3
HETATM    3  S1  UNL     1     242.145 -24.897 353.690  1.00  0.00    -0.112 SA
BRANCH   3   4
HETATM    4  C4  UNL     1     242.535 -23.149 353.649  1.00  0.00     0.069 A 
HETATM    5  C3  UNL     1     242.550 -22.409 354.835  1.00  0.00     0.037 A 
HETATM    6  C2  UNL     1     242.837 -21.078 354.859  1.00  0.00     0.004 A 
HETATM    7  C1  UNL     1     243.125 -20.409 353.687  1.00  0.00     0.017 A 
HETATM    8  C15 UNL     1     243.103 -21.162 352.529  1.00  0.00     0.089 A 
HETATM    9  N2  UNL     1     242.816 -22.487 352.516  1.00  0.00    -0.361 N 
ATOM     10  H2  UNL     1     242.814 -22.989 351.629  1.00  0.00     0.165 HD
ENDBRANCH   3   4
ENDBRANCH   2   3
ENDBRANCH   1   2
BRANCH   1  11
HETATM   11  C7  UNL     1     239.068 -26.925 351.937  1.00  0.00     0.002 C 
BRANCH  11  12
HETATM   12  C8  UNL     1     237.863 -27.620 352.532  1.00  0.00     0.030 C 
BRANCH  12  13
HETATM   13  C9  UNL     1     237.121 -28.349 351.438  1.00  0.00     0.272 C 
BRANCH  13  14
HETATM   14  N1  UNL     1     235.691 -28.063 351.462  1.00  0.00     0.088 N 
HETATM   15  C10 UNL     1     235.489 -26.909 352.314  1.00  0.00     0.272 C 
HETATM   16  C11 UNL     1     234.056 -26.765 352.755  1.00  0.00     0.030 C 
HETATM   17  C12 UNL     1     233.111 -27.669 351.990  1.00  0.00     0.003 C 
HETATM   18  C13 UNL     1     233.551 -29.104 352.072  1.00  0.00     0.030 C 
HETATM   19  C14 UNL     1     235.051 -29.251 351.992  1.00  0.00     0.272 C 
ENDBRANCH  13  14
ENDBRANCH  12  13
ENDBRANCH  11  12
ENDBRANCH   1  11
TORSDOF 7
ENDMDL
MODEL 4
REMARK VINA RESULT: -8.352983355      0.921      1.744
REMARK  7 active torsions:
REMARK  status: ('A' for Active; 'I' for Inactive)
REMARK    1  A    between atoms: C4_4  and  S1_5 
REMARK    2  A    between atoms: S1_5  and  C5_6 
REMARK    3  A    between atoms: C5_6  and  C6_7 
REMARK    4  A    between atoms: C6_7  and  C7_8 
REMARK    5  A    between atoms: C7_8  and  C8_9 
REMARK    6  A    between atoms: C8_9  and  C9_10 
REMARK    7  A    between atoms: C9_10  and  N1_11 
ROOT
HETATM    1  C6  UNL     1     239.526 -26.632 351.826  1.00  0.00     0.010 C 
ENDROOT
BRANCH   1   2
HETATM    2  C5  UNL     1     238.670 -27.586 352.604  1.00  0.00     0.081 C 
BRANCH   2   3
HETATM    3  S1  UNL     1     237.602 -28.528 351.503  1.00  0.00    -0.112 SA
BRANCH   3   4
HETATM    4  C4  UNL     1     235.905 -28.126 351.914  1.00  0.00     0.069 A 
HETATM    5  C3  UNL     1     235.588 -26.857 352.407  1.00  0.00     0.037 A 
HETATM    6  C2  UNL     1     234.316 -26.500 352.737  1.00  0.00     0.004 A 
HETATM    7  C1  UNL     1     233.283 -27.403 352.592  1.00  0.00     0.017 A 
HETATM    8  C15 UNL     1     233.622 -28.650 352.104  1.00  0.00     0.089 A 
HETATM    9  N2  UNL     1     234.892 -28.995 351.778  1.00  0.00    -0.361 N 
ATOM     10  H2  UNL     1     235.080 -29.933 351.424  1.00  0.00     0.165 HD
ENDBRANCH   3   4
ENDBRANCH   2   3
ENDBRANCH   1   2
BRANCH   1  11
HETATM   11  C7  UNL     1     239.931 -25.423 352.611  1.00  0.00     0.002 C 
BRANCH  11  12
HETATM   12  C8  UNL     1     241.336 -24.950 352.309  1.00  0.00     0.030 C 
BRANCH  12  13
HETATM   13  C9  UNL     1     242.135 -24.917 353.590  1.00  0.00     0.272 C 
BRANCH  13  14
HETATM   14  N1  UNL     1     242.189 -23.578 354.167  1.00  0.00     0.088 N 
HETATM   15  C10 UNL     1     242.579 -22.663 353.115  1.00  0.00     0.272 C 
HETATM   16  C11 UNL     1     243.072 -21.345 353.655  1.00  0.00     0.030 C 
HETATM   17  C12 UNL     1     242.781 -21.168 355.130  1.00  0.00     0.003 C 
HETATM   18  C13 UNL     1     243.335 -22.311 355.932  1.00  0.00     0.030 C 
HETATM   19  C14 UNL     1     243.173 -23.638 355.231  1.00  0.00     0.272 C 
ENDBRANCH  13  14
ENDBRANCH  12  13
ENDBRANCH  11  12
ENDBRANCH   1  11
TORSDOF 7
ENDMDL
MODEL 5
REMARK VINA RESULT: -8.313835569      2.036      8.529
REMARK  7 active torsions:
REMARK  status: ('A' for Active; 'I' for Inactive)
REMARK    1  A    between atoms: C4_4  and  S1_5 
REMARK    2  A    between atoms: S1_5  and  C5_6 
REMARK    3  A    between atoms: C5_6  and  C6_7 
REMARK    4  A    between atoms: C6_7  and  C7_8 
REMARK    5  A    between atoms: C7_8  and  C8_9 
REMARK    6  A    between atoms: C8_9  and  C9_10 
REMARK    7  A    between atoms: C9_10  and  N1_11 
ROOT
HETATM    1  C6  UNL     1     239.650 -25.856 352.357  1.00  0.00     0.010 C 
ENDROOT
BRANCH   1   2
HETATM    2  C5  UNL     1     240.915 -25.601 353.121  1.00  0.00     0.081 C 
BRANCH   2   3
HETATM    3  S1  UNL     1     241.615 -24.001 352.682  1.00  0.00    -0.112 SA
BRANCH   3   4
HETATM    4  C4  UNL     1     242.435 -23.348 354.134  1.00  0.00     0.069 A 
HETATM    5  C3  UNL     1     243.013 -24.220 355.061  1.00  0.00     0.037 A 
HETATM    6  C2  UNL     1     243.646 -23.776 356.183  1.00  0.00     0.004 A 
HETATM    7  C1  UNL     1     243.734 -22.423 356.440  1.00  0.00     0.017 A 
HETATM    8  C15 UNL     1     243.154 -21.583 355.510  1.00  0.00     0.089 A 
HETATM    9  N2  UNL     1     242.527 -22.035 354.396  1.00  0.00    -0.361 N 
ATOM     10  H2  UNL     1     242.116 -21.365 353.747  1.00  0.00     0.165 HD
ENDBRANCH   3   4
ENDBRANCH   2   3
ENDBRANCH   1   2
BRANCH   1  11
HETATM   11  C7  UNL     1     239.348 -27.311 352.178  1.00  0.00     0.002 C 
BRANCH  11  12
HETATM   12  C8  UNL     1     237.965 -27.704 352.650  1.00  0.00     0.030 C 
BRANCH  12  13
HETATM   13  C9  UNL     1     237.243 -28.419 351.534  1.00  0.00     0.272 C 
BRANCH  13  14
HETATM   14  N1  UNL     1     235.821 -28.098 351.507  1.00  0.00     0.088 N 
HETATM   15  C10 UNL     1     235.614 -26.955 352.370  1.00  0.00     0.272 C 
HETATM   16  C11 UNL     1     234.167 -26.783 352.758  1.00  0.00     0.030 C 
HETATM   17  C12 UNL     1     233.232 -27.650 351.941  1.00  0.00     0.003 C 
HETATM   18  C13 UNL     1     233.634 -29.096 352.014  1.00  0.00     0.030 C 
HETATM   19  C14 UNL     1     235.132 -29.279 351.991  1.00  0.00     0.272 C 
ENDBRANCH  13  14
ENDBRANCH  12  13
ENDBRANCH  11  12
ENDBRANCH   1  11
TORSDOF 7
ENDMDL
