MODEL 1
REMARK VINA RESULT: -8.823046042      0.000      0.000
REMARK  7 active torsions:
REMARK  status: ('A' for Active; 'I' for Inactive)
REMARK    1  A    between atoms: C5_5  and  O1_6 
REMARK    2  A    between atoms: C8_10  and  C9_11 
REMARK    3  A    between atoms: N1_12  and  C10_14 
REMARK    4  A    between atoms: C10_14  and  C11_15 
REMARK    5  A    between atoms: C11_15  and  O2_18 
REMARK    6  A    between atoms: C19_26  and  C20_27 
REMARK    7  A    between atoms: C20_27  and  O4_29 
ROOT
HETATM    1  C1  UNL     1       3.189  24.602   8.534  1.00  0.00     0.049 C 
HETATM    2  C2  UNL     1       4.164  24.911   7.496  1.00  0.00    -0.045 A 
HETATM    3  C3  UNL     1       4.339  26.251   7.121  1.00  0.00    -0.042 A 
HETATM    4  C4  UNL     1       5.249  26.611   6.153  1.00  0.00    -0.015 A 
HETATM    5  C5  UNL     1       5.983  25.619   5.563  1.00  0.00     0.106 A 
HETATM    6  C6  UNL     1       5.804  24.303   5.937  1.00  0.00     0.111 A 
HETATM    7  C7  UNL     1       4.900  23.922   6.902  1.00  0.00    -0.006 A 
HETATM    8  C8  UNL     1       4.746  22.536   7.256  1.00  0.00     0.063 C 
HETATM    9  C14 UNL     1       5.338  21.655   6.172  1.00  0.00     0.052 C 
HETATM   10  C15 UNL     1       6.696  22.030   5.717  1.00  0.00     0.061 C 
HETATM   11  C16 UNL     1       7.031  21.191   4.501  1.00  0.00     0.046 C 
HETATM   12  C17 UNL     1       7.734  21.935   6.791  1.00  0.00     0.046 C 
HETATM   13  O3  UNL     1       6.612  23.375   5.265  1.00  0.00    -0.338 OA
HETATM   14  C18 UNL     1       5.216  28.089   5.974  1.00  0.00     0.049 C 
HETATM   15  C19 UNL     1       4.702  28.542   7.349  1.00  0.00     0.023 C 
HETATM   16  C22 UNL     1       3.663  27.478   7.609  1.00  0.00     0.047 C 
ENDROOT
BRANCH   8  17
HETATM   17  C9  UNL     1       3.350  22.046   7.371  1.00  0.00     0.065 C 
HETATM   18  N1  UNL     1       2.881  21.053   6.727  1.00  0.00    -0.399 N 
ATOM     19  H1  UNL     1       3.494  20.550   6.085  1.00  0.00     0.158 HD
BRANCH  18  20
HETATM   20  C10 UNL     1       1.543  20.622   6.869  1.00  0.00     0.155 C 
BRANCH  20  21
HETATM   21  C11 UNL     1       1.381  19.248   7.434  1.00  0.00     0.066 C 
HETATM   22  C12 UNL     1       1.011  18.324   6.275  1.00  0.00     0.047 C 
HETATM   23  C13 UNL     1       0.233  19.163   8.426  1.00  0.00     0.047 C 
BRANCH  21  24
HETATM   24  O2  UNL     1       2.550  18.771   7.989  1.00  0.00    -0.389 OA
ATOM     25  H2  UNL     1       2.442  18.531   8.902  1.00  0.00     0.210 HD
ENDBRANCH  21  24
ENDBRANCH  20  21
ENDBRANCH  18  20
ENDBRANCH   8  17
BRANCH   5  26
HETATM   26  O1  UNL     1       6.907  26.003   4.577  1.00  0.00    -0.357 OA
ATOM     27  H1  UNL     1       7.283  25.314   4.042  1.00  0.00     0.217 HD
ENDBRANCH   5  26
BRANCH  15  28
HETATM   28  C20 UNL     1       4.076  29.906   7.157  1.00  0.00     0.118 C 
HETATM   29  C21 UNL     1       2.637  29.941   7.567  1.00  0.00     0.040 C 
BRANCH  28  30
HETATM   30  O4  UNL     1       4.309  30.343   5.870  1.00  0.00    -0.396 OA
ATOM     31  H4  UNL     1       4.912  31.077   5.888  1.00  0.00     0.210 HD
ENDBRANCH  28  30
ENDBRANCH  15  28
TORSDOF 7
ENDMDL
MODEL 2
REMARK VINA RESULT: -8.602096677      2.564      5.286
REMARK  7 active torsions:
REMARK  status: ('A' for Active; 'I' for Inactive)
REMARK    1  A    between atoms: C5_5  and  O1_6 
REMARK    2  A    between atoms: C8_10  and  C9_11 
REMARK    3  A    between atoms: N1_12  and  C10_14 
REMARK    4  A    between atoms: C10_14  and  C11_15 
REMARK    5  A    between atoms: C11_15  and  O2_18 
REMARK    6  A    between atoms: C19_26  and  C20_27 
REMARK    7  A    between atoms: C20_27  and  O4_29 
ROOT
HETATM    1  C1  UNL     1       6.873  25.726   5.103  1.00  0.00     0.049 C 
HETATM    2  C2  UNL     1       5.785  25.439   6.027  1.00  0.00    -0.045 A 
HETATM    3  C3  UNL     1       5.073  26.515   6.578  1.00  0.00    -0.042 A 
HETATM    4  C4  UNL     1       4.029  26.312   7.450  1.00  0.00    -0.015 A 
HETATM    5  C5  UNL     1       3.702  25.022   7.769  1.00  0.00     0.106 A 
HETATM    6  C6  UNL     1       4.407  23.969   7.224  1.00  0.00     0.111 A 
HETATM    7  C7  UNL     1       5.454  24.151   6.350  1.00  0.00    -0.006 A 
HETATM    8  C8  UNL     1       6.163  23.021   5.810  1.00  0.00     0.063 C 
HETATM    9  C14 UNL     1       5.887  21.787   6.648  1.00  0.00     0.052 C 
HETATM   10  C15 UNL     1       4.462  21.533   6.959  1.00  0.00     0.061 C 
HETATM   11  C16 UNL     1       4.397  20.406   7.970  1.00  0.00     0.046 C 
HETATM   12  C17 UNL     1       3.623  21.273   5.747  1.00  0.00     0.046 C 
HETATM   13  O3  UNL     1       3.981  22.694   7.622  1.00  0.00    -0.338 OA
HETATM   14  C18 UNL     1       3.468  27.629   7.860  1.00  0.00     0.049 C 
HETATM   15  C19 UNL     1       3.859  28.503   6.659  1.00  0.00     0.023 C 
HETATM   16  C22 UNL     1       5.248  27.976   6.387  1.00  0.00     0.047 C 
ENDROOT
BRANCH   8  17
HETATM   17  C9  UNL     1       7.644  23.117   5.819  1.00  0.00     0.065 C 
HETATM   18  N1  UNL     1       8.365  23.005   6.862  1.00  0.00    -0.399 N 
ATOM     19  H1  UNL     1       7.909  22.836   7.759  1.00  0.00     0.158 HD
BRANCH  18  20
HETATM   20  C10 UNL     1       9.774  23.105   6.822  1.00  0.00     0.155 C 
BRANCH  20  21
HETATM   21  C11 UNL     1      10.430  23.277   8.154  1.00  0.00     0.066 C 
HETATM   22  C12 UNL     1      11.698  24.098   7.930  1.00  0.00     0.047 C 
HETATM   23  C13 UNL     1      10.881  21.954   8.751  1.00  0.00     0.047 C 
BRANCH  21  24
HETATM   24  O2  UNL     1       9.636  23.973   9.042  1.00  0.00    -0.389 OA
ATOM     25  H2  UNL     1      10.005  23.991   9.917  1.00  0.00     0.210 HD
ENDBRANCH  21  24
ENDBRANCH  20  21
ENDBRANCH  18  20
ENDBRANCH   8  17
BRANCH   5  26
HETATM   26  O1  UNL     1       2.633  24.832   8.662  1.00  0.00    -0.357 OA
ATOM     27  H1  UNL     1       2.352  23.938   8.818  1.00  0.00     0.217 HD
ENDBRANCH   5  26
BRANCH  15  28
HETATM   28  C20 UNL     1       3.887  29.935   7.148  1.00  0.00     0.118 C 
HETATM   29  C21 UNL     1       5.254  30.371   7.574  1.00  0.00     0.040 C 
BRANCH  28  30
HETATM   30  O4  UNL     1       2.911  30.114   8.106  1.00  0.00    -0.396 OA
ATOM     31  H4  UNL     1       3.290  30.004   8.970  1.00  0.00     0.210 HD
ENDBRANCH  28  30
ENDBRANCH  15  28
TORSDOF 7
ENDMDL
MODEL 3
REMARK VINA RESULT: -8.534098116      2.631      5.623
REMARK  7 active torsions:
REMARK  status: ('A' for Active; 'I' for Inactive)
REMARK    1  A    between atoms: C5_5  and  O1_6 
REMARK    2  A    between atoms: C8_10  and  C9_11 
REMARK    3  A    between atoms: N1_12  and  C10_14 
REMARK    4  A    between atoms: C10_14  and  C11_15 
REMARK    5  A    between atoms: C11_15  and  O2_18 
REMARK    6  A    between atoms: C19_26  and  C20_27 
REMARK    7  A    between atoms: C20_27  and  O4_29 
ROOT
HETATM    1  C1  UNL     1       7.219  25.874   4.844  1.00  0.00     0.049 C 
HETATM    2  C2  UNL     1       6.138  25.547   5.764  1.00  0.00    -0.045 A 
HETATM    3  C3  UNL     1       5.395  26.596   6.323  1.00  0.00    -0.042 A 
HETATM    4  C4  UNL     1       4.355  26.356   7.192  1.00  0.00    -0.015 A 
HETATM    5  C5  UNL     1       4.065  25.054   7.498  1.00  0.00     0.106 A 
HETATM    6  C6  UNL     1       4.801  24.026   6.944  1.00  0.00     0.111 A 
HETATM    7  C7  UNL     1       5.843  24.246   6.074  1.00  0.00    -0.006 A 
HETATM    8  C8  UNL     1       6.585  23.142   5.525  1.00  0.00     0.063 C 
HETATM    9  C14 UNL     1       6.343  21.893   6.351  1.00  0.00     0.052 C 
HETATM   10  C15 UNL     1       4.926  21.595   6.657  1.00  0.00     0.061 C 
HETATM   11  C16 UNL     1       4.892  20.458   7.657  1.00  0.00     0.046 C 
HETATM   12  C17 UNL     1       4.097  21.324   5.441  1.00  0.00     0.046 C 
HETATM   13  O3  UNL     1       4.411  22.736   7.330  1.00  0.00    -0.338 OA
HETATM   14  C18 UNL     1       3.757  27.652   7.614  1.00  0.00     0.049 C 
HETATM   15  C19 UNL     1       4.125  28.548   6.421  1.00  0.00     0.023 C 
HETATM   16  C22 UNL     1       5.528  28.064   6.146  1.00  0.00     0.047 C 
ENDROOT
BRANCH   8  17
HETATM   17  C9  UNL     1       8.063  23.281   5.537  1.00  0.00     0.065 C 
HETATM   18  N1  UNL     1       8.768  23.364   6.594  1.00  0.00    -0.399 N 
ATOM     19  H1  UNL     1       8.301  23.335   7.500  1.00  0.00     0.158 HD
BRANCH  18  20
HETATM   20  C10 UNL     1      10.174  23.496   6.556  1.00  0.00     0.155 C 
BRANCH  20  21
HETATM   21  C11 UNL     1      10.681  24.889   6.753  1.00  0.00     0.066 C 
HETATM   22  C12 UNL     1      12.075  24.780   7.367  1.00  0.00     0.047 C 
HETATM   23  C13 UNL     1       9.840  25.674   7.747  1.00  0.00     0.047 C 
BRANCH  21  24
HETATM   24  O2  UNL     1      10.803  25.573   5.562  1.00  0.00    -0.389 OA
ATOM     25  H2  UNL     1      11.594  26.098   5.528  1.00  0.00     0.210 HD
ENDBRANCH  21  24
ENDBRANCH  20  21
ENDBRANCH  18  20
ENDBRANCH   8  17
BRANCH   5  26
HETATM   26  O1  UNL     1       3.001  24.825   8.387  1.00  0.00    -0.357 OA
ATOM     27  H1  UNL     1       2.655  23.941   8.432  1.00  0.00     0.217 HD
ENDBRANCH   5  26
BRANCH  15  28
HETATM   28  C20 UNL     1       4.111  29.976   6.924  1.00  0.00     0.118 C 
HETATM   29  C21 UNL     1       5.487  30.537   7.099  1.00  0.00     0.040 C 
BRANCH  28  30
HETATM   30  O4  UNL     1       3.317  30.061   8.048  1.00  0.00    -0.396 OA
ATOM     31  H4  UNL     1       3.861  30.023   8.825  1.00  0.00     0.210 HD
ENDBRANCH  28  30
ENDBRANCH  15  28
TORSDOF 7
ENDMDL
MODEL 4
REMARK VINA RESULT: -8.500730570      2.840      5.737
REMARK  7 active torsions:
REMARK  status: ('A' for Active; 'I' for Inactive)
REMARK    1  A    between atoms: C5_5  and  O1_6 
REMARK    2  A    between atoms: C8_10  and  C9_11 
REMARK    3  A    between atoms: N1_12  and  C10_14 
REMARK    4  A    between atoms: C10_14  and  C11_15 
REMARK    5  A    between atoms: C11_15  and  O2_18 
REMARK    6  A    between atoms: C19_26  and  C20_27 
REMARK    7  A    between atoms: C20_27  and  O4_29 
ROOT
HETATM    1  C1  UNL     1       7.307  26.484   4.834  1.00  0.00     0.049 C 
HETATM    2  C2  UNL     1       6.257  25.954   5.694  1.00  0.00    -0.045 A 
HETATM    3  C3  UNL     1       5.412  26.858   6.352  1.00  0.00    -0.042 A 
HETATM    4  C4  UNL     1       4.396  26.422   7.172  1.00  0.00    -0.015 A 
HETATM    5  C5  UNL     1       4.233  25.073   7.329  1.00  0.00     0.106 A 
HETATM    6  C6  UNL     1       5.070  24.189   6.678  1.00  0.00     0.111 A 
HETATM    7  C7  UNL     1       6.091  24.604   5.855  1.00  0.00    -0.006 A 
HETATM    8  C8  UNL     1       6.941  23.645   5.201  1.00  0.00     0.063 C 
HETATM    9  C14 UNL     1       6.818  22.295   5.881  1.00  0.00     0.052 C 
HETATM   10  C15 UNL     1       5.435  21.829   6.129  1.00  0.00     0.061 C 
HETATM   11  C16 UNL     1       5.508  20.590   6.998  1.00  0.00     0.046 C 
HETATM   12  C17 UNL     1       4.644  21.614   4.877  1.00  0.00     0.046 C 
HETATM   13  O3  UNL     1       4.806  22.833   6.914  1.00  0.00    -0.338 OA
HETATM   14  C18 UNL     1       3.670  27.600   7.723  1.00  0.00     0.049 C 
HETATM   15  C19 UNL     1       3.955  28.654   6.642  1.00  0.00     0.023 C 
HETATM   16  C22 UNL     1       5.400  28.341   6.340  1.00  0.00     0.047 C 
ENDROOT
BRANCH   8  17
HETATM   17  C9  UNL     1       8.397  23.925   5.254  1.00  0.00     0.065 C 
HETATM   18  N1  UNL     1       9.117  23.796   6.296  1.00  0.00    -0.399 N 
ATOM     19  H1  UNL     1       8.678  23.479   7.160  1.00  0.00     0.158 HD
BRANCH  18  20
HETATM   20  C10 UNL     1      10.502  24.075   6.298  1.00  0.00     0.155 C 
BRANCH  20  21
HETATM   21  C11 UNL     1      10.969  24.935   7.428  1.00  0.00     0.066 C 
HETATM   22  C12 UNL     1      10.626  26.379   7.067  1.00  0.00     0.047 C 
HETATM   23  C13 UNL     1      12.478  24.889   7.604  1.00  0.00     0.047 C 
BRANCH  21  24
HETATM   24  O2  UNL     1      10.324  24.638   8.611  1.00  0.00    -0.389 OA
ATOM     25  H2  UNL     1      10.751  25.033   9.362  1.00  0.00     0.210 HD
ENDBRANCH  21  24
ENDBRANCH  20  21
ENDBRANCH  18  20
ENDBRANCH   8  17
BRANCH   5  26
HETATM   26  O1  UNL     1       3.191  24.644   8.170  1.00  0.00    -0.357 OA
ATOM     27  H1  UNL     1       2.849  23.770   8.026  1.00  0.00     0.217 HD
ENDBRANCH   5  26
BRANCH  15  28
HETATM   28  C20 UNL     1       3.797  30.009   7.298  1.00  0.00     0.118 C 
HETATM   29  C21 UNL     1       5.005  30.410   8.085  1.00  0.00     0.040 C 
BRANCH  28  30
HETATM   30  O4  UNL     1       2.619  30.041   8.012  1.00  0.00    -0.396 OA
ATOM     31  H4  UNL     1       2.673  30.710   8.685  1.00  0.00     0.210 HD
ENDBRANCH  28  30
ENDBRANCH  15  28
TORSDOF 7
ENDMDL
MODEL 5
REMARK VINA RESULT: -8.466982326      1.184      1.336
REMARK  7 active torsions:
REMARK  status: ('A' for Active; 'I' for Inactive)
REMARK    1  A    between atoms: C5_5  and  O1_6 
REMARK    2  A    between atoms: C8_10  and  C9_11 
REMARK    3  A    between atoms: N1_12  and  C10_14 
REMARK    4  A    between atoms: C10_14  and  C11_15 
REMARK    5  A    between atoms: C11_15  and  O2_18 
REMARK    6  A    between atoms: C19_26  and  C20_27 
REMARK    7  A    between atoms: C20_27  and  O4_29 
ROOT
HETATM    1  C1  UNL     1       3.402  24.530   8.340  1.00  0.00     0.049 C 
HETATM    2  C2  UNL     1       4.367  24.552   7.250  1.00  0.00    -0.045 A 
HETATM    3  C3  UNL     1       4.754  25.792   6.723  1.00  0.00    -0.042 A 
HETATM    4  C4  UNL     1       5.668  25.882   5.698  1.00  0.00    -0.015 A 
HETATM    5  C5  UNL     1       6.192  24.719   5.203  1.00  0.00     0.106 A 
HETATM    6  C6  UNL     1       5.805  23.502   5.726  1.00  0.00     0.111 A 
HETATM    7  C7  UNL     1       4.894  23.391   6.750  1.00  0.00    -0.006 A 
HETATM    8  C8  UNL     1       4.518  22.099   7.260  1.00  0.00     0.063 C 
HETATM    9  C14 UNL     1       4.899  21.018   6.266  1.00  0.00     0.052 C 
HETATM   10  C15 UNL     1       6.279  21.097   5.736  1.00  0.00     0.061 C 
HETATM   11  C16 UNL     1       6.408  20.089   4.613  1.00  0.00     0.046 C 
HETATM   12  C17 UNL     1       7.332  20.933   6.787  1.00  0.00     0.046 C 
HETATM   13  O3  UNL     1       6.409  22.381   5.140  1.00  0.00    -0.338 OA
HETATM   14  C18 UNL     1       5.884  27.315   5.356  1.00  0.00     0.049 C 
HETATM   15  C19 UNL     1       5.519  27.994   6.686  1.00  0.00     0.023 C 
HETATM   16  C22 UNL     1       4.324  27.164   7.090  1.00  0.00     0.047 C 
ENDROOT
BRANCH   8  17
HETATM   17  C9  UNL     1       3.064  21.878   7.465  1.00  0.00     0.065 C 
HETATM   18  N1  UNL     1       2.389  20.962   6.896  1.00  0.00    -0.399 N 
ATOM     19  H1  UNL     1       2.864  20.329   6.253  1.00  0.00     0.158 HD
BRANCH  18  20
HETATM   20  C10 UNL     1       1.005  20.791   7.122  1.00  0.00     0.155 C 
BRANCH  20  21
HETATM   21  C11 UNL     1       0.584  19.386   7.415  1.00  0.00     0.066 C 
HETATM   22  C12 UNL     1      -0.518  19.456   8.469  1.00  0.00     0.047 C 
HETATM   23  C13 UNL     1       1.706  18.564   8.028  1.00  0.00     0.047 C 
BRANCH  21  24
HETATM   24  O2  UNL     1       0.060  18.756   6.306  1.00  0.00    -0.389 OA
ATOM     25  H2  UNL     1       0.123  19.293   5.524  1.00  0.00     0.210 HD
ENDBRANCH  21  24
ENDBRANCH  20  21
ENDBRANCH  18  20
ENDBRANCH   8  17
BRANCH   5  26
HETATM   26  O1  UNL     1       7.123  24.828   4.156  1.00  0.00    -0.357 OA
ATOM     27  H1  UNL     1       8.023  24.593   4.350  1.00  0.00     0.217 HD
ENDBRANCH   5  26
BRANCH  15  28
HETATM   28  C20 UNL     1       5.131  29.419   6.359  1.00  0.00     0.118 C 
HETATM   29  C21 UNL     1       5.576  30.391   7.407  1.00  0.00     0.040 C 
BRANCH  28  30
HETATM   30  O4  UNL     1       3.784  29.475   6.070  1.00  0.00    -0.396 OA
ATOM     31  H4  UNL     1       3.357  30.083   6.662  1.00  0.00     0.210 HD
ENDBRANCH  28  30
ENDBRANCH  15  28
TORSDOF 7
ENDMDL
