MODEL 1
REMARK VINA RESULT: -8.175676860      0.000      0.000
REMARK  7 active torsions:
REMARK  status: ('A' for Active; 'I' for Inactive)
REMARK    1  A    between atoms: C2_2  and  C3_3 
REMARK    2  A    between atoms: C3_3  and  N1_4 
REMARK    3  A    between atoms: N1_4  and  C4_5 
REMARK    4  A    between atoms: C7_11  and  N3_12 
REMARK    5  A    between atoms: N3_12  and  C8_14 
REMARK    6  A    between atoms: C8_14  and  C10_16 
REMARK    7  A    between atoms: C10_16  and  O1_19 
ROOT
HETATM    1  C4  UNL     1       5.949  28.029   6.400  1.00  0.00     0.222 A 
HETATM    2  N2  UNL     1       5.262  26.891   6.660  1.00  0.00    -0.323 N 
ATOM      3  H2  UNL     1       4.282  26.941   6.941  1.00  0.00     0.169 HD
HETATM    4  C5  UNL     1       5.842  25.747   6.554  1.00  0.00     0.063 A 
HETATM    5  C6  UNL     1       7.166  25.724   6.172  1.00  0.00     0.040 A 
HETATM    6  S1  UNL     1       7.517  27.366   5.981  1.00  0.00    -0.039 SA
HETATM    7  C7  UNL     1       8.036  24.522   5.992  1.00  0.00     0.154 C 
HETATM    8  C13 UNL     1       7.414  23.748   4.838  1.00  0.00     0.085 C 
HETATM    9  C14 UNL     1       6.974  24.726   3.775  1.00  0.00     0.049 C 
HETATM   10  C15 UNL     1       8.398  22.795   4.190  1.00  0.00     0.049 C 
HETATM   11  O2  UNL     1       6.318  22.940   5.285  1.00  0.00    -0.338 OA
HETATM   12  C16 UNL     1       5.329  23.213   6.227  1.00  0.00     0.082 A 
HETATM   13  C17 UNL     1       4.553  22.129   6.565  1.00  0.00     0.038 A 
HETATM   14  C18 UNL     1       3.545  22.261   7.480  1.00  0.00     0.003 A 
HETATM   15  C19 UNL     1       3.323  23.516   8.059  1.00  0.00     0.001 A 
HETATM   16  C20 UNL     1       4.095  24.604   7.727  1.00  0.00     0.016 A 
HETATM   17  C21 UNL     1       5.105  24.467   6.809  1.00  0.00     0.025 A 
ENDROOT
BRANCH   7  18
HETATM   18  N3  UNL     1       9.363  24.712   5.821  1.00  0.00    -0.403 N 
ATOM     19  H3  UNL     1       9.625  25.221   4.978  1.00  0.00     0.154 HD
BRANCH  18  20
HETATM   20  C8  UNL     1      10.415  24.316   6.623  1.00  0.00     0.106 C 
HETATM   21  C9  UNL     1      11.623  23.766   5.889  1.00  0.00     0.035 C 
BRANCH  20  22
HETATM   22  C10 UNL     1      10.972  25.569   7.348  1.00  0.00     0.070 C 
HETATM   23  C11 UNL     1      12.346  25.380   7.870  1.00  0.00     0.047 C 
HETATM   24  C12 UNL     1      10.078  25.865   8.562  1.00  0.00     0.047 C 
BRANCH  22  25
HETATM   25  O1  UNL     1      10.897  26.694   6.553  1.00  0.00    -0.389 OA
ATOM     26  H1  UNL     1      11.020  27.490   7.058  1.00  0.00     0.210 HD
ENDBRANCH  22  25
ENDBRANCH  20  22
ENDBRANCH  18  20
ENDBRANCH   7  18
BRANCH   1  27
HETATM   27  N1  UNL     1       5.600  29.193   6.446  1.00  0.00    -0.397 NA
BRANCH  27  28
HETATM   28  C3  UNL     1       5.316  30.463   6.591  1.00  0.00     0.157 C 
BRANCH  28  29
HETATM   29  C2  UNL     1       6.510  31.366   6.909  1.00  0.00     0.055 C 
HETATM   30  C1  UNL     1       6.836  31.449   8.357  1.00  0.00     0.011 C 
ENDBRANCH  28  29
ENDBRANCH  27  28
ENDBRANCH   1  27
TORSDOF 7
ENDMDL
MODEL 2
REMARK VINA RESULT: -7.863306379      0.947      1.408
REMARK  7 active torsions:
REMARK  status: ('A' for Active; 'I' for Inactive)
REMARK    1  A    between atoms: C2_2  and  C3_3 
REMARK    2  A    between atoms: C3_3  and  N1_4 
REMARK    3  A    between atoms: N1_4  and  C4_5 
REMARK    4  A    between atoms: C7_11  and  N3_12 
REMARK    5  A    between atoms: N3_12  and  C8_14 
REMARK    6  A    between atoms: C8_14  and  C10_16 
REMARK    7  A    between atoms: C10_16  and  O1_19 
ROOT
HETATM    1  C4  UNL     1       5.955  28.059   6.379  1.00  0.00     0.222 A 
HETATM    2  N2  UNL     1       5.283  26.913   6.646  1.00  0.00    -0.323 N 
ATOM      3  H2  UNL     1       4.317  26.953   6.969  1.00  0.00     0.169 HD
HETATM    4  C5  UNL     1       5.863  25.774   6.492  1.00  0.00     0.063 A 
HETATM    5  C6  UNL     1       7.169  25.764   6.054  1.00  0.00     0.040 A 
HETATM    6  S1  UNL     1       7.506  27.411   5.880  1.00  0.00    -0.039 SA
HETATM    7  C7  UNL     1       8.035  24.570   5.813  1.00  0.00     0.154 C 
HETATM    8  C13 UNL     1       7.367  23.816   4.672  1.00  0.00     0.085 C 
HETATM    9  C14 UNL     1       6.879  24.812   3.648  1.00  0.00     0.049 C 
HETATM   10  C15 UNL     1       8.326  22.880   3.964  1.00  0.00     0.049 C 
HETATM   11  O2  UNL     1       6.294  22.994   5.149  1.00  0.00    -0.338 OA
HETATM   12  C16 UNL     1       5.345  23.245   6.138  1.00  0.00     0.082 A 
HETATM   13  C17 UNL     1       4.588  22.151   6.486  1.00  0.00     0.038 A 
HETATM   14  C18 UNL     1       3.619  22.261   7.445  1.00  0.00     0.003 A 
HETATM   15  C19 UNL     1       3.418  23.503   8.058  1.00  0.00     0.001 A 
HETATM   16  C20 UNL     1       4.171  24.601   7.715  1.00  0.00     0.016 A 
HETATM   17  C21 UNL     1       5.141  24.486   6.753  1.00  0.00     0.025 A 
ENDROOT
BRANCH   7  18
HETATM   18  N3  UNL     1       9.352  24.768   5.590  1.00  0.00    -0.403 N 
ATOM     19  H3  UNL     1       9.624  24.830   4.609  1.00  0.00     0.154 HD
BRANCH  18  20
HETATM   20  C8  UNL     1      10.385  24.901   6.498  1.00  0.00     0.106 C 
HETATM   21  C9  UNL     1      10.065  24.473   7.917  1.00  0.00     0.035 C 
BRANCH  20  22
HETATM   22  C10 UNL     1      11.527  23.939   6.079  1.00  0.00     0.070 C 
HETATM   23  C11 UNL     1      12.775  24.143   6.851  1.00  0.00     0.047 C 
HETATM   24  C12 UNL     1      11.872  24.207   4.606  1.00  0.00     0.047 C 
BRANCH  22  25
HETATM   25  O1  UNL     1      11.127  22.619   6.128  1.00  0.00    -0.389 OA
ATOM     26  H1  UNL     1      10.708  22.409   6.955  1.00  0.00     0.210 HD
ENDBRANCH  22  25
ENDBRANCH  20  22
ENDBRANCH  18  20
ENDBRANCH   7  18
BRANCH   1  27
HETATM   27  N1  UNL     1       5.604  29.221   6.462  1.00  0.00    -0.397 NA
BRANCH  27  28
HETATM   28  C3  UNL     1       5.350  30.498   6.596  1.00  0.00     0.157 C 
BRANCH  28  29
HETATM   29  C2  UNL     1       6.565  31.375   6.906  1.00  0.00     0.055 C 
HETATM   30  C1  UNL     1       6.874  31.487   8.356  1.00  0.00     0.011 C 
ENDBRANCH  28  29
ENDBRANCH  27  28
ENDBRANCH   1  27
TORSDOF 7
ENDMDL
MODEL 3
REMARK VINA RESULT: -7.739754235      1.284      1.629
REMARK  7 active torsions:
REMARK  status: ('A' for Active; 'I' for Inactive)
REMARK    1  A    between atoms: C2_2  and  C3_3 
REMARK    2  A    between atoms: C3_3  and  N1_4 
REMARK    3  A    between atoms: N1_4  and  C4_5 
REMARK    4  A    between atoms: C7_11  and  N3_12 
REMARK    5  A    between atoms: N3_12  and  C8_14 
REMARK    6  A    between atoms: C8_14  and  C10_16 
REMARK    7  A    between atoms: C10_16  and  O1_19 
ROOT
HETATM    1  C4  UNL     1       5.428  27.626   6.363  1.00  0.00     0.222 A 
HETATM    2  N2  UNL     1       4.955  26.372   6.565  1.00  0.00    -0.323 N 
ATOM      3  H2  UNL     1       3.958  26.223   6.716  1.00  0.00     0.169 HD
HETATM    4  C5  UNL     1       5.762  25.370   6.565  1.00  0.00     0.063 A 
HETATM    5  C6  UNL     1       7.102  25.615   6.357  1.00  0.00     0.040 A 
HETATM    6  S1  UNL     1       7.139  27.293   6.167  1.00  0.00    -0.039 SA
HETATM    7  C7  UNL     1       8.212  24.614   6.323  1.00  0.00     0.154 C 
HETATM    8  C13 UNL     1       7.915  23.729   5.121  1.00  0.00     0.085 C 
HETATM    9  C14 UNL     1       7.431  24.596   3.984  1.00  0.00     0.049 C 
HETATM   10  C15 UNL     1       9.146  22.995   4.631  1.00  0.00     0.049 C 
HETATM   11  O2  UNL     1       6.954  22.716   5.446  1.00  0.00    -0.338 OA
HETATM   12  C16 UNL     1       5.816  22.784   6.246  1.00  0.00     0.082 A 
HETATM   13  C17 UNL     1       5.236  21.565   6.511  1.00  0.00     0.038 A 
HETATM   14  C18 UNL     1       4.111  21.491   7.285  1.00  0.00     0.003 A 
HETATM   15  C19 UNL     1       3.568  22.676   7.796  1.00  0.00     0.001 A 
HETATM   16  C20 UNL     1       4.142  23.897   7.535  1.00  0.00     0.016 A 
HETATM   17  C21 UNL     1       5.270  23.967   6.759  1.00  0.00     0.025 A 
ENDROOT
BRANCH   7  18
HETATM   18  N3  UNL     1       9.484  25.069   6.319  1.00  0.00    -0.403 N 
ATOM     19  H3  UNL     1       9.749  25.615   5.499  1.00  0.00     0.154 HD
BRANCH  18  20
HETATM   20  C8  UNL     1      10.478  24.901   7.263  1.00  0.00     0.106 C 
HETATM   21  C9  UNL     1      11.882  24.745   6.712  1.00  0.00     0.035 C 
BRANCH  20  22
HETATM   22  C10 UNL     1      10.566  26.197   8.111  1.00  0.00     0.070 C 
HETATM   23  C11 UNL     1      10.612  27.430   7.292  1.00  0.00     0.047 C 
HETATM   24  C12 UNL     1      11.871  26.158   8.922  1.00  0.00     0.047 C 
BRANCH  22  25
HETATM   25  O1  UNL     1       9.555  26.264   9.047  1.00  0.00    -0.389 OA
ATOM     26  H1  UNL     1       9.766  25.768   9.830  1.00  0.00     0.210 HD
ENDBRANCH  22  25
ENDBRANCH  20  22
ENDBRANCH  18  20
ENDBRANCH   7  18
BRANCH   1  27
HETATM   27  N1  UNL     1       4.849  28.695   6.331  1.00  0.00    -0.397 NA
BRANCH  27  28
HETATM   28  C3  UNL     1       4.190  29.822   6.425  1.00  0.00     0.157 C 
BRANCH  28  29
HETATM   29  C2  UNL     1       3.335  29.975   7.685  1.00  0.00     0.055 C 
HETATM   30  C1  UNL     1       2.454  28.811   7.962  1.00  0.00     0.011 C 
ENDBRANCH  28  29
ENDBRANCH  27  28
ENDBRANCH   1  27
TORSDOF 7
ENDMDL
MODEL 4
REMARK VINA RESULT: -7.477499562      7.008     10.885
REMARK  7 active torsions:
REMARK  status: ('A' for Active; 'I' for Inactive)
REMARK    1  A    between atoms: C2_2  and  C3_3 
REMARK    2  A    between atoms: C3_3  and  N1_4 
REMARK    3  A    between atoms: N1_4  and  C4_5 
REMARK    4  A    between atoms: C7_11  and  N3_12 
REMARK    5  A    between atoms: N3_12  and  C8_14 
REMARK    6  A    between atoms: C8_14  and  C10_16 
REMARK    7  A    between atoms: C10_16  and  O1_19 
ROOT
HETATM    1  C4  UNL     1       2.598  20.422   7.415  1.00  0.00     0.222 A 
HETATM    2  N2  UNL     1       1.879  19.578   8.195  1.00  0.00    -0.323 N 
ATOM      3  H2  UNL     1       2.217  19.332   9.126  1.00  0.00     0.169 HD
HETATM    4  C5  UNL     1       0.770  19.086   7.764  1.00  0.00     0.063 A 
HETATM    5  C6  UNL     1       0.350  19.442   6.501  1.00  0.00     0.040 A 
HETATM    6  S1  UNL     1       1.580  20.481   5.988  1.00  0.00    -0.039 SA
HETATM    7  C7  UNL     1      -0.891  18.992   5.798  1.00  0.00     0.154 C 
HETATM    8  C13 UNL     1      -2.042  19.544   6.627  1.00  0.00     0.085 C 
HETATM    9  C14 UNL     1      -1.698  20.947   7.066  1.00  0.00     0.049 C 
HETATM   10  C15 UNL     1      -3.331  19.627   5.835  1.00  0.00     0.049 C 
HETATM   11  O2  UNL     1      -2.323  18.702   7.753  1.00  0.00    -0.338 OA
HETATM   12  C16 UNL     1      -1.454  18.012   8.595  1.00  0.00     0.082 A 
HETATM   13  C17 UNL     1      -2.074  17.129   9.447  1.00  0.00     0.038 A 
HETATM   14  C18 UNL     1      -1.335  16.387  10.328  1.00  0.00     0.003 A 
HETATM   15  C19 UNL     1       0.056  16.548  10.340  1.00  0.00     0.001 A 
HETATM   16  C20 UNL     1       0.682  17.429   9.491  1.00  0.00     0.016 A 
HETATM   17  C21 UNL     1      -0.063  18.171   8.610  1.00  0.00     0.025 A 
ENDROOT
BRANCH   7  18
HETATM   18  N3  UNL     1      -1.024  19.282   4.485  1.00  0.00    -0.403 N 
ATOM     19  H3  UNL     1      -1.262  20.251   4.275  1.00  0.00     0.154 HD
BRANCH  18  20
HETATM   20  C8  UNL     1      -0.883  18.456   3.387  1.00  0.00     0.106 C 
HETATM   21  C9  UNL     1      -1.275  17.007   3.606  1.00  0.00     0.035 C 
BRANCH  20  22
HETATM   22  C10 UNL     1      -1.869  18.935   2.290  1.00  0.00     0.070 C 
HETATM   23  C11 UNL     1      -1.370  18.703   0.914  1.00  0.00     0.047 C 
HETATM   24  C12 UNL     1      -2.059  20.453   2.438  1.00  0.00     0.047 C 
BRANCH  22  25
HETATM   25  O1  UNL     1      -3.125  18.390   2.457  1.00  0.00    -0.389 OA
ATOM     26  H1  UNL     1      -3.190  17.529   2.061  1.00  0.00     0.210 HD
ENDBRANCH  22  25
ENDBRANCH  20  22
ENDBRANCH  18  20
ENDBRANCH   7  18
BRANCH   1  27
HETATM   27  N1  UNL     1       3.656  20.983   7.623  1.00  0.00    -0.397 NA
BRANCH  27  28
HETATM   28  C3  UNL     1       4.725  21.704   7.850  1.00  0.00     0.157 C 
BRANCH  28  29
HETATM   29  C2  UNL     1       4.639  23.161   7.393  1.00  0.00     0.055 C 
HETATM   30  C1  UNL     1       3.689  23.987   8.183  1.00  0.00     0.011 C 
ENDBRANCH  28  29
ENDBRANCH  27  28
ENDBRANCH   1  27
TORSDOF 7
ENDMDL
MODEL 5
REMARK VINA RESULT: -7.440487094      1.135      1.729
REMARK  7 active torsions:
REMARK  status: ('A' for Active; 'I' for Inactive)
REMARK    1  A    between atoms: C2_2  and  C3_3 
REMARK    2  A    between atoms: C3_3  and  N1_4 
REMARK    3  A    between atoms: N1_4  and  C4_5 
REMARK    4  A    between atoms: C7_11  and  N3_12 
REMARK    5  A    between atoms: N3_12  and  C8_14 
REMARK    6  A    between atoms: C8_14  and  C10_16 
REMARK    7  A    between atoms: C10_16  and  O1_19 
ROOT
HETATM    1  C4  UNL     1       5.559  27.801   6.342  1.00  0.00     0.222 A 
HETATM    2  N2  UNL     1       5.036  26.575   6.586  1.00  0.00    -0.323 N 
ATOM      3  H2  UNL     1       4.051  26.482   6.836  1.00  0.00     0.169 HD
HETATM    4  C5  UNL     1       5.780  25.528   6.504  1.00  0.00     0.063 A 
HETATM    5  C6  UNL     1       7.105  25.697   6.166  1.00  0.00     0.040 A 
HETATM    6  S1  UNL     1       7.220  27.372   5.977  1.00  0.00    -0.039 SA
HETATM    7  C7  UNL     1       8.146  24.634   6.020  1.00  0.00     0.154 C 
HETATM    8  C13 UNL     1       7.680  23.777   4.851  1.00  0.00     0.085 C 
HETATM    9  C14 UNL     1       7.138  24.680   3.769  1.00  0.00     0.049 C 
HETATM   10  C15 UNL     1       8.812  22.978   4.239  1.00  0.00     0.049 C 
HETATM   11  O2  UNL     1       6.699  22.819   5.267  1.00  0.00    -0.338 OA
HETATM   12  C16 UNL     1       5.651  22.946   6.175  1.00  0.00     0.082 A 
HETATM   13  C17 UNL     1       5.030  21.761   6.493  1.00  0.00     0.038 A 
HETATM   14  C18 UNL     1       3.984  21.745   7.375  1.00  0.00     0.003 A 
HETATM   15  C19 UNL     1       3.564  22.955   7.940  1.00  0.00     0.001 A 
HETATM   16  C20 UNL     1       4.180  24.144   7.627  1.00  0.00     0.016 A 
HETATM   17  C21 UNL     1       5.228  24.154   6.743  1.00  0.00     0.025 A 
ENDROOT
BRANCH   7  18
HETATM   18  N3  UNL     1       9.435  25.015   5.891  1.00  0.00    -0.403 N 
ATOM     19  H3  UNL     1       9.760  25.134   4.932  1.00  0.00     0.154 HD
BRANCH  18  20
HETATM   20  C8  UNL     1      10.377  25.265   6.869  1.00  0.00     0.106 C 
HETATM   21  C9  UNL     1       9.921  25.014   8.294  1.00  0.00     0.035 C 
BRANCH  20  22
HETATM   22  C10 UNL     1      11.549  24.266   6.684  1.00  0.00     0.070 C 
HETATM   23  C11 UNL     1      11.236  22.902   7.171  1.00  0.00     0.047 C 
HETATM   24  C12 UNL     1      12.746  24.763   7.510  1.00  0.00     0.047 C 
BRANCH  22  25
HETATM   25  O1  UNL     1      11.991  24.234   5.378  1.00  0.00    -0.389 OA
ATOM     26  H1  UNL     1      12.936  24.320   5.325  1.00  0.00     0.210 HD
ENDBRANCH  22  25
ENDBRANCH  20  22
ENDBRANCH  18  20
ENDBRANCH   7  18
BRANCH   1  27
HETATM   27  N1  UNL     1       5.043  28.902   6.371  1.00  0.00    -0.397 NA
BRANCH  27  28
HETATM   28  C3  UNL     1       4.425  30.047   6.515  1.00  0.00     0.157 C 
BRANCH  28  29
HETATM   29  C2  UNL     1       3.471  30.129   7.707  1.00  0.00     0.055 C 
HETATM   30  C1  UNL     1       2.432  29.066   7.723  1.00  0.00     0.011 C 
ENDBRANCH  28  29
ENDBRANCH  27  28
ENDBRANCH   1  27
TORSDOF 7
ENDMDL
