MODEL 1
REMARK VINA RESULT: -5.775088706      0.000      0.000
REMARK  6 active torsions:
REMARK  status: ('A' for Active; 'I' for Inactive)
REMARK    1  A    between atoms: C1_2  and  C2_4 
REMARK    2  A    between atoms: N1_9  and  C6_10 
REMARK    3  A    between atoms: C6_10  and  C7_11 
REMARK       I    between atoms: C7_11  and  N2_13 
REMARK    4  A    between atoms: C12_18  and  C13_19 
REMARK    5  A    between atoms: C13_19  and  O4_20 
REMARK    6  A    between atoms: N3_22  and  O5_24 
ROOT
HETATM    1  C7  UNL     1     -27.230   7.356  99.977  1.00  0.00     0.249 C 
HETATM    2  O3  UNL     1     -28.183   6.680 100.438  1.00  0.00    -0.271 OA
HETATM    3  N2  UNL     1     -27.401   8.746  99.815  1.00  0.00    -0.338 N 
HETATM    4  C8  UNL     1     -28.698   9.303 100.239  1.00  0.00     0.127 C 
HETATM    5  C9  UNL     1     -29.442   9.780  98.987  1.00  0.00     0.020 C 
HETATM    6  C10 UNL     1     -28.446  10.389  98.008  1.00  0.00     0.004 C 
HETATM    7  C11 UNL     1     -27.279  10.914  98.807  1.00  0.00     0.034 C 
HETATM    8  C12 UNL     1     -26.470   9.689  99.270  1.00  0.00     0.163 C 
ENDROOT
BRANCH   1   9
HETATM    9  C6  UNL     1     -25.977   6.710  99.620  1.00  0.00     0.376 C 
BRANCH   9  10
HETATM   10  N1  UNL     1     -25.232   6.132 100.736  1.00  0.00     0.113 N 
HETATM   11  C2  UNL     1     -23.864   6.622 100.723  1.00  0.00     0.332 C 
HETATM   12  C3  UNL     1     -22.824   5.654 100.317  1.00  0.00     0.121 C 
HETATM   13  S1  UNL     1     -23.363   4.631  98.889  1.00  0.00    -0.165 SA
HETATM   14  C4  UNL     1     -25.058   4.094  99.367  1.00  0.00     0.104 C 
HETATM   15  C5  UNL     1     -25.269   4.689 100.717  1.00  0.00     0.284 C 
BRANCH  11  16
HETATM   16  C1  UNL     1     -23.548   7.142 102.077  1.00  0.00     0.208 C 
HETATM   17  O1  UNL     1     -23.673   8.352 102.387  1.00  0.00    -0.646 OA
HETATM   18  O2  UNL     1     -23.083   6.290 103.094  1.00  0.00    -0.646 OA
ENDBRANCH  11  16
ENDBRANCH   9  10
ENDBRANCH   1   9
BRANCH   8  19
HETATM   19  C13 UNL     1     -25.362  10.091 100.130  1.00  0.00     0.159 C 
HETATM   20  N3  UNL     1     -24.136  10.045  99.739  1.00  0.00    -0.249 N 
ATOM     21  H3  UNL     1     -23.920   9.716  98.798  1.00  0.00     0.196 HD
BRANCH  19  22
HETATM   22  O4  UNL     1     -25.617  10.541 101.411  1.00  0.00    -0.347 OA
ATOM     23  H4  UNL     1     -25.052  10.273 102.126  1.00  0.00     0.219 HD
ENDBRANCH  19  22
BRANCH  20  24
HETATM   24  O5  UNL     1     -23.115  10.430 100.570  1.00  0.00    -0.288 OA
ATOM     25  H5  UNL     1     -22.220  10.471 100.257  1.00  0.00     0.244 HD
ENDBRANCH  20  24
ENDBRANCH   8  19
TORSDOF 6
ENDMDL
MODEL 2
REMARK VINA RESULT: -5.740024812      4.679      6.643
REMARK  6 active torsions:
REMARK  status: ('A' for Active; 'I' for Inactive)
REMARK    1  A    between atoms: C1_2  and  C2_4 
REMARK    2  A    between atoms: N1_9  and  C6_10 
REMARK    3  A    between atoms: C6_10  and  C7_11 
REMARK       I    between atoms: C7_11  and  N2_13 
REMARK    4  A    between atoms: C12_18  and  C13_19 
REMARK    5  A    between atoms: C13_19  and  O4_20 
REMARK    6  A    between atoms: N3_22  and  O5_24 
ROOT
HETATM    1  C7  UNL     1     -21.784   6.086 104.080  1.00  0.00     0.249 C 
HETATM    2  O3  UNL     1     -21.868   7.070 104.856  1.00  0.00    -0.271 OA
HETATM    3  N2  UNL     1     -22.053   6.279 102.709  1.00  0.00    -0.338 N 
HETATM    4  C8  UNL     1     -22.387   7.651 102.291  1.00  0.00     0.127 C 
HETATM    5  C9  UNL     1     -23.857   7.673 101.858  1.00  0.00     0.020 C 
HETATM    6  C10 UNL     1     -24.189   6.375 101.132  1.00  0.00     0.004 C 
HETATM    7  C11 UNL     1     -22.914   5.854 100.516  1.00  0.00     0.034 C 
HETATM    8  C12 UNL     1     -22.060   5.294 101.668  1.00  0.00     0.163 C 
ENDROOT
BRANCH   1   9
HETATM    9  C6  UNL     1     -21.414   4.776 104.592  1.00  0.00     0.376 C 
BRANCH   9  10
HETATM   10  N1  UNL     1     -22.462   3.761 104.524  1.00  0.00     0.113 N 
HETATM   11  C2  UNL     1     -23.454   4.004 105.558  1.00  0.00     0.332 C 
HETATM   12  C3  UNL     1     -23.457   3.064 106.698  1.00  0.00     0.121 C 
HETATM   13  S1  UNL     1     -21.754   2.652 107.249  1.00  0.00    -0.165 SA
HETATM   14  C4  UNL     1     -20.879   2.267 105.675  1.00  0.00     0.104 C 
HETATM   15  C5  UNL     1     -21.923   2.424 104.622  1.00  0.00     0.284 C 
BRANCH  11  16
HETATM   16  C1  UNL     1     -24.794   4.007 104.920  1.00  0.00     0.208 C 
HETATM   17  O1  UNL     1     -25.432   5.061 104.683  1.00  0.00    -0.646 OA
HETATM   18  O2  UNL     1     -25.424   2.807 104.546  1.00  0.00    -0.646 OA
ENDBRANCH  11  16
ENDBRANCH   9  10
ENDBRANCH   1   9
BRANCH   8  19
HETATM   19  C13 UNL     1     -20.761   4.843 101.181  1.00  0.00     0.159 C 
HETATM   20  N3  UNL     1     -20.156   5.418 100.200  1.00  0.00    -0.249 N 
ATOM     21  H3  UNL     1     -20.591   6.216  99.740  1.00  0.00     0.196 HD
BRANCH  19  22
HETATM   22  O4  UNL     1     -20.141   3.764 101.783  1.00  0.00    -0.347 OA
ATOM     23  H4  UNL     1     -20.249   3.618 102.715  1.00  0.00     0.219 HD
ENDBRANCH  19  22
BRANCH  20  24
HETATM   24  O5  UNL     1     -18.934   4.971  99.765  1.00  0.00    -0.288 OA
ATOM     25  H5  UNL     1     -18.490   4.257 100.207  1.00  0.00     0.244 HD
ENDBRANCH  20  24
ENDBRANCH   8  19
TORSDOF 6
ENDMDL
MODEL 3
REMARK VINA RESULT: -5.706260766      3.053      6.226
REMARK  6 active torsions:
REMARK  status: ('A' for Active; 'I' for Inactive)
REMARK    1  A    between atoms: C1_2  and  C2_4 
REMARK    2  A    between atoms: N1_9  and  C6_10 
REMARK    3  A    between atoms: C6_10  and  C7_11 
REMARK       I    between atoms: C7_11  and  N2_13 
REMARK    4  A    between atoms: C12_18  and  C13_19 
REMARK    5  A    between atoms: C13_19  and  O4_20 
REMARK    6  A    between atoms: N3_22  and  O5_24 
ROOT
HETATM    1  C7  UNL     1     -24.745   6.235 102.327  1.00  0.00     0.249 C 
HETATM    2  O3  UNL     1     -25.692   6.350 103.144  1.00  0.00    -0.271 OA
HETATM    3  N2  UNL     1     -23.809   5.198 102.516  1.00  0.00    -0.338 N 
HETATM    4  C8  UNL     1     -24.044   4.299 103.659  1.00  0.00     0.127 C 
HETATM    5  C9  UNL     1     -22.930   4.533 104.685  1.00  0.00     0.020 C 
HETATM    6  C10 UNL     1     -21.616   4.783 103.956  1.00  0.00     0.004 C 
HETATM    7  C11 UNL     1     -21.692   4.085 102.620  1.00  0.00     0.034 C 
HETATM    8  C12 UNL     1     -22.639   4.918 101.737  1.00  0.00     0.163 C 
ENDROOT
BRANCH   1   9
HETATM    9  C6  UNL     1     -24.623   7.160 101.210  1.00  0.00     0.376 C 
BRANCH   9  10
HETATM   10  N1  UNL     1     -25.638   7.019 100.170  1.00  0.00     0.113 N 
HETATM   11  C2  UNL     1     -25.021   7.134  98.859  1.00  0.00     0.332 C 
HETATM   12  C3  UNL     1     -25.296   8.380  98.112  1.00  0.00     0.121 C 
HETATM   13  S1  UNL     1     -25.235   9.858  99.202  1.00  0.00    -0.165 SA
HETATM   14  C4  UNL     1     -26.245   9.354 100.658  1.00  0.00     0.104 C 
HETATM   15  C5  UNL     1     -26.708   7.976 100.329  1.00  0.00     0.284 C 
BRANCH  11  16
HETATM   16  C1  UNL     1     -25.448   5.970  98.044  1.00  0.00     0.208 C 
HETATM   17  O1  UNL     1     -25.359   4.785  98.451  1.00  0.00    -0.646 OA
HETATM   18  O2  UNL     1     -25.980   6.140  96.754  1.00  0.00    -0.646 OA
ENDBRANCH  11  16
ENDBRANCH   9  10
ENDBRANCH   1   9
BRANCH   8  19
HETATM   19  C13 UNL     1     -22.847   4.274 100.445  1.00  0.00     0.159 C 
HETATM   20  N3  UNL     1     -22.278   4.691  99.368  1.00  0.00    -0.249 N 
ATOM     21  H3  UNL     1     -21.658   5.500  99.408  1.00  0.00     0.196 HD
BRANCH  19  22
HETATM   22  O4  UNL     1     -23.680   3.174 100.354  1.00  0.00    -0.347 OA
ATOM     23  H4  UNL     1     -24.420   3.192  99.759  1.00  0.00     0.219 HD
ENDBRANCH  19  22
BRANCH  20  24
HETATM   24  O5  UNL     1     -22.493   4.064  98.168  1.00  0.00    -0.288 OA
ATOM     25  H5  UNL     1     -22.953   4.503  97.463  1.00  0.00     0.244 HD
ENDBRANCH  20  24
ENDBRANCH   8  19
TORSDOF 6
ENDMDL
MODEL 4
REMARK VINA RESULT: -5.652232960      2.116      2.986
REMARK  6 active torsions:
REMARK  status: ('A' for Active; 'I' for Inactive)
REMARK    1  A    between atoms: C1_2  and  C2_4 
REMARK    2  A    between atoms: N1_9  and  C6_10 
REMARK    3  A    between atoms: C6_10  and  C7_11 
REMARK       I    between atoms: C7_11  and  N2_13 
REMARK    4  A    between atoms: C12_18  and  C13_19 
REMARK    5  A    between atoms: C13_19  and  O4_20 
REMARK    6  A    between atoms: N3_22  and  O5_24 
ROOT
HETATM    1  C7  UNL     1     -24.595   8.634 101.755  1.00  0.00     0.249 C 
HETATM    2  O3  UNL     1     -24.431   9.287 102.814  1.00  0.00    -0.271 OA
HETATM    3  N2  UNL     1     -25.772   8.839 101.006  1.00  0.00    -0.338 N 
HETATM    4  C8  UNL     1     -26.714   9.846 101.525  1.00  0.00     0.127 C 
HETATM    5  C9  UNL     1     -27.981   9.118 101.990  1.00  0.00     0.020 C 
HETATM    6  C10 UNL     1     -28.282   7.970 101.035  1.00  0.00     0.004 C 
HETATM    7  C11 UNL     1     -27.704   8.328  99.688  1.00  0.00     0.034 C 
HETATM    8  C12 UNL     1     -26.177   8.172  99.804  1.00  0.00     0.163 C 
ENDROOT
BRANCH   1   9
HETATM    9  C6  UNL     1     -23.584   7.684 101.314  1.00  0.00     0.376 C 
BRANCH   9  10
HETATM   10  N1  UNL     1     -23.339   6.567 102.222  1.00  0.00     0.113 N 
HETATM   11  C2  UNL     1     -21.918   6.270 102.267  1.00  0.00     0.332 C 
HETATM   12  C3  UNL     1     -21.485   5.028 101.592  1.00  0.00     0.121 C 
HETATM   13  S1  UNL     1     -22.343   4.790  99.985  1.00  0.00    -0.165 SA
HETATM   14  C4  UNL     1     -24.110   5.109 100.396  1.00  0.00     0.104 C 
HETATM   15  C5  UNL     1     -24.105   5.399 101.857  1.00  0.00     0.284 C 
BRANCH  11  16
HETATM   16  C1  UNL     1     -21.500   6.226 103.690  1.00  0.00     0.208 C 
HETATM   17  O1  UNL     1     -20.908   5.240 104.195  1.00  0.00    -0.646 OA
HETATM   18  O2  UNL     1     -21.752   7.303 104.557  1.00  0.00    -0.646 OA
ENDBRANCH  11  16
ENDBRANCH   9  10
ENDBRANCH   1   9
BRANCH   8  19
HETATM   19  C13 UNL     1     -25.516   8.582  98.570  1.00  0.00     0.159 C 
HETATM   20  N3  UNL     1     -25.065   9.776  98.395  1.00  0.00    -0.249 N 
ATOM     21  H3  UNL     1     -25.169  10.466  99.138  1.00  0.00     0.196 HD
BRANCH  19  22
HETATM   22  O4  UNL     1     -25.358   7.672  97.542  1.00  0.00    -0.347 OA
ATOM     23  H4  UNL     1     -24.703   7.827  96.873  1.00  0.00     0.219 HD
ENDBRANCH  19  22
BRANCH  20  24
HETATM   24  O5  UNL     1     -24.448  10.132  97.224  1.00  0.00    -0.288 OA
ATOM     25  H5  UNL     1     -23.804  10.829  97.204  1.00  0.00     0.244 HD
ENDBRANCH  20  24
ENDBRANCH   8  19
TORSDOF 6
ENDMDL
MODEL 5
REMARK VINA RESULT: -5.619645447      2.449      3.846
REMARK  6 active torsions:
REMARK  status: ('A' for Active; 'I' for Inactive)
REMARK    1  A    between atoms: C1_2  and  C2_4 
REMARK    2  A    between atoms: N1_9  and  C6_10 
REMARK    3  A    between atoms: C6_10  and  C7_11 
REMARK       I    between atoms: C7_11  and  N2_13 
REMARK    4  A    between atoms: C12_18  and  C13_19 
REMARK    5  A    between atoms: C13_19  and  O4_20 
REMARK    6  A    between atoms: N3_22  and  O5_24 
ROOT
HETATM    1  C7  UNL     1     -23.612   6.894 101.239  1.00  0.00     0.249 C 
HETATM    2  O3  UNL     1     -22.561   7.124 101.885  1.00  0.00    -0.271 OA
HETATM    3  N2  UNL     1     -24.373   7.985 100.771  1.00  0.00    -0.338 N 
HETATM    4  C8  UNL     1     -23.841   9.329 101.059  1.00  0.00     0.127 C 
HETATM    5  C9  UNL     1     -24.785  10.010 102.057  1.00  0.00     0.020 C 
HETATM    6  C10 UNL     1     -26.224   9.631 101.731  1.00  0.00     0.004 C 
HETATM    7  C11 UNL     1     -26.294   9.318 100.256  1.00  0.00     0.034 C 
HETATM    8  C12 UNL     1     -25.616   7.949 100.060  1.00  0.00     0.163 C 
ENDROOT
BRANCH   1   9
HETATM    9  C6  UNL     1     -24.031   5.525 100.981  1.00  0.00     0.376 C 
BRANCH   9  10
HETATM   10  N1  UNL     1     -25.046   5.001 101.891  1.00  0.00     0.113 N 
HETATM   11  C2  UNL     1     -24.413   4.212 102.934  1.00  0.00     0.332 C 
HETATM   12  C3  UNL     1     -24.598   2.747 102.853  1.00  0.00     0.121 C 
HETATM   13  S1  UNL     1     -24.447   2.135 101.127  1.00  0.00    -0.165 SA
HETATM   14  C4  UNL     1     -25.499   3.303 100.168  1.00  0.00     0.104 C 
HETATM   15  C5  UNL     1     -26.051   4.234 101.193  1.00  0.00     0.284 C 
BRANCH  11  16
HETATM   16  C1  UNL     1     -24.910   4.696 104.246  1.00  0.00     0.208 C 
HETATM   17  O1  UNL     1     -26.132   4.838 104.500  1.00  0.00    -0.646 OA
HETATM   18  O2  UNL     1     -24.022   5.026 105.285  1.00  0.00    -0.646 OA
ENDBRANCH  11  16
ENDBRANCH   9  10
ENDBRANCH   1   9
BRANCH   8  19
HETATM   19  C13 UNL     1     -25.555   7.597  98.646  1.00  0.00     0.159 C 
HETATM   20  N3  UNL     1     -25.973   6.463  98.201  1.00  0.00    -0.249 N 
ATOM     21  H3  UNL     1     -26.361   5.780  98.851  1.00  0.00     0.196 HD
BRANCH  19  22
HETATM   22  O4  UNL     1     -25.036   8.499  97.736  1.00  0.00    -0.347 OA
ATOM     23  H4  UNL     1     -24.137   8.792  97.825  1.00  0.00     0.219 HD
ENDBRANCH  19  22
BRANCH  20  24
HETATM   24  O5  UNL     1     -25.903   6.160  96.865  1.00  0.00    -0.288 OA
ATOM     25  H5  UNL     1     -25.843   5.259  96.572  1.00  0.00     0.244 HD
ENDBRANCH  20  24
ENDBRANCH   8  19
TORSDOF 6
ENDMDL
