MODEL 1
REMARK VINA RESULT: -6.769072959      0.000      0.000
REMARK  7 active torsions:
REMARK  status: ('A' for Active; 'I' for Inactive)
REMARK    1  A    between atoms: C6_8  and  C7_9 
REMARK    2  A    between atoms: C7_9  and  C8_10 
REMARK    3  A    between atoms: C8_10  and  N3_17 
REMARK    4  A    between atoms: N1_11  and  O3_13 
REMARK    5  A    between atoms: O3_13  and  C9_14 
REMARK    6  A    between atoms: N3_17  and  C10_19 
REMARK    7  A    between atoms: C15_24  and  O5_25 
ROOT
HETATM    1  C8  UNL     1     -21.497   6.455 103.732  1.00  0.00     0.101 C 
HETATM    2  N1  UNL     1     -20.669   7.349 104.127  1.00  0.00    -0.244 N 
ATOM      3  H1  UNL     1     -20.561   7.540 105.123  1.00  0.00     0.196 HD
ENDROOT
BRANCH   1   4
HETATM    4  C7  UNL     1     -21.711   6.121 102.314  1.00  0.00     0.113 C 
BRANCH   4   5
HETATM    5  C6  UNL     1     -22.703   6.945 101.577  1.00  0.00     0.162 C 
HETATM    6  C2  UNL     1     -23.864   6.224 100.976  1.00  0.00     0.080 C 
HETATM    7  C1  UNL     1     -23.558   5.505  99.684  1.00  0.00     0.048 C 
HETATM    8  C3  UNL     1     -24.498   5.286 101.992  1.00  0.00     0.048 C 
HETATM    9  O1  UNL     1     -24.908   7.119 100.639  1.00  0.00    -0.376 OA
HETATM   10  C4  UNL     1     -24.446   8.403 100.535  1.00  0.00     0.195 C 
HETATM   11  C5  UNL     1     -23.977   8.842 101.906  1.00  0.00     0.194 C 
HETATM   12  O2  UNL     1     -23.250   7.854 102.521  1.00  0.00    -0.380 OA
ENDBRANCH   4   5
ENDBRANCH   1   4
BRANCH   1  13
HETATM   13  N3  UNL     1     -22.195   5.757 104.758  1.00  0.00    -0.371 N 
ATOM     14  H3  UNL     1     -23.192   5.944 104.869  1.00  0.00     0.161 HD
BRANCH  13  15
HETATM   15  C10 UNL     1     -21.586   4.804 105.650  1.00  0.00     0.111 C 
HETATM   16  C11 UNL     1     -21.552   3.455 104.918  1.00  0.00     0.028 C 
HETATM   17  C12 UNL     1     -20.898   2.423 105.774  1.00  0.00     0.002 C 
HETATM   18  C13 UNL     1     -21.729   2.259 107.028  1.00  0.00     0.003 C 
HETATM   19  C14 UNL     1     -22.908   3.208 107.049  1.00  0.00     0.034 C 
HETATM   20  C15 UNL     1     -22.459   4.648 106.868  1.00  0.00     0.140 C 
BRANCH  20  21
HETATM   21  O5  UNL     1     -21.752   5.057 108.011  1.00  0.00    -0.394 OA
ATOM     22  H5  UNL     1     -22.204   4.756 108.790  1.00  0.00     0.210 HD
ENDBRANCH  20  21
ENDBRANCH  13  15
ENDBRANCH   1  13
BRANCH   2  23
HETATM   23  O3  UNL     1     -19.939   8.040 103.221  1.00  0.00    -0.182 OA
BRANCH  23  24
HETATM   24  C9  UNL     1     -18.774   8.722 103.494  1.00  0.00     0.394 C 
HETATM   25  N2  UNL     1     -17.771   8.789 102.502  1.00  0.00    -0.031 NA
HETATM   26  O4  UNL     1     -18.651   9.257 104.618  1.00  0.00    -0.240 OA
ENDBRANCH  23  24
ENDBRANCH   2  23
TORSDOF 7
ENDMDL
MODEL 2
REMARK VINA RESULT: -6.759862522      2.993      6.046
REMARK  7 active torsions:
REMARK  status: ('A' for Active; 'I' for Inactive)
REMARK    1  A    between atoms: C6_8  and  C7_9 
REMARK    2  A    between atoms: C7_9  and  C8_10 
REMARK    3  A    between atoms: C8_10  and  N3_17 
REMARK    4  A    between atoms: N1_11  and  O3_13 
REMARK    5  A    between atoms: O3_13  and  C9_14 
REMARK    6  A    between atoms: N3_17  and  C10_19 
REMARK    7  A    between atoms: C15_24  and  O5_25 
ROOT
HETATM    1  C8  UNL     1     -23.895   7.400 101.927  1.00  0.00     0.101 C 
HETATM    2  N1  UNL     1     -22.980   7.911 102.664  1.00  0.00    -0.244 N 
ATOM      3  H1  UNL     1     -23.234   8.468 103.479  1.00  0.00     0.196 HD
ENDROOT
BRANCH   1   4
HETATM    4  C7  UNL     1     -23.612   6.585 100.734  1.00  0.00     0.113 C 
BRANCH   4   5
HETATM    5  C6  UNL     1     -23.672   5.111 100.904  1.00  0.00     0.162 C 
HETATM    6  C2  UNL     1     -22.630   4.308 100.198  1.00  0.00     0.080 C 
HETATM    7  C1  UNL     1     -22.879   4.110  98.722  1.00  0.00     0.048 C 
HETATM    8  C3  UNL     1     -21.245   4.886 100.451  1.00  0.00     0.048 C 
HETATM    9  O1  UNL     1     -22.551   2.994 100.719  1.00  0.00    -0.376 OA
HETATM   10  C4  UNL     1     -23.693   2.660 101.395  1.00  0.00     0.195 C 
HETATM   11  C5  UNL     1     -23.796   3.559 102.608  1.00  0.00     0.194 C 
HETATM   12  O2  UNL     1     -23.493   4.859 102.289  1.00  0.00    -0.380 OA
ENDBRANCH   4   5
ENDBRANCH   1   4
BRANCH   1  13
HETATM   13  N3  UNL     1     -25.236   7.637 102.346  1.00  0.00    -0.371 N 
ATOM     14  H3  UNL     1     -25.751   6.859 102.757  1.00  0.00     0.161 HD
BRANCH  13  15
HETATM   15  C10 UNL     1     -25.911   8.904 102.226  1.00  0.00     0.111 C 
HETATM   16  C11 UNL     1     -27.367   8.607 101.841  1.00  0.00     0.028 C 
HETATM   17  C12 UNL     1     -28.140   9.879 101.733  1.00  0.00     0.002 C 
HETATM   18  C13 UNL     1     -27.520  10.711 100.632  1.00  0.00     0.003 C 
HETATM   19  C14 UNL     1     -26.307  10.035 100.032  1.00  0.00     0.034 C 
HETATM   20  C15 UNL     1     -25.286   9.686 101.100  1.00  0.00     0.140 C 
BRANCH  20  21
HETATM   21  O5  UNL     1     -24.723  10.870 101.604  1.00  0.00    -0.394 OA
ATOM     22  H5  UNL     1     -24.099  10.660 102.289  1.00  0.00     0.210 HD
ENDBRANCH  20  21
ENDBRANCH  13  15
ENDBRANCH   1  13
BRANCH   2  23
HETATM   23  O3  UNL     1     -21.677   7.709 102.359  1.00  0.00    -0.182 OA
BRANCH  23  24
HETATM   24  C9  UNL     1     -20.685   7.419 103.268  1.00  0.00     0.394 C 
HETATM   25  N2  UNL     1     -20.875   6.351 104.172  1.00  0.00    -0.031 NA
HETATM   26  O4  UNL     1     -19.648   8.118 103.256  1.00  0.00    -0.240 OA
ENDBRANCH  23  24
ENDBRANCH   2  23
TORSDOF 7
ENDMDL
MODEL 3
REMARK VINA RESULT: -6.589992073      2.083      5.077
REMARK  7 active torsions:
REMARK  status: ('A' for Active; 'I' for Inactive)
REMARK    1  A    between atoms: C6_8  and  C7_9 
REMARK    2  A    between atoms: C7_9  and  C8_10 
REMARK    3  A    between atoms: C8_10  and  N3_17 
REMARK    4  A    between atoms: N1_11  and  O3_13 
REMARK    5  A    between atoms: O3_13  and  C9_14 
REMARK    6  A    between atoms: N3_17  and  C10_19 
REMARK    7  A    between atoms: C15_24  and  O5_25 
ROOT
HETATM    1  C8  UNL     1     -21.438   6.673 104.261  1.00  0.00     0.101 C 
HETATM    2  N1  UNL     1     -20.501   7.545 104.209  1.00  0.00    -0.244 N 
ATOM      3  H1  UNL     1     -20.495   8.245 103.467  1.00  0.00     0.196 HD
ENDROOT
BRANCH   1   4
HETATM    4  C7  UNL     1     -21.517   5.632 105.298  1.00  0.00     0.113 C 
BRANCH   4   5
HETATM    5  C6  UNL     1     -22.427   4.490 105.028  1.00  0.00     0.162 C 
HETATM    6  C2  UNL     1     -22.276   3.287 105.900  1.00  0.00     0.080 C 
HETATM    7  C1  UNL     1     -21.111   2.394 105.545  1.00  0.00     0.048 C 
HETATM    8  C3  UNL     1     -22.235   3.689 107.367  1.00  0.00     0.048 C 
HETATM    9  O1  UNL     1     -23.407   2.440 105.810  1.00  0.00    -0.376 OA
HETATM   10  C4  UNL     1     -24.121   2.687 104.668  1.00  0.00     0.195 C 
HETATM   11  C5  UNL     1     -24.685   4.088 104.766  1.00  0.00     0.194 C 
HETATM   12  O2  UNL     1     -23.746   4.969 105.243  1.00  0.00    -0.380 OA
ENDBRANCH   4   5
ENDBRANCH   1   4
BRANCH   1  13
HETATM   13  N3  UNL     1     -22.445   6.782 103.260  1.00  0.00    -0.371 N 
ATOM     14  H3  UNL     1     -23.364   7.123 103.543  1.00  0.00     0.161 HD
BRANCH  13  15
HETATM   15  C10 UNL     1     -22.250   6.443 101.873  1.00  0.00     0.111 C 
HETATM   16  C11 UNL     1     -23.638   6.176 101.273  1.00  0.00     0.028 C 
HETATM   17  C12 UNL     1     -23.516   5.850  99.822  1.00  0.00     0.002 C 
HETATM   18  C13 UNL     1     -22.694   4.587  99.693  1.00  0.00     0.003 C 
HETATM   19  C14 UNL     1     -22.217   4.087 101.040  1.00  0.00     0.034 C 
HETATM   20  C15 UNL     1     -21.456   5.165 101.790  1.00  0.00     0.140 C 
BRANCH  20  21
HETATM   21  O5  UNL     1     -20.237   5.410 101.137  1.00  0.00    -0.394 OA
ATOM     22  H5  UNL     1     -20.366   5.373 100.197  1.00  0.00     0.210 HD
ENDBRANCH  20  21
ENDBRANCH  13  15
ENDBRANCH   1  13
BRANCH   2  23
HETATM   23  O3  UNL     1     -19.519   7.536 105.140  1.00  0.00    -0.182 OA
BRANCH  23  24
HETATM   24  C9  UNL     1     -18.516   8.474 105.246  1.00  0.00     0.394 C 
HETATM   25  N2  UNL     1     -17.474   8.262 106.175  1.00  0.00    -0.031 NA
HETATM   26  O4  UNL     1     -18.571   9.484 104.509  1.00  0.00    -0.240 OA
ENDBRANCH  23  24
ENDBRANCH   2  23
TORSDOF 7
ENDMDL
MODEL 4
REMARK VINA RESULT: -6.511775462      1.670      5.625
REMARK  7 active torsions:
REMARK  status: ('A' for Active; 'I' for Inactive)
REMARK    1  A    between atoms: C6_8  and  C7_9 
REMARK    2  A    between atoms: C7_9  and  C8_10 
REMARK    3  A    between atoms: C8_10  and  N3_17 
REMARK    4  A    between atoms: N1_11  and  O3_13 
REMARK    5  A    between atoms: O3_13  and  C9_14 
REMARK    6  A    between atoms: N3_17  and  C10_19 
REMARK    7  A    between atoms: C15_24  and  O5_25 
ROOT
HETATM    1  C8  UNL     1     -21.801   6.837 103.655  1.00  0.00     0.101 C 
HETATM    2  N1  UNL     1     -20.929   7.728 103.362  1.00  0.00    -0.244 N 
ATOM      3  H1  UNL     1     -21.132   8.423 102.643  1.00  0.00     0.196 HD
ENDROOT
BRANCH   1   4
HETATM    4  C7  UNL     1     -21.586   5.800 104.679  1.00  0.00     0.113 C 
BRANCH   4   5
HETATM    5  C6  UNL     1     -22.506   4.635 104.652  1.00  0.00     0.162 C 
HETATM    6  C2  UNL     1     -22.210   3.522 105.602  1.00  0.00     0.080 C 
HETATM    7  C1  UNL     1     -21.094   2.603 105.168  1.00  0.00     0.048 C 
HETATM    8  C3  UNL     1     -21.967   4.063 107.004  1.00  0.00     0.048 C 
HETATM    9  O1  UNL     1     -23.328   2.667 105.756  1.00  0.00    -0.376 OA
HETATM   10  C4  UNL     1     -24.203   2.800 104.712  1.00  0.00     0.195 C 
HETATM   11  C5  UNL     1     -24.771   4.203 104.758  1.00  0.00     0.194 C 
HETATM   12  O2  UNL     1     -23.788   5.128 105.008  1.00  0.00    -0.380 OA
ENDBRANCH   4   5
ENDBRANCH   1   4
BRANCH   1  13
HETATM   13  N3  UNL     1     -23.036   6.917 102.949  1.00  0.00    -0.371 N 
ATOM     14  H3  UNL     1     -23.870   6.546 103.404  1.00  0.00     0.161 HD
BRANCH  13  15
HETATM   15  C10 UNL     1     -23.182   7.489 101.635  1.00  0.00     0.111 C 
HETATM   16  C11 UNL     1     -23.779   8.891 101.815  1.00  0.00     0.028 C 
HETATM   17  C12 UNL     1     -23.928   9.560 100.489  1.00  0.00     0.002 C 
HETATM   18  C13 UNL     1     -24.888   8.741  99.657  1.00  0.00     0.003 C 
HETATM   19  C14 UNL     1     -25.349   7.499 100.389  1.00  0.00     0.034 C 
HETATM   20  C15 UNL     1     -24.169   6.663 100.851  1.00  0.00     0.140 C 
BRANCH  20  21
HETATM   21  O5  UNL     1     -23.532   6.105  99.731  1.00  0.00    -0.394 OA
ATOM     22  H5  UNL     1     -23.486   5.161  99.828  1.00  0.00     0.210 HD
ENDBRANCH  20  21
ENDBRANCH  13  15
ENDBRANCH   1  13
BRANCH   2  23
HETATM   23  O3  UNL     1     -19.740   7.747 104.007  1.00  0.00    -0.182 OA
BRANCH  23  24
HETATM   24  C9  UNL     1     -18.756   8.694 103.831  1.00  0.00     0.394 C 
HETATM   25  N2  UNL     1     -18.055   8.733 102.605  1.00  0.00    -0.031 NA
HETATM   26  O4  UNL     1     -18.522   9.486 104.770  1.00  0.00    -0.240 OA
ENDBRANCH  23  24
ENDBRANCH   2  23
TORSDOF 7
ENDMDL
MODEL 5
REMARK VINA RESULT: -6.464098736      5.584      8.325
REMARK  7 active torsions:
REMARK  status: ('A' for Active; 'I' for Inactive)
REMARK    1  A    between atoms: C6_8  and  C7_9 
REMARK    2  A    between atoms: C7_9  and  C8_10 
REMARK    3  A    between atoms: C8_10  and  N3_17 
REMARK    4  A    between atoms: N1_11  and  O3_13 
REMARK    5  A    between atoms: O3_13  and  C9_14 
REMARK    6  A    between atoms: N3_17  and  C10_19 
REMARK    7  A    between atoms: C15_24  and  O5_25 
ROOT
HETATM    1  C8  UNL     1     -26.113  10.298  98.387  1.00  0.00     0.101 C 
HETATM    2  N1  UNL     1     -25.489  10.981  97.501  1.00  0.00    -0.244 N 
ATOM      3  H1  UNL     1     -24.638  10.612  97.078  1.00  0.00     0.196 HD
ENDROOT
BRANCH   1   4
HETATM    4  C7  UNL     1     -27.346  10.760  99.045  1.00  0.00     0.113 C 
BRANCH   4   5
HETATM    5  C6  UNL     1     -28.504   9.831  99.018  1.00  0.00     0.162 C 
HETATM    6  C2  UNL     1     -28.958   9.282 100.330  1.00  0.00     0.080 C 
HETATM    7  C1  UNL     1     -28.112   8.152 100.867  1.00  0.00     0.048 C 
HETATM    8  C3  UNL     1     -29.106  10.396 101.356  1.00  0.00     0.048 C 
HETATM    9  O1  UNL     1     -30.259   8.731 100.235  1.00  0.00    -0.376 OA
HETATM   10  C4  UNL     1     -30.583   8.443  98.937  1.00  0.00     0.195 C 
HETATM   11  C5  UNL     1     -30.652   9.750  98.175  1.00  0.00     0.194 C 
HETATM   12  O2  UNL     1     -29.599  10.570  98.499  1.00  0.00    -0.380 OA
ENDBRANCH   4   5
ENDBRANCH   1   4
BRANCH   1  13
HETATM   13  N3  UNL     1     -25.560   9.021  98.691  1.00  0.00    -0.371 N 
ATOM     14  H3  UNL     1     -26.019   8.198  98.302  1.00  0.00     0.161 HD
BRANCH  13  15
HETATM   15  C10 UNL     1     -24.393   8.817  99.511  1.00  0.00     0.111 C 
HETATM   16  C11 UNL     1     -24.525   7.426 100.148  1.00  0.00     0.028 C 
HETATM   17  C12 UNL     1     -23.327   7.131 100.988  1.00  0.00     0.002 C 
HETATM   18  C13 UNL     1     -23.270   8.157 102.099  1.00  0.00     0.003 C 
HETATM   19  C14 UNL     1     -24.388   9.171 101.985  1.00  0.00     0.034 C 
HETATM   20  C15 UNL     1     -24.391   9.836 100.620  1.00  0.00     0.140 C 
BRANCH  20  21
HETATM   21  O5  UNL     1     -23.257  10.657 100.504  1.00  0.00    -0.394 OA
ATOM     22  H5  UNL     1     -22.480  10.162 100.732  1.00  0.00     0.210 HD
ENDBRANCH  20  21
ENDBRANCH  13  15
ENDBRANCH   1  13
BRANCH   2  23
HETATM   23  O3  UNL     1     -25.962  12.193  97.128  1.00  0.00    -0.182 OA
BRANCH  23  24
HETATM   24  C9  UNL     1     -26.160  12.601  95.827  1.00  0.00     0.394 C 
HETATM   25  N2  UNL     1     -27.459  12.974  95.417  1.00  0.00    -0.031 NA
HETATM   26  O4  UNL     1     -25.174  12.625  95.058  1.00  0.00    -0.240 OA
ENDBRANCH  23  24
ENDBRANCH   2  23
TORSDOF 7
ENDMDL
