MODEL 1
REMARK VINA RESULT: -7.004957232      0.000      0.000
REMARK  4 active torsions:
REMARK  status: ('A' for Active; 'I' for Inactive)
REMARK    1  A    between atoms: O1_2  and  C2_3 
REMARK    2  A    between atoms: C2_3  and  C3_4 
REMARK    3  A    between atoms: C3_4  and  N1_5 
REMARK       I    between atoms: N1_5  and  C4_7 
REMARK       I    between atoms: C4_7  and  N5_15 
REMARK       I    between atoms: N2_8  and  C5_10 
REMARK    4  A    between atoms: N5_15  and  C6_17 
ROOT
HETATM    1  N1  UNL     1     -22.725   7.443 102.628  1.00  0.00    -0.224 N 
ATOM      2  H1  UNL     1     -22.613   8.454 102.697  1.00  0.00     0.177 HD
HETATM    3  C4  UNL     1     -23.829   6.979 101.888  1.00  0.00     0.678 C 
HETATM    4  N2  UNL     1     -24.576   5.992 102.139  1.00  0.00    -0.164 N 
ATOM      5  H2  UNL     1     -25.320   5.837 101.460  1.00  0.00     0.187 HD
HETATM    6  C5  UNL     1     -24.553   5.081 103.188  1.00  0.00     0.200 C 
HETATM    7  N3  UNL     1     -23.938   3.939 102.996  1.00  0.00    -0.373 N 
ATOM      8  H31 UNL     1     -23.921   3.270 103.766  1.00  0.00     0.158 HD
ATOM      9  H32 UNL     1     -23.513   3.805 102.077  1.00  0.00     0.158 HD
HETATM   10  N4  UNL     1     -25.141   5.267 104.461  1.00  0.00    -0.063 NA
HETATM   11  N5  UNL     1     -24.155   7.713 100.685  1.00  0.00    -0.191 N 
ATOM     12  H5  UNL     1     -23.416   8.210 100.187  1.00  0.00     0.181 HD
ENDROOT
BRANCH  11  13
HETATM   13  C6  UNL     1     -25.526   7.760 100.167  1.00  0.00     0.182 C 
HETATM   14  C7  UNL     1     -26.404   8.277 101.246  1.00  0.00     0.096 C 
HETATM   15  C8  UNL     1     -27.308   9.420 100.762  1.00  0.00     0.126 C 
HETATM   16  C9  UNL     1     -27.952   8.844  99.490  1.00  0.00     0.041 C 
HETATM   17  O2  UNL     1     -26.568  10.503 100.365  1.00  0.00    -0.385 OA
HETATM   18  C10 UNL     1     -26.804   9.208  98.535  1.00  0.00     0.046 C 
HETATM   19  C11 UNL     1     -26.645  10.666  99.007  1.00  0.00     0.175 C 
HETATM   20  C12 UNL     1     -25.539   8.513  98.882  1.00  0.00     0.187 C 
HETATM   21  O3  UNL     1     -25.132   7.560  97.954  1.00  0.00    -0.345 OA
HETATM   22  C13 UNL     1     -25.486   6.327  98.438  1.00  0.00     0.160 C 
HETATM   23  C14 UNL     1     -24.316   5.363  98.260  1.00  0.00     0.078 C 
HETATM   24  C15 UNL     1     -26.608   5.790  97.580  1.00  0.00     0.078 C 
HETATM   25  O4  UNL     1     -25.852   6.457  99.769  1.00  0.00    -0.322 OA
ENDBRANCH  11  13
BRANCH   1  26
HETATM   26  C3  UNL     1     -21.740   6.638 103.295  1.00  0.00     0.164 C 
BRANCH  26  27
HETATM   27  C2  UNL     1     -20.696   7.508 103.996  1.00  0.00     0.187 C 
BRANCH  27  28
HETATM   28  O1  UNL     1     -19.767   8.040 103.128  1.00  0.00    -0.394 OA
HETATM   29  C1  UNL     1     -18.767   8.778 103.711  1.00  0.00     0.201 C 
ENDBRANCH  27  28
ENDBRANCH  26  27
ENDBRANCH   1  26
TORSDOF 4
ENDMDL
MODEL 2
REMARK VINA RESULT: -6.863014926      1.297      1.641
REMARK  4 active torsions:
REMARK  status: ('A' for Active; 'I' for Inactive)
REMARK    1  A    between atoms: O1_2  and  C2_3 
REMARK    2  A    between atoms: C2_3  and  C3_4 
REMARK    3  A    between atoms: C3_4  and  N1_5 
REMARK       I    between atoms: N1_5  and  C4_7 
REMARK       I    between atoms: C4_7  and  N5_15 
REMARK       I    between atoms: N2_8  and  C5_10 
REMARK    4  A    between atoms: N5_15  and  C6_17 
ROOT
HETATM    1  N1  UNL     1     -23.000   7.003 102.733  1.00  0.00    -0.224 N 
ATOM      2  H1  UNL     1     -22.790   7.998 102.803  1.00  0.00     0.177 HD
HETATM    3  C4  UNL     1     -24.114   6.646 101.949  1.00  0.00     0.678 C 
HETATM    4  N2  UNL     1     -24.967   5.742 102.174  1.00  0.00    -0.164 N 
ATOM      5  H2  UNL     1     -25.694   5.658 101.464  1.00  0.00     0.187 HD
HETATM    6  C5  UNL     1     -25.079   4.842 103.226  1.00  0.00     0.200 C 
HETATM    7  N3  UNL     1     -24.575   3.641 103.064  1.00  0.00    -0.373 N 
ATOM      8  H31 UNL     1     -24.657   2.981 103.836  1.00  0.00     0.158 HD
ATOM      9  H32 UNL     1     -24.129   3.459 102.164  1.00  0.00     0.158 HD
HETATM   10  N4  UNL     1     -25.697   5.096 104.473  1.00  0.00    -0.063 NA
HETATM   11  N5  UNL     1     -24.315   7.400 100.731  1.00  0.00    -0.191 N 
ATOM     12  H5  UNL     1     -23.510   7.816 100.263  1.00  0.00     0.181 HD
ENDROOT
BRANCH  11  13
HETATM   13  C6  UNL     1     -25.652   7.580 100.156  1.00  0.00     0.182 C 
HETATM   14  C7  UNL     1     -26.541   8.101 101.225  1.00  0.00     0.096 C 
HETATM   15  C8  UNL     1     -27.333   9.336 100.770  1.00  0.00     0.126 C 
HETATM   16  C9  UNL     1     -27.955   8.883  99.439  1.00  0.00     0.041 C 
HETATM   17  O2  UNL     1     -26.497  10.380 100.473  1.00  0.00    -0.385 OA
HETATM   18  C10 UNL     1     -26.739   9.212  98.560  1.00  0.00     0.046 C 
HETATM   19  C11 UNL     1     -26.496  10.624  99.125  1.00  0.00     0.175 C 
HETATM   20  C12 UNL     1     -25.547   8.404  98.920  1.00  0.00     0.187 C 
HETATM   21  O3  UNL     1     -25.166   7.477  97.956  1.00  0.00    -0.345 OA
HETATM   22  C13 UNL     1     -25.633   6.249  98.348  1.00  0.00     0.160 C 
HETATM   23  C14 UNL     1     -24.529   5.210  98.164  1.00  0.00     0.078 C 
HETATM   24  C15 UNL     1     -26.748   5.849  97.410  1.00  0.00     0.078 C 
HETATM   25  O4  UNL     1     -26.053   6.331  99.666  1.00  0.00    -0.322 OA
ENDBRANCH  11  13
BRANCH   1  26
HETATM   26  C3  UNL     1     -22.130   6.108 103.444  1.00  0.00     0.164 C 
BRANCH  26  27
HETATM   27  C2  UNL     1     -21.393   5.174 102.484  1.00  0.00     0.187 C 
BRANCH  27  28
HETATM   28  O1  UNL     1     -20.555   4.290 103.129  1.00  0.00    -0.394 OA
HETATM   29  C1  UNL     1     -20.946   2.974 103.100  1.00  0.00     0.201 C 
ENDBRANCH  27  28
ENDBRANCH  26  27
ENDBRANCH   1  26
TORSDOF 4
ENDMDL
MODEL 3
REMARK VINA RESULT: -6.826771386      0.953      1.268
REMARK  4 active torsions:
REMARK  status: ('A' for Active; 'I' for Inactive)
REMARK    1  A    between atoms: O1_2  and  C2_3 
REMARK    2  A    between atoms: C2_3  and  C3_4 
REMARK    3  A    between atoms: C3_4  and  N1_5 
REMARK       I    between atoms: N1_5  and  C4_7 
REMARK       I    between atoms: C4_7  and  N5_15 
REMARK       I    between atoms: N2_8  and  C5_10 
REMARK    4  A    between atoms: N5_15  and  C6_17 
ROOT
HETATM    1  N1  UNL     1     -22.822   7.087 102.720  1.00  0.00    -0.224 N 
ATOM      2  H1  UNL     1     -22.639   8.088 102.785  1.00  0.00     0.177 HD
HETATM    3  C4  UNL     1     -23.943   6.698 101.961  1.00  0.00     0.678 C 
HETATM    4  N2  UNL     1     -24.764   5.769 102.204  1.00  0.00    -0.164 N 
ATOM      5  H2  UNL     1     -25.504   5.664 101.510  1.00  0.00     0.187 HD
HETATM    6  C5  UNL     1     -24.827   4.867 103.258  1.00  0.00     0.200 C 
HETATM    7  N3  UNL     1     -24.292   3.682 103.085  1.00  0.00    -0.373 N 
ATOM      8  H31 UNL     1     -24.339   3.019 103.859  1.00  0.00     0.158 HD
ATOM      9  H32 UNL     1     -23.861   3.511 102.176  1.00  0.00     0.158 HD
HETATM   10  N4  UNL     1     -25.424   5.104 104.518  1.00  0.00    -0.063 NA
HETATM   11  N5  UNL     1     -24.192   7.445 100.748  1.00  0.00    -0.191 N 
ATOM     12  H5  UNL     1     -23.410   7.883 100.261  1.00  0.00     0.181 HD
ENDROOT
BRANCH  11  13
HETATM   13  C6  UNL     1     -25.546   7.586 100.202  1.00  0.00     0.182 C 
HETATM   14  C7  UNL     1     -26.419   8.112 101.281  1.00  0.00     0.096 C 
HETATM   15  C8  UNL     1     -27.248   9.320 100.821  1.00  0.00     0.126 C 
HETATM   16  C9  UNL     1     -27.892   8.828  99.515  1.00  0.00     0.041 C 
HETATM   17  O2  UNL     1     -26.441  10.374 100.482  1.00  0.00    -0.385 OA
HETATM   18  C10 UNL     1     -26.704   9.162  98.600  1.00  0.00     0.046 C 
HETATM   19  C11 UNL     1     -26.477  10.591  99.129  1.00  0.00     0.175 C 
HETATM   20  C12 UNL     1     -25.488   8.386  98.947  1.00  0.00     0.187 C 
HETATM   21  O3  UNL     1     -25.112   7.446  97.993  1.00  0.00    -0.345 OA
HETATM   22  C13 UNL     1     -25.543   6.218  98.421  1.00  0.00     0.160 C 
HETATM   23  C14 UNL     1     -24.424   5.198  98.232  1.00  0.00     0.078 C 
HETATM   24  C15 UNL     1     -26.673   5.776  97.520  1.00  0.00     0.078 C 
HETATM   25  O4  UNL     1     -25.933   6.320  99.748  1.00  0.00    -0.322 OA
ENDBRANCH  11  13
BRANCH   1  26
HETATM   26  C3  UNL     1     -21.911   6.218 103.411  1.00  0.00     0.164 C 
BRANCH  26  27
HETATM   27  C2  UNL     1     -21.095   6.986 104.451  1.00  0.00     0.187 C 
BRANCH  27  28
HETATM   28  O1  UNL     1     -20.896   6.273 105.613  1.00  0.00    -0.394 OA
HETATM   29  C1  UNL     1     -21.756   5.222 105.817  1.00  0.00     0.201 C 
ENDBRANCH  27  28
ENDBRANCH  26  27
ENDBRANCH   1  26
TORSDOF 4
ENDMDL
MODEL 4
REMARK VINA RESULT: -6.751170150      2.374      6.122
REMARK  4 active torsions:
REMARK  status: ('A' for Active; 'I' for Inactive)
REMARK    1  A    between atoms: O1_2  and  C2_3 
REMARK    2  A    between atoms: C2_3  and  C3_4 
REMARK    3  A    between atoms: C3_4  and  N1_5 
REMARK       I    between atoms: N1_5  and  C4_7 
REMARK       I    between atoms: C4_7  and  N5_15 
REMARK       I    between atoms: N2_8  and  C5_10 
REMARK    4  A    between atoms: N5_15  and  C6_17 
ROOT
HETATM    1  N1  UNL     1     -25.829   8.215 102.560  1.00  0.00    -0.224 N 
ATOM      2  H1  UNL     1     -25.831   7.923 103.537  1.00  0.00     0.177 HD
HETATM    3  C4  UNL     1     -24.913   7.569 101.709  1.00  0.00     0.678 C 
HETATM    4  N2  UNL     1     -24.232   8.072 100.771  1.00  0.00    -0.164 N 
ATOM      5  H2  UNL     1     -23.629   7.411 100.282  1.00  0.00     0.187 HD
HETATM    6  C5  UNL     1     -24.168   9.375 100.295  1.00  0.00     0.200 C 
HETATM    7  N3  UNL     1     -24.913   9.689  99.262  1.00  0.00    -0.373 N 
ATOM      8  H31 UNL     1     -24.866  10.646  98.912  1.00  0.00     0.158 HD
ATOM      9  H32 UNL     1     -25.494   8.940  98.883  1.00  0.00     0.158 HD
HETATM   10  N4  UNL     1     -23.362  10.412 100.821  1.00  0.00    -0.063 NA
HETATM   11  N5  UNL     1     -24.722   6.151 101.924  1.00  0.00    -0.191 N 
ATOM     12  H5  UNL     1     -25.481   5.599 102.321  1.00  0.00     0.181 HD
ENDROOT
BRANCH  11  13
HETATM   13  C6  UNL     1     -23.457   5.491 101.583  1.00  0.00     0.182 C 
HETATM   14  C7  UNL     1     -22.386   6.104 102.408  1.00  0.00     0.096 C 
HETATM   15  C8  UNL     1     -21.525   5.050 103.118  1.00  0.00     0.126 C 
HETATM   16  C9  UNL     1     -21.133   4.093 101.981  1.00  0.00     0.041 C 
HETATM   17  O2  UNL     1     -22.269   4.316 104.004  1.00  0.00    -0.385 OA
HETATM   18  C10 UNL     1     -22.407   3.235 102.030  1.00  0.00     0.046 C 
HETATM   19  C11 UNL     1     -22.415   3.029 103.556  1.00  0.00     0.175 C 
HETATM   20  C12 UNL     1     -23.626   4.016 101.704  1.00  0.00     0.187 C 
HETATM   21  O3  UNL     1     -24.228   3.669 100.499  1.00  0.00    -0.345 OA
HETATM   22  C13 UNL     1     -23.856   4.597  99.562  1.00  0.00     0.160 C 
HETATM   23  C14 UNL     1     -25.083   5.020  98.758  1.00  0.00     0.078 C 
HETATM   24  C15 UNL     1     -22.921   3.927  98.582  1.00  0.00     0.078 C 
HETATM   25  O4  UNL     1     -23.264   5.672 100.208  1.00  0.00    -0.322 OA
ENDBRANCH  11  13
BRANCH   1  26
HETATM   26  C3  UNL     1     -26.763   9.244 102.193  1.00  0.00     0.164 C 
BRANCH  26  27
HETATM   27  C2  UNL     1     -27.931   8.670 101.390  1.00  0.00     0.187 C 
BRANCH  27  28
HETATM   28  O1  UNL     1     -27.738   8.750 100.028  1.00  0.00    -0.394 OA
HETATM   29  C1  UNL     1     -27.852   7.564  99.344  1.00  0.00     0.201 C 
ENDBRANCH  27  28
ENDBRANCH  26  27
ENDBRANCH   1  26
TORSDOF 4
ENDMDL
MODEL 5
REMARK VINA RESULT: -6.657534067      2.812      3.805
REMARK  4 active torsions:
REMARK  status: ('A' for Active; 'I' for Inactive)
REMARK    1  A    between atoms: O1_2  and  C2_3 
REMARK    2  A    between atoms: C2_3  and  C3_4 
REMARK    3  A    between atoms: C3_4  and  N1_5 
REMARK       I    between atoms: N1_5  and  C4_7 
REMARK       I    between atoms: C4_7  and  N5_15 
REMARK       I    between atoms: N2_8  and  C5_10 
REMARK    4  A    between atoms: N5_15  and  C6_17 
ROOT
HETATM    1  N1  UNL     1     -23.947   4.293 105.353  1.00  0.00    -0.224 N 
ATOM      2  H1  UNL     1     -23.982   5.157 105.892  1.00  0.00     0.177 HD
HETATM    3  C4  UNL     1     -24.290   4.384 103.990  1.00  0.00     0.678 C 
HETATM    4  N2  UNL     1     -24.950   3.559 103.296  1.00  0.00    -0.164 N 
ATOM      5  H2  UNL     1     -25.078   3.831 102.321  1.00  0.00     0.187 HD
HETATM    6  C5  UNL     1     -25.529   2.344 103.639  1.00  0.00     0.200 C 
HETATM    7  N3  UNL     1     -24.847   1.249 103.398  1.00  0.00    -0.373 N 
ATOM      8  H31 UNL     1     -25.272   0.357 103.650  1.00  0.00     0.158 HD
ATOM      9  H32 UNL     1     -23.927   1.376 102.975  1.00  0.00     0.158 HD
HETATM   10  N4  UNL     1     -26.804   2.169 104.226  1.00  0.00    -0.063 NA
HETATM   11  N5  UNL     1     -23.833   5.562 103.286  1.00  0.00    -0.191 N 
ATOM     12  H5  UNL     1     -22.987   6.035 103.602  1.00  0.00     0.181 HD
ENDROOT
BRANCH  11  13
HETATM   13  C6  UNL     1     -24.561   6.090 102.128  1.00  0.00     0.182 C 
HETATM   14  C7  UNL     1     -25.907   6.510 102.590  1.00  0.00     0.096 C 
HETATM   15  C8  UNL     1     -26.262   7.931 102.129  1.00  0.00     0.126 C 
HETATM   16  C9  UNL     1     -25.970   7.894 100.620  1.00  0.00     0.041 C 
HETATM   17  O2  UNL     1     -25.406   8.855 102.667  1.00  0.00    -0.385 OA
HETATM   18  C10 UNL     1     -24.467   8.193 100.727  1.00  0.00     0.046 C 
HETATM   19  C11 UNL     1     -24.598   9.385 101.695  1.00  0.00     0.175 C 
HETATM   20  C12 UNL     1     -23.732   7.133 101.463  1.00  0.00     0.187 C 
HETATM   21  O3  UNL     1     -22.859   6.388 100.678  1.00  0.00    -0.345 OA
HETATM   22  C13 UNL     1     -23.477   5.203 100.373  1.00  0.00     0.160 C 
HETATM   23  C14 UNL     1     -22.490   4.055 100.573  1.00  0.00     0.078 C 
HETATM   24  C15 UNL     1     -23.815   5.215  98.900  1.00  0.00     0.078 C 
HETATM   25  O4  UNL     1     -24.600   5.066 101.174  1.00  0.00    -0.322 OA
ENDBRANCH  11  13
BRANCH   1  26
HETATM   26  C3  UNL     1     -23.553   3.106 106.060  1.00  0.00     0.164 C 
BRANCH  26  27
HETATM   27  C2  UNL     1     -22.117   2.709 105.718  1.00  0.00     0.187 C 
BRANCH  27  28
HETATM   28  O1  UNL     1     -22.045   1.728 104.753  1.00  0.00    -0.394 OA
HETATM   29  C1  UNL     1     -21.344   2.063 103.620  1.00  0.00     0.201 C 
ENDBRANCH  27  28
ENDBRANCH  26  27
ENDBRANCH   1  26
TORSDOF 4
ENDMDL
