MODEL 1
REMARK VINA RESULT: -10.590575353      0.000      0.000
REMARK  12 active torsions:
REMARK  status: ('A' for Active; 'I' for Inactive)
REMARK    1  A    between atoms: C2_2  and  C3_3 
REMARK    2  A    between atoms: C2_2  and  C18_21 
REMARK    3  A    between atoms: C3_3  and  C4_4 
REMARK    4  A    between atoms: C4_4  and  C5_5 
REMARK    5  A    between atoms: C10_11  and  C12_13 
REMARK    6  A    between atoms: C18_21  and  C19_22 
REMARK    7  A    between atoms: C19_22  and  C20_24 
REMARK    8  A    between atoms: C20_24  and  C21_25 
REMARK    9  A    between atoms: C21_25  and  C22_26 
REMARK   10  A    between atoms: C23_27  and  C24_28 
REMARK   11  A    between atoms: C26_30  and  C27_31 
REMARK   12  A    between atoms: C29_35  and  C30_36 
ROOT
HETATM    1  C1  UNL     1      -9.478  27.645  16.562  1.00  0.00     0.019 C 
HETATM    2  C2  UNL     1      -8.645  27.512  15.542  1.00  0.00    -0.060 C 
ENDROOT
BRANCH   2   3
HETATM    3  C3  UNL     1      -9.066  26.707  14.380  1.00  0.00     0.007 C 
BRANCH   3   4
HETATM    4  C4  UNL     1     -10.146  25.769  14.417  1.00  0.00     0.012 C 
BRANCH   4   5
HETATM    5  C5  UNL     1     -10.137  24.372  14.783  1.00  0.00    -0.004 C 
HETATM    6  C6  UNL     1      -9.138  23.780  15.652  1.00  0.00     0.156 C 
HETATM    7  O1  UNL     1      -8.361  24.260  16.421  1.00  0.00    -0.293 OA
HETATM    8  C7  UNL     1      -9.053  22.255  15.579  1.00  0.00     0.084 C 
HETATM    9  C8  UNL     1     -10.130  21.777  14.621  1.00  0.00     0.014 C 
HETATM   10  C9  UNL     1     -11.480  22.323  15.028  1.00  0.00     0.016 C 
HETATM   11  C10 UNL     1     -12.643  21.624  14.428  1.00  0.00     0.039 C 
HETATM   12  C16 UNL     1     -11.542  23.806  15.120  1.00  0.00    -0.009 C 
HETATM   13  C11 UNL     1     -13.536  20.960  15.496  1.00  0.00     0.025 C 
HETATM   14  C13 UNL     1     -13.574  22.441  13.581  1.00  0.00     0.019 C 
HETATM   15  C14 UNL     1     -13.865  23.772  14.247  1.00  0.00     0.002 C 
HETATM   16  C15 UNL     1     -12.496  24.462  14.195  1.00  0.00     0.014 C 
HETATM   17  C17 UNL     1     -11.958  24.244  16.526  1.00  0.00     0.021 C 
BRANCH  11  18
HETATM   18  C12 UNL     1     -12.211  20.485  13.562  1.00  0.00     0.239 C 
HETATM   19  N1  UNL     1     -12.220  20.537  12.142  1.00  0.00    -0.061 NA
HETATM   20  O2  UNL     1     -11.800  19.383  14.046  1.00  0.00    -0.276 OA
ENDBRANCH  11  18
ENDBRANCH   4   5
ENDBRANCH   3   4
ENDBRANCH   2   3
BRANCH   2  21
HETATM   21  C18 UNL     1      -7.321  28.244  15.519  1.00  0.00     0.121 C 
BRANCH  21  22
HETATM   22  C19 UNL     1      -6.239  27.375  15.150  1.00  0.00     0.161 C 
HETATM   23  O3  UNL     1      -5.883  26.441  15.899  1.00  0.00    -0.292 OA
BRANCH  22  24
HETATM   24  C20 UNL     1      -5.485  27.534  13.867  1.00  0.00     0.106 C 
BRANCH  24  25
HETATM   25  C21 UNL     1      -4.743  26.609  13.460  1.00  0.00    -0.125 C 
BRANCH  25  26
HETATM   26  C22 UNL     1      -3.917  25.585  13.041  1.00  0.00     0.052 C 
HETATM   27  C23 UNL     1      -3.124  24.967  13.954  1.00  0.00    -0.010 C 
BRANCH  27  28
HETATM   28  C24 UNL     1      -2.222  23.871  13.559  1.00  0.00     0.039 C 
HETATM   29  C25 UNL     1      -1.839  23.107  14.825  1.00  0.00     0.032 C 
HETATM   30  C26 UNL     1      -0.630  23.878  15.310  1.00  0.00     0.110 C 
HETATM   31  C28 UNL     1      -0.006  24.320  14.025  1.00  0.00    -0.007 C 
HETATM   32  C29 UNL     1      -0.918  24.312  13.037  1.00  0.00    -0.061 C 
BRANCH  30  33
HETATM   33  C27 UNL     1       0.301  22.973  16.054  1.00  0.00     0.180 C 
HETATM   34  O4  UNL     1       1.428  23.371  16.390  1.00  0.00    -0.647 OA
HETATM   35  O5  UNL     1      -0.123  21.683  16.359  1.00  0.00    -0.647 OA
ENDBRANCH  30  33
BRANCH  32  36
HETATM   36  C30 UNL     1      -0.606  24.677  11.639  1.00  0.00     0.149 C 
HETATM   37 CL1  UNL     1      -0.376  26.443  11.466  1.00  0.00    -0.126 Cl
ENDBRANCH  32  36
ENDBRANCH  27  28
ENDBRANCH  25  26
ENDBRANCH  24  25
ENDBRANCH  22  24
ENDBRANCH  21  22
ENDBRANCH   2  21
TORSDOF 12
ENDMDL
MODEL 2
REMARK VINA RESULT: -10.498053200      1.112      1.416
REMARK  12 active torsions:
REMARK  status: ('A' for Active; 'I' for Inactive)
REMARK    1  A    between atoms: C2_2  and  C3_3 
REMARK    2  A    between atoms: C2_2  and  C18_21 
REMARK    3  A    between atoms: C3_3  and  C4_4 
REMARK    4  A    between atoms: C4_4  and  C5_5 
REMARK    5  A    between atoms: C10_11  and  C12_13 
REMARK    6  A    between atoms: C18_21  and  C19_22 
REMARK    7  A    between atoms: C19_22  and  C20_24 
REMARK    8  A    between atoms: C20_24  and  C21_25 
REMARK    9  A    between atoms: C21_25  and  C22_26 
REMARK   10  A    between atoms: C23_27  and  C24_28 
REMARK   11  A    between atoms: C26_30  and  C27_31 
REMARK   12  A    between atoms: C29_35  and  C30_36 
ROOT
HETATM    1  C1  UNL     1      -9.118  27.676  16.288  1.00  0.00     0.019 C 
HETATM    2  C2  UNL     1      -8.313  27.375  15.281  1.00  0.00    -0.060 C 
ENDROOT
BRANCH   2   3
HETATM    3  C3  UNL     1      -8.828  26.530  14.186  1.00  0.00     0.007 C 
BRANCH   3   4
HETATM    4  C4  UNL     1      -9.960  25.665  14.321  1.00  0.00     0.012 C 
BRANCH   4   5
HETATM    5  C5  UNL     1     -10.018  24.288  14.748  1.00  0.00    -0.004 C 
HETATM    6  C6  UNL     1      -9.064  23.695  15.666  1.00  0.00     0.156 C 
HETATM    7  O1  UNL     1      -8.283  24.178  16.430  1.00  0.00    -0.293 OA
HETATM    8  C7  UNL     1      -9.042  22.167  15.663  1.00  0.00     0.084 C 
HETATM    9  C8  UNL     1     -10.118  21.690  14.703  1.00  0.00     0.014 C 
HETATM   10  C9  UNL     1     -11.452  22.309  15.055  1.00  0.00     0.016 C 
HETATM   11  C10 UNL     1     -12.629  21.632  14.460  1.00  0.00     0.039 C 
HETATM   12  C16 UNL     1     -11.452  23.796  15.078  1.00  0.00    -0.009 C 
HETATM   13  C11 UNL     1     -13.572  21.054  15.536  1.00  0.00     0.025 C 
HETATM   14  C13 UNL     1     -13.508  22.447  13.556  1.00  0.00     0.019 C 
HETATM   15  C14 UNL     1     -13.756  23.818  14.155  1.00  0.00     0.002 C 
HETATM   16  C15 UNL     1     -12.359  24.448  14.103  1.00  0.00     0.014 C 
HETATM   17  C17 UNL     1     -11.879  24.315  16.453  1.00  0.00     0.021 C 
BRANCH  11  18
HETATM   18  C12 UNL     1     -12.228  20.437  13.656  1.00  0.00     0.239 C 
HETATM   19  N1  UNL     1     -12.124  20.450  12.239  1.00  0.00    -0.061 NA
HETATM   20  O2  UNL     1     -11.949  19.321  14.195  1.00  0.00    -0.276 OA
ENDBRANCH  11  18
ENDBRANCH   4   5
ENDBRANCH   3   4
ENDBRANCH   2   3
BRANCH   2  21
HETATM   21  C18 UNL     1      -6.918  27.954  15.201  1.00  0.00     0.121 C 
BRANCH  21  22
HETATM   22  C19 UNL     1      -5.961  26.980  14.755  1.00  0.00     0.161 C 
HETATM   23  O3  UNL     1      -5.542  26.985  13.578  1.00  0.00    -0.292 OA
BRANCH  22  24
HETATM   24  C20 UNL     1      -5.418  25.918  15.659  1.00  0.00     0.106 C 
BRANCH  24  25
HETATM   25  C21 UNL     1      -4.537  25.132  15.239  1.00  0.00    -0.125 C 
BRANCH  25  26
HETATM   26  C22 UNL     1      -3.564  24.254  14.804  1.00  0.00     0.052 C 
HETATM   27  C23 UNL     1      -2.259  24.614  14.912  1.00  0.00    -0.010 C 
BRANCH  27  28
HETATM   28  C24 UNL     1      -1.183  23.714  14.461  1.00  0.00     0.039 C 
HETATM   29  C25 UNL     1      -0.256  23.470  15.650  1.00  0.00     0.032 C 
HETATM   30  C26 UNL     1       0.714  24.625  15.542  1.00  0.00     0.110 C 
HETATM   31  C28 UNL     1       0.803  24.822  14.062  1.00  0.00    -0.007 C 
HETATM   32  C29 UNL     1      -0.279  24.300  13.458  1.00  0.00    -0.061 C 
BRANCH  30  33
HETATM   33  C27 UNL     1       2.051  24.237  16.094  1.00  0.00     0.180 C 
HETATM   34  O4  UNL     1       2.334  23.041  16.268  1.00  0.00    -0.647 OA
HETATM   35  O5  UNL     1       2.963  25.241  16.403  1.00  0.00    -0.647 OA
ENDBRANCH  30  33
BRANCH  32  36
HETATM   36  C30 UNL     1      -0.478  24.315  11.993  1.00  0.00     0.149 C 
HETATM   37 CL1  UNL     1      -1.964  23.432  11.531  1.00  0.00    -0.126 Cl
ENDBRANCH  32  36
ENDBRANCH  27  28
ENDBRANCH  25  26
ENDBRANCH  24  25
ENDBRANCH  22  24
ENDBRANCH  21  22
ENDBRANCH   2  21
TORSDOF 12
ENDMDL
MODEL 3
REMARK VINA RESULT: -10.444125226      1.118      1.558
REMARK  12 active torsions:
REMARK  status: ('A' for Active; 'I' for Inactive)
REMARK    1  A    between atoms: C2_2  and  C3_3 
REMARK    2  A    between atoms: C2_2  and  C18_21 
REMARK    3  A    between atoms: C3_3  and  C4_4 
REMARK    4  A    between atoms: C4_4  and  C5_5 
REMARK    5  A    between atoms: C10_11  and  C12_13 
REMARK    6  A    between atoms: C18_21  and  C19_22 
REMARK    7  A    between atoms: C19_22  and  C20_24 
REMARK    8  A    between atoms: C20_24  and  C21_25 
REMARK    9  A    between atoms: C21_25  and  C22_26 
REMARK   10  A    between atoms: C23_27  and  C24_28 
REMARK   11  A    between atoms: C26_30  and  C27_31 
REMARK   12  A    between atoms: C29_35  and  C30_36 
ROOT
HETATM    1  C1  UNL     1      -6.643  24.956  13.100  1.00  0.00     0.019 C 
HETATM    2  C2  UNL     1      -7.258  26.090  13.397  1.00  0.00    -0.060 C 
ENDROOT
BRANCH   2   3
HETATM    3  C3  UNL     1      -8.731  26.139  13.331  1.00  0.00     0.007 C 
BRANCH   3   4
HETATM    4  C4  UNL     1      -9.586  25.595  14.343  1.00  0.00     0.012 C 
BRANCH   4   5
HETATM    5  C5  UNL     1      -9.750  24.225  14.767  1.00  0.00    -0.004 C 
HETATM    6  C6  UNL     1      -8.851  23.562  15.693  1.00  0.00     0.156 C 
HETATM    7  O1  UNL     1      -8.045  23.985  16.465  1.00  0.00    -0.293 OA
HETATM    8  C7  UNL     1      -8.942  22.036  15.687  1.00  0.00     0.084 C 
HETATM    9  C8  UNL     1     -10.041  21.642  14.715  1.00  0.00     0.014 C 
HETATM   10  C9  UNL     1     -11.329  22.357  15.056  1.00  0.00     0.016 C 
HETATM   11  C10 UNL     1     -12.548  21.770  14.448  1.00  0.00     0.039 C 
HETATM   12  C16 UNL     1     -11.220  23.840  15.082  1.00  0.00    -0.009 C 
HETATM   13  C11 UNL     1     -13.541  21.263  15.513  1.00  0.00     0.025 C 
HETATM   14  C13 UNL     1     -13.354  22.649  13.537  1.00  0.00     0.019 C 
HETATM   15  C14 UNL     1     -13.506  24.034  14.136  1.00  0.00     0.002 C 
HETATM   16  C15 UNL     1     -12.065  24.559  14.099  1.00  0.00     0.014 C 
HETATM   17  C17 UNL     1     -11.620  24.388  16.454  1.00  0.00     0.021 C 
BRANCH  11  18
HETATM   18  C12 UNL     1     -12.228  20.550  13.646  1.00  0.00     0.239 C 
HETATM   19  N1  UNL     1     -12.163  20.545  12.226  1.00  0.00    -0.061 NA
HETATM   20  O2  UNL     1     -11.989  19.426  14.189  1.00  0.00    -0.276 OA
ENDBRANCH  11  18
ENDBRANCH   4   5
ENDBRANCH   3   4
ENDBRANCH   2   3
BRANCH   2  21
HETATM   21  C18 UNL     1      -6.480  27.293  13.882  1.00  0.00     0.121 C 
BRANCH  21  22
HETATM   22  C19 UNL     1      -5.923  27.075  15.188  1.00  0.00     0.161 C 
HETATM   23  O3  UNL     1      -6.663  26.903  16.180  1.00  0.00    -0.292 OA
BRANCH  22  24
HETATM   24  C20 UNL     1      -4.447  27.042  15.435  1.00  0.00     0.106 C 
BRANCH  24  25
HETATM   25  C21 UNL     1      -3.745  26.150  14.903  1.00  0.00    -0.125 C 
BRANCH  25  26
HETATM   26  C22 UNL     1      -2.983  25.176  14.289  1.00  0.00     0.052 C 
HETATM   27  C23 UNL     1      -1.856  24.739  14.908  1.00  0.00    -0.010 C 
BRANCH  27  28
HETATM   28  C24 UNL     1      -1.006  23.703  14.295  1.00  0.00     0.039 C 
HETATM   29  C25 UNL     1      -0.232  23.016  15.418  1.00  0.00     0.032 C 
HETATM   30  C26 UNL     1       0.994  23.895  15.545  1.00  0.00     0.110 C 
HETATM   31  C28 UNL     1       1.208  24.339  14.134  1.00  0.00    -0.007 C 
HETATM   32  C29 UNL     1       0.066  24.226  13.432  1.00  0.00    -0.061 C 
BRANCH  30  33
HETATM   33  C27 UNL     1       2.165  23.090  16.019  1.00  0.00     0.180 C 
HETATM   34  O4  UNL     1       2.212  21.867  15.808  1.00  0.00    -0.647 OA
HETATM   35  O5  UNL     1       3.193  23.740  16.694  1.00  0.00    -0.647 OA
ENDBRANCH  30  33
BRANCH  32  36
HETATM   36  C30 UNL     1      -0.043  24.566  11.998  1.00  0.00     0.149 C 
HETATM   37 CL1  UNL     1      -0.380  26.308  11.768  1.00  0.00    -0.126 Cl
ENDBRANCH  32  36
ENDBRANCH  27  28
ENDBRANCH  25  26
ENDBRANCH  24  25
ENDBRANCH  22  24
ENDBRANCH  21  22
ENDBRANCH   2  21
TORSDOF 12
ENDMDL
MODEL 4
REMARK VINA RESULT: -10.346630881      1.324      1.895
REMARK  12 active torsions:
REMARK  status: ('A' for Active; 'I' for Inactive)
REMARK    1  A    between atoms: C2_2  and  C3_3 
REMARK    2  A    between atoms: C2_2  and  C18_21 
REMARK    3  A    between atoms: C3_3  and  C4_4 
REMARK    4  A    between atoms: C4_4  and  C5_5 
REMARK    5  A    between atoms: C10_11  and  C12_13 
REMARK    6  A    between atoms: C18_21  and  C19_22 
REMARK    7  A    between atoms: C19_22  and  C20_24 
REMARK    8  A    between atoms: C20_24  and  C21_25 
REMARK    9  A    between atoms: C21_25  and  C22_26 
REMARK   10  A    between atoms: C23_27  and  C24_28 
REMARK   11  A    between atoms: C26_30  and  C27_31 
REMARK   12  A    between atoms: C29_35  and  C30_36 
ROOT
HETATM    1  C1  UNL     1      -7.204  27.177  14.993  1.00  0.00     0.019 C 
HETATM    2  C2  UNL     1      -7.602  26.461  13.953  1.00  0.00    -0.060 C 
ENDROOT
BRANCH   2   3
HETATM    3  C3  UNL     1      -9.043  26.402  13.639  1.00  0.00     0.007 C 
BRANCH   3   4
HETATM    4  C4  UNL     1      -9.999  25.704  14.443  1.00  0.00     0.012 C 
BRANCH   4   5
HETATM    5  C5  UNL     1     -10.044  24.309  14.814  1.00  0.00    -0.004 C 
HETATM    6  C6  UNL     1      -9.084  23.689  15.708  1.00  0.00     0.156 C 
HETATM    7  O1  UNL     1      -8.310  24.148  16.492  1.00  0.00    -0.293 OA
HETATM    8  C7  UNL     1      -9.047  22.163  15.644  1.00  0.00     0.084 C 
HETATM    9  C8  UNL     1     -10.117  21.715  14.663  1.00  0.00     0.014 C 
HETATM   10  C9  UNL     1     -11.458  22.306  15.038  1.00  0.00     0.016 C 
HETATM   11  C10 UNL     1     -12.628  21.642  14.414  1.00  0.00     0.039 C 
HETATM   12  C16 UNL     1     -11.473  23.791  15.122  1.00  0.00    -0.009 C 
HETATM   13  C11 UNL     1     -13.566  21.012  15.464  1.00  0.00     0.025 C 
HETATM   14  C13 UNL     1     -13.513  22.484  13.542  1.00  0.00     0.019 C 
HETATM   15  C14 UNL     1     -13.776  23.827  14.196  1.00  0.00     0.002 C 
HETATM   16  C15 UNL     1     -12.385  24.473  14.172  1.00  0.00     0.014 C 
HETATM   17  C17 UNL     1     -11.906  24.249  16.516  1.00  0.00     0.021 C 
BRANCH  11  18
HETATM   18  C12 UNL     1     -12.214  20.485  13.563  1.00  0.00     0.239 C 
HETATM   19  N1  UNL     1     -12.223  20.519  12.142  1.00  0.00    -0.061 NA
HETATM   20  O2  UNL     1     -11.821  19.384  14.061  1.00  0.00    -0.276 OA
ENDBRANCH  11  18
ENDBRANCH   4   5
ENDBRANCH   3   4
ENDBRANCH   2   3
BRANCH   2  21
HETATM   21  C18 UNL     1      -6.599  25.787  13.043  1.00  0.00     0.121 C 
BRANCH  21  22
HETATM   22  C19 UNL     1      -6.551  24.368  13.262  1.00  0.00     0.161 C 
HETATM   23  O3  UNL     1      -7.317  23.599  12.643  1.00  0.00    -0.292 OA
BRANCH  22  24
HETATM   24  C20 UNL     1      -5.598  23.737  14.227  1.00  0.00     0.106 C 
BRANCH  24  25
HETATM   25  C21 UNL     1      -4.436  23.446  13.857  1.00  0.00    -0.125 C 
BRANCH  25  26
HETATM   26  C22 UNL     1      -3.153  23.110  13.476  1.00  0.00     0.052 C 
HETATM   27  C23 UNL     1      -2.105  23.624  14.171  1.00  0.00    -0.010 C 
BRANCH  27  28
HETATM   28  C24 UNL     1      -0.716  23.299  13.804  1.00  0.00     0.039 C 
HETATM   29  C25 UNL     1       0.073  23.113  15.098  1.00  0.00     0.032 C 
HETATM   30  C26 UNL     1       0.523  24.525  15.404  1.00  0.00     0.110 C 
HETATM   31  C28 UNL     1       0.717  25.095  14.035  1.00  0.00    -0.007 C 
HETATM   32  C29 UNL     1       0.009  24.391  13.134  1.00  0.00    -0.061 C 
BRANCH  30  33
HETATM   33  C27 UNL     1       1.823  24.508  16.147  1.00  0.00     0.180 C 
HETATM   34  O4  UNL     1       2.372  23.430  16.426  1.00  0.00    -0.647 OA
HETATM   35  O5  UNL     1       2.398  25.720  16.514  1.00  0.00    -0.647 OA
ENDBRANCH  30  33
BRANCH  32  36
HETATM   36  C30 UNL     1       0.009  24.693  11.687  1.00  0.00     0.149 C 
HETATM   37 CL1  UNL     1      -0.444  26.396  11.379  1.00  0.00    -0.126 Cl
ENDBRANCH  32  36
ENDBRANCH  27  28
ENDBRANCH  25  26
ENDBRANCH  24  25
ENDBRANCH  22  24
ENDBRANCH  21  22
ENDBRANCH   2  21
TORSDOF 12
ENDMDL
MODEL 5
REMARK VINA RESULT: -10.263092577      2.115      2.678
REMARK  12 active torsions:
REMARK  status: ('A' for Active; 'I' for Inactive)
REMARK    1  A    between atoms: C2_2  and  C3_3 
REMARK    2  A    between atoms: C2_2  and  C18_21 
REMARK    3  A    between atoms: C3_3  and  C4_4 
REMARK    4  A    between atoms: C4_4  and  C5_5 
REMARK    5  A    between atoms: C10_11  and  C12_13 
REMARK    6  A    between atoms: C18_21  and  C19_22 
REMARK    7  A    between atoms: C19_22  and  C20_24 
REMARK    8  A    between atoms: C20_24  and  C21_25 
REMARK    9  A    between atoms: C21_25  and  C22_26 
REMARK   10  A    between atoms: C23_27  and  C24_28 
REMARK   11  A    between atoms: C26_30  and  C27_31 
REMARK   12  A    between atoms: C29_35  and  C30_36 
ROOT
HETATM    1  C1  UNL     1      -6.580  25.080  13.225  1.00  0.00     0.019 C 
HETATM    2  C2  UNL     1      -7.308  26.177  13.372  1.00  0.00    -0.060 C 
ENDROOT
BRANCH   2   3
HETATM    3  C3  UNL     1      -8.773  26.082  13.231  1.00  0.00     0.007 C 
BRANCH   3   4
HETATM    4  C4  UNL     1      -9.634  25.563  14.249  1.00  0.00     0.012 C 
BRANCH   4   5
HETATM    5  C5  UNL     1      -9.791  24.205  14.715  1.00  0.00    -0.004 C 
HETATM    6  C6  UNL     1      -8.892  23.578  15.665  1.00  0.00     0.156 C 
HETATM    7  O1  UNL     1      -8.092  24.030  16.427  1.00  0.00    -0.293 OA
HETATM    8  C7  UNL     1      -8.972  22.052  15.707  1.00  0.00     0.084 C 
HETATM    9  C8  UNL     1     -10.064  21.620  14.742  1.00  0.00     0.014 C 
HETATM   10  C9  UNL     1     -11.358  22.337  15.055  1.00  0.00     0.016 C 
HETATM   11  C10 UNL     1     -12.570  21.722  14.460  1.00  0.00     0.039 C 
HETATM   12  C16 UNL     1     -11.259  23.821  15.035  1.00  0.00    -0.009 C 
HETATM   13  C11 UNL     1     -13.565  21.241  15.536  1.00  0.00     0.025 C 
HETATM   14  C13 UNL     1     -13.378  22.567  13.518  1.00  0.00     0.019 C 
HETATM   15  C14 UNL     1     -13.542  23.969  14.074  1.00  0.00     0.002 C 
HETATM   16  C15 UNL     1     -12.105  24.503  14.027  1.00  0.00     0.014 C 
HETATM   17  C17 UNL     1     -11.670  24.407  16.388  1.00  0.00     0.021 C 
BRANCH  11  18
HETATM   18  C12 UNL     1     -12.238  20.480  13.698  1.00  0.00     0.239 C 
HETATM   19  N1  UNL     1     -12.133  20.439  12.280  1.00  0.00    -0.061 NA
HETATM   20  O2  UNL     1     -12.024  19.368  14.274  1.00  0.00    -0.276 OA
ENDBRANCH  11  18
ENDBRANCH   4   5
ENDBRANCH   3   4
ENDBRANCH   2   3
BRANCH   2  21
HETATM   21  C18 UNL     1      -6.666  27.488  13.768  1.00  0.00     0.121 C 
BRANCH  21  22
HETATM   22  C19 UNL     1      -6.632  27.655  15.194  1.00  0.00     0.161 C 
HETATM   23  O3  UNL     1      -7.597  28.165  15.803  1.00  0.00    -0.292 OA
BRANCH  22  24
HETATM   24  C20 UNL     1      -5.459  27.236  16.023  1.00  0.00     0.106 C 
BRANCH  24  25
HETATM   25  C21 UNL     1      -4.319  27.176  15.506  1.00  0.00    -0.125 C 
BRANCH  25  26
HETATM   26  C22 UNL     1      -3.061  27.081  14.944  1.00  0.00     0.052 C 
HETATM   27  C23 UNL     1      -2.454  25.867  14.898  1.00  0.00    -0.010 C 
BRANCH  27  28
HETATM   28  C24 UNL     1      -1.111  25.711  14.312  1.00  0.00     0.039 C 
HETATM   29  C25 UNL     1      -1.250  25.844  12.796  1.00  0.00     0.032 C 
HETATM   30  C26 UNL     1      -1.557  24.422  12.378  1.00  0.00     0.110 C 
HETATM   31  C28 UNL     1      -0.777  23.627  13.375  1.00  0.00    -0.007 C 
HETATM   32  C29 UNL     1      -0.529  24.368  14.470  1.00  0.00    -0.061 C 
BRANCH  30  33
HETATM   33  C27 UNL     1      -1.045  24.164  10.995  1.00  0.00     0.180 C 
HETATM   34  O4  UNL     1       0.158  24.321  10.732  1.00  0.00    -0.647 OA
HETATM   35  O5  UNL     1      -1.942  23.745  10.018  1.00  0.00    -0.647 OA
ENDBRANCH  30  33
BRANCH  32  36
HETATM   36  C30 UNL     1       0.242  23.872  15.629  1.00  0.00     0.149 C 
HETATM   37 CL1  UNL     1      -0.508  22.406  16.328  1.00  0.00    -0.126 Cl
ENDBRANCH  32  36
ENDBRANCH  27  28
ENDBRANCH  25  26
ENDBRANCH  24  25
ENDBRANCH  22  24
ENDBRANCH  21  22
ENDBRANCH   2  21
TORSDOF 12
ENDMDL
