MODEL 1
REMARK VINA RESULT: -7.629772918      0.000      0.000
REMARK  8 active torsions:
REMARK  status: ('A' for Active; 'I' for Inactive)
REMARK    1  A    between atoms: C2_2  and  C3_3 
REMARK    2  A    between atoms: C2_2  and  C6_8 
REMARK    3  A    between atoms: C3_3  and  C4_4 
REMARK    4  A    between atoms: C4_4  and  C5_5 
REMARK    5  A    between atoms: C27_29  and  C28_30 
REMARK    6  A    between atoms: C29_32  and  N2_33 
REMARK    7  A    between atoms: N2_33  and  N3_35 
REMARK    8  A    between atoms: N3_35  and  N4_36 
ROOT
HETATM    1  C6  UNL     1     -10.532  24.682  15.428  1.00  0.00    -0.006 C 
HETATM    2  C7  UNL     1     -10.312  23.636  14.392  1.00  0.00     0.006 C 
HETATM    3  C8  UNL     1      -9.130  24.148  13.549  1.00  0.00     0.010 C 
HETATM    4  C9  UNL     1      -9.260  25.630  13.662  1.00  0.00    -0.035 C 
HETATM    5  C10 UNL     1     -10.538  25.969  12.850  1.00  0.00     0.016 C 
HETATM    6  C11 UNL     1      -9.650  25.882  15.059  1.00  0.00    -0.002 C 
HETATM    7  C12 UNL     1      -8.477  25.829  15.961  1.00  0.00     0.006 C 
HETATM    8  C13 UNL     1      -7.387  26.699  15.544  1.00  0.00     0.011 C 
HETATM    9  C14 UNL     1      -7.015  26.789  14.088  1.00  0.00    -0.026 C 
HETATM   10  C15 UNL     1      -6.998  28.356  13.878  1.00  0.00     0.016 C 
HETATM   11  C16 UNL     1      -8.109  26.437  13.138  1.00  0.00     0.007 C 
HETATM   12  C17 UNL     1      -7.800  26.036  11.760  1.00  0.00     0.033 C 
HETATM   13  C18 UNL     1      -6.414  25.571  11.656  1.00  0.00    -0.022 C 
HETATM   14  C19 UNL     1      -5.433  25.679  12.517  1.00  0.00    -0.067 C 
HETATM   15  C20 UNL     1      -4.021  25.213  12.430  1.00  0.00     0.033 C 
HETATM   16  C21 UNL     1      -3.087  26.131  11.760  1.00  0.00     0.019 C 
HETATM   17  C22 UNL     1      -1.646  25.968  12.152  1.00  0.00    -0.047 C 
HETATM   18  C23 UNL     1      -0.803  25.371  11.009  1.00  0.00     0.015 C 
HETATM   19  C24 UNL     1      -1.065  27.383  12.315  1.00  0.00     0.015 C 
HETATM   20  C25 UNL     1      -1.347  25.200  13.356  1.00  0.00     0.010 C 
HETATM   21  C26 UNL     1      -2.417  25.028  14.389  1.00  0.00     0.020 C 
HETATM   22  C27 UNL     1      -3.773  24.796  13.834  1.00  0.00     0.044 C 
HETATM   23  C29 UNL     1      -4.919  25.364  14.702  1.00  0.00     0.143 C 
HETATM   24  C30 UNL     1      -5.646  26.335  13.840  1.00  0.00     0.011 C 
HETATM   25  C31 UNL     1      -4.739  27.575  14.030  1.00  0.00     0.023 C 
ENDROOT
BRANCH   1  26
HETATM   26  C2  UNL     1     -11.961  25.054  15.603  1.00  0.00    -0.014 C 
HETATM   27  C1  UNL     1     -12.240  25.406  17.055  1.00  0.00     0.010 C 
BRANCH  26  28
HETATM   28  C3  UNL     1     -12.837  23.920  15.135  1.00  0.00     0.013 C 
BRANCH  28  29
HETATM   29  C4  UNL     1     -13.912  24.305  14.178  1.00  0.00     0.100 C 
BRANCH  29  30
HETATM   30  C5  UNL     1     -13.668  23.585  12.876  1.00  0.00     0.231 C 
HETATM   31  N1  UNL     1     -13.272  22.228  12.953  1.00  0.00    -0.062 NA
HETATM   32  O1  UNL     1     -13.811  24.168  11.782  1.00  0.00    -0.277 OA
ENDBRANCH  29  30
ENDBRANCH  28  29
ENDBRANCH  26  28
ENDBRANCH   1  26
BRANCH  23  33
HETATM   33  N2  UNL     1      -5.595  24.256  15.240  1.00  0.00    -0.246 N 
ATOM     34  H2  UNL     1      -6.162  23.689  14.609  1.00  0.00     0.197 HD
BRANCH  33  35
HETATM   35  N3  UNL     1      -5.548  23.933  16.398  1.00  0.00    -0.248 NA
BRANCH  35  36
HETATM   36  N4  UNL     1      -5.552  23.447  17.537  1.00  0.00    -0.261 N 
ATOM     37  H42 UNL     1      -4.988  22.697  17.138  1.00  0.00     0.193 HD
ATOM     38  H41 UNL     1      -5.633  23.158  18.511  1.00  0.00     0.193 HD
ENDBRANCH  35  36
ENDBRANCH  33  35
ENDBRANCH  23  33
BRANCH  22  39
HETATM   39  C28 UNL     1      -3.914  23.272  13.867  1.00  0.00     0.243 C 
HETATM   40  O2  UNL     1      -4.658  22.704  13.088  1.00  0.00    -0.306 OA
ENDBRANCH  22  39
TORSDOF 8
ENDMDL
MODEL 2
REMARK VINA RESULT: -7.219963978      2.396      3.983
REMARK  8 active torsions:
REMARK  status: ('A' for Active; 'I' for Inactive)
REMARK    1  A    between atoms: C2_2  and  C3_3 
REMARK    2  A    between atoms: C2_2  and  C6_8 
REMARK    3  A    between atoms: C3_3  and  C4_4 
REMARK    4  A    between atoms: C4_4  and  C5_5 
REMARK    5  A    between atoms: C27_29  and  C28_30 
REMARK    6  A    between atoms: C29_32  and  N2_33 
REMARK    7  A    between atoms: N2_33  and  N3_35 
REMARK    8  A    between atoms: N3_35  and  N4_36 
ROOT
HETATM    1  C6  UNL     1      -9.127  25.187  14.452  1.00  0.00    -0.006 C 
HETATM    2  C7  UNL     1      -8.744  25.821  15.743  1.00  0.00     0.006 C 
HETATM    3  C8  UNL     1      -7.290  25.382  15.991  1.00  0.00     0.010 C 
HETATM    4  C9  UNL     1      -7.224  24.057  15.309  1.00  0.00    -0.035 C 
HETATM    5  C10 UNL     1      -8.104  23.127  16.187  1.00  0.00     0.016 C 
HETATM    6  C11 UNL     1      -8.002  24.215  14.070  1.00  0.00    -0.002 C 
HETATM    7  C12 UNL     1      -7.207  24.892  13.021  1.00  0.00     0.006 C 
HETATM    8  C13 UNL     1      -5.922  24.256  12.768  1.00  0.00     0.011 C 
HETATM    9  C14 UNL     1      -5.090  23.765  13.923  1.00  0.00    -0.026 C 
HETATM   10  C15 UNL     1      -4.769  22.289  13.455  1.00  0.00     0.016 C 
HETATM   11  C16 UNL     1      -5.857  23.456  15.163  1.00  0.00     0.007 C 
HETATM   12  C17 UNL     1      -5.183  23.416  16.467  1.00  0.00     0.033 C 
HETATM   13  C18 UNL     1      -3.925  24.167  16.421  1.00  0.00    -0.022 C 
HETATM   14  C19 UNL     1      -3.272  24.633  15.386  1.00  0.00    -0.067 C 
HETATM   15  C20 UNL     1      -1.995  25.398  15.319  1.00  0.00     0.033 C 
HETATM   16  C21 UNL     1      -0.767  24.589  15.306  1.00  0.00     0.019 C 
HETATM   17  C22 UNL     1       0.427  25.258  14.687  1.00  0.00    -0.047 C 
HETATM   18  C23 UNL     1       1.494  25.618  15.738  1.00  0.00     0.015 C 
HETATM   19  C24 UNL     1       1.131  24.199  13.820  1.00  0.00     0.015 C 
HETATM   20  C25 UNL     1       0.200  26.449  13.875  1.00  0.00     0.010 C 
HETATM   21  C26 UNL     1      -1.160  26.679  13.293  1.00  0.00     0.020 C 
HETATM   22  C27 UNL     1      -2.281  26.330  14.199  1.00  0.00     0.044 C 
HETATM   23  C29 UNL     1      -3.546  25.819  13.474  1.00  0.00     0.143 C 
HETATM   24  C30 UNL     1      -3.800  24.451  14.003  1.00  0.00     0.011 C 
HETATM   25  C31 UNL     1      -2.827  23.647  13.107  1.00  0.00     0.023 C 
ENDROOT
BRANCH   1  26
HETATM   26  C2  UNL     1     -10.462  24.532  14.484  1.00  0.00    -0.014 C 
HETATM   27  C1  UNL     1     -10.512  23.386  13.487  1.00  0.00     0.010 C 
BRANCH  26  28
HETATM   28  C3  UNL     1     -11.532  25.556  14.198  1.00  0.00     0.013 C 
BRANCH  28  29
HETATM   29  C4  UNL     1     -12.729  25.483  15.081  1.00  0.00     0.100 C 
BRANCH  29  30
HETATM   30  C5  UNL     1     -13.769  24.629  14.400  1.00  0.00     0.231 C 
HETATM   31  N1  UNL     1     -14.446  23.677  15.200  1.00  0.00    -0.062 NA
HETATM   32  O1  UNL     1     -14.015  24.762  13.184  1.00  0.00    -0.277 OA
ENDBRANCH  29  30
ENDBRANCH  28  29
ENDBRANCH  26  28
ENDBRANCH   1  26
BRANCH  23  33
HETATM   33  N2  UNL     1      -4.520  26.822  13.620  1.00  0.00    -0.246 N 
ATOM     34  H2  UNL     1      -5.259  26.674  14.308  1.00  0.00     0.197 HD
BRANCH  33  35
HETATM   35  N3  UNL     1      -4.538  27.843  12.985  1.00  0.00    -0.248 NA
BRANCH  35  36
HETATM   36  N4  UNL     1      -4.603  28.971  12.477  1.00  0.00    -0.261 N 
ATOM     37  H42 UNL     1      -4.854  28.487  11.615  1.00  0.00     0.193 HD
ATOM     38  H41 UNL     1      -4.620  29.948  12.186  1.00  0.00     0.193 HD
ENDBRANCH  35  36
ENDBRANCH  33  35
ENDBRANCH  23  33
BRANCH  22  39
HETATM   39  C28 UNL     1      -2.655  27.673  14.833  1.00  0.00     0.243 C 
HETATM   40  O2  UNL     1      -2.080  28.694  14.500  1.00  0.00    -0.306 OA
ENDBRANCH  22  39
TORSDOF 8
ENDMDL
MODEL 3
REMARK VINA RESULT: -7.148404077      1.959      3.125
REMARK  8 active torsions:
REMARK  status: ('A' for Active; 'I' for Inactive)
REMARK    1  A    between atoms: C2_2  and  C3_3 
REMARK    2  A    between atoms: C2_2  and  C6_8 
REMARK    3  A    between atoms: C3_3  and  C4_4 
REMARK    4  A    between atoms: C4_4  and  C5_5 
REMARK    5  A    between atoms: C27_29  and  C28_30 
REMARK    6  A    between atoms: C29_32  and  N2_33 
REMARK    7  A    between atoms: N2_33  and  N3_35 
REMARK    8  A    between atoms: N3_35  and  N4_36 
ROOT
HETATM    1  C6  UNL     1     -11.864  24.986  13.999  1.00  0.00    -0.006 C 
HETATM    2  C7  UNL     1     -11.456  26.278  13.381  1.00  0.00     0.006 C 
HETATM    3  C8  UNL     1     -10.015  26.516  13.864  1.00  0.00     0.010 C 
HETATM    4  C9  UNL     1      -9.991  25.828  15.188  1.00  0.00    -0.035 C 
HETATM    5  C10 UNL     1     -10.893  26.706  16.096  1.00  0.00     0.016 C 
HETATM    6  C11 UNL     1     -10.770  24.594  15.001  1.00  0.00    -0.002 C 
HETATM    7  C12 UNL     1      -9.961  23.543  14.343  1.00  0.00     0.006 C 
HETATM    8  C13 UNL     1      -8.696  23.281  15.015  1.00  0.00     0.011 C 
HETATM    9  C14 UNL     1      -7.873  24.429  15.536  1.00  0.00    -0.026 C 
HETATM   10  C15 UNL     1      -7.598  23.953  17.018  1.00  0.00     0.016 C 
HETATM   11  C16 UNL     1      -8.642  25.672  15.828  1.00  0.00     0.007 C 
HETATM   12  C17 UNL     1      -7.963  26.972  15.894  1.00  0.00     0.033 C 
HETATM   13  C18 UNL     1      -6.685  26.923  15.180  1.00  0.00    -0.022 C 
HETATM   14  C19 UNL     1      -6.023  25.887  14.728  1.00  0.00    -0.067 C 
HETATM   15  C20 UNL     1      -4.725  25.817  14.001  1.00  0.00     0.033 C 
HETATM   16  C21 UNL     1      -3.521  25.794  14.846  1.00  0.00     0.019 C 
HETATM   17  C22 UNL     1      -2.311  25.171  14.210  1.00  0.00    -0.047 C 
HETATM   18  C23 UNL     1      -1.229  26.218  13.886  1.00  0.00     0.015 C 
HETATM   19  C24 UNL     1      -1.643  24.296  15.284  1.00  0.00     0.015 C 
HETATM   20  C25 UNL     1      -2.507  24.366  13.008  1.00  0.00     0.010 C 
HETATM   21  C26 UNL     1      -3.863  23.792  12.736  1.00  0.00     0.020 C 
HETATM   22  C27 UNL     1      -4.989  24.703  13.055  1.00  0.00     0.044 C 
HETATM   23  C29 UNL     1      -6.272  23.981  13.526  1.00  0.00     0.143 C 
HETATM   24  C30 UNL     1      -6.563  24.505  14.889  1.00  0.00     0.011 C 
HETATM   25  C31 UNL     1      -5.619  23.601  15.716  1.00  0.00     0.023 C 
ENDROOT
BRANCH   1  26
HETATM   26  C2  UNL     1     -13.218  25.022  14.613  1.00  0.00    -0.014 C 
HETATM   27  C1  UNL     1     -13.171  24.462  16.026  1.00  0.00     0.010 C 
BRANCH  26  28
HETATM   28  C3  UNL     1     -14.184  24.252  13.750  1.00  0.00     0.013 C 
BRANCH  28  29
HETATM   29  C4  UNL     1     -13.687  23.921  12.385  1.00  0.00     0.100 C 
BRANCH  29  30
HETATM   30  C5  UNL     1     -13.275  22.471  12.369  1.00  0.00     0.231 C 
HETATM   31  N1  UNL     1     -13.383  21.756  13.586  1.00  0.00    -0.062 NA
HETATM   32  O1  UNL     1     -12.857  21.932  11.324  1.00  0.00    -0.277 OA
ENDBRANCH  29  30
ENDBRANCH  28  29
ENDBRANCH  26  28
ENDBRANCH   1  26
BRANCH  23  33
HETATM   33  N2  UNL     1      -7.215  24.137  12.496  1.00  0.00    -0.246 N 
ATOM     34  H2  UNL     1      -7.530  23.300  12.005  1.00  0.00     0.197 HD
BRANCH  33  35
HETATM   35  N3  UNL     1      -7.676  25.195  12.156  1.00  0.00    -0.248 NA
BRANCH  35  36
HETATM   36  N4  UNL     1      -7.987  26.336  11.788  1.00  0.00    -0.261 N 
ATOM     37  H42 UNL     1      -7.110  26.633  12.215  1.00  0.00     0.193 HD
ATOM     38  H41 UNL     1      -8.361  27.216  11.433  1.00  0.00     0.193 HD
ENDBRANCH  35  36
ENDBRANCH  33  35
ENDBRANCH  23  33
BRANCH  22  39
HETATM   39  C28 UNL     1      -5.320  25.345  11.705  1.00  0.00     0.243 C 
HETATM   40  O2  UNL     1      -4.908  26.458  11.435  1.00  0.00    -0.306 OA
ENDBRANCH  22  39
TORSDOF 8
ENDMDL
MODEL 4
REMARK VINA RESULT: -7.133762571      2.621      8.597
REMARK  8 active torsions:
REMARK  status: ('A' for Active; 'I' for Inactive)
REMARK    1  A    between atoms: C2_2  and  C3_3 
REMARK    2  A    between atoms: C2_2  and  C6_8 
REMARK    3  A    between atoms: C3_3  and  C4_4 
REMARK    4  A    between atoms: C4_4  and  C5_5 
REMARK    5  A    between atoms: C27_29  and  C28_30 
REMARK    6  A    between atoms: C29_32  and  N2_33 
REMARK    7  A    between atoms: N2_33  and  N3_35 
REMARK    8  A    between atoms: N3_35  and  N4_36 
ROOT
HETATM    1  C6  UNL     1      -2.007  25.666  14.027  1.00  0.00    -0.006 C 
HETATM    2  C7  UNL     1      -2.414  26.875  14.793  1.00  0.00     0.006 C 
HETATM    3  C8  UNL     1      -3.904  27.077  14.463  1.00  0.00     0.010 C 
HETATM    4  C9  UNL     1      -4.018  26.507  13.089  1.00  0.00    -0.035 C 
HETATM    5  C10 UNL     1      -3.245  27.507  12.189  1.00  0.00     0.016 C 
HETATM    6  C11 UNL     1      -3.169  25.304  13.093  1.00  0.00    -0.002 C 
HETATM    7  C12 UNL     1      -3.866  24.159  13.721  1.00  0.00     0.006 C 
HETATM    8  C13 UNL     1      -5.174  23.888  13.141  1.00  0.00     0.011 C 
HETATM    9  C14 UNL     1      -6.093  25.031  12.801  1.00  0.00    -0.026 C 
HETATM   10  C15 UNL     1      -6.482  24.673  11.312  1.00  0.00     0.016 C 
HETATM   11  C16 UNL     1      -5.411  26.334  12.558  1.00  0.00     0.007 C 
HETATM   12  C17 UNL     1      -6.152  27.597  12.672  1.00  0.00     0.033 C 
HETATM   13  C18 UNL     1      -7.356  27.418  13.488  1.00  0.00    -0.022 C 
HETATM   14  C19 UNL     1      -7.925  26.312  13.899  1.00  0.00    -0.067 C 
HETATM   15  C20 UNL     1      -9.146  26.109  14.728  1.00  0.00     0.033 C 
HETATM   16  C21 UNL     1     -10.420  26.096  13.993  1.00  0.00     0.019 C 
HETATM   17  C22 UNL     1     -11.537  25.356  14.674  1.00  0.00    -0.047 C 
HETATM   18  C23 UNL     1     -12.631  26.311  15.186  1.00  0.00     0.015 C 
HETATM   19  C24 UNL     1     -12.261  24.543  13.586  1.00  0.00     0.015 C 
HETATM   20  C25 UNL     1     -11.194  24.461  15.774  1.00  0.00     0.010 C 
HETATM   21  C26 UNL     1      -9.795  23.938  15.873  1.00  0.00     0.020 C 
HETATM   22  C27 UNL     1      -8.745  24.933  15.540  1.00  0.00     0.044 C 
HETATM   23  C29 UNL     1      -7.479  24.325  14.895  1.00  0.00     0.143 C 
HETATM   24  C30 UNL     1      -7.339  24.981  13.566  1.00  0.00     0.011 C 
HETATM   25  C31 UNL     1      -8.314  24.103  12.745  1.00  0.00     0.023 C 
ENDROOT
BRANCH   1  26
HETATM   26  C2  UNL     1      -0.719  25.828  13.302  1.00  0.00    -0.014 C 
HETATM   27  C1  UNL     1      -0.418  24.587  12.477  1.00  0.00     0.010 C 
BRANCH  26  28
HETATM   28  C3  UNL     1       0.384  26.110  14.290  1.00  0.00     0.013 C 
BRANCH  28  29
HETATM   29  C4  UNL     1       0.765  24.961  15.157  1.00  0.00     0.100 C 
BRANCH  29  30
HETATM   30  C5  UNL     1       2.258  24.769  15.062  1.00  0.00     0.231 C 
HETATM   31  N1  UNL     1       3.073  25.702  15.747  1.00  0.00    -0.062 NA
HETATM   32  O1  UNL     1       2.744  23.826  14.405  1.00  0.00    -0.277 OA
ENDBRANCH  29  30
ENDBRANCH  28  29
ENDBRANCH  26  28
ENDBRANCH   1  26
BRANCH  23  33
HETATM   33  N2  UNL     1      -6.453  24.441  15.848  1.00  0.00    -0.246 N 
ATOM     34  H2  UNL     1      -5.965  25.334  15.919  1.00  0.00     0.197 HD
BRANCH  33  35
HETATM   35  N3  UNL     1      -6.114  23.554  16.587  1.00  0.00    -0.248 NA
BRANCH  35  36
HETATM   36  N4  UNL     1      -5.928  22.638  17.400  1.00  0.00    -0.261 N 
ATOM     37  H42 UNL     1      -6.945  22.590  17.465  1.00  0.00     0.193 HD
ATOM     38  H41 UNL     1      -5.637  21.906  18.047  1.00  0.00     0.193 HD
ENDBRANCH  35  36
ENDBRANCH  33  35
ENDBRANCH  23  33
BRANCH  22  39
HETATM   39  C28 UNL     1      -8.321  25.472  16.910  1.00  0.00     0.243 C 
HETATM   40  O2  UNL     1      -8.166  26.667  17.080  1.00  0.00    -0.306 OA
ENDBRANCH  22  39
TORSDOF 8
ENDMDL
MODEL 5
REMARK VINA RESULT: -7.125067292      2.365      3.640
REMARK  8 active torsions:
REMARK  status: ('A' for Active; 'I' for Inactive)
REMARK    1  A    between atoms: C2_2  and  C3_3 
REMARK    2  A    between atoms: C2_2  and  C6_8 
REMARK    3  A    between atoms: C3_3  and  C4_4 
REMARK    4  A    between atoms: C4_4  and  C5_5 
REMARK    5  A    between atoms: C27_29  and  C28_30 
REMARK    6  A    between atoms: C29_32  and  N2_33 
REMARK    7  A    between atoms: N2_33  and  N3_35 
REMARK    8  A    between atoms: N3_35  and  N4_36 
ROOT
HETATM    1  C6  UNL     1      -9.605  26.257  14.429  1.00  0.00    -0.006 C 
HETATM    2  C7  UNL     1      -9.134  26.589  15.801  1.00  0.00     0.006 C 
HETATM    3  C8  UNL     1      -7.743  25.942  15.916  1.00  0.00     0.010 C 
HETATM    4  C9  UNL     1      -7.847  24.768  15.001  1.00  0.00    -0.035 C 
HETATM    5  C10 UNL     1      -8.826  23.802  15.721  1.00  0.00     0.016 C 
HETATM    6  C11 UNL     1      -8.613  25.246  13.838  1.00  0.00    -0.002 C 
HETATM    7  C12 UNL     1      -7.751  26.007  12.906  1.00  0.00     0.006 C 
HETATM    8  C13 UNL     1      -6.557  25.281  12.498  1.00  0.00     0.011 C 
HETATM    9  C14 UNL     1      -5.779  24.487  13.515  1.00  0.00    -0.026 C 
HETATM   10  C15 UNL     1      -5.648  23.097  12.774  1.00  0.00     0.016 C 
HETATM   11  C16 UNL     1      -6.566  24.046  14.702  1.00  0.00     0.007 C 
HETATM   12  C17 UNL     1      -5.889  23.684  15.953  1.00  0.00     0.033 C 
HETATM   13  C18 UNL     1      -4.549  24.275  16.005  1.00  0.00    -0.022 C 
HETATM   14  C19 UNL     1      -3.854  24.844  15.053  1.00  0.00    -0.067 C 
HETATM   15  C20 UNL     1      -2.493  25.451  15.085  1.00  0.00     0.033 C 
HETATM   16  C21 UNL     1      -1.375  24.517  14.883  1.00  0.00     0.019 C 
HETATM   17  C22 UNL     1      -0.113  25.142  14.358  1.00  0.00    -0.047 C 
HETATM   18  C23 UNL     1       1.000  25.171  15.422  1.00  0.00     0.015 C 
HETATM   19  C24 UNL     1       0.446  24.188  13.289  1.00  0.00     0.015 C 
HETATM   20  C25 UNL     1      -0.200  26.483  13.787  1.00  0.00     0.010 C 
HETATM   21  C26 UNL     1      -1.527  26.978  13.302  1.00  0.00     0.020 C 
HETATM   22  C27 UNL     1      -2.674  26.602  14.166  1.00  0.00     0.044 C 
HETATM   23  C29 UNL     1      -4.000  26.390  13.401  1.00  0.00     0.143 C 
HETATM   24  C30 UNL     1      -4.414  24.987  13.677  1.00  0.00     0.011 C 
HETATM   25  C31 UNL     1      -3.557  24.254  12.617  1.00  0.00     0.023 C 
ENDROOT
BRANCH   1  26
HETATM   26  C2  UNL     1     -11.011  25.772  14.384  1.00  0.00    -0.014 C 
HETATM   27  C1  UNL     1     -11.545  25.573  15.794  1.00  0.00     0.010 C 
BRANCH  26  28
HETATM   28  C3  UNL     1     -11.077  24.494  13.587  1.00  0.00     0.013 C 
BRANCH  28  29
HETATM   29  C4  UNL     1     -12.399  23.808  13.603  1.00  0.00     0.100 C 
BRANCH  29  30
HETATM   30  C5  UNL     1     -12.192  22.372  13.192  1.00  0.00     0.231 C 
HETATM   31  N1  UNL     1     -12.615  21.373  14.102  1.00  0.00    -0.062 NA
HETATM   32  O1  UNL     1     -11.670  22.085  12.096  1.00  0.00    -0.277 OA
ENDBRANCH  29  30
ENDBRANCH  28  29
ENDBRANCH  26  28
ENDBRANCH   1  26
BRANCH  23  33
HETATM   33  N2  UNL     1      -4.840  27.457  13.760  1.00  0.00    -0.246 N 
ATOM     34  H2  UNL     1      -5.559  27.283  14.464  1.00  0.00     0.197 HD
BRANCH  33  35
HETATM   35  N3  UNL     1      -4.768  28.562  13.291  1.00  0.00    -0.248 NA
BRANCH  35  36
HETATM   36  N4  UNL     1      -4.689  29.755  12.969  1.00  0.00    -0.261 N 
ATOM     37  H42 UNL     1      -3.973  29.453  12.308  1.00  0.00     0.193 HD
ATOM     38  H41 UNL     1      -4.724  30.761  12.801  1.00  0.00     0.193 HD
ENDBRANCH  35  36
ENDBRANCH  33  35
ENDBRANCH  23  33
BRANCH  22  39
HETATM   39  C28 UNL     1      -2.872  27.839  15.048  1.00  0.00     0.243 C 
HETATM   40  O2  UNL     1      -2.175  28.825  14.893  1.00  0.00    -0.306 OA
ENDBRANCH  22  39
TORSDOF 8
ENDMDL
