MODEL 1
REMARK VINA RESULT: -8.942393416      0.000      0.000
REMARK  11 active torsions:
REMARK  status: ('A' for Active; 'I' for Inactive)
REMARK    1  A    between atoms: C2_2  and  C3_3 
REMARK    2  A    between atoms: C3_3  and  C4_4 
REMARK    3  A    between atoms: C4_4  and  C5_5 
REMARK       I    between atoms: N3_11  and  C7_13 
REMARK    4  A    between atoms: C7_13  and  C8_15 
REMARK    5  A    between atoms: C8_15  and  C9_16 
REMARK    6  A    between atoms: C8_15  and  N4_19 
REMARK    7  A    between atoms: C9_16  and  C10_17 
REMARK       I    between atoms: N4_19  and  C12_21 
REMARK    8  A    between atoms: C12_21  and  C13_23 
REMARK    9  A    between atoms: C14_24  and  C15_25 
REMARK   10  A    between atoms: C15_25  and  C16_26 
REMARK   11  A    between atoms: C16_26  and  C17_29 
ROOT
HETATM    1  N4  UNL     1      -1.610   4.868   7.208  1.00  0.00    -0.347 N 
ATOM      2  H4  UNL     1      -1.231   4.994   8.147  1.00  0.00     0.163 HD
HETATM    3  C12 UNL     1      -1.142   3.764   6.463  1.00  0.00     0.224 C 
HETATM    4  O2  UNL     1      -1.593   3.595   5.306  1.00  0.00    -0.273 OA
ENDROOT
BRANCH   1   5
HETATM    5  C8  UNL     1      -2.570   5.820   6.756  1.00  0.00     0.177 C 
BRANCH   5   6
HETATM    6  C7  UNL     1      -3.615   6.169   7.751  1.00  0.00     0.247 C 
HETATM    7  N3  UNL     1      -3.891   5.210   8.738  1.00  0.00    -0.289 N 
HETATM    8  C6  UNL     1      -4.319   5.396   9.924  1.00  0.00     0.247 A 
ATOM      9  H3  UNL     1      -3.727   4.238   8.473  1.00  0.00     0.172 HD
HETATM   10  N2  UNL     1      -4.603   6.566  10.494  1.00  0.00    -0.263 N 
HETATM   11  O5  UNL     1      -4.570   4.448  10.833  1.00  0.00    -0.264 OA
HETATM   12  N1  UNL     1      -5.023   6.313  11.741  1.00  0.00    -0.280 N 
ATOM     13  H2  UNL     1      -4.516   7.485  10.061  1.00  0.00     0.190 HD
HETATM   14  C5  UNL     1      -4.997   4.995  11.937  1.00  0.00     0.142 A 
ATOM     15  H1  UNL     1      -5.315   7.011  12.426  1.00  0.00     0.189 HD
HETATM   16  O1  UNL     1      -4.233   7.255   7.731  1.00  0.00    -0.271 OA
BRANCH  14  17
HETATM   17  C4  UNL     1      -5.394   4.315  13.201  1.00  0.00     0.086 C 
BRANCH  17  18
HETATM   18  C3  UNL     1      -4.174   3.955  14.018  1.00  0.00     0.008 C 
BRANCH  18  19
HETATM   19  C2  UNL     1      -3.651   2.615  13.500  1.00  0.00    -0.004 C 
HETATM   20  C1  UNL     1      -2.255   2.385  14.014  1.00  0.00     0.005 C 
ENDBRANCH  18  19
ENDBRANCH  17  18
ENDBRANCH  14  17
ENDBRANCH   5   6
BRANCH   5  21
HETATM   21  C9  UNL     1      -1.914   7.112   6.288  1.00  0.00     0.034 C 
BRANCH  21  22
HETATM   22  C10 UNL     1      -0.704   7.456   7.126  1.00  0.00    -0.002 C 
HETATM   23  C11 UNL     1       0.298   8.180   6.250  1.00  0.00     0.005 C 
ENDBRANCH  21  22
ENDBRANCH   5  21
ENDBRANCH   1   5
BRANCH   3  24
HETATM   24  C13 UNL     1      -0.137   2.801   7.008  1.00  0.00     0.105 C 
HETATM   25  C14 UNL     1      -0.261   2.658   8.503  1.00  0.00     0.020 C 
HETATM   26  C21 UNL     1       0.849   3.420   9.140  1.00  0.00     0.146 C 
HETATM   27  S1  UNL     1       2.217   3.167   7.989  1.00  0.00     0.153 S 
HETATM   28  O3  UNL     1       3.139   4.319   7.966  1.00  0.00    -0.227 OA
HETATM   29  O4  UNL     1       2.981   1.937   8.314  1.00  0.00    -0.227 OA
HETATM   30  C22 UNL     1       1.230   3.056   6.547  1.00  0.00     0.069 C 
HETATM   31  C23 UNL     1       1.766   2.066   5.543  1.00  0.00     0.032 C 
HETATM   32  C24 UNL     1       1.322   4.436   5.869  1.00  0.00     0.032 C 
BRANCH  25  33
HETATM   33  C15 UNL     1      -0.435   1.238   8.853  1.00  0.00     0.086 C 
BRANCH  33  34
HETATM   34  C16 UNL     1      -0.966   0.786  10.129  1.00  0.00     0.250 C 
HETATM   35  F1  UNL     1      -2.118   0.023  10.098  1.00  0.00    -0.206 F 
HETATM   36  F2  UNL     1      -1.445   1.965  10.762  1.00  0.00    -0.206 F 
BRANCH  34  37
HETATM   37  C17 UNL     1       0.003   0.224  11.126  1.00  0.00     0.015 C 
HETATM   38  C18 UNL     1      -0.573  -0.958  11.888  1.00  0.00     0.020 C 
HETATM   39  C19 UNL     1       0.502   1.175  12.149  1.00  0.00     0.020 C 
HETATM   40  C20 UNL     1       1.182  -0.369  10.341  1.00  0.00     0.020 C 
ENDBRANCH  34  37
ENDBRANCH  33  34
ENDBRANCH  25  33
ENDBRANCH   3  24
TORSDOF 11
ENDMDL
MODEL 2
REMARK VINA RESULT: -8.859261588      2.322      4.160
REMARK  11 active torsions:
REMARK  status: ('A' for Active; 'I' for Inactive)
REMARK    1  A    between atoms: C2_2  and  C3_3 
REMARK    2  A    between atoms: C3_3  and  C4_4 
REMARK    3  A    between atoms: C4_4  and  C5_5 
REMARK       I    between atoms: N3_11  and  C7_13 
REMARK    4  A    between atoms: C7_13  and  C8_15 
REMARK    5  A    between atoms: C8_15  and  C9_16 
REMARK    6  A    between atoms: C8_15  and  N4_19 
REMARK    7  A    between atoms: C9_16  and  C10_17 
REMARK       I    between atoms: N4_19  and  C12_21 
REMARK    8  A    between atoms: C12_21  and  C13_23 
REMARK    9  A    between atoms: C14_24  and  C15_25 
REMARK   10  A    between atoms: C15_25  and  C16_26 
REMARK   11  A    between atoms: C16_26  and  C17_29 
ROOT
HETATM    1  N4  UNL     1      -3.480   5.355   9.224  1.00  0.00    -0.347 N 
ATOM      2  H4  UNL     1      -2.661   5.535   9.804  1.00  0.00     0.163 HD
HETATM    3  C12 UNL     1      -3.256   5.049   7.863  1.00  0.00     0.224 C 
HETATM    4  O2  UNL     1      -4.250   4.829   7.133  1.00  0.00    -0.273 OA
ENDROOT
BRANCH   1   5
HETATM    5  C8  UNL     1      -4.758   5.432   9.851  1.00  0.00     0.177 C 
BRANCH   5   6
HETATM    6  C7  UNL     1      -4.922   4.553  11.035  1.00  0.00     0.247 C 
HETATM    7  N3  UNL     1      -3.978   3.526  11.194  1.00  0.00    -0.289 N 
HETATM    8  C6  UNL     1      -3.577   2.981  12.274  1.00  0.00     0.247 A 
ATOM      9  H3  UNL     1      -3.558   3.171  10.334  1.00  0.00     0.172 HD
HETATM   10  N2  UNL     1      -3.976   3.275  13.510  1.00  0.00    -0.263 N 
HETATM   11  O5  UNL     1      -2.673   2.002  12.378  1.00  0.00    -0.264 OA
HETATM   12  N1  UNL     1      -3.309   2.469  14.349  1.00  0.00    -0.280 N 
ATOM     13  H2  UNL     1      -4.662   3.983  13.771  1.00  0.00     0.190 HD
HETATM   14  C5  UNL     1      -2.505   1.685  13.631  1.00  0.00     0.142 A 
ATOM     15  H1  UNL     1      -3.401   2.456  15.364  1.00  0.00     0.189 HD
HETATM   16  O1  UNL     1      -5.848   4.698  11.862  1.00  0.00    -0.271 OA
BRANCH  14  17
HETATM   17  C4  UNL     1      -1.598   0.649  14.200  1.00  0.00     0.086 C 
BRANCH  17  18
HETATM   18  C3  UNL     1      -0.308   0.582  13.415  1.00  0.00     0.008 C 
BRANCH  18  19
HETATM   19  C2  UNL     1      -0.221  -0.812  12.790  1.00  0.00    -0.004 C 
HETATM   20  C1  UNL     1      -0.774  -0.773  11.391  1.00  0.00     0.005 C 
ENDBRANCH  18  19
ENDBRANCH  17  18
ENDBRANCH  14  17
ENDBRANCH   5   6
BRANCH   5  21
HETATM   21  C9  UNL     1      -5.102   6.855  10.269  1.00  0.00     0.034 C 
BRANCH  21  22
HETATM   22  C10 UNL     1      -5.772   7.618   9.149  1.00  0.00    -0.002 C 
HETATM   23  C11 UNL     1      -7.041   8.247   9.685  1.00  0.00     0.005 C 
ENDBRANCH  21  22
ENDBRANCH   5  21
ENDBRANCH   1   5
BRANCH   3  24
HETATM   24  C13 UNL     1      -1.883   4.979   7.277  1.00  0.00     0.105 C 
HETATM   25  C14 UNL     1      -0.847   4.672   8.328  1.00  0.00     0.020 C 
HETATM   26  C21 UNL     1      -0.115   5.930   8.645  1.00  0.00     0.146 C 
HETATM   27  S1  UNL     1      -0.035   6.759   7.044  1.00  0.00     0.153 S 
HETATM   28  O3  UNL     1      -0.043   8.229   7.182  1.00  0.00    -0.227 OA
HETATM   29  O4  UNL     1       1.167   6.347   6.278  1.00  0.00    -0.227 OA
HETATM   30  C22 UNL     1      -1.547   6.126   6.429  1.00  0.00     0.069 C 
HETATM   31  C23 UNL     1      -1.506   5.840   4.948  1.00  0.00     0.032 C 
HETATM   32  C24 UNL     1      -2.580   7.253   6.614  1.00  0.00     0.032 C 
BRANCH  25  33
HETATM   33  C15 UNL     1      -0.071   3.485   7.928  1.00  0.00     0.086 C 
BRANCH  33  34
HETATM   34  C16 UNL     1       0.073   2.304   8.763  1.00  0.00     0.250 C 
HETATM   35  F1  UNL     1      -0.524   1.140   8.319  1.00  0.00    -0.206 F 
HETATM   36  F2  UNL     1      -0.706   2.578   9.920  1.00  0.00    -0.206 F 
BRANCH  34  37
HETATM   37  C17 UNL     1       1.434   2.009   9.321  1.00  0.00     0.015 C 
HETATM   38  C18 UNL     1       1.855   0.567   9.087  1.00  0.00     0.020 C 
HETATM   39  C19 UNL     1       1.606   2.261  10.773  1.00  0.00     0.020 C 
HETATM   40  C20 UNL     1       2.452   2.836   8.521  1.00  0.00     0.020 C 
ENDBRANCH  34  37
ENDBRANCH  33  34
ENDBRANCH  25  33
ENDBRANCH   3  24
TORSDOF 11
ENDMDL
MODEL 3
REMARK VINA RESULT: -8.852141753      0.851      1.102
REMARK  11 active torsions:
REMARK  status: ('A' for Active; 'I' for Inactive)
REMARK    1  A    between atoms: C2_2  and  C3_3 
REMARK    2  A    between atoms: C3_3  and  C4_4 
REMARK    3  A    between atoms: C4_4  and  C5_5 
REMARK       I    between atoms: N3_11  and  C7_13 
REMARK    4  A    between atoms: C7_13  and  C8_15 
REMARK    5  A    between atoms: C8_15  and  C9_16 
REMARK    6  A    between atoms: C8_15  and  N4_19 
REMARK    7  A    between atoms: C9_16  and  C10_17 
REMARK       I    between atoms: N4_19  and  C12_21 
REMARK    8  A    between atoms: C12_21  and  C13_23 
REMARK    9  A    between atoms: C14_24  and  C15_25 
REMARK   10  A    between atoms: C15_25  and  C16_26 
REMARK   11  A    between atoms: C16_26  and  C17_29 
ROOT
HETATM    1  N4  UNL     1      -1.934   4.626   7.256  1.00  0.00    -0.347 N 
ATOM      2  H4  UNL     1      -1.503   4.558   8.178  1.00  0.00     0.163 HD
HETATM    3  C12 UNL     1      -1.485   3.730   6.262  1.00  0.00     0.224 C 
HETATM    4  O2  UNL     1      -1.999   3.801   5.122  1.00  0.00    -0.273 OA
ENDROOT
BRANCH   1   5
HETATM    5  C8  UNL     1      -2.940   5.620   7.075  1.00  0.00     0.177 C 
BRANCH   5   6
HETATM    6  C7  UNL     1      -4.003   5.623   8.111  1.00  0.00     0.247 C 
HETATM    7  N3  UNL     1      -3.845   4.725   9.179  1.00  0.00    -0.289 N 
HETATM    8  C6  UNL     1      -4.271   4.836  10.375  1.00  0.00     0.247 A 
ATOM      9  H3  UNL     1      -3.321   3.874   8.971  1.00  0.00     0.172 HD
HETATM   10  N2  UNL     1      -4.972   5.849  10.880  1.00  0.00    -0.263 N 
HETATM   11  O5  UNL     1      -4.097   3.951  11.362  1.00  0.00    -0.264 OA
HETATM   12  N1  UNL     1      -5.216   5.566  12.167  1.00  0.00    -0.280 N 
ATOM     13  H2  UNL     1      -5.269   6.686  10.379  1.00  0.00     0.190 HD
HETATM   14  C5  UNL     1      -4.666   4.386  12.452  1.00  0.00     0.142 A 
ATOM     15  H1  UNL     1      -5.734   6.154  12.820  1.00  0.00     0.189 HD
HETATM   16  O1  UNL     1      -4.999   6.376   8.057  1.00  0.00    -0.271 OA
BRANCH  14  17
HETATM   17  C4  UNL     1      -4.719   3.722  13.784  1.00  0.00     0.086 C 
BRANCH  17  18
HETATM   18  C3  UNL     1      -3.335   3.311  14.230  1.00  0.00     0.008 C 
BRANCH  18  19
HETATM   19  C2  UNL     1      -3.111   1.870  13.769  1.00  0.00    -0.004 C 
HETATM   20  C1  UNL     1      -1.637   1.563  13.767  1.00  0.00     0.005 C 
ENDBRANCH  18  19
ENDBRANCH  17  18
ENDBRANCH  14  17
ENDBRANCH   5   6
BRANCH   5  21
HETATM   21  C9  UNL     1      -2.351   7.022   7.001  1.00  0.00     0.034 C 
BRANCH  21  22
HETATM   22  C10 UNL     1      -1.027   7.108   7.725  1.00  0.00    -0.002 C 
HETATM   23  C11 UNL     1      -0.000   7.704   6.785  1.00  0.00     0.005 C 
ENDBRANCH  21  22
ENDBRANCH   5  21
ENDBRANCH   1   5
BRANCH   3  24
HETATM   24  C13 UNL     1      -0.427   2.707   6.529  1.00  0.00     0.105 C 
HETATM   25  C14 UNL     1      -0.144   2.575   8.003  1.00  0.00     0.020 C 
HETATM   26  C21 UNL     1       1.142   3.267   8.297  1.00  0.00     0.146 C 
HETATM   27  S1  UNL     1       2.123   2.928   6.820  1.00  0.00     0.153 S 
HETATM   28  O3  UNL     1       3.070   4.020   6.523  1.00  0.00    -0.227 OA
HETATM   29  O4  UNL     1       2.872   1.654   6.945  1.00  0.00    -0.227 OA
HETATM   30  C22 UNL     1       0.773   2.876   5.705  1.00  0.00     0.069 C 
HETATM   31  C23 UNL     1       0.952   1.852   4.612  1.00  0.00     0.032 C 
HETATM   32  C24 UNL     1       0.757   4.247   5.003  1.00  0.00     0.032 C 
BRANCH  25  33
HETATM   33  C15 UNL     1      -0.299   1.168   8.413  1.00  0.00     0.086 C 
BRANCH  33  34
HETATM   34  C16 UNL     1      -0.652   0.763   9.764  1.00  0.00     0.250 C 
HETATM   35  F1  UNL     1      -1.820   0.041   9.922  1.00  0.00    -0.206 F 
HETATM   36  F2  UNL     1      -0.994   1.971  10.430  1.00  0.00    -0.206 F 
BRANCH  34  37
HETATM   37  C17 UNL     1       0.434   0.186  10.624  1.00  0.00     0.015 C 
HETATM   38  C18 UNL     1       1.602  -0.338   9.805  1.00  0.00     0.020 C 
HETATM   39  C19 UNL     1       0.027  -0.921  11.523  1.00  0.00     0.020 C 
HETATM   40  C20 UNL     1       1.032   1.337  11.446  1.00  0.00     0.020 C 
ENDBRANCH  34  37
ENDBRANCH  33  34
ENDBRANCH  25  33
ENDBRANCH   3  24
TORSDOF 11
ENDMDL
MODEL 4
REMARK VINA RESULT: -8.790692132      3.072      5.978
REMARK  11 active torsions:
REMARK  status: ('A' for Active; 'I' for Inactive)
REMARK    1  A    between atoms: C2_2  and  C3_3 
REMARK    2  A    between atoms: C3_3  and  C4_4 
REMARK    3  A    between atoms: C4_4  and  C5_5 
REMARK       I    between atoms: N3_11  and  C7_13 
REMARK    4  A    between atoms: C7_13  and  C8_15 
REMARK    5  A    between atoms: C8_15  and  C9_16 
REMARK    6  A    between atoms: C8_15  and  N4_19 
REMARK    7  A    between atoms: C9_16  and  C10_17 
REMARK       I    between atoms: N4_19  and  C12_21 
REMARK    8  A    between atoms: C12_21  and  C13_23 
REMARK    9  A    between atoms: C14_24  and  C15_25 
REMARK   10  A    between atoms: C15_25  and  C16_26 
REMARK   11  A    between atoms: C16_26  and  C17_29 
ROOT
HETATM    1  N4  UNL     1       1.544   0.835   8.371  1.00  0.00    -0.347 N 
ATOM      2  H4  UNL     1       0.967   0.381   7.663  1.00  0.00     0.163 HD
HETATM    3  C12 UNL     1       1.649   2.242   8.318  1.00  0.00     0.224 C 
HETATM    4  O2  UNL     1       2.357   2.818   9.176  1.00  0.00    -0.273 OA
ENDROOT
BRANCH   1   5
HETATM    5  C8  UNL     1       2.181  -0.002   9.333  1.00  0.00     0.177 C 
BRANCH   5   6
HETATM    6  C7  UNL     1       1.368  -0.287  10.542  1.00  0.00     0.247 C 
HETATM    7  N3  UNL     1       0.830   0.821  11.216  1.00  0.00    -0.289 N 
HETATM    8  C6  UNL     1      -0.234   0.881  11.915  1.00  0.00     0.247 A 
ATOM      9  H3  UNL     1       1.359   1.690  11.136  1.00  0.00     0.172 HD
HETATM   10  N2  UNL     1      -1.082  -0.115  12.161  1.00  0.00    -0.263 N 
HETATM   11  O5  UNL     1      -0.708   1.963  12.542  1.00  0.00    -0.264 OA
HETATM   12  N1  UNL     1      -2.061   0.374  12.936  1.00  0.00    -0.280 N 
ATOM     13  H2  UNL     1      -1.002  -1.074  11.823  1.00  0.00     0.190 HD
HETATM   14  C5  UNL     1      -1.815   1.664  13.163  1.00  0.00     0.142 A 
ATOM     15  H1  UNL     1      -2.860  -0.151  13.291  1.00  0.00     0.189 HD
HETATM   16  O1  UNL     1       1.160  -1.447  10.960  1.00  0.00    -0.271 OA
BRANCH  14  17
HETATM   17  C4  UNL     1      -2.674   2.562  13.984  1.00  0.00     0.086 C 
BRANCH  17  18
HETATM   18  C3  UNL     1      -3.851   3.058  13.176  1.00  0.00     0.008 C 
BRANCH  18  19
HETATM   19  C2  UNL     1      -4.544   4.150  13.993  1.00  0.00    -0.004 C 
HETATM   20  C1  UNL     1      -5.304   5.065  13.071  1.00  0.00     0.005 C 
ENDBRANCH  18  19
ENDBRANCH  17  18
ENDBRANCH  14  17
ENDBRANCH   5   6
BRANCH   5  21
HETATM   21  C9  UNL     1       2.615  -1.332   8.733  1.00  0.00     0.034 C 
BRANCH  21  22
HETATM   22  C10 UNL     1       3.668  -1.144   7.665  1.00  0.00    -0.002 C 
HETATM   23  C11 UNL     1       4.720  -2.221   7.829  1.00  0.00     0.005 C 
ENDBRANCH  21  22
ENDBRANCH   5  21
ENDBRANCH   1   5
BRANCH   3  24
HETATM   24  C13 UNL     1       0.944   3.056   7.280  1.00  0.00     0.105 C 
HETATM   25  C14 UNL     1      -0.482   2.604   7.095  1.00  0.00     0.020 C 
HETATM   26  C21 UNL     1      -0.564   1.819   5.832  1.00  0.00     0.146 C 
HETATM   27  S1  UNL     1       0.605   2.675   4.755  1.00  0.00     0.153 S 
HETATM   28  O3  UNL     1       1.241   1.756   3.790  1.00  0.00    -0.227 OA
HETATM   29  O4  UNL     1      -0.048   3.783   4.016  1.00  0.00    -0.227 OA
HETATM   30  C22 UNL     1       1.694   3.186   6.028  1.00  0.00     0.069 C 
HETATM   31  C23 UNL     1       2.295   4.546   5.776  1.00  0.00     0.032 C 
HETATM   32  C24 UNL     1       2.870   2.192   5.998  1.00  0.00     0.032 C 
BRANCH  25  33
HETATM   33  C15 UNL     1      -1.392   3.748   7.278  1.00  0.00     0.086 C 
BRANCH  33  34
HETATM   34  C16 UNL     1      -1.561   4.443   8.543  1.00  0.00     0.250 C 
HETATM   35  F1  UNL     1      -0.488   5.179   9.008  1.00  0.00    -0.206 F 
HETATM   36  F2  UNL     1      -1.620   3.412   9.521  1.00  0.00    -0.206 F 
BRANCH  34  37
HETATM   37  C17 UNL     1      -2.839   5.199   8.757  1.00  0.00     0.015 C 
HETATM   38  C18 UNL     1      -3.743   5.162   7.536  1.00  0.00     0.020 C 
HETATM   39  C19 UNL     1      -2.691   6.629   9.122  1.00  0.00     0.020 C 
HETATM   40  C20 UNL     1      -3.637   4.461   9.842  1.00  0.00     0.020 C 
ENDBRANCH  34  37
ENDBRANCH  33  34
ENDBRANCH  25  33
ENDBRANCH   3  24
TORSDOF 11
ENDMDL
MODEL 5
REMARK VINA RESULT: -8.639227329      1.652      1.982
REMARK  11 active torsions:
REMARK  status: ('A' for Active; 'I' for Inactive)
REMARK    1  A    between atoms: C2_2  and  C3_3 
REMARK    2  A    between atoms: C3_3  and  C4_4 
REMARK    3  A    between atoms: C4_4  and  C5_5 
REMARK       I    between atoms: N3_11  and  C7_13 
REMARK    4  A    between atoms: C7_13  and  C8_15 
REMARK    5  A    between atoms: C8_15  and  C9_16 
REMARK    6  A    between atoms: C8_15  and  N4_19 
REMARK    7  A    between atoms: C9_16  and  C10_17 
REMARK       I    between atoms: N4_19  and  C12_21 
REMARK    8  A    between atoms: C12_21  and  C13_23 
REMARK    9  A    between atoms: C14_24  and  C15_25 
REMARK   10  A    between atoms: C15_25  and  C16_26 
REMARK   11  A    between atoms: C16_26  and  C17_29 
ROOT
HETATM    1  N4  UNL     1      -1.454   4.611   7.071  1.00  0.00    -0.347 N 
ATOM      2  H4  UNL     1      -0.815   4.763   7.851  1.00  0.00     0.163 HD
HETATM    3  C12 UNL     1      -1.088   3.639   6.114  1.00  0.00     0.224 C 
HETATM    4  O2  UNL     1      -1.857   3.440   5.146  1.00  0.00    -0.273 OA
ENDROOT
BRANCH   1   5
HETATM    5  C8  UNL     1      -2.643   5.396   7.034  1.00  0.00     0.177 C 
BRANCH   5   6
HETATM    6  C7  UNL     1      -3.648   5.050   8.070  1.00  0.00     0.247 C 
HETATM    7  N3  UNL     1      -3.248   4.131   9.054  1.00  0.00    -0.289 N 
HETATM    8  C6  UNL     1      -3.659   4.033  10.257  1.00  0.00     0.247 A 
ATOM      9  H3  UNL     1      -2.538   3.456   8.770  1.00  0.00     0.172 HD
HETATM   10  N2  UNL     1      -4.574   4.796  10.851  1.00  0.00    -0.263 N 
HETATM   11  O5  UNL     1      -3.249   3.138  11.161  1.00  0.00    -0.264 OA
HETATM   12  N1  UNL     1      -4.709   4.354  12.109  1.00  0.00    -0.280 N 
ATOM     13  H2  UNL     1      -5.079   5.574  10.427  1.00  0.00     0.190 HD
HETATM   14  C5  UNL     1      -3.880   3.325  12.286  1.00  0.00     0.142 A 
ATOM     15  H1  UNL     1      -5.339   4.739  12.813  1.00  0.00     0.189 HD
HETATM   16  O1  UNL     1      -4.799   5.537   8.086  1.00  0.00    -0.271 OA
BRANCH  14  17
HETATM   17  C4  UNL     1      -3.736   2.558  13.555  1.00  0.00     0.086 C 
BRANCH  17  18
HETATM   18  C3  UNL     1      -2.278   2.401  13.920  1.00  0.00     0.008 C 
BRANCH  18  19
HETATM   19  C2  UNL     1      -1.886   0.949  13.638  1.00  0.00    -0.004 C 
HETATM   20  C1  UNL     1      -0.600   0.626  14.351  1.00  0.00     0.005 C 
ENDBRANCH  18  19
ENDBRANCH  17  18
ENDBRANCH  14  17
ENDBRANCH   5   6
BRANCH   5  21
HETATM   21  C9  UNL     1      -2.346   6.885   7.144  1.00  0.00     0.034 C 
BRANCH  21  22
HETATM   22  C10 UNL     1      -0.979   7.138   7.736  1.00  0.00    -0.002 C 
HETATM   23  C11 UNL     1      -0.164   7.940   6.742  1.00  0.00     0.005 C 
ENDBRANCH  21  22
ENDBRANCH   5  21
ENDBRANCH   1   5
BRANCH   3  24
HETATM   24  C13 UNL     1       0.176   2.847   6.224  1.00  0.00     0.105 C 
HETATM   25  C14 UNL     1       0.557   2.610   7.663  1.00  0.00     0.020 C 
HETATM   26  C21 UNL     1       1.679   3.526   8.007  1.00  0.00     0.146 C 
HETATM   27  S1  UNL     1       2.632   3.582   6.475  1.00  0.00     0.153 S 
HETATM   28  O3  UNL     1       3.308   4.882   6.292  1.00  0.00    -0.227 OA
HETATM   29  O4  UNL     1       3.641   2.496   6.421  1.00  0.00    -0.227 OA
HETATM   30  C22 UNL     1       1.268   3.368   5.398  1.00  0.00     0.069 C 
HETATM   31  C23 UNL     1       1.604   2.541   4.181  1.00  0.00     0.032 C 
HETATM   32  C24 UNL     1       0.923   4.774   4.872  1.00  0.00     0.032 C 
BRANCH  25  33
HETATM   33  C15 UNL     1       0.727   1.165   7.899  1.00  0.00     0.086 C 
BRANCH  33  34
HETATM   34  C16 UNL     1       1.453   0.619   9.033  1.00  0.00     0.250 C 
HETATM   35  F1  UNL     1       2.720   1.117   9.271  1.00  0.00    -0.206 F 
HETATM   36  F2  UNL     1       1.759  -0.719   8.661  1.00  0.00    -0.206 F 
BRANCH  34  37
HETATM   37  C17 UNL     1       0.708   0.459  10.325  1.00  0.00     0.015 C 
HETATM   38  C18 UNL     1       1.135  -0.784  11.089  1.00  0.00     0.020 C 
HETATM   39  C19 UNL     1      -0.770   0.393  10.215  1.00  0.00     0.020 C 
HETATM   40  C20 UNL     1       1.114   1.624  11.240  1.00  0.00     0.020 C 
ENDBRANCH  34  37
ENDBRANCH  33  34
ENDBRANCH  25  33
ENDBRANCH   3  24
TORSDOF 11
ENDMDL
