MODEL 1
REMARK VINA RESULT: -8.359533518      0.000      0.000
REMARK  10 active torsions:
REMARK  status: ('A' for Active; 'I' for Inactive)
REMARK    1  A    between atoms: C2_2  and  C5_5 
REMARK    2  A    between atoms: C5_5  and  N1_6 
REMARK    3  A    between atoms: C5_5  and  C11_16 
REMARK       I    between atoms: N1_6  and  C6_8 
REMARK       I    between atoms: C6_8  and  N2_10 
REMARK    4  A    between atoms: C11_16  and  C12_18 
REMARK    5  A    between atoms: C12_18  and  C13_21 
REMARK    6  A    between atoms: C13_21  and  C14_23 
REMARK    7  A    between atoms: C14_23  and  C15_24 
REMARK    8  A    between atoms: C14_23  and  N3_31 
REMARK    9  A    between atoms: C15_24  and  C16_25 
REMARK       I    between atoms: N3_31  and  C22_33 
REMARK   10  A    between atoms: C22_33  and  C23_35 
ROOT
HETATM    1  C13 UNL     1       0.967   2.014   9.268  1.00  0.00     0.228 C 
HETATM    2  O4  UNL     1       0.839   0.932   8.690  1.00  0.00    -0.289 OA
ENDROOT
BRANCH   1   3
HETATM    3  C12 UNL     1       0.512   2.188  10.664  1.00  0.00     0.366 C 
HETATM    4  F1  UNL     1       0.902   1.068  11.371  1.00  0.00    -0.189 F 
HETATM    5  F2  UNL     1       1.145   3.336  11.152  1.00  0.00    -0.189 F 
BRANCH   3   6
HETATM    6  C11 UNL     1      -0.943   2.426  10.758  1.00  0.00     0.229 C 
HETATM    7  O3  UNL     1      -1.507   2.993   9.844  1.00  0.00    -0.289 OA
BRANCH   6   8
HETATM    8  C5  UNL     1      -1.790   2.030  11.901  1.00  0.00     0.170 C 
BRANCH   8   9
HETATM    9  C2  UNL     1      -2.344   0.616  11.783  1.00  0.00    -0.024 C 
HETATM   10  C1  UNL     1      -1.843  -0.195  13.001  1.00  0.00     0.017 C 
HETATM   11  C3  UNL     1      -1.908  -0.154  10.594  1.00  0.00     0.017 C 
HETATM   12  C4  UNL     1      -3.852   0.592  11.846  1.00  0.00     0.017 C 
ENDBRANCH   8   9
BRANCH   8  13
HETATM   13  N1  UNL     1      -2.955   2.944  11.968  1.00  0.00    -0.331 N 
HETATM   14  C6  UNL     1      -3.498   3.402  13.188  1.00  0.00     0.319 C 
HETATM   15  O1  UNL     1      -3.010   3.046  14.306  1.00  0.00    -0.247 OA
HETATM   16  N2  UNL     1      -4.614   4.280  13.247  1.00  0.00    -0.330 N 
HETATM   17  C7  UNL     1      -5.276   4.781  12.057  1.00  0.00     0.153 C 
HETATM   18  C10 UNL     1      -5.165   4.734  14.516  1.00  0.00     0.153 C 
HETATM   19  C8  UNL     1      -5.821   6.150  12.408  1.00  0.00     0.187 C 
HETATM   20  O2  UNL     1      -6.815   6.091  13.377  1.00  0.00    -0.388 OA
HETATM   21  C9  UNL     1      -6.645   5.021  14.244  1.00  0.00     0.187 C 
ATOM     22  H1  UNL     1      -3.382   3.256  11.096  1.00  0.00     0.165 HD
ENDBRANCH   8  13
ENDBRANCH   6   8
ENDBRANCH   3   6
ENDBRANCH   1   3
BRANCH   1  23
HETATM   23  C14 UNL     1       1.606   3.168   8.523  1.00  0.00     0.161 C 
BRANCH  23  24
HETATM   24  C15 UNL     1       2.648   2.764   7.582  1.00  0.00     0.038 C 
BRANCH  24  25
HETATM   25  C16 UNL     1       3.884   3.586   7.450  1.00  0.00    -0.012 C 
HETATM   26  C17 UNL     1       4.993   2.604   7.041  1.00  0.00     0.005 C 
HETATM   27  C18 UNL     1       5.039   2.359   5.566  1.00  0.00     0.000 C 
HETATM   28  C19 UNL     1       5.379   3.623   4.794  1.00  0.00     0.000 C 
HETATM   29  C20 UNL     1       5.011   4.854   5.596  1.00  0.00     0.000 C 
HETATM   30  C21 UNL     1       3.724   4.636   6.378  1.00  0.00     0.005 C 
ENDBRANCH  24  25
ENDBRANCH  23  24
BRANCH  23  31
HETATM   31  N3  UNL     1       0.591   4.079   8.161  1.00  0.00    -0.349 N 
HETATM   32  C22 UNL     1       0.687   5.457   8.465  1.00  0.00     0.224 C 
HETATM   33  O5  UNL     1       1.741   5.853   9.070  1.00  0.00    -0.273 OA
ATOM     34  H3  UNL     1      -0.234   3.736   7.668  1.00  0.00     0.163 HD
BRANCH  32  35
HETATM   35  C23 UNL     1      -0.311   6.476   8.154  1.00  0.00     0.105 C 
HETATM   36  C24 UNL     1      -1.543   6.409   9.012  1.00  0.00     0.043 C 
HETATM   37  C25 UNL     1      -1.994   7.864   9.170  1.00  0.00     0.233 C 
HETATM   38  N4  UNL     1      -0.855   8.674   8.863  1.00  0.00    -0.074 N 
HETATM   39  C26 UNL     1       0.259   7.843   8.525  1.00  0.00     0.246 C 
ATOM     40  H42 UNL     1      -1.057   9.358   8.133  1.00  0.00     0.277 HD
ATOM     41  H41 UNL     1      -0.633   9.323   9.618  1.00  0.00     0.277 HD
ENDBRANCH  32  35
ENDBRANCH  23  31
ENDBRANCH   1  23
TORSDOF 10
ENDMDL
MODEL 2
REMARK VINA RESULT: -8.342546565      3.101      8.829
REMARK  10 active torsions:
REMARK  status: ('A' for Active; 'I' for Inactive)
REMARK    1  A    between atoms: C2_2  and  C5_5 
REMARK    2  A    between atoms: C5_5  and  N1_6 
REMARK    3  A    between atoms: C5_5  and  C11_16 
REMARK       I    between atoms: N1_6  and  C6_8 
REMARK       I    between atoms: C6_8  and  N2_10 
REMARK    4  A    between atoms: C11_16  and  C12_18 
REMARK    5  A    between atoms: C12_18  and  C13_21 
REMARK    6  A    between atoms: C13_21  and  C14_23 
REMARK    7  A    between atoms: C14_23  and  C15_24 
REMARK    8  A    between atoms: C14_23  and  N3_31 
REMARK    9  A    between atoms: C15_24  and  C16_25 
REMARK       I    between atoms: N3_31  and  C22_33 
REMARK   10  A    between atoms: C22_33  and  C23_35 
ROOT
HETATM    1  C13 UNL     1      -3.470   6.953   9.877  1.00  0.00     0.228 C 
HETATM    2  O4  UNL     1      -2.449   7.518  10.274  1.00  0.00    -0.289 OA
ENDROOT
BRANCH   1   3
HETATM    3  C12 UNL     1      -3.519   6.323   8.539  1.00  0.00     0.366 C 
HETATM    4  F1  UNL     1      -4.638   5.515   8.501  1.00  0.00    -0.189 F 
HETATM    5  F2  UNL     1      -3.618   7.364   7.610  1.00  0.00    -0.189 F 
BRANCH   3   6
HETATM    6  C11 UNL     1      -2.284   5.578   8.221  1.00  0.00     0.229 C 
HETATM    7  O3  UNL     1      -2.323   4.708   7.373  1.00  0.00    -0.289 OA
BRANCH   6   8
HETATM    8  C5  UNL     1      -0.975   5.801   8.865  1.00  0.00     0.170 C 
BRANCH   8   9
HETATM    9  C2  UNL     1       0.040   6.481   7.956  1.00  0.00    -0.024 C 
HETATM   10  C1  UNL     1       0.696   7.634   8.752  1.00  0.00     0.017 C 
HETATM   11  C3  UNL     1      -0.507   7.113   6.732  1.00  0.00     0.017 C 
HETATM   12  C4  UNL     1       1.158   5.548   7.558  1.00  0.00     0.017 C 
ENDBRANCH   8   9
BRANCH   8  13
HETATM   13  N1  UNL     1      -0.401   4.488   9.244  1.00  0.00    -0.331 N 
HETATM   14  C6  UNL     1      -1.055   3.589  10.114  1.00  0.00     0.319 C 
HETATM   15  O1  UNL     1      -2.185   3.867  10.627  1.00  0.00    -0.247 OA
HETATM   16  N2  UNL     1      -0.502   2.331  10.472  1.00  0.00    -0.330 N 
HETATM   17  C7  UNL     1       0.775   1.867   9.964  1.00  0.00     0.153 C 
HETATM   18  C10 UNL     1      -1.189   1.422  11.379  1.00  0.00     0.153 C 
HETATM   19  C8  UNL     1       0.692   0.356   9.894  1.00  0.00     0.187 C 
HETATM   20  O2  UNL     1       0.571  -0.226  11.149  1.00  0.00    -0.388 OA
HETATM   21  C9  UNL     1      -0.087   0.599  12.052  1.00  0.00     0.187 C 
ATOM     22  H1  UNL     1       0.505   4.222   8.859  1.00  0.00     0.165 HD
ENDBRANCH   8  13
ENDBRANCH   6   8
ENDBRANCH   3   6
ENDBRANCH   1   3
BRANCH   1  23
HETATM   23  C14 UNL     1      -4.680   6.908  10.787  1.00  0.00     0.161 C 
BRANCH  23  24
HETATM   24  C15 UNL     1      -5.878   7.517  10.215  1.00  0.00     0.038 C 
BRANCH  24  25
HETATM   25  C16 UNL     1      -6.543   8.646  10.923  1.00  0.00    -0.012 C 
HETATM   26  C17 UNL     1      -6.575   9.807   9.917  1.00  0.00     0.005 C 
HETATM   27  C18 UNL     1      -7.748   9.742   8.990  1.00  0.00     0.000 C 
HETATM   28  C19 UNL     1      -9.064   9.881   9.735  1.00  0.00     0.000 C 
HETATM   29  C20 UNL     1      -8.906   9.465  11.183  1.00  0.00     0.000 C 
HETATM   30  C21 UNL     1      -7.955   8.283  11.314  1.00  0.00     0.005 C 
ENDBRANCH  24  25
ENDBRANCH  23  24
BRANCH  23  31
HETATM   31  N3  UNL     1      -4.716   5.645  11.415  1.00  0.00    -0.349 N 
HETATM   32  C22 UNL     1      -4.998   5.508  12.794  1.00  0.00     0.224 C 
HETATM   33  O5  UNL     1      -5.235   6.577  13.454  1.00  0.00    -0.273 OA
ATOM     34  H3  UNL     1      -4.534   4.808  10.860  1.00  0.00     0.163 HD
BRANCH  32  35
HETATM   35  C23 UNL     1      -5.041   4.254  13.541  1.00  0.00     0.105 C 
HETATM   36  C24 UNL     1      -3.933   3.300  13.200  1.00  0.00     0.043 C 
HETATM   37  C25 UNL     1      -3.625   2.567  14.509  1.00  0.00     0.233 C 
HETATM   38  N4  UNL     1      -4.149   3.384  15.560  1.00  0.00    -0.074 N 
HETATM   39  C26 UNL     1      -4.758   4.556  15.011  1.00  0.00     0.246 C 
ATOM     40  H42 UNL     1      -4.790   2.867  16.163  1.00  0.00     0.277 HD
ATOM     41  H41 UNL     1      -3.440   3.612  16.257  1.00  0.00     0.277 HD
ENDBRANCH  32  35
ENDBRANCH  23  31
ENDBRANCH   1  23
TORSDOF 10
ENDMDL
MODEL 3
REMARK VINA RESULT: -8.307125269      2.468      8.823
REMARK  10 active torsions:
REMARK  status: ('A' for Active; 'I' for Inactive)
REMARK    1  A    between atoms: C2_2  and  C5_5 
REMARK    2  A    between atoms: C5_5  and  N1_6 
REMARK    3  A    between atoms: C5_5  and  C11_16 
REMARK       I    between atoms: N1_6  and  C6_8 
REMARK       I    between atoms: C6_8  and  N2_10 
REMARK    4  A    between atoms: C11_16  and  C12_18 
REMARK    5  A    between atoms: C12_18  and  C13_21 
REMARK    6  A    between atoms: C13_21  and  C14_23 
REMARK    7  A    between atoms: C14_23  and  C15_24 
REMARK    8  A    between atoms: C14_23  and  N3_31 
REMARK    9  A    between atoms: C15_24  and  C16_25 
REMARK       I    between atoms: N3_31  and  C22_33 
REMARK   10  A    between atoms: C22_33  and  C23_35 
ROOT
HETATM    1  C13 UNL     1      -2.606   4.434   9.846  1.00  0.00     0.228 C 
HETATM    2  O4  UNL     1      -3.144   5.131   8.983  1.00  0.00    -0.289 OA
ENDROOT
BRANCH   1   3
HETATM    3  C12 UNL     1      -1.214   3.961   9.682  1.00  0.00     0.366 C 
HETATM    4  F1  UNL     1      -0.806   3.444  10.896  1.00  0.00    -0.189 F 
HETATM    5  F2  UNL     1      -1.243   2.968   8.697  1.00  0.00    -0.189 F 
BRANCH   3   6
HETATM    6  C11 UNL     1      -0.310   5.024   9.197  1.00  0.00     0.229 C 
HETATM    7  O3  UNL     1      -0.216   6.053   9.836  1.00  0.00    -0.289 OA
BRANCH   6   8
HETATM    8  C5  UNL     1       0.504   4.942   7.968  1.00  0.00     0.170 C 
BRANCH   8   9
HETATM    9  C2  UNL     1       1.834   4.227   8.169  1.00  0.00    -0.024 C 
HETATM   10  C1  UNL     1       2.827   4.763   7.111  1.00  0.00     0.017 C 
HETATM   11  C3  UNL     1       1.815   2.758   7.979  1.00  0.00     0.017 C 
HETATM   12  C4  UNL     1       2.441   4.531   9.517  1.00  0.00     0.017 C 
ENDBRANCH   8   9
BRANCH   8  13
HETATM   13  N1  UNL     1       0.819   6.317   7.515  1.00  0.00    -0.331 N 
HETATM   14  C6  UNL     1      -0.005   7.036   6.622  1.00  0.00     0.319 C 
HETATM   15  O1  UNL     1      -1.073   6.531   6.153  1.00  0.00    -0.247 OA
HETATM   16  N2  UNL     1       0.300   8.355   6.192  1.00  0.00    -0.330 N 
HETATM   17  C7  UNL     1       1.479   9.069   6.644  1.00  0.00     0.153 C 
HETATM   18  C10 UNL     1      -0.559   9.076   5.263  1.00  0.00     0.153 C 
HETATM   19  C8  UNL     1       1.120  10.542   6.647  1.00  0.00     0.187 C 
HETATM   20  O2  UNL     1       0.872  11.028   5.369  1.00  0.00    -0.388 OA
HETATM   21  C9  UNL     1       0.362  10.052   4.523  1.00  0.00     0.187 C 
ATOM     22  H1  UNL     1       1.667   6.764   7.862  1.00  0.00     0.165 HD
ENDBRANCH   8  13
ENDBRANCH   6   8
ENDBRANCH   3   6
ENDBRANCH   1   3
BRANCH   1  23
HETATM   23  C14 UNL     1      -3.395   4.072  11.088  1.00  0.00     0.161 C 
BRANCH  23  24
HETATM   24  C15 UNL     1      -4.695   4.733  11.179  1.00  0.00     0.038 C 
BRANCH  24  25
HETATM   25  C16 UNL     1      -4.917   5.788  12.208  1.00  0.00    -0.012 C 
HETATM   26  C17 UNL     1      -4.685   7.125  11.487  1.00  0.00     0.005 C 
HETATM   27  C18 UNL     1      -5.901   7.618  10.768  1.00  0.00     0.000 C 
HETATM   28  C19 UNL     1      -7.039   7.923  11.727  1.00  0.00     0.000 C 
HETATM   29  C20 UNL     1      -6.883   7.133  13.010  1.00  0.00     0.000 C 
HETATM   30  C21 UNL     1      -6.330   5.742  12.735  1.00  0.00     0.005 C 
ENDBRANCH  24  25
ENDBRANCH  23  24
BRANCH  23  31
HETATM   31  N3  UNL     1      -3.247   2.689  11.321  1.00  0.00    -0.349 N 
HETATM   32  C22 UNL     1      -3.145   2.163  12.629  1.00  0.00     0.224 C 
HETATM   33  O5  UNL     1      -3.208   2.989  13.602  1.00  0.00    -0.273 OA
ATOM     34  H3  UNL     1      -3.211   2.051  10.525  1.00  0.00     0.163 HD
BRANCH  32  35
HETATM   35  C23 UNL     1      -2.971   0.755  12.977  1.00  0.00     0.105 C 
HETATM   36  C24 UNL     1      -4.119  -0.124  12.570  1.00  0.00     0.043 C 
HETATM   37  C25 UNL     1      -3.481  -1.470  12.217  1.00  0.00     0.233 C 
HETATM   38  N4  UNL     1      -2.096  -1.206  11.968  1.00  0.00    -0.074 N 
HETATM   39  C26 UNL     1      -1.826   0.188  12.142  1.00  0.00     0.246 C 
ATOM     40  H42 UNL     1      -1.486  -1.789  12.542  1.00  0.00     0.277 HD
ATOM     41  H41 UNL     1      -1.802  -1.542  11.051  1.00  0.00     0.277 HD
ENDBRANCH  32  35
ENDBRANCH  23  31
ENDBRANCH   1  23
TORSDOF 10
ENDMDL
MODEL 4
REMARK VINA RESULT: -8.225021218      2.898      7.533
REMARK  10 active torsions:
REMARK  status: ('A' for Active; 'I' for Inactive)
REMARK    1  A    between atoms: C2_2  and  C5_5 
REMARK    2  A    between atoms: C5_5  and  N1_6 
REMARK    3  A    between atoms: C5_5  and  C11_16 
REMARK       I    between atoms: N1_6  and  C6_8 
REMARK       I    between atoms: C6_8  and  N2_10 
REMARK    4  A    between atoms: C11_16  and  C12_18 
REMARK    5  A    between atoms: C12_18  and  C13_21 
REMARK    6  A    between atoms: C13_21  and  C14_23 
REMARK    7  A    between atoms: C14_23  and  C15_24 
REMARK    8  A    between atoms: C14_23  and  N3_31 
REMARK    9  A    between atoms: C15_24  and  C16_25 
REMARK       I    between atoms: N3_31  and  C22_33 
REMARK   10  A    between atoms: C22_33  and  C23_35 
ROOT
HETATM    1  C13 UNL     1      -3.223   5.831   9.081  1.00  0.00     0.228 C 
HETATM    2  O4  UNL     1      -3.405   6.949   8.594  1.00  0.00    -0.289 OA
ENDROOT
BRANCH   1   3
HETATM    3  C12 UNL     1      -2.041   5.023   8.710  1.00  0.00     0.366 C 
HETATM    4  F1  UNL     1      -2.361   3.697   8.924  1.00  0.00    -0.189 F 
HETATM    5  F2  UNL     1      -1.798   5.269   7.355  1.00  0.00    -0.189 F 
BRANCH   3   6
HETATM    6  C11 UNL     1      -0.826   5.428   9.446  1.00  0.00     0.229 C 
HETATM    7  O3  UNL     1      -0.719   6.581   9.816  1.00  0.00    -0.289 OA
BRANCH   6   8
HETATM    8  C5  UNL     1       0.300   4.531   9.773  1.00  0.00     0.170 C 
BRANCH   8   9
HETATM    9  C2  UNL     1       1.327   4.416   8.653  1.00  0.00    -0.024 C 
HETATM   10  C1  UNL     1       2.724   4.683   9.260  1.00  0.00     0.017 C 
HETATM   11  C3  UNL     1       1.189   5.390   7.545  1.00  0.00     0.017 C 
HETATM   12  C4  UNL     1       1.373   3.025   8.070  1.00  0.00     0.017 C 
ENDBRANCH   8   9
BRANCH   8  13
HETATM   13  N1  UNL     1      -0.232   3.168  10.010  1.00  0.00    -0.331 N 
HETATM   14  C6  UNL     1       0.256   2.323  11.029  1.00  0.00     0.319 C 
HETATM   15  O1  UNL     1       1.193   2.692  11.805  1.00  0.00    -0.247 OA
HETATM   16  N2  UNL     1      -0.259   1.018  11.254  1.00  0.00    -0.330 N 
HETATM   17  C7  UNL     1      -1.333   0.456  10.457  1.00  0.00     0.153 C 
HETATM   18  C10 UNL     1       0.266   0.157  12.305  1.00  0.00     0.153 C 
HETATM   19  C8  UNL     1      -2.095  -0.491  11.362  1.00  0.00     0.187 C 
HETATM   20  O2  UNL     1      -1.327  -1.582  11.753  1.00  0.00    -0.388 OA
HETATM   21  C9  UNL     1       0.026  -1.277  11.823  1.00  0.00     0.187 C 
ATOM     22  H1  UNL     1      -0.984   2.826   9.411  1.00  0.00     0.165 HD
ENDBRANCH   8  13
ENDBRANCH   6   8
ENDBRANCH   3   6
ENDBRANCH   1   3
BRANCH   1  23
HETATM   23  C14 UNL     1      -4.232   5.297  10.077  1.00  0.00     0.161 C 
BRANCH  23  24
HETATM   24  C15 UNL     1      -3.632   4.644  11.239  1.00  0.00     0.038 C 
BRANCH  24  25
HETATM   25  C16 UNL     1      -4.495   3.882  12.185  1.00  0.00    -0.012 C 
HETATM   26  C17 UNL     1      -3.789   2.533  12.394  1.00  0.00     0.005 C 
HETATM   27  C18 UNL     1      -2.733   2.586  13.453  1.00  0.00     0.000 C 
HETATM   28  C19 UNL     1      -3.318   2.898  14.819  1.00  0.00     0.000 C 
HETATM   29  C20 UNL     1      -4.638   3.628  14.682  1.00  0.00     0.000 C 
HETATM   30  C21 UNL     1      -4.610   4.598  13.509  1.00  0.00     0.005 C 
ENDBRANCH  24  25
ENDBRANCH  23  24
BRANCH  23  31
HETATM   31  N3  UNL     1      -5.269   6.244  10.210  1.00  0.00    -0.349 N 
HETATM   32  C22 UNL     1      -5.163   7.344  11.091  1.00  0.00     0.224 C 
HETATM   33  O5  UNL     1      -4.079   7.459  11.758  1.00  0.00    -0.273 OA
ATOM     34  H3  UNL     1      -6.119   6.132   9.655  1.00  0.00     0.163 HD
BRANCH  32  35
HETATM   35  C23 UNL     1      -6.182   8.366  11.316  1.00  0.00     0.105 C 
HETATM   36  C24 UNL     1      -6.953   8.743  10.083  1.00  0.00     0.043 C 
HETATM   37  C25 UNL     1      -8.362   9.071  10.584  1.00  0.00     0.233 C 
HETATM   38  N4  UNL     1      -8.488   8.452  11.869  1.00  0.00    -0.074 N 
HETATM   39  C26 UNL     1      -7.273   7.774  12.204  1.00  0.00     0.246 C 
ATOM     40  H42 UNL     1      -8.765   9.119  12.589  1.00  0.00     0.277 HD
ATOM     41  H41 UNL     1      -9.297   7.834  11.918  1.00  0.00     0.277 HD
ENDBRANCH  32  35
ENDBRANCH  23  31
ENDBRANCH   1  23
TORSDOF 10
ENDMDL
MODEL 5
REMARK VINA RESULT: -8.150222344      3.835      8.200
REMARK  10 active torsions:
REMARK  status: ('A' for Active; 'I' for Inactive)
REMARK    1  A    between atoms: C2_2  and  C5_5 
REMARK    2  A    between atoms: C5_5  and  N1_6 
REMARK    3  A    between atoms: C5_5  and  C11_16 
REMARK       I    between atoms: N1_6  and  C6_8 
REMARK       I    between atoms: C6_8  and  N2_10 
REMARK    4  A    between atoms: C11_16  and  C12_18 
REMARK    5  A    between atoms: C12_18  and  C13_21 
REMARK    6  A    between atoms: C13_21  and  C14_23 
REMARK    7  A    between atoms: C14_23  and  C15_24 
REMARK    8  A    between atoms: C14_23  and  N3_31 
REMARK    9  A    between atoms: C15_24  and  C16_25 
REMARK       I    between atoms: N3_31  and  C22_33 
REMARK   10  A    between atoms: C22_33  and  C23_35 
ROOT
HETATM    1  C13 UNL     1      -4.878   6.031  12.039  1.00  0.00     0.228 C 
HETATM    2  O4  UNL     1      -4.843   6.447  13.199  1.00  0.00    -0.289 OA
ENDROOT
BRANCH   1   3
HETATM    3  C12 UNL     1      -5.018   4.586  11.753  1.00  0.00     0.366 C 
HETATM    4  F1  UNL     1      -6.111   4.127  12.460  1.00  0.00    -0.189 F 
HETATM    5  F2  UNL     1      -5.225   4.469  10.375  1.00  0.00    -0.189 F 
BRANCH   3   6
HETATM    6  C11 UNL     1      -3.791   3.827  12.070  1.00  0.00     0.229 C 
HETATM    7  O3  UNL     1      -2.723   4.235  11.658  1.00  0.00    -0.289 OA
BRANCH   6   8
HETATM    8  C5  UNL     1      -3.752   2.580  12.858  1.00  0.00     0.170 C 
BRANCH   8   9
HETATM    9  C2  UNL     1      -3.735   2.815  14.364  1.00  0.00    -0.024 C 
HETATM   10  C1  UNL     1      -4.569   1.696  15.030  1.00  0.00     0.017 C 
HETATM   11  C3  UNL     1      -4.340   4.084  14.828  1.00  0.00     0.017 C 
HETATM   12  C4  UNL     1      -2.342   2.706  14.936  1.00  0.00     0.017 C 
ENDBRANCH   8   9
BRANCH   8  13
HETATM   13  N1  UNL     1      -2.509   1.845  12.523  1.00  0.00    -0.331 N 
HETATM   14  C6  UNL     1      -2.476   0.447  12.325  1.00  0.00     0.319 C 
HETATM   15  O1  UNL     1      -3.527  -0.262  12.428  1.00  0.00    -0.247 OA
HETATM   16  N2  UNL     1      -1.283  -0.252  12.002  1.00  0.00    -0.330 N 
HETATM   17  C7  UNL     1      -0.005   0.417  11.843  1.00  0.00     0.153 C 
HETATM   18  C10 UNL     1      -1.269  -1.696  11.810  1.00  0.00     0.153 C 
HETATM   19  C8  UNL     1       0.782  -0.388  10.829  1.00  0.00     0.187 C 
HETATM   20  O2  UNL     1       1.097  -1.659  11.293  1.00  0.00    -0.388 OA
HETATM   21  C9  UNL     1       0.147  -2.147  12.180  1.00  0.00     0.187 C 
ATOM     22  H1  UNL     1      -1.640   2.371  12.432  1.00  0.00     0.165 HD
ENDBRANCH   8  13
ENDBRANCH   6   8
ENDBRANCH   3   6
ENDBRANCH   1   3
BRANCH   1  23
HETATM   23  C14 UNL     1      -4.782   7.029  10.903  1.00  0.00     0.161 C 
BRANCH  23  24
HETATM   24  C15 UNL     1      -5.635   8.204  11.070  1.00  0.00     0.038 C 
BRANCH  24  25
HETATM   25  C16 UNL     1      -7.046   8.167  10.595  1.00  0.00    -0.012 C 
HETATM   26  C17 UNL     1      -7.906   8.021  11.861  1.00  0.00     0.005 C 
HETATM   27  C18 UNL     1      -8.198   9.332  12.520  1.00  0.00     0.000 C 
HETATM   28  C19 UNL     1      -9.027  10.240  11.629  1.00  0.00     0.000 C 
HETATM   29  C20 UNL     1      -8.847   9.868  10.171  1.00  0.00     0.000 C 
HETATM   30  C21 UNL     1      -7.412   9.447   9.885  1.00  0.00     0.005 C 
ENDBRANCH  24  25
ENDBRANCH  23  24
BRANCH  23  31
HETATM   31  N3  UNL     1      -3.428   7.141  10.524  1.00  0.00    -0.349 N 
HETATM   32  C22 UNL     1      -2.997   6.841   9.211  1.00  0.00     0.224 C 
HETATM   33  O5  UNL     1      -3.887   6.476   8.369  1.00  0.00    -0.273 OA
ATOM     34  H3  UNL     1      -2.742   7.446  11.214  1.00  0.00     0.163 HD
BRANCH  32  35
HETATM   35  C23 UNL     1      -1.622   6.906   8.723  1.00  0.00     0.105 C 
HETATM   36  C24 UNL     1      -1.212   8.262   8.224  1.00  0.00     0.043 C 
HETATM   37  C25 UNL     1       0.275   8.377   8.570  1.00  0.00     0.233 C 
HETATM   38  N4  UNL     1       0.527   7.410   9.594  1.00  0.00    -0.074 N 
HETATM   39  C26 UNL     1      -0.678   6.705   9.907  1.00  0.00     0.246 C 
ATOM     40  H42 UNL     1       1.287   6.777   9.344  1.00  0.00     0.277 HD
ATOM     41  H41 UNL     1       0.950   7.831  10.422  1.00  0.00     0.277 HD
ENDBRANCH  32  35
ENDBRANCH  23  31
ENDBRANCH   1  23
TORSDOF 10
ENDMDL
