MODEL 1
REMARK VINA RESULT: -10.278972282      0.000      0.000
REMARK  11 active torsions:
REMARK  status: ('A' for Active; 'I' for Inactive)
REMARK    1  A    between atoms: N1_8  and  C7_9 
REMARK    2  A    between atoms: C8_11  and  C9_12 
REMARK    3  A    between atoms: C9_12  and  N2_13 
REMARK    4  A    between atoms: C9_12  and  C17_24 
REMARK    5  A    between atoms: N2_13  and  C10_15 
REMARK    6  A    between atoms: C10_15  and  O3_16 
REMARK    7  A    between atoms: C10_15  and  C11_18 
REMARK       I    between atoms: C17_24  and  N3_26 
REMARK    8  A    between atoms: N3_26  and  C18_28 
REMARK    9  A    between atoms: C18_28  and  C19_29 
REMARK   10  A    between atoms: C18_28  and  C21_34 
REMARK   11  A    between atoms: C19_29  and  C20_31 
ROOT
HETATM    1  C9  UNL     1      -3.162   5.177  10.338  1.00  0.00     0.208 C 
ENDROOT
BRANCH   1   2
HETATM    2  C8  UNL     1      -1.781   5.137   9.728  1.00  0.00     0.194 C 
HETATM    3  O2  UNL     1      -1.819   4.973   8.348  1.00  0.00    -0.352 OA
HETATM    4  C7  UNL     1      -1.009   6.027   8.007  1.00  0.00     0.268 C 
HETATM    5  C27 UNL     1      -1.241   6.548   9.408  1.00  0.00     0.250 C 
HETATM    6  F1  UNL     1      -0.125   6.786  10.171  1.00  0.00    -0.242 F 
BRANCH   4   7
HETATM    7  N1  UNL     1       0.329   5.834   7.573  1.00  0.00    -0.288 N 
HETATM    8  C2  UNL     1       1.122   4.789   7.816  1.00  0.00     0.013 A 
HETATM    9  C1  UNL     1       0.641   3.685   8.655  1.00  0.00     0.068 C 
HETATM   10  C3  UNL     1       2.437   4.694   7.319  1.00  0.00     0.025 A 
HETATM   11  C4  UNL     1       2.928   5.706   6.558  1.00  0.00     0.007 A 
HETATM   12  C5  UNL     1       2.134   6.791   6.296  1.00  0.00     0.075 A 
HETATM   13  C6  UNL     1       0.832   6.853   6.807  1.00  0.00     0.249 A 
HETATM   14  O1  UNL     1       0.166   7.880   6.516  1.00  0.00    -0.268 OA
ENDBRANCH   4   7
ENDBRANCH   1   2
BRANCH   1  15
HETATM   15  N2  UNL     1      -4.146   5.521   9.332  1.00  0.00    -0.355 N 
ATOM     16  H2  UNL     1      -4.399   4.882   8.579  1.00  0.00     0.162 HD
BRANCH  15  17
HETATM   17  C10 UNL     1      -4.744   6.824   9.464  1.00  0.00     0.147 C 
BRANCH  17  18
HETATM   18  O3  UNL     1      -4.376   7.664   8.530  1.00  0.00    -0.346 OA
ATOM     19  H3  UNL     1      -4.314   8.562   8.831  1.00  0.00     0.219 HD
ENDBRANCH  17  18
BRANCH  17  20
HETATM   20  C11 UNL     1      -5.665   7.353  10.426  1.00  0.00     0.014 A 
HETATM   21  C12 UNL     1      -5.815   6.886  11.709  1.00  0.00     0.016 A 
HETATM   22  C13 UNL     1      -6.832   7.353  12.522  1.00  0.00     0.001 A 
HETATM   23  C14 UNL     1      -7.728   8.316  12.075  1.00  0.00     0.000 A 
HETATM   24  C15 UNL     1      -7.593   8.806  10.780  1.00  0.00     0.001 A 
HETATM   25  C16 UNL     1      -6.569   8.310   9.999  1.00  0.00     0.016 A 
ENDBRANCH  17  20
ENDBRANCH  15  17
ENDBRANCH   1  15
BRANCH   1  26
HETATM   26  C17 UNL     1      -3.386   3.963  11.132  1.00  0.00     0.247 C 
HETATM   27  O4  UNL     1      -4.512   3.710  11.675  1.00  0.00    -0.271 OA
HETATM   28  N3  UNL     1      -2.358   3.005  11.337  1.00  0.00    -0.322 N 
ATOM     29  H3  UNL     1      -1.454   3.260  10.939  1.00  0.00     0.169 HD
BRANCH  28  30
HETATM   30  C18 UNL     1      -2.377   1.773  11.991  1.00  0.00     0.093 C 
BRANCH  30  31
HETATM   31  C19 UNL     1      -2.147   1.948  13.478  1.00  0.00     0.263 C 
HETATM   32  O5  UNL     1      -2.913   2.428  14.290  1.00  0.00    -0.280 OA
BRANCH  31  33
HETATM   33  C20 UNL     1      -0.835   1.453  13.937  1.00  0.00     0.307 C 
HETATM   34  N4  UNL     1      -0.629   0.900  15.212  1.00  0.00    -0.054 NA
HETATM   35  O6  UNL     1       0.176   1.517  13.182  1.00  0.00    -0.267 OA
ENDBRANCH  31  33
ENDBRANCH  30  31
BRANCH  30  36
HETATM   36  C21 UNL     1      -2.908   0.496  11.560  1.00  0.00    -0.049 C 
HETATM   37  C22 UNL     1      -4.137  -0.212  11.819  1.00  0.00     0.036 C 
HETATM   38  C23 UNL     1      -3.951  -1.577  12.497  1.00  0.00     0.004 C 
HETATM   39  C24 UNL     1      -2.850  -2.412  11.929  1.00  0.00     0.001 C 
HETATM   40  C25 UNL     1      -1.572  -1.603  11.958  1.00  0.00     0.004 C 
HETATM   41  C26 UNL     1      -1.758  -0.420  11.098  1.00  0.00     0.036 C 
ENDBRANCH  30  36
ENDBRANCH  28  30
ENDBRANCH   1  26
TORSDOF 11
ENDMDL
MODEL 2
REMARK VINA RESULT: -10.011684536      1.466      6.093
REMARK  11 active torsions:
REMARK  status: ('A' for Active; 'I' for Inactive)
REMARK    1  A    between atoms: N1_8  and  C7_9 
REMARK    2  A    between atoms: C8_11  and  C9_12 
REMARK    3  A    between atoms: C9_12  and  N2_13 
REMARK    4  A    between atoms: C9_12  and  C17_24 
REMARK    5  A    between atoms: N2_13  and  C10_15 
REMARK    6  A    between atoms: C10_15  and  O3_16 
REMARK    7  A    between atoms: C10_15  and  C11_18 
REMARK       I    between atoms: C17_24  and  N3_26 
REMARK    8  A    between atoms: N3_26  and  C18_28 
REMARK    9  A    between atoms: C18_28  and  C19_29 
REMARK   10  A    between atoms: C18_28  and  C21_34 
REMARK   11  A    between atoms: C19_29  and  C20_31 
ROOT
HETATM    1  C9  UNL     1      -1.853   4.840   9.537  1.00  0.00     0.208 C 
ENDROOT
BRANCH   1   2
HETATM    2  C8  UNL     1      -3.148   5.417  10.057  1.00  0.00     0.194 C 
HETATM    3  O2  UNL     1      -2.983   6.691  10.589  1.00  0.00    -0.352 OA
HETATM    4  C7  UNL     1      -3.975   7.323   9.884  1.00  0.00     0.268 C 
HETATM    5  C27 UNL     1      -3.956   6.132   8.952  1.00  0.00     0.250 C 
HETATM    6  F1  UNL     1      -5.147   5.473   8.768  1.00  0.00    -0.242 F 
BRANCH   4   7
HETATM    7  N1  UNL     1      -5.207   7.687  10.488  1.00  0.00    -0.288 N 
HETATM    8  C2  UNL     1      -5.749   7.188  11.599  1.00  0.00     0.013 A 
HETATM    9  C1  UNL     1      -5.070   6.106  12.322  1.00  0.00     0.068 C 
HETATM   10  C3  UNL     1      -6.979   7.638  12.121  1.00  0.00     0.025 A 
HETATM   11  C4  UNL     1      -7.650   8.622  11.469  1.00  0.00     0.007 A 
HETATM   12  C5  UNL     1      -7.116   9.149  10.324  1.00  0.00     0.075 A 
HETATM   13  C6  UNL     1      -5.892   8.678   9.833  1.00  0.00     0.249 A 
HETATM   14  O1  UNL     1      -5.468   9.219   8.779  1.00  0.00    -0.268 OA
ENDBRANCH   4   7
ENDBRANCH   1   2
BRANCH   1  15
HETATM   15  N2  UNL     1      -0.775   5.793   9.706  1.00  0.00    -0.355 N 
ATOM     16  H2  UNL     1      -0.514   6.160  10.621  1.00  0.00     0.162 HD
BRANCH  15  17
HETATM   17  C10 UNL     1      -0.096   6.189   8.500  1.00  0.00     0.147 C 
BRANCH  17  18
HETATM   18  O3  UNL     1      -0.608   7.257   7.940  1.00  0.00    -0.346 OA
ATOM     19  H3  UNL     1      -0.053   7.634   7.268  1.00  0.00     0.219 HD
ENDBRANCH  17  18
BRANCH  17  20
HETATM   20  C11 UNL     1       1.031   5.627   7.816  1.00  0.00     0.014 A 
HETATM   21  C12 UNL     1       1.614   4.423   8.124  1.00  0.00     0.016 A 
HETATM   22  C13 UNL     1       2.791   4.026   7.513  1.00  0.00     0.001 A 
HETATM   23  C14 UNL     1       3.416   4.825   6.564  1.00  0.00     0.000 A 
HETATM   24  C15 UNL     1       2.841   6.047   6.234  1.00  0.00     0.001 A 
HETATM   25  C16 UNL     1       1.670   6.409   6.869  1.00  0.00     0.016 A 
ENDBRANCH  17  20
ENDBRANCH  15  17
ENDBRANCH   1  15
BRANCH   1  26
HETATM   26  C17 UNL     1      -1.665   3.487  10.073  1.00  0.00     0.247 C 
HETATM   27  O4  UNL     1      -0.787   2.690   9.602  1.00  0.00    -0.271 OA
HETATM   28  N3  UNL     1      -2.453   2.993  11.146  1.00  0.00    -0.322 N 
ATOM     29  H3  UNL     1      -3.183   3.630  11.464  1.00  0.00     0.169 HD
BRANCH  28  30
HETATM   30  C18 UNL     1      -2.395   1.783  11.837  1.00  0.00     0.093 C 
BRANCH  30  31
HETATM   31  C19 UNL     1      -2.131   2.015  13.311  1.00  0.00     0.263 C 
HETATM   32  O5  UNL     1      -2.868   2.551  14.114  1.00  0.00    -0.280 OA
BRANCH  31  33
HETATM   33  C20 UNL     1      -0.824   1.506  13.766  1.00  0.00     0.307 C 
HETATM   34  N4  UNL     1      -0.623   0.941  15.037  1.00  0.00    -0.054 NA
HETATM   35  O6  UNL     1       0.188   1.567  13.012  1.00  0.00    -0.267 OA
ENDBRANCH  31  33
ENDBRANCH  30  31
BRANCH  30  36
HETATM   36  C21 UNL     1      -2.877   0.469  11.462  1.00  0.00    -0.049 C 
HETATM   37  C22 UNL     1      -4.083  -0.270  11.744  1.00  0.00     0.036 C 
HETATM   38  C23 UNL     1      -3.853  -1.595  12.485  1.00  0.00     0.004 C 
HETATM   39  C24 UNL     1      -2.719  -2.415  11.963  1.00  0.00     0.001 C 
HETATM   40  C25 UNL     1      -1.471  -1.560  11.964  1.00  0.00     0.004 C 
HETATM   41  C26 UNL     1      -1.691  -0.425  11.049  1.00  0.00     0.036 C 
ENDBRANCH  30  36
ENDBRANCH  28  30
ENDBRANCH   1  26
TORSDOF 11
ENDMDL
MODEL 3
REMARK VINA RESULT: -9.977869364      3.117      7.332
REMARK  11 active torsions:
REMARK  status: ('A' for Active; 'I' for Inactive)
REMARK    1  A    between atoms: N1_8  and  C7_9 
REMARK    2  A    between atoms: C8_11  and  C9_12 
REMARK    3  A    between atoms: C9_12  and  N2_13 
REMARK    4  A    between atoms: C9_12  and  C17_24 
REMARK    5  A    between atoms: N2_13  and  C10_15 
REMARK    6  A    between atoms: C10_15  and  O3_16 
REMARK    7  A    between atoms: C10_15  and  C11_18 
REMARK       I    between atoms: C17_24  and  N3_26 
REMARK    8  A    between atoms: N3_26  and  C18_28 
REMARK    9  A    between atoms: C18_28  and  C19_29 
REMARK   10  A    between atoms: C18_28  and  C21_34 
REMARK   11  A    between atoms: C19_29  and  C20_31 
ROOT
HETATM    1  C9  UNL     1      -0.264   1.065  10.172  1.00  0.00     0.208 C 
ENDROOT
BRANCH   1   2
HETATM    2  C8  UNL     1      -0.296   2.255   9.241  1.00  0.00     0.194 C 
HETATM    3  O2  UNL     1      -0.580   3.440   9.909  1.00  0.00    -0.352 OA
HETATM    4  C7  UNL     1       0.475   4.181   9.441  1.00  0.00     0.268 C 
HETATM    5  C27 UNL     1       1.104   2.869   9.028  1.00  0.00     0.250 C 
HETATM    6  F1  UNL     1       1.455   2.741   7.707  1.00  0.00    -0.242 F 
BRANCH   4   7
HETATM    7  N1  UNL     1       0.304   5.187   8.453  1.00  0.00    -0.288 N 
HETATM    8  C2  UNL     1      -0.817   5.513   7.809  1.00  0.00     0.013 A 
HETATM    9  C1  UNL     1      -2.053   4.767   8.067  1.00  0.00     0.068 C 
HETATM   10  C3  UNL     1      -0.877   6.547   6.851  1.00  0.00     0.025 A 
HETATM   11  C4  UNL     1       0.252   7.246   6.567  1.00  0.00     0.007 A 
HETATM   12  C5  UNL     1       1.416   6.928   7.213  1.00  0.00     0.075 A 
HETATM   13  C6  UNL     1       1.440   5.895   8.158  1.00  0.00     0.249 A 
HETATM   14  O1  UNL     1       2.547   5.670   8.712  1.00  0.00    -0.268 OA
ENDBRANCH   4   7
ENDBRANCH   1   2
BRANCH   1  15
HETATM   15  N2  UNL     1       1.091   0.573  10.311  1.00  0.00    -0.355 N 
ATOM     16  H2  UNL     1       1.902   1.186  10.232  1.00  0.00     0.162 HD
BRANCH  15  17
HETATM   17  C10 UNL     1       1.220  -0.838  10.568  1.00  0.00     0.147 C 
BRANCH  17  18
HETATM   18  O3  UNL     1       0.383  -1.281  11.472  1.00  0.00    -0.346 OA
ATOM     19  H3  UNL     1       0.745  -1.969  12.018  1.00  0.00     0.219 HD
ENDBRANCH  17  18
BRANCH  17  20
HETATM   20  C11 UNL     1       2.090  -1.829  10.009  1.00  0.00     0.014 A 
HETATM   21  C12 UNL     1       2.711  -1.731   8.788  1.00  0.00     0.016 A 
HETATM   22  C13 UNL     1       3.413  -2.799   8.259  1.00  0.00     0.001 A 
HETATM   23  C14 UNL     1       3.524  -4.002   8.946  1.00  0.00     0.000 A 
HETATM   24  C15 UNL     1       2.905  -4.123  10.186  1.00  0.00     0.001 A 
HETATM   25  C16 UNL     1       2.210  -3.036  10.677  1.00  0.00     0.016 A 
ENDBRANCH  17  20
ENDBRANCH  15  17
ENDBRANCH   1  15
BRANCH   1  26
HETATM   26  C17 UNL     1      -1.012   1.376  11.396  1.00  0.00     0.247 C 
HETATM   27  O4  UNL     1      -0.430   1.531  12.521  1.00  0.00    -0.271 OA
HETATM   28  N3  UNL     1      -2.424   1.520  11.392  1.00  0.00    -0.322 N 
ATOM     29  H3  UNL     1      -2.867   1.335  10.492  1.00  0.00     0.169 HD
BRANCH  28  30
HETATM   30  C18 UNL     1      -3.308   1.872  12.412  1.00  0.00     0.093 C 
BRANCH  30  31
HETATM   31  C19 UNL     1      -3.781   0.645  13.164  1.00  0.00     0.263 C 
HETATM   32  O5  UNL     1      -4.173   0.592  14.312  1.00  0.00    -0.280 OA
BRANCH  31  33
HETATM   33  C20 UNL     1      -3.748  -0.593  12.360  1.00  0.00     0.307 C 
HETATM   34  N4  UNL     1      -2.756  -1.576  12.511  1.00  0.00    -0.054 NA
HETATM   35  O6  UNL     1      -4.629  -0.812  11.482  1.00  0.00    -0.267 OA
ENDBRANCH  31  33
ENDBRANCH  30  31
BRANCH  30  36
HETATM   36  C21 UNL     1      -3.535   3.153  13.049  1.00  0.00    -0.049 C 
HETATM   37  C22 UNL     1      -3.679   3.574  14.420  1.00  0.00     0.036 C 
HETATM   38  C23 UNL     1      -5.030   4.229  14.743  1.00  0.00     0.004 C 
HETATM   39  C24 UNL     1      -5.504   5.216  13.728  1.00  0.00     0.001 C 
HETATM   40  C25 UNL     1      -5.530   4.538  12.377  1.00  0.00     0.004 C 
HETATM   41  C26 UNL     1      -4.152   4.138  12.037  1.00  0.00     0.036 C 
ENDBRANCH  30  36
ENDBRANCH  28  30
ENDBRANCH   1  26
TORSDOF 11
ENDMDL
MODEL 4
REMARK VINA RESULT: -9.971923921      1.767      2.403
REMARK  11 active torsions:
REMARK  status: ('A' for Active; 'I' for Inactive)
REMARK    1  A    between atoms: N1_8  and  C7_9 
REMARK    2  A    between atoms: C8_11  and  C9_12 
REMARK    3  A    between atoms: C9_12  and  N2_13 
REMARK    4  A    between atoms: C9_12  and  C17_24 
REMARK    5  A    between atoms: N2_13  and  C10_15 
REMARK    6  A    between atoms: C10_15  and  O3_16 
REMARK    7  A    between atoms: C10_15  and  C11_18 
REMARK       I    between atoms: C17_24  and  N3_26 
REMARK    8  A    between atoms: N3_26  and  C18_28 
REMARK    9  A    between atoms: C18_28  and  C19_29 
REMARK   10  A    between atoms: C18_28  and  C21_34 
REMARK   11  A    between atoms: C19_29  and  C20_31 
ROOT
HETATM    1  C9  UNL     1      -2.063   5.114   9.718  1.00  0.00     0.208 C 
ENDROOT
BRANCH   1   2
HETATM    2  C8  UNL     1      -1.167   5.805   8.719  1.00  0.00     0.194 C 
HETATM    3  O2  UNL     1      -1.781   6.905   8.131  1.00  0.00    -0.352 OA
HETATM    4  C7  UNL     1      -0.793   7.826   8.369  1.00  0.00     0.268 C 
HETATM    5  C27 UNL     1      -0.243   6.848   9.383  1.00  0.00     0.250 C 
HETATM    6  F1  UNL     1       1.064   6.461   9.220  1.00  0.00    -0.242 F 
BRANCH   4   7
HETATM    7  N1  UNL     1       0.068   8.285   7.338  1.00  0.00    -0.288 N 
HETATM    8  C2  UNL     1       0.137   7.848   6.080  1.00  0.00     0.013 A 
HETATM    9  C1  UNL     1      -0.720   6.740   5.642  1.00  0.00     0.068 C 
HETATM   10  C3  UNL     1       1.025   8.390   5.128  1.00  0.00     0.025 A 
HETATM   11  C4  UNL     1       1.851   9.402   5.501  1.00  0.00     0.007 A 
HETATM   12  C5  UNL     1       1.801   9.866   6.788  1.00  0.00     0.075 A 
HETATM   13  C6  UNL     1       0.906   9.304   7.708  1.00  0.00     0.249 A 
HETATM   14  O1  UNL     1       0.919   9.791   8.867  1.00  0.00    -0.268 OA
ENDBRANCH   4   7
ENDBRANCH   1   2
BRANCH   1  15
HETATM   15  N2  UNL     1      -3.454   5.344   9.389  1.00  0.00    -0.355 N 
ATOM     16  H2  UNL     1      -3.903   4.898   8.589  1.00  0.00     0.162 HD
BRANCH  15  17
HETATM   17  C10 UNL     1      -4.163   6.242  10.262  1.00  0.00     0.147 C 
BRANCH  17  18
HETATM   18  O3  UNL     1      -4.133   7.489   9.863  1.00  0.00    -0.346 OA
ATOM     19  H3  UNL     1      -4.491   8.098  10.497  1.00  0.00     0.219 HD
ENDBRANCH  17  18
BRANCH  17  20
HETATM   20  C11 UNL     1      -4.889   6.011  11.475  1.00  0.00     0.014 A 
HETATM   21  C12 UNL     1      -4.799   4.874  12.240  1.00  0.00     0.016 A 
HETATM   22  C13 UNL     1      -5.648   4.669  13.313  1.00  0.00     0.001 A 
HETATM   23  C14 UNL     1      -6.612   5.608  13.660  1.00  0.00     0.000 A 
HETATM   24  C15 UNL     1      -6.719   6.769  12.901  1.00  0.00     0.001 A 
HETATM   25  C16 UNL     1      -5.857   6.933  11.836  1.00  0.00     0.016 A 
ENDBRANCH  17  20
ENDBRANCH  15  17
ENDBRANCH   1  15
BRANCH   1  26
HETATM   26  C17 UNL     1      -1.619   3.726   9.901  1.00  0.00     0.247 C 
HETATM   27  O4  UNL     1      -0.842   3.151   9.069  1.00  0.00    -0.271 OA
HETATM   28  N3  UNL     1      -2.034   2.951  11.016  1.00  0.00    -0.322 N 
ATOM     29  H3  UNL     1      -2.699   3.417  11.634  1.00  0.00     0.169 HD
BRANCH  28  30
HETATM   30  C18 UNL     1      -1.685   1.659  11.408  1.00  0.00     0.093 C 
BRANCH  30  31
HETATM   31  C19 UNL     1      -0.661   1.692  12.524  1.00  0.00     0.263 C 
HETATM   32  O5  UNL     1       0.546   1.779  12.413  1.00  0.00    -0.280 OA
BRANCH  31  33
HETATM   33  C20 UNL     1      -1.253   1.616  13.874  1.00  0.00     0.307 C 
HETATM   34  N4  UNL     1      -0.686   0.864  14.916  1.00  0.00    -0.054 NA
HETATM   35  O6  UNL     1      -2.319   2.236  14.144  1.00  0.00    -0.267 OA
ENDBRANCH  31  33
ENDBRANCH  30  31
BRANCH  30  36
HETATM   36  C21 UNL     1      -2.366   0.400  11.188  1.00  0.00    -0.049 C 
HETATM   37  C22 UNL     1      -3.714  -0.058  11.417  1.00  0.00     0.036 C 
HETATM   38  C23 UNL     1      -3.823  -1.243  12.388  1.00  0.00     0.004 C 
HETATM   39  C24 UNL     1      -2.819  -2.326  12.167  1.00  0.00     0.001 C 
HETATM   40  C25 UNL     1      -1.437  -1.711  12.202  1.00  0.00     0.004 C 
HETATM   41  C26 UNL     1      -1.337  -0.743  11.094  1.00  0.00     0.036 C 
ENDBRANCH  30  36
ENDBRANCH  28  30
ENDBRANCH   1  26
TORSDOF 11
ENDMDL
MODEL 5
REMARK VINA RESULT: -9.953592385      1.883      2.356
REMARK  11 active torsions:
REMARK  status: ('A' for Active; 'I' for Inactive)
REMARK    1  A    between atoms: N1_8  and  C7_9 
REMARK    2  A    between atoms: C8_11  and  C9_12 
REMARK    3  A    between atoms: C9_12  and  N2_13 
REMARK    4  A    between atoms: C9_12  and  C17_24 
REMARK    5  A    between atoms: N2_13  and  C10_15 
REMARK    6  A    between atoms: C10_15  and  O3_16 
REMARK    7  A    between atoms: C10_15  and  C11_18 
REMARK       I    between atoms: C17_24  and  N3_26 
REMARK    8  A    between atoms: N3_26  and  C18_28 
REMARK    9  A    between atoms: C18_28  and  C19_29 
REMARK   10  A    between atoms: C18_28  and  C21_34 
REMARK   11  A    between atoms: C19_29  and  C20_31 
ROOT
HETATM    1  C9  UNL     1      -2.921   5.423  10.238  1.00  0.00     0.208 C 
ENDROOT
BRANCH   1   2
HETATM    2  C8  UNL     1      -2.087   5.953   9.096  1.00  0.00     0.194 C 
HETATM    3  O2  UNL     1      -2.593   7.141   8.579  1.00  0.00    -0.352 OA
HETATM    4  C7  UNL     1      -1.440   7.883   8.641  1.00  0.00     0.268 C 
HETATM    5  C27 UNL     1      -0.911   6.826   9.585  1.00  0.00     0.250 C 
HETATM    6  F1  UNL     1       0.272   6.223   9.237  1.00  0.00    -0.242 F 
BRANCH   4   7
HETATM    7  N1  UNL     1      -0.683   8.189   7.480  1.00  0.00    -0.288 N 
HETATM    8  C2  UNL     1      -0.786   7.635   6.271  1.00  0.00     0.013 A 
HETATM    9  C1  UNL     1      -1.745   6.549   6.043  1.00  0.00     0.068 C 
HETATM   10  C3  UNL     1       0.012   8.030   5.178  1.00  0.00     0.025 A 
HETATM   11  C4  UNL     1       0.928   9.017   5.354  1.00  0.00     0.007 A 
HETATM   12  C5  UNL     1       1.055   9.599   6.586  1.00  0.00     0.075 A 
HETATM   13  C6  UNL     1       0.246   9.181   7.651  1.00  0.00     0.249 A 
HETATM   14  O1  UNL     1       0.421   9.771   8.749  1.00  0.00    -0.268 OA
ENDBRANCH   4   7
ENDBRANCH   1   2
BRANCH   1  15
HETATM   15  N2  UNL     1      -4.328   5.661   9.984  1.00  0.00    -0.355 N 
ATOM     16  H2  UNL     1      -4.768   5.418   9.097  1.00  0.00     0.162 HD
BRANCH  15  17
HETATM   17  C10 UNL     1      -5.064   6.262  11.065  1.00  0.00     0.147 C 
BRANCH  17  18
HETATM   18  O3  UNL     1      -4.811   5.724  12.231  1.00  0.00    -0.346 OA
ATOM     19  H3  UNL     1      -5.580   5.635  12.782  1.00  0.00     0.219 HD
ENDBRANCH  17  18
BRANCH  17  20
HETATM   20  C11 UNL     1      -6.012   7.337  11.086  1.00  0.00     0.014 A 
HETATM   21  C12 UNL     1      -6.960   7.528  12.061  1.00  0.00     0.016 A 
HETATM   22  C13 UNL     1      -7.934   8.502  11.925  1.00  0.00     0.001 A 
HETATM   23  C14 UNL     1      -7.980   9.325  10.807  1.00  0.00     0.000 A 
HETATM   24  C15 UNL     1      -7.027   9.151   9.808  1.00  0.00     0.001 A 
HETATM   25  C16 UNL     1      -6.077   8.165   9.978  1.00  0.00     0.016 A 
ENDBRANCH  17  20
ENDBRANCH  15  17
ENDBRANCH   1  15
BRANCH   1  26
HETATM   26  C17 UNL     1      -2.503   4.054  10.561  1.00  0.00     0.247 C 
HETATM   27  O4  UNL     1      -1.585   3.457   9.907  1.00  0.00    -0.271 OA
HETATM   28  N3  UNL     1      -3.099   3.321  11.621  1.00  0.00    -0.322 N 
ATOM     29  H3  UNL     1      -3.867   3.802  12.089  1.00  0.00     0.169 HD
BRANCH  28  30
HETATM   30  C18 UNL     1      -2.810   2.055  12.129  1.00  0.00     0.093 C 
BRANCH  30  31
HETATM   31  C19 UNL     1      -2.437   2.134  13.595  1.00  0.00     0.263 C 
HETATM   32  O5  UNL     1      -1.470   1.635  14.135  1.00  0.00    -0.280 OA
BRANCH  31  33
HETATM   33  C20 UNL     1      -3.384   2.923  14.406  1.00  0.00     0.307 C 
HETATM   34  N4  UNL     1      -3.101   3.347  15.715  1.00  0.00    -0.054 NA
HETATM   35  O6  UNL     1      -4.513   3.247  13.941  1.00  0.00    -0.267 OA
ENDBRANCH  31  33
ENDBRANCH  30  31
BRANCH  30  36
HETATM   36  C21 UNL     1      -3.144   0.744  11.612  1.00  0.00    -0.049 C 
HETATM   37  C22 UNL     1      -4.235  -0.171  11.840  1.00  0.00     0.036 C 
HETATM   38  C23 UNL     1      -3.811  -1.533  12.407  1.00  0.00     0.004 C 
HETATM   39  C24 UNL     1      -2.610  -2.135  11.754  1.00  0.00     0.001 C 
HETATM   40  C25 UNL     1      -1.478  -1.135  11.819  1.00  0.00     0.004 C 
HETATM   41  C26 UNL     1      -1.878   0.062  11.057  1.00  0.00     0.036 C 
ENDBRANCH  30  36
ENDBRANCH  28  30
ENDBRANCH   1  26
TORSDOF 11
ENDMDL
