MODEL 1
REMARK VINA RESULT: -9.276373448      0.000      0.000
REMARK  14 active torsions:
REMARK  status: ('A' for Active; 'I' for Inactive)
REMARK    1  A    between atoms: C2_2  and  O1_3 
REMARK    2  A    between atoms: O1_3  and  C3_4 
REMARK       I    between atoms: C3_4  and  N1_6 
REMARK    3  A    between atoms: N1_6  and  C4_8 
REMARK    4  A    between atoms: C4_8  and  C5_9 
REMARK    5  A    between atoms: C4_8  and  C7_11 
REMARK    6  A    between atoms: C7_11  and  O3_12 
REMARK    7  A    between atoms: C7_11  and  C8_14 
REMARK    8  A    between atoms: C8_14  and  C9_17 
REMARK    9  A    between atoms: C9_17  and  C10_19 
REMARK   10  A    between atoms: N2_23  and  C14_24 
REMARK   11  A    between atoms: C14_24  and  O5_25 
REMARK   12  A    between atoms: C14_24  and  C15_27 
REMARK   13  A    between atoms: C15_27  and  N3_28 
REMARK   14  A    between atoms: C15_27  and  C22_38 
REMARK       I    between atoms: N3_28  and  C16_30 
REMARK       I    between atoms: C16_30  and  N4_32 
ROOT
HETATM    1  C10 UNL     1     -21.062  -4.165  -0.970  1.00  0.00     0.162 C 
HETATM    2  C11 UNL     1     -20.637  -3.943   0.481  1.00  0.00     0.035 C 
HETATM    3  C12 UNL     1     -21.089  -5.251   1.101  1.00  0.00     0.022 C 
HETATM    4  C13 UNL     1     -21.690  -6.066  -0.093  1.00  0.00     0.126 C 
HETATM    5  N2  UNL     1     -20.766  -5.613  -1.120  1.00  0.00    -0.348 N 
ENDROOT
BRANCH   1   6
HETATM    6  C9  UNL     1     -20.631  -3.210  -1.914  1.00  0.00     0.223 C 
HETATM    7  O4  UNL     1     -19.543  -2.732  -2.019  1.00  0.00    -0.289 OA
BRANCH   6   8
HETATM    8  C8  UNL     1     -21.689  -2.721  -2.927  1.00  0.00     0.332 C 
HETATM    9  F1  UNL     1     -22.442  -3.865  -3.270  1.00  0.00    -0.195 F 
HETATM   10  F2  UNL     1     -21.108  -2.224  -4.021  1.00  0.00    -0.195 F 
BRANCH   8  11
HETATM   11  C7  UNL     1     -22.622  -1.776  -2.279  1.00  0.00     0.221 C 
BRANCH  11  12
HETATM   12  C4  UNL     1     -22.462  -0.385  -2.858  1.00  0.00     0.121 C 
BRANCH  12  13
HETATM   13  N1  UNL     1     -21.034  -0.020  -2.810  1.00  0.00    -0.330 N 
HETATM   14  C3  UNL     1     -20.530   0.873  -1.806  1.00  0.00     0.360 C 
HETATM   15  O2  UNL     1     -21.271   1.391  -0.933  1.00  0.00    -0.239 OA
ATOM     16  H1  UNL     1     -20.394  -0.410  -3.501  1.00  0.00     0.165 HD
BRANCH  14  17
HETATM   17  O1  UNL     1     -19.191   1.209  -1.750  1.00  0.00    -0.304 OA
BRANCH  17  18
HETATM   18  C2  UNL     1     -18.159   0.404  -1.295  1.00  0.00     0.176 C 
HETATM   19  C1  UNL     1     -17.015   1.155  -0.696  1.00  0.00     0.034 C 
ENDBRANCH  17  18
ENDBRANCH  14  17
ENDBRANCH  12  13
BRANCH  12  20
HETATM   20  C5  UNL     1     -22.900  -0.197  -4.259  1.00  0.00     0.023 C 
HETATM   21  C6  UNL     1     -21.989   0.633  -5.122  1.00  0.00     0.007 C 
ENDBRANCH  12  20
ENDBRANCH  11  12
BRANCH  11  22
HETATM   22  O3  UNL     1     -23.957  -2.160  -2.603  1.00  0.00    -0.387 OA
ATOM     23  H3  UNL     1     -23.869  -2.781  -3.316  1.00  0.00     0.210 HD
ENDBRANCH  11  22
ENDBRANCH   8  11
ENDBRANCH   6   8
ENDBRANCH   1   6
BRANCH   5  24
HETATM   24  C14 UNL     1     -19.812  -6.116  -1.968  1.00  0.00     0.163 C 
BRANCH  24  25
HETATM   25  O5  UNL     1     -20.099  -6.075  -3.284  1.00  0.00    -0.345 OA
ATOM     26  H5  UNL     1     -19.375  -6.234  -3.879  1.00  0.00     0.219 HD
ENDBRANCH  24  25
BRANCH  24  27
HETATM   27  C15 UNL     1     -18.462  -6.728  -1.862  1.00  0.00     0.072 C 
BRANCH  27  28
HETATM   28  N3  UNL     1     -17.516  -5.669  -1.916  1.00  0.00    -0.308 N 
HETATM   29  C16 UNL     1     -16.169  -5.454  -1.839  1.00  0.00     0.322 C 
HETATM   30  O6  UNL     1     -15.311  -6.337  -1.645  1.00  0.00    -0.247 OA
HETATM   31  N4  UNL     1     -15.611  -4.137  -1.974  1.00  0.00    -0.334 N 
HETATM   32  C17 UNL     1     -14.228  -3.959  -1.633  1.00  0.00     0.127 C 
HETATM   33  C21 UNL     1     -16.472  -3.120  -2.526  1.00  0.00     0.127 C 
HETATM   34  C18 UNL     1     -13.691  -2.585  -1.768  1.00  0.00     0.020 C 
HETATM   35  C19 UNL     1     -14.793  -1.518  -1.745  1.00  0.00     0.003 C 
HETATM   36  C20 UNL     1     -15.710  -1.874  -2.925  1.00  0.00     0.020 C 
ATOM     37  H3  UNL     1     -17.999  -4.782  -2.056  1.00  0.00     0.170 HD
ENDBRANCH  27  28
BRANCH  27  38
HETATM   38  C22 UNL     1     -18.319  -7.829  -0.903  1.00  0.00    -0.004 C 
HETATM   39  C23 UNL     1     -19.570  -8.732  -1.061  1.00  0.00     0.021 C 
HETATM   40  C24 UNL     1     -17.213  -8.835  -1.429  1.00  0.00     0.021 C 
HETATM   41  C25 UNL     1     -17.974  -7.623   0.492  1.00  0.00     0.021 C 
ENDBRANCH  27  38
ENDBRANCH  24  27
ENDBRANCH   5  24
TORSDOF 14
ENDMDL
MODEL 2
REMARK VINA RESULT: -9.164740028      1.709      2.973
REMARK  14 active torsions:
REMARK  status: ('A' for Active; 'I' for Inactive)
REMARK    1  A    between atoms: C2_2  and  O1_3 
REMARK    2  A    between atoms: O1_3  and  C3_4 
REMARK       I    between atoms: C3_4  and  N1_6 
REMARK    3  A    between atoms: N1_6  and  C4_8 
REMARK    4  A    between atoms: C4_8  and  C5_9 
REMARK    5  A    between atoms: C4_8  and  C7_11 
REMARK    6  A    between atoms: C7_11  and  O3_12 
REMARK    7  A    between atoms: C7_11  and  C8_14 
REMARK    8  A    between atoms: C8_14  and  C9_17 
REMARK    9  A    between atoms: C9_17  and  C10_19 
REMARK   10  A    between atoms: N2_23  and  C14_24 
REMARK   11  A    between atoms: C14_24  and  O5_25 
REMARK   12  A    between atoms: C14_24  and  C15_27 
REMARK   13  A    between atoms: C15_27  and  N3_28 
REMARK   14  A    between atoms: C15_27  and  C22_38 
REMARK       I    between atoms: N3_28  and  C16_30 
REMARK       I    between atoms: C16_30  and  N4_32 
ROOT
HETATM    1  C10 UNL     1     -20.788  -4.870  -1.190  1.00  0.00     0.162 C 
HETATM    2  C11 UNL     1     -21.876  -5.682  -0.490  1.00  0.00     0.035 C 
HETATM    3  C12 UNL     1     -21.745  -7.004  -1.221  1.00  0.00     0.022 C 
HETATM    4  C13 UNL     1     -20.568  -6.780  -2.229  1.00  0.00     0.126 C 
HETATM    5  N2  UNL     1     -19.754  -5.918  -1.389  1.00  0.00    -0.348 N 
ENDROOT
BRANCH   1   6
HETATM    6  C9  UNL     1     -20.481  -3.608  -0.640  1.00  0.00     0.223 C 
HETATM    7  O4  UNL     1     -20.543  -3.280   0.505  1.00  0.00    -0.289 OA
BRANCH   6   8
HETATM    8  C8  UNL     1     -20.016  -2.522  -1.634  1.00  0.00     0.332 C 
HETATM    9  F1  UNL     1     -20.990  -2.501  -2.656  1.00  0.00    -0.195 F 
HETATM   10  F2  UNL     1     -18.826  -2.831  -2.156  1.00  0.00    -0.195 F 
BRANCH   8  11
HETATM   11  C7  UNL     1     -20.045  -1.191  -0.992  1.00  0.00     0.221 C 
BRANCH  11  12
HETATM   12  C4  UNL     1     -19.204  -0.202  -1.774  1.00  0.00     0.121 C 
BRANCH  12  13
HETATM   13  N1  UNL     1     -20.046   0.404  -2.820  1.00  0.00    -0.330 N 
HETATM   14  C3  UNL     1     -19.907   0.025  -4.197  1.00  0.00     0.360 C 
HETATM   15  O2  UNL     1     -19.065  -0.827  -4.579  1.00  0.00    -0.239 OA
ATOM     16  H1  UNL     1     -20.740   1.106  -2.561  1.00  0.00     0.165 HD
BRANCH  14  17
HETATM   17  O1  UNL     1     -20.703   0.583  -5.180  1.00  0.00    -0.304 OA
BRANCH  17  18
HETATM   18  C2  UNL     1     -22.059   0.849  -5.087  1.00  0.00     0.176 C 
HETATM   19  C1  UNL     1     -22.842  -0.200  -4.367  1.00  0.00     0.034 C 
ENDBRANCH  17  18
ENDBRANCH  14  17
ENDBRANCH  12  13
BRANCH  12  20
HETATM   20  C5  UNL     1     -18.612   0.916  -1.005  1.00  0.00     0.023 C 
HETATM   21  C6  UNL     1     -17.113   0.896  -0.874  1.00  0.00     0.007 C 
ENDBRANCH  12  20
ENDBRANCH  11  12
BRANCH  11  22
HETATM   22  O3  UNL     1     -21.375  -0.681  -1.061  1.00  0.00    -0.387 OA
ATOM     23  H3  UNL     1     -21.647  -0.577  -0.157  1.00  0.00     0.210 HD
ENDBRANCH  11  22
ENDBRANCH   8  11
ENDBRANCH   6   8
ENDBRANCH   1   6
BRANCH   5  24
HETATM   24  C14 UNL     1     -18.521  -5.900  -0.788  1.00  0.00     0.163 C 
BRANCH  24  25
HETATM   25  O5  UNL     1     -18.432  -5.229   0.379  1.00  0.00    -0.345 OA
ATOM     26  H5  UNL     1     -17.768  -5.529   0.988  1.00  0.00     0.219 HD
ENDBRANCH  24  25
BRANCH  24  27
HETATM   27  C15 UNL     1     -17.163  -6.440  -1.053  1.00  0.00     0.072 C 
BRANCH  27  28
HETATM   28  N3  UNL     1     -16.306  -5.329  -1.276  1.00  0.00    -0.308 N 
HETATM   29  C16 UNL     1     -14.993  -5.043  -1.525  1.00  0.00     0.322 C 
HETATM   30  O6  UNL     1     -14.077  -5.885  -1.602  1.00  0.00    -0.247 OA
HETATM   31  N4  UNL     1     -14.543  -3.692  -1.716  1.00  0.00    -0.334 N 
HETATM   32  C17 UNL     1     -13.127  -3.454  -1.718  1.00  0.00     0.127 C 
HETATM   33  C21 UNL     1     -15.557  -2.700  -1.975  1.00  0.00     0.127 C 
HETATM   34  C18 UNL     1     -12.699  -2.046  -1.901  1.00  0.00     0.020 C 
HETATM   35  C19 UNL     1     -13.804  -1.045  -1.542  1.00  0.00     0.003 C 
HETATM   36  C20 UNL     1     -14.973  -1.397  -2.476  1.00  0.00     0.020 C 
ATOM     37  H3  UNL     1     -16.846  -4.464  -1.240  1.00  0.00     0.170 HD
ENDBRANCH  27  28
BRANCH  27  38
HETATM   38  C22 UNL     1     -16.738  -7.573  -0.222  1.00  0.00    -0.004 C 
HETATM   39  C23 UNL     1     -18.006  -8.416   0.074  1.00  0.00     0.021 C 
HETATM   40  C24 UNL     1     -15.951  -8.612  -1.125  1.00  0.00     0.021 C 
HETATM   41  C25 UNL     1     -15.902  -7.423   0.954  1.00  0.00     0.021 C 
ENDBRANCH  27  38
ENDBRANCH  24  27
ENDBRANCH   5  24
TORSDOF 14
ENDMDL
MODEL 3
REMARK VINA RESULT: -8.955111189      1.508      2.015
REMARK  14 active torsions:
REMARK  status: ('A' for Active; 'I' for Inactive)
REMARK    1  A    between atoms: C2_2  and  O1_3 
REMARK    2  A    between atoms: O1_3  and  C3_4 
REMARK       I    between atoms: C3_4  and  N1_6 
REMARK    3  A    between atoms: N1_6  and  C4_8 
REMARK    4  A    between atoms: C4_8  and  C5_9 
REMARK    5  A    between atoms: C4_8  and  C7_11 
REMARK    6  A    between atoms: C7_11  and  O3_12 
REMARK    7  A    between atoms: C7_11  and  C8_14 
REMARK    8  A    between atoms: C8_14  and  C9_17 
REMARK    9  A    between atoms: C9_17  and  C10_19 
REMARK   10  A    between atoms: N2_23  and  C14_24 
REMARK   11  A    between atoms: C14_24  and  O5_25 
REMARK   12  A    between atoms: C14_24  and  C15_27 
REMARK   13  A    between atoms: C15_27  and  N3_28 
REMARK   14  A    between atoms: C15_27  and  C22_38 
REMARK       I    between atoms: N3_28  and  C16_30 
REMARK       I    between atoms: C16_30  and  N4_32 
ROOT
HETATM    1  C10 UNL     1     -20.290  -6.065  -0.867  1.00  0.00     0.162 C 
HETATM    2  C11 UNL     1     -20.471  -6.823   0.448  1.00  0.00     0.035 C 
HETATM    3  C12 UNL     1     -20.829  -8.200  -0.076  1.00  0.00     0.022 C 
HETATM    4  C13 UNL     1     -20.773  -8.054  -1.634  1.00  0.00     0.126 C 
HETATM    5  N2  UNL     1     -19.660  -7.121  -1.702  1.00  0.00    -0.348 N 
ENDROOT
BRANCH   1   6
HETATM    6  C9  UNL     1     -19.760  -4.761  -0.783  1.00  0.00     0.223 C 
HETATM    7  O4  UNL     1     -18.642  -4.446  -0.513  1.00  0.00    -0.289 OA
BRANCH   6   8
HETATM    8  C8  UNL     1     -20.743  -3.603  -1.067  1.00  0.00     0.332 C 
HETATM    9  F1  UNL     1     -20.347  -2.552  -0.213  1.00  0.00    -0.195 F 
HETATM   10  F2  UNL     1     -21.997  -3.963  -0.783  1.00  0.00    -0.195 F 
BRANCH   8  11
HETATM   11  C7  UNL     1     -20.574  -3.114  -2.451  1.00  0.00     0.221 C 
BRANCH  11  12
HETATM   12  C4  UNL     1     -21.176  -1.733  -2.607  1.00  0.00     0.121 C 
BRANCH  12  13
HETATM   13  N1  UNL     1     -20.081  -0.747  -2.649  1.00  0.00    -0.330 N 
HETATM   14  C3  UNL     1     -20.026   0.341  -1.715  1.00  0.00     0.360 C 
HETATM   15  O2  UNL     1     -20.901   0.512  -0.829  1.00  0.00    -0.239 OA
ATOM     16  H1  UNL     1     -19.350  -0.840  -3.354  1.00  0.00     0.165 HD
BRANCH  14  17
HETATM   17  O1  UNL     1     -18.995   1.261  -1.744  1.00  0.00    -0.304 OA
BRANCH  17  18
HETATM   18  C2  UNL     1     -17.641   0.977  -1.820  1.00  0.00     0.176 C 
HETATM   19  C1  UNL     1     -16.894   1.210  -0.547  1.00  0.00     0.034 C 
ENDBRANCH  17  18
ENDBRANCH  14  17
ENDBRANCH  12  13
BRANCH  12  20
HETATM   20  C5  UNL     1     -22.000  -1.503  -3.815  1.00  0.00     0.023 C 
HETATM   21  C6  UNL     1     -22.916  -0.311  -3.763  1.00  0.00     0.007 C 
ENDBRANCH  12  20
ENDBRANCH  11  12
BRANCH  11  22
HETATM   22  O3  UNL     1     -19.180  -2.942  -2.706  1.00  0.00    -0.387 OA
ATOM     23  H3  UNL     1     -18.806  -3.812  -2.629  1.00  0.00     0.210 HD
ENDBRANCH  11  22
ENDBRANCH   8  11
ENDBRANCH   6   8
ENDBRANCH   1   6
BRANCH   5  24
HETATM   24  C14 UNL     1     -18.382  -7.047  -2.193  1.00  0.00     0.163 C 
BRANCH  24  25
HETATM   25  O5  UNL     1     -18.257  -6.688  -3.487  1.00  0.00    -0.345 OA
ATOM     26  H5  UNL     1     -18.249  -5.755  -3.667  1.00  0.00     0.219 HD
ENDBRANCH  24  25
BRANCH  24  27
HETATM   27  C15 UNL     1     -16.999  -7.253  -1.692  1.00  0.00     0.072 C 
BRANCH  27  28
HETATM   28  N3  UNL     1     -16.330  -6.003  -1.782  1.00  0.00    -0.308 N 
HETATM   29  C16 UNL     1     -15.066  -5.483  -1.808  1.00  0.00     0.322 C 
HETATM   30  O6  UNL     1     -14.015  -6.147  -1.720  1.00  0.00    -0.247 OA
HETATM   31  N4  UNL     1     -14.840  -4.070  -1.938  1.00  0.00    -0.334 N 
HETATM   32  C17 UNL     1     -13.510  -3.583  -1.705  1.00  0.00     0.127 C 
HETATM   33  C21 UNL     1     -15.957  -3.270  -2.377  1.00  0.00     0.127 C 
HETATM   34  C18 UNL     1     -13.316  -2.119  -1.830  1.00  0.00     0.020 C 
HETATM   35  C19 UNL     1     -14.626  -1.338  -1.675  1.00  0.00     0.003 C 
HETATM   36  C20 UNL     1     -15.539  -1.875  -2.788  1.00  0.00     0.020 C 
ATOM     37  H3  UNL     1     -17.014  -5.249  -1.847  1.00  0.00     0.170 HD
ENDBRANCH  27  28
BRANCH  27  38
HETATM   38  C22 UNL     1     -16.855  -8.110  -0.509  1.00  0.00    -0.004 C 
HETATM   39  C23 UNL     1     -17.572  -9.447  -0.831  1.00  0.00     0.021 C 
HETATM   40  C24 UNL     1     -15.362  -8.637  -0.428  1.00  0.00     0.021 C 
HETATM   41  C25 UNL     1     -17.142  -7.653   0.839  1.00  0.00     0.021 C 
ENDBRANCH  27  38
ENDBRANCH  24  27
ENDBRANCH   5  24
TORSDOF 14
ENDMDL
MODEL 4
REMARK VINA RESULT: -8.792785994      1.710      3.821
REMARK  14 active torsions:
REMARK  status: ('A' for Active; 'I' for Inactive)
REMARK    1  A    between atoms: C2_2  and  O1_3 
REMARK    2  A    between atoms: O1_3  and  C3_4 
REMARK       I    between atoms: C3_4  and  N1_6 
REMARK    3  A    between atoms: N1_6  and  C4_8 
REMARK    4  A    between atoms: C4_8  and  C5_9 
REMARK    5  A    between atoms: C4_8  and  C7_11 
REMARK    6  A    between atoms: C7_11  and  O3_12 
REMARK    7  A    between atoms: C7_11  and  C8_14 
REMARK    8  A    between atoms: C8_14  and  C9_17 
REMARK    9  A    between atoms: C9_17  and  C10_19 
REMARK   10  A    between atoms: N2_23  and  C14_24 
REMARK   11  A    between atoms: C14_24  and  O5_25 
REMARK   12  A    between atoms: C14_24  and  C15_27 
REMARK   13  A    between atoms: C15_27  and  N3_28 
REMARK   14  A    between atoms: C15_27  and  C22_38 
REMARK       I    between atoms: N3_28  and  C16_30 
REMARK       I    between atoms: C16_30  and  N4_32 
ROOT
HETATM    1  C10 UNL     1     -21.224  -4.825  -1.776  1.00  0.00     0.162 C 
HETATM    2  C11 UNL     1     -22.364  -5.581  -1.094  1.00  0.00     0.035 C 
HETATM    3  C12 UNL     1     -21.975  -7.011  -1.414  1.00  0.00     0.022 C 
HETATM    4  C13 UNL     1     -20.636  -6.884  -2.215  1.00  0.00     0.126 C 
HETATM    5  N2  UNL     1     -20.089  -5.744  -1.500  1.00  0.00    -0.348 N 
ENDROOT
BRANCH   1   6
HETATM    6  C9  UNL     1     -21.142  -3.438  -1.532  1.00  0.00     0.223 C 
HETATM    7  O4  UNL     1     -20.773  -2.896  -0.537  1.00  0.00    -0.289 OA
BRANCH   6   8
HETATM    8  C8  UNL     1     -21.589  -2.513  -2.686  1.00  0.00     0.332 C 
HETATM    9  F1  UNL     1     -22.263  -3.349  -3.603  1.00  0.00    -0.195 F 
HETATM   10  F2  UNL     1     -20.535  -1.952  -3.282  1.00  0.00    -0.195 F 
BRANCH   8  11
HETATM   11  C7  UNL     1     -22.579  -1.529  -2.201  1.00  0.00     0.221 C 
BRANCH  11  12
HETATM   12  C4  UNL     1     -22.379  -0.190  -2.880  1.00  0.00     0.121 C 
BRANCH  12  13
HETATM   13  N1  UNL     1     -20.954   0.175  -2.783  1.00  0.00    -0.330 N 
HETATM   14  C3  UNL     1     -20.467   0.984  -1.703  1.00  0.00     0.360 C 
HETATM   15  O2  UNL     1     -21.222   1.425  -0.799  1.00  0.00    -0.239 OA
ATOM     16  H1  UNL     1     -20.303  -0.154  -3.496  1.00  0.00     0.165 HD
BRANCH  14  17
HETATM   17  O1  UNL     1     -19.130   1.319  -1.602  1.00  0.00    -0.304 OA
BRANCH  17  18
HETATM   18  C2  UNL     1     -18.060   0.440  -1.594  1.00  0.00     0.176 C 
HETATM   19  C1  UNL     1     -16.876   0.922  -0.822  1.00  0.00     0.034 C 
ENDBRANCH  17  18
ENDBRANCH  14  17
ENDBRANCH  12  13
BRANCH  12  20
HETATM   20  C5  UNL     1     -22.739  -0.115  -4.314  1.00  0.00     0.023 C 
HETATM   21  C6  UNL     1     -21.721   0.538  -5.209  1.00  0.00     0.007 C 
ENDBRANCH  12  20
ENDBRANCH  11  12
BRANCH  11  22
HETATM   22  O3  UNL     1     -23.880  -1.957  -2.601  1.00  0.00    -0.387 OA
ATOM     23  H3  UNL     1     -23.812  -2.900  -2.693  1.00  0.00     0.210 HD
ENDBRANCH  11  22
ENDBRANCH   8  11
ENDBRANCH   6   8
ENDBRANCH   1   6
BRANCH   5  24
HETATM   24  C14 UNL     1     -19.014  -5.417  -0.712  1.00  0.00     0.163 C 
BRANCH  24  25
HETATM   25  O5  UNL     1     -19.293  -5.004   0.541  1.00  0.00    -0.345 OA
ATOM     26  H5  UNL     1     -18.548  -4.857   1.112  1.00  0.00     0.219 HD
ENDBRANCH  24  25
BRANCH  24  27
HETATM   27  C15 UNL     1     -17.534  -5.385  -0.833  1.00  0.00     0.072 C 
BRANCH  27  28
HETATM   28  N3  UNL     1     -17.069  -6.714  -0.642  1.00  0.00    -0.308 N 
HETATM   29  C16 UNL     1     -16.220  -7.429   0.155  1.00  0.00     0.322 C 
HETATM   30  O6  UNL     1     -15.512  -6.950   1.063  1.00  0.00    -0.247 OA
HETATM   31  N4  UNL     1     -16.063  -8.849  -0.001  1.00  0.00    -0.334 N 
HETATM   32  C17 UNL     1     -14.978  -9.481   0.695  1.00  0.00     0.127 C 
HETATM   33  C21 UNL     1     -17.066  -9.532  -0.779  1.00  0.00     0.127 C 
HETATM   34  C18 UNL     1     -14.836 -10.943   0.498  1.00  0.00     0.020 C 
HETATM   35  C19 UNL     1     -15.522 -11.432  -0.783  1.00  0.00     0.003 C 
HETATM   36  C20 UNL     1     -16.997 -11.035  -0.616  1.00  0.00     0.020 C 
ATOM     37  H3  UNL     1     -17.511  -7.335  -1.319  1.00  0.00     0.170 HD
ENDBRANCH  27  28
BRANCH  27  38
HETATM   38  C22 UNL     1     -16.985  -4.532  -1.893  1.00  0.00    -0.004 C 
HETATM   39  C23 UNL     1     -15.477  -4.339  -1.582  1.00  0.00     0.021 C 
HETATM   40  C24 UNL     1     -16.860  -5.378  -3.228  1.00  0.00     0.021 C 
HETATM   41  C25 UNL     1     -17.612  -3.293  -2.317  1.00  0.00     0.021 C 
ENDBRANCH  27  38
ENDBRANCH  24  27
ENDBRANCH   5  24
TORSDOF 14
ENDMDL
MODEL 5
REMARK VINA RESULT: -8.768659193      2.329      6.963
REMARK  14 active torsions:
REMARK  status: ('A' for Active; 'I' for Inactive)
REMARK    1  A    between atoms: C2_2  and  O1_3 
REMARK    2  A    between atoms: O1_3  and  C3_4 
REMARK       I    between atoms: C3_4  and  N1_6 
REMARK    3  A    between atoms: N1_6  and  C4_8 
REMARK    4  A    between atoms: C4_8  and  C5_9 
REMARK    5  A    between atoms: C4_8  and  C7_11 
REMARK    6  A    between atoms: C7_11  and  O3_12 
REMARK    7  A    between atoms: C7_11  and  C8_14 
REMARK    8  A    between atoms: C8_14  and  C9_17 
REMARK    9  A    between atoms: C9_17  and  C10_19 
REMARK   10  A    between atoms: N2_23  and  C14_24 
REMARK   11  A    between atoms: C14_24  and  O5_25 
REMARK   12  A    between atoms: C14_24  and  C15_27 
REMARK   13  A    between atoms: C15_27  and  N3_28 
REMARK   14  A    between atoms: C15_27  and  C22_38 
REMARK       I    between atoms: N3_28  and  C16_30 
REMARK       I    between atoms: C16_30  and  N4_32 
ROOT
HETATM    1  C10 UNL     1     -20.495  -5.125  -2.024  1.00  0.00     0.162 C 
HETATM    2  C11 UNL     1     -21.256  -5.292  -3.339  1.00  0.00     0.035 C 
HETATM    3  C12 UNL     1     -22.684  -5.300  -2.830  1.00  0.00     0.022 C 
HETATM    4  C13 UNL     1     -22.551  -5.103  -1.282  1.00  0.00     0.126 C 
HETATM    5  N2  UNL     1     -21.409  -4.205  -1.298  1.00  0.00    -0.348 N 
ENDROOT
BRANCH   1   6
HETATM    6  C9  UNL     1     -19.108  -4.886  -2.116  1.00  0.00     0.223 C 
HETATM    7  O4  UNL     1     -18.549  -4.122  -2.841  1.00  0.00    -0.289 OA
BRANCH   6   8
HETATM    8  C8  UNL     1     -18.207  -5.713  -1.172  1.00  0.00     0.332 C 
HETATM    9  F1  UNL     1     -18.701  -7.033  -1.237  1.00  0.00    -0.195 F 
HETATM   10  F2  UNL     1     -18.293  -5.264   0.082  1.00  0.00    -0.195 F 
BRANCH   8  11
HETATM   11  C7  UNL     1     -16.822  -5.751  -1.687  1.00  0.00     0.221 C 
BRANCH  11  12
HETATM   12  C4  UNL     1     -15.827  -5.723  -0.546  1.00  0.00     0.121 C 
BRANCH  12  13
HETATM   13  N1  UNL     1     -15.342  -7.095  -0.314  1.00  0.00    -0.330 N 
HETATM   14  C3  UNL     1     -15.704  -7.820   0.870  1.00  0.00     0.360 C 
HETATM   15  O2  UNL     1     -16.437  -7.326   1.764  1.00  0.00    -0.239 OA
ATOM     16  H1  UNL     1     -14.739  -7.538  -1.008  1.00  0.00     0.165 HD
BRANCH  14  17
HETATM   17  O1  UNL     1     -15.261  -9.111   1.086  1.00  0.00    -0.304 OA
BRANCH  17  18
HETATM   18  C2  UNL     1     -15.370 -10.176   0.207  1.00  0.00     0.176 C 
HETATM   19  C1  UNL     1     -16.768 -10.465  -0.235  1.00  0.00     0.034 C 
ENDBRANCH  17  18
ENDBRANCH  14  17
ENDBRANCH  12  13
BRANCH  12  20
HETATM   20  C5  UNL     1     -14.628  -4.876  -0.734  1.00  0.00     0.023 C 
HETATM   21  C6  UNL     1     -13.780  -5.203  -1.934  1.00  0.00     0.007 C 
ENDBRANCH  12  20
ENDBRANCH  11  12
BRANCH  11  22
HETATM   22  O3  UNL     1     -16.611  -7.005  -2.333  1.00  0.00    -0.387 OA
ATOM     23  H3  UNL     1     -15.684  -7.184  -2.228  1.00  0.00     0.210 HD
ENDBRANCH  11  22
ENDBRANCH   8  11
ENDBRANCH   6   8
ENDBRANCH   1   6
BRANCH   5  24
HETATM   24  C14 UNL     1     -21.078  -2.922  -0.941  1.00  0.00     0.163 C 
BRANCH  24  25
HETATM   25  O5  UNL     1     -20.697  -2.736   0.339  1.00  0.00    -0.345 OA
ATOM     26  H5  UNL     1     -21.327  -2.981   1.007  1.00  0.00     0.219 HD
ENDBRANCH  24  25
BRANCH  24  27
HETATM   27  C15 UNL     1     -21.004  -1.587  -1.588  1.00  0.00     0.072 C 
BRANCH  27  28
HETATM   28  N3  UNL     1     -19.627  -1.254  -1.705  1.00  0.00    -0.308 N 
HETATM   29  C16 UNL     1     -18.745  -0.275  -1.345  1.00  0.00     0.322 C 
HETATM   30  O6  UNL     1     -19.040   0.762  -0.719  1.00  0.00    -0.247 OA
HETATM   31  N4  UNL     1     -17.351  -0.361  -1.680  1.00  0.00    -0.334 N 
HETATM   32  C17 UNL     1     -16.545   0.811  -1.492  1.00  0.00     0.127 C 
HETATM   33  C21 UNL     1     -16.862  -1.653  -2.097  1.00  0.00     0.127 C 
HETATM   34  C18 UNL     1     -15.115   0.690  -1.863  1.00  0.00     0.020 C 
HETATM   35  C19 UNL     1     -14.858  -0.460  -2.844  1.00  0.00     0.003 C 
HETATM   36  C20 UNL     1     -15.350  -1.719  -2.112  1.00  0.00     0.020 C 
ATOM     37  H3  UNL     1     -19.140  -1.981  -2.228  1.00  0.00     0.170 HD
ENDBRANCH  27  28
BRANCH  27  38
HETATM   38  C22 UNL     1     -21.942  -1.343  -2.689  1.00  0.00    -0.004 C 
HETATM   39  C23 UNL     1     -21.950   0.187  -2.945  1.00  0.00     0.021 C 
HETATM   40  C24 UNL     1     -21.283  -1.822  -4.049  1.00  0.00     0.021 C 
HETATM   41  C25 UNL     1     -23.280  -1.904  -2.728  1.00  0.00     0.021 C 
ENDBRANCH  27  38
ENDBRANCH  24  27
ENDBRANCH   5  24
TORSDOF 14
ENDMDL
