MODEL 1
REMARK VINA RESULT: -8.767612440      0.000      0.000
REMARK  12 active torsions:
REMARK  status: ('A' for Active; 'I' for Inactive)
REMARK    1  A    between atoms: C2_2  and  C3_3 
REMARK    2  A    between atoms: C3_3  and  C4_4 
REMARK    3  A    between atoms: C5_5  and  C6_6 
REMARK    4  A    between atoms: C7_7  and  C8_8 
REMARK    5  A    between atoms: C8_8  and  O2_10 
REMARK    6  A    between atoms: O2_10  and  C9_11 
REMARK    7  A    between atoms: C10_12  and  O3_13 
REMARK    8  A    between atoms: C11_15  and  O4_16 
REMARK    9  A    between atoms: C15_20  and  O5_21 
REMARK   10  A    between atoms: C16_23  and  O6_24 
REMARK   11  A    between atoms: C24_34  and  O8_35 
REMARK   12  A    between atoms: O8_35  and  C25_36 
ROOT
HETATM    1  C9  UNL     1     -17.638   7.045   1.088  1.00  0.00     0.186 C 
HETATM    2  C10 UNL     1     -16.634   7.076  -0.012  1.00  0.00     0.143 C 
HETATM    3  C11 UNL     1     -15.240   7.478   0.427  1.00  0.00     0.183 C 
HETATM    4  C13 UNL     1     -15.274   8.852   0.963  1.00  0.00     0.007 C 
HETATM    5  C14 UNL     1     -16.213   9.681   0.538  1.00  0.00     0.012 C 
HETATM    6  C15 UNL     1     -17.263   9.345  -0.454  1.00  0.00     0.109 C 
HETATM    7  C16 UNL     1     -17.010   8.020  -1.140  1.00  0.00     0.196 C 
HETATM    8  C17 UNL     1     -18.584   9.221   0.244  1.00  0.00     0.049 C 
HETATM    9  C18 UNL     1     -18.749   9.918   1.553  1.00  0.00     0.020 C 
HETATM   10  C19 UNL     1     -19.846  10.993   1.559  1.00  0.00     0.013 C 
HETATM   11  C20 UNL     1     -19.263   8.592   2.119  1.00  0.00     0.141 C 
HETATM   12  O7  UNL     1     -20.613   8.593   2.214  1.00  0.00    -0.372 OA
HETATM   13  C21 UNL     1     -21.142   7.635   1.374  1.00  0.00     0.082 C 
HETATM   14  C22 UNL     1     -21.521   6.418   2.196  1.00  0.00     0.048 C 
HETATM   15  C23 UNL     1     -22.385   8.213   0.743  1.00  0.00     0.048 C 
HETATM   16  C24 UNL     1     -20.085   7.274   0.363  1.00  0.00     0.179 C 
HETATM   17  C27 UNL     1     -18.846   7.895   0.858  1.00  0.00     0.053 C 
ENDROOT
BRANCH   1  18
HETATM   18  O2  UNL     1     -18.005   5.687   1.297  1.00  0.00    -0.308 OA
BRANCH  18  19
HETATM   19  C8  UNL     1     -17.925   5.057   2.529  1.00  0.00     0.283 C 
HETATM   20  O1  UNL     1     -17.097   5.506   3.329  1.00  0.00    -0.260 OA
BRANCH  19  21
HETATM   21  C7  UNL     1     -18.780   3.945   2.813  1.00  0.00     0.082 C 
HETATM   22  C6  UNL     1     -18.511   2.694   3.020  1.00  0.00     0.006 C 
BRANCH  22  23
HETATM   23  C5  UNL     1     -17.191   2.136   3.001  1.00  0.00    -0.004 C 
HETATM   24  C4  UNL     1     -17.040   0.787   2.963  1.00  0.00    -0.027 C 
BRANCH  24  25
HETATM   25  C3  UNL     1     -15.666   0.269   2.946  1.00  0.00     0.027 C 
BRANCH  25  26
HETATM   26  C2  UNL     1     -15.439  -0.744   1.846  1.00  0.00    -0.001 C 
HETATM   27  C1  UNL     1     -16.712  -1.463   1.495  1.00  0.00     0.005 C 
ENDBRANCH  25  26
ENDBRANCH  24  25
ENDBRANCH  22  23
ENDBRANCH  19  21
ENDBRANCH  18  19
ENDBRANCH   1  18
BRANCH   2  28
HETATM   28  O3  UNL     1     -16.482   5.807  -0.622  1.00  0.00    -0.381 OA
ATOM     29  H3  UNL     1     -16.921   5.765  -1.463  1.00  0.00     0.211 HD
ENDBRANCH   2  28
BRANCH   3  30
HETATM   30  O4  UNL     1     -14.657   6.569   1.295  1.00  0.00    -0.384 OA
HETATM   31  C12 UNL     1     -13.288   6.519   1.199  1.00  0.00     0.202 C 
ENDBRANCH   3  30
BRANCH   7  32
HETATM   32  O6  UNL     1     -15.972   8.072  -2.038  1.00  0.00    -0.389 OA
ATOM     33  H6  UNL     1     -15.582   8.938  -2.006  1.00  0.00     0.210 HD
ENDBRANCH   7  32
BRANCH  16  34
HETATM   34  O8  UNL     1     -20.092   5.908   0.181  1.00  0.00    -0.312 OA
BRANCH  34  35
HETATM   35  C25 UNL     1     -21.008   5.225  -0.600  1.00  0.00     0.255 C 
HETATM   36  C26 UNL     1     -21.838   5.851  -1.642  1.00  0.00     0.126 C 
HETATM   37  O9  UNL     1     -21.109   3.974  -0.369  1.00  0.00    -0.266 OA
ENDBRANCH  34  35
ENDBRANCH  16  34
BRANCH   6  38
HETATM   38  O5  UNL     1     -17.312  10.312  -1.458  1.00  0.00    -0.383 OA
ATOM     39  H5  UNL     1     -17.003   9.952  -2.281  1.00  0.00     0.211 HD
ENDBRANCH   6  38
TORSDOF 12
ENDMDL
MODEL 2
REMARK VINA RESULT: -8.572318397      0.784      1.070
REMARK  12 active torsions:
REMARK  status: ('A' for Active; 'I' for Inactive)
REMARK    1  A    between atoms: C2_2  and  C3_3 
REMARK    2  A    between atoms: C3_3  and  C4_4 
REMARK    3  A    between atoms: C5_5  and  C6_6 
REMARK    4  A    between atoms: C7_7  and  C8_8 
REMARK    5  A    between atoms: C8_8  and  O2_10 
REMARK    6  A    between atoms: O2_10  and  C9_11 
REMARK    7  A    between atoms: C10_12  and  O3_13 
REMARK    8  A    between atoms: C11_15  and  O4_16 
REMARK    9  A    between atoms: C15_20  and  O5_21 
REMARK   10  A    between atoms: C16_23  and  O6_24 
REMARK   11  A    between atoms: C24_34  and  O8_35 
REMARK   12  A    between atoms: O8_35  and  C25_36 
ROOT
HETATM    1  C9  UNL     1     -17.617   7.143   1.117  1.00  0.00     0.186 C 
HETATM    2  C10 UNL     1     -16.605   7.175   0.025  1.00  0.00     0.143 C 
HETATM    3  C11 UNL     1     -15.222   7.607   0.468  1.00  0.00     0.183 C 
HETATM    4  C13 UNL     1     -15.284   8.988   0.984  1.00  0.00     0.007 C 
HETATM    5  C14 UNL     1     -16.234   9.795   0.540  1.00  0.00     0.012 C 
HETATM    6  C15 UNL     1     -17.269   9.426  -0.456  1.00  0.00     0.109 C 
HETATM    7  C16 UNL     1     -16.988   8.096  -1.120  1.00  0.00     0.196 C 
HETATM    8  C17 UNL     1     -18.594   9.290   0.234  1.00  0.00     0.049 C 
HETATM    9  C18 UNL     1     -18.781  10.003   1.532  1.00  0.00     0.020 C 
HETATM   10  C19 UNL     1     -19.896  11.058   1.513  1.00  0.00     0.013 C 
HETATM   11  C20 UNL     1     -19.276   8.676   2.113  1.00  0.00     0.141 C 
HETATM   12  O7  UNL     1     -20.627   8.655   2.198  1.00  0.00    -0.372 OA
HETATM   13  C21 UNL     1     -21.133   7.677   1.368  1.00  0.00     0.082 C 
HETATM   14  C22 UNL     1     -21.498   6.465   2.205  1.00  0.00     0.048 C 
HETATM   15  C23 UNL     1     -22.381   8.224   0.719  1.00  0.00     0.048 C 
HETATM   16  C24 UNL     1     -20.062   7.319   0.370  1.00  0.00     0.179 C 
HETATM   17  C27 UNL     1     -18.838   7.968   0.866  1.00  0.00     0.053 C 
ENDROOT
BRANCH   1  18
HETATM   18  O2  UNL     1     -17.963   5.782   1.343  1.00  0.00    -0.308 OA
BRANCH  18  19
HETATM   19  C8  UNL     1     -17.816   5.151   2.569  1.00  0.00     0.283 C 
HETATM   20  O1  UNL     1     -17.108   5.724   3.406  1.00  0.00    -0.260 OA
BRANCH  19  21
HETATM   21  C7  UNL     1     -18.470   3.901   2.806  1.00  0.00     0.082 C 
HETATM   22  C6  UNL     1     -17.992   2.716   3.022  1.00  0.00     0.006 C 
BRANCH  22  23
HETATM   23  C5  UNL     1     -16.594   2.404   3.070  1.00  0.00    -0.004 C 
HETATM   24  C4  UNL     1     -16.189   1.132   2.825  1.00  0.00    -0.027 C 
BRANCH  24  25
HETATM   25  C3  UNL     1     -14.745   0.867   2.888  1.00  0.00     0.027 C 
BRANCH  25  26
HETATM   26  C2  UNL     1     -13.942   1.811   2.019  1.00  0.00    -0.001 C 
HETATM   27  C1  UNL     1     -12.486   1.788   2.390  1.00  0.00     0.005 C 
ENDBRANCH  25  26
ENDBRANCH  24  25
ENDBRANCH  22  23
ENDBRANCH  19  21
ENDBRANCH  18  19
ENDBRANCH   1  18
BRANCH   2  28
HETATM   28  O3  UNL     1     -16.426   5.900  -0.566  1.00  0.00    -0.381 OA
ATOM     29  H3  UNL     1     -16.969   5.789  -1.338  1.00  0.00     0.211 HD
ENDBRANCH   2  28
BRANCH   3  30
HETATM   30  O4  UNL     1     -14.630   6.722   1.353  1.00  0.00    -0.384 OA
HETATM   31  C12 UNL     1     -13.280   6.566   1.155  1.00  0.00     0.202 C 
ENDBRANCH   3  30
BRANCH   7  32
HETATM   32  O6  UNL     1     -15.945   8.153  -2.011  1.00  0.00    -0.389 OA
ATOM     33  H6  UNL     1     -16.163   8.770  -2.699  1.00  0.00     0.210 HD
ENDBRANCH   7  32
BRANCH  16  34
HETATM   34  O8  UNL     1     -20.045   5.951   0.208  1.00  0.00    -0.312 OA
BRANCH  34  35
HETATM   35  C25 UNL     1     -20.949   5.239  -0.561  1.00  0.00     0.255 C 
HETATM   36  C26 UNL     1     -21.799   5.836  -1.604  1.00  0.00     0.126 C 
HETATM   37  O9  UNL     1     -21.019   3.988  -0.319  1.00  0.00    -0.266 OA
ENDBRANCH  34  35
ENDBRANCH  16  34
BRANCH   6  38
HETATM   38  O5  UNL     1     -17.327  10.378  -1.474  1.00  0.00    -0.383 OA
ATOM     39  H5  UNL     1     -17.729  10.008  -2.251  1.00  0.00     0.211 HD
ENDBRANCH   6  38
TORSDOF 12
ENDMDL
MODEL 3
REMARK VINA RESULT: -8.320777189      1.058      1.575
REMARK  12 active torsions:
REMARK  status: ('A' for Active; 'I' for Inactive)
REMARK    1  A    between atoms: C2_2  and  C3_3 
REMARK    2  A    between atoms: C3_3  and  C4_4 
REMARK    3  A    between atoms: C5_5  and  C6_6 
REMARK    4  A    between atoms: C7_7  and  C8_8 
REMARK    5  A    between atoms: C8_8  and  O2_10 
REMARK    6  A    between atoms: O2_10  and  C9_11 
REMARK    7  A    between atoms: C10_12  and  O3_13 
REMARK    8  A    between atoms: C11_15  and  O4_16 
REMARK    9  A    between atoms: C15_20  and  O5_21 
REMARK   10  A    between atoms: C16_23  and  O6_24 
REMARK   11  A    between atoms: C24_34  and  O8_35 
REMARK   12  A    between atoms: O8_35  and  C25_36 
ROOT
HETATM    1  C9  UNL     1     -17.747   7.309   1.079  1.00  0.00     0.186 C 
HETATM    2  C10 UNL     1     -16.708   7.307   0.012  1.00  0.00     0.143 C 
HETATM    3  C11 UNL     1     -15.331   7.732   0.480  1.00  0.00     0.183 C 
HETATM    4  C13 UNL     1     -15.388   9.124   0.965  1.00  0.00     0.007 C 
HETATM    5  C14 UNL     1     -16.317   9.933   0.481  1.00  0.00     0.012 C 
HETATM    6  C15 UNL     1     -17.332   9.555  -0.532  1.00  0.00     0.109 C 
HETATM    7  C16 UNL     1     -17.051   8.207  -1.161  1.00  0.00     0.196 C 
HETATM    8  C17 UNL     1     -18.675   9.449   0.128  1.00  0.00     0.049 C 
HETATM    9  C18 UNL     1     -18.885  10.191   1.405  1.00  0.00     0.020 C 
HETATM   10  C19 UNL     1     -19.986  11.259   1.336  1.00  0.00     0.013 C 
HETATM   11  C20 UNL     1     -19.411   8.883   2.001  1.00  0.00     0.141 C 
HETATM   12  O7  UNL     1     -20.763   8.880   2.053  1.00  0.00    -0.372 OA
HETATM   13  C21 UNL     1     -21.261   7.890   1.231  1.00  0.00     0.082 C 
HETATM   14  C22 UNL     1     -21.661   6.701   2.084  1.00  0.00     0.048 C 
HETATM   15  C23 UNL     1     -22.486   8.438   0.540  1.00  0.00     0.048 C 
HETATM   16  C24 UNL     1     -20.170   7.499   0.268  1.00  0.00     0.179 C 
HETATM   17  C27 UNL     1     -18.951   8.144   0.780  1.00  0.00     0.053 C 
ENDROOT
BRANCH   1  18
HETATM   18  O2  UNL     1     -18.115   5.958   1.325  1.00  0.00    -0.308 OA
BRANCH  18  19
HETATM   19  C8  UNL     1     -17.992   5.348   2.564  1.00  0.00     0.283 C 
HETATM   20  O1  UNL     1     -18.830   5.656   3.419  1.00  0.00    -0.260 OA
BRANCH  19  21
HETATM   21  C7  UNL     1     -16.931   4.415   2.792  1.00  0.00     0.082 C 
HETATM   22  C6  UNL     1     -16.953   3.146   3.052  1.00  0.00     0.006 C 
BRANCH  22  23
HETATM   23  C5  UNL     1     -18.150   2.365   3.171  1.00  0.00    -0.004 C 
HETATM   24  C4  UNL     1     -18.055   1.013   3.256  1.00  0.00    -0.027 C 
BRANCH  24  25
HETATM   25  C3  UNL     1     -19.312   0.262   3.376  1.00  0.00     0.027 C 
BRANCH  25  26
HETATM   26  C2  UNL     1     -20.167   0.740   4.529  1.00  0.00    -0.001 C 
HETATM   27  C1  UNL     1     -19.883  -0.044   5.780  1.00  0.00     0.005 C 
ENDBRANCH  25  26
ENDBRANCH  24  25
ENDBRANCH  22  23
ENDBRANCH  19  21
ENDBRANCH  18  19
ENDBRANCH   1  18
BRANCH   2  28
HETATM   28  O3  UNL     1     -16.530   6.018  -0.548  1.00  0.00    -0.381 OA
ATOM     29  H3  UNL     1     -15.637   5.879  -0.839  1.00  0.00     0.211 HD
ENDBRANCH   2  28
BRANCH   3  30
HETATM   30  O4  UNL     1     -14.772   6.858   1.398  1.00  0.00    -0.384 OA
HETATM   31  C12 UNL     1     -13.519   6.420   1.047  1.00  0.00     0.202 C 
ENDBRANCH   3  30
BRANCH   7  32
HETATM   32  O6  UNL     1     -15.986   8.234  -2.027  1.00  0.00    -0.389 OA
ATOM     33  H6  UNL     1     -16.300   8.058  -2.906  1.00  0.00     0.210 HD
ENDBRANCH   7  32
BRANCH  16  34
HETATM   34  O8  UNL     1     -20.166   6.128   0.135  1.00  0.00    -0.312 OA
BRANCH  34  35
HETATM   35  C25 UNL     1     -21.062   5.410  -0.638  1.00  0.00     0.255 C 
HETATM   36  C26 UNL     1     -21.861   5.989  -1.731  1.00  0.00     0.126 C 
HETATM   37  O9  UNL     1     -21.173   4.172  -0.352  1.00  0.00    -0.266 OA
ENDBRANCH  34  35
ENDBRANCH  16  34
BRANCH   6  38
HETATM   38  O5  UNL     1     -17.353  10.486  -1.571  1.00  0.00    -0.383 OA
ATOM     39  H5  UNL     1     -17.339  10.044  -2.412  1.00  0.00     0.211 HD
ENDBRANCH   6  38
TORSDOF 12
ENDMDL
MODEL 4
REMARK VINA RESULT: -8.154612690      1.186      1.452
REMARK  12 active torsions:
REMARK  status: ('A' for Active; 'I' for Inactive)
REMARK    1  A    between atoms: C2_2  and  C3_3 
REMARK    2  A    between atoms: C3_3  and  C4_4 
REMARK    3  A    between atoms: C5_5  and  C6_6 
REMARK    4  A    between atoms: C7_7  and  C8_8 
REMARK    5  A    between atoms: C8_8  and  O2_10 
REMARK    6  A    between atoms: O2_10  and  C9_11 
REMARK    7  A    between atoms: C10_12  and  O3_13 
REMARK    8  A    between atoms: C11_15  and  O4_16 
REMARK    9  A    between atoms: C15_20  and  O5_21 
REMARK   10  A    between atoms: C16_23  and  O6_24 
REMARK   11  A    between atoms: C24_34  and  O8_35 
REMARK   12  A    between atoms: O8_35  and  C25_36 
ROOT
HETATM    1  C9  UNL     1     -17.679   7.291   0.855  1.00  0.00     0.186 C 
HETATM    2  C10 UNL     1     -16.668   7.248  -0.239  1.00  0.00     0.143 C 
HETATM    3  C11 UNL     1     -15.237   7.111   0.239  1.00  0.00     0.183 C 
HETATM    4  C13 UNL     1     -14.880   8.288   1.054  1.00  0.00     0.007 C 
HETATM    5  C14 UNL     1     -15.510   9.431   0.838  1.00  0.00     0.012 C 
HETATM    6  C15 UNL     1     -16.571   9.641  -0.177  1.00  0.00     0.109 C 
HETATM    7  C16 UNL     1     -16.699   8.474  -1.133  1.00  0.00     0.196 C 
HETATM    8  C17 UNL     1     -17.896   9.778   0.513  1.00  0.00     0.049 C 
HETATM    9  C18 UNL     1     -17.897  10.202   1.943  1.00  0.00     0.020 C 
HETATM   10  C19 UNL     1     -18.621  11.531   2.203  1.00  0.00     0.013 C 
HETATM   11  C20 UNL     1     -18.806   9.005   2.230  1.00  0.00     0.141 C 
HETATM   12  O7  UNL     1     -20.097   9.392   2.357  1.00  0.00    -0.372 OA
HETATM   13  C21 UNL     1     -20.854   8.835   1.347  1.00  0.00     0.082 C 
HETATM   14  C22 UNL     1     -21.613   7.645   1.904  1.00  0.00     0.048 C 
HETATM   15  C23 UNL     1     -21.841   9.879   0.884  1.00  0.00     0.048 C 
HETATM   16  C24 UNL     1     -19.914   8.392   0.256  1.00  0.00     0.179 C 
HETATM   17  C27 UNL     1     -18.567   8.494   0.840  1.00  0.00     0.053 C 
ENDROOT
BRANCH   1  18
HETATM   18  O2  UNL     1     -18.444   6.095   0.782  1.00  0.00    -0.308 OA
BRANCH  18  19
HETATM   19  C8  UNL     1     -18.574   5.208   1.840  1.00  0.00     0.283 C 
HETATM   20  O1  UNL     1     -19.428   4.322   1.718  1.00  0.00    -0.260 OA
BRANCH  19  21
HETATM   21  C7  UNL     1     -17.739   5.352   2.992  1.00  0.00     0.082 C 
HETATM   22  C6  UNL     1     -16.797   4.597   3.463  1.00  0.00     0.006 C 
BRANCH  22  23
HETATM   23  C5  UNL     1     -16.375   3.364   2.867  1.00  0.00    -0.004 C 
HETATM   24  C4  UNL     1     -16.666   2.192   3.488  1.00  0.00    -0.027 C 
BRANCH  24  25
HETATM   25  C3  UNL     1     -16.209   0.958   2.833  1.00  0.00     0.027 C 
BRANCH  25  26
HETATM   26  C2  UNL     1     -17.315  -0.063   2.680  1.00  0.00    -0.001 C 
HETATM   27  C1  UNL     1     -16.920  -1.156   1.727  1.00  0.00     0.005 C 
ENDBRANCH  25  26
ENDBRANCH  24  25
ENDBRANCH  22  23
ENDBRANCH  19  21
ENDBRANCH  18  19
ENDBRANCH   1  18
BRANCH   2  28
HETATM   28  O3  UNL     1     -16.879   6.148  -1.107  1.00  0.00    -0.381 OA
ATOM     29  H3  UNL     1     -16.790   6.397  -2.019  1.00  0.00     0.211 HD
ENDBRANCH   2  28
BRANCH   3  30
HETATM   30  O4  UNL     1     -14.987   5.909   0.881  1.00  0.00    -0.384 OA
HETATM   31  C12 UNL     1     -13.835   5.291   0.461  1.00  0.00     0.202 C 
ENDBRANCH   3  30
BRANCH   7  32
HETATM   32  O6  UNL     1     -15.659   8.399  -2.026  1.00  0.00    -0.389 OA
ATOM     33  H6  UNL     1     -15.999   8.134  -2.872  1.00  0.00     0.210 HD
ENDBRANCH   7  32
BRANCH  16  34
HETATM   34  O8  UNL     1     -20.323   7.161  -0.209  1.00  0.00    -0.312 OA
BRANCH  34  35
HETATM   35  C25 UNL     1     -21.346   6.966  -1.121  1.00  0.00     0.255 C 
HETATM   36  C26 UNL     1     -21.875   5.646  -1.501  1.00  0.00     0.126 C 
HETATM   37  O9  UNL     1     -21.833   8.024  -1.642  1.00  0.00    -0.266 OA
ENDBRANCH  34  35
ENDBRANCH  16  34
BRANCH   6  38
HETATM   38  O5  UNL     1     -16.289  10.765  -0.953  1.00  0.00    -0.383 OA
ATOM     39  H5  UNL     1     -16.804  10.756  -1.751  1.00  0.00     0.211 HD
ENDBRANCH   6  38
TORSDOF 12
ENDMDL
MODEL 5
REMARK VINA RESULT: -7.870763238      1.203      1.406
REMARK  12 active torsions:
REMARK  status: ('A' for Active; 'I' for Inactive)
REMARK    1  A    between atoms: C2_2  and  C3_3 
REMARK    2  A    between atoms: C3_3  and  C4_4 
REMARK    3  A    between atoms: C5_5  and  C6_6 
REMARK    4  A    between atoms: C7_7  and  C8_8 
REMARK    5  A    between atoms: C8_8  and  O2_10 
REMARK    6  A    between atoms: O2_10  and  C9_11 
REMARK    7  A    between atoms: C10_12  and  O3_13 
REMARK    8  A    between atoms: C11_15  and  O4_16 
REMARK    9  A    between atoms: C15_20  and  O5_21 
REMARK   10  A    between atoms: C16_23  and  O6_24 
REMARK   11  A    between atoms: C24_34  and  O8_35 
REMARK   12  A    between atoms: O8_35  and  C25_36 
ROOT
HETATM    1  C9  UNL     1     -17.953   7.768   1.009  1.00  0.00     0.186 C 
HETATM    2  C10 UNL     1     -16.892   7.563  -0.017  1.00  0.00     0.143 C 
HETATM    3  C11 UNL     1     -15.484   7.528   0.541  1.00  0.00     0.183 C 
HETATM    4  C13 UNL     1     -15.174   8.826   1.169  1.00  0.00     0.007 C 
HETATM    5  C14 UNL     1     -15.803   9.909   0.742  1.00  0.00     0.012 C 
HETATM    6  C15 UNL     1     -16.817   9.936  -0.339  1.00  0.00     0.109 C 
HETATM    7  C16 UNL     1     -16.891   8.629  -1.098  1.00  0.00     0.196 C 
HETATM    8  C17 UNL     1     -18.173  10.162   0.260  1.00  0.00     0.049 C 
HETATM    9  C18 UNL     1     -18.245  10.813   1.601  1.00  0.00     0.020 C 
HETATM   10  C19 UNL     1     -18.990  12.155   1.609  1.00  0.00     0.013 C 
HETATM   11  C20 UNL     1     -19.157   9.663   2.037  1.00  0.00     0.141 C 
HETATM   12  O7  UNL     1     -20.455  10.046   2.041  1.00  0.00    -0.372 OA
HETATM   13  C21 UNL     1     -21.160   9.322   1.102  1.00  0.00     0.082 C 
HETATM   14  C22 UNL     1     -21.934   8.225   1.810  1.00  0.00     0.048 C 
HETATM   15  C23 UNL     1     -22.133  10.261   0.432  1.00  0.00     0.048 C 
HETATM   16  C24 UNL     1     -20.166   8.723   0.141  1.00  0.00     0.179 C 
HETATM   17  C27 UNL     1     -18.849   8.938   0.760  1.00  0.00     0.053 C 
ENDROOT
BRANCH   1  18
HETATM   18  O2  UNL     1     -18.704   6.563   1.097  1.00  0.00    -0.308 OA
BRANCH  18  19
HETATM   19  C8  UNL     1     -19.001   5.936   2.297  1.00  0.00     0.283 C 
HETATM   20  O1  UNL     1     -18.616   6.500   3.328  1.00  0.00    -0.260 OA
BRANCH  19  21
HETATM   21  C7  UNL     1     -19.719   4.698   2.291  1.00  0.00     0.082 C 
HETATM   22  C6  UNL     1     -19.324   3.482   2.502  1.00  0.00     0.006 C 
BRANCH  22  23
HETATM   23  C5  UNL     1     -17.973   3.112   2.808  1.00  0.00    -0.004 C 
HETATM   24  C4  UNL     1     -17.693   1.821   3.120  1.00  0.00    -0.027 C 
BRANCH  24  25
HETATM   25  C3  UNL     1     -16.293   1.497   3.426  1.00  0.00     0.027 C 
BRANCH  25  26
HETATM   26  C2  UNL     1     -15.845   0.197   2.795  1.00  0.00    -0.001 C 
HETATM   27  C1  UNL     1     -17.001  -0.530   2.164  1.00  0.00     0.005 C 
ENDBRANCH  25  26
ENDBRANCH  24  25
ENDBRANCH  22  23
ENDBRANCH  19  21
ENDBRANCH  18  19
ENDBRANCH   1  18
BRANCH   2  28
HETATM   28  O3  UNL     1     -17.053   6.335  -0.704  1.00  0.00    -0.381 OA
ATOM     29  H3  UNL     1     -16.239   5.848  -0.753  1.00  0.00     0.211 HD
ENDBRANCH   2  28
BRANCH   3  30
HETATM   30  O4  UNL     1     -15.255   6.449   1.379  1.00  0.00    -0.384 OA
HETATM   31  C12 UNL     1     -13.995   5.916   1.258  1.00  0.00     0.202 C 
ENDBRANCH   3  30
BRANCH   7  32
HETATM   32  O6  UNL     1     -15.810   8.426  -1.920  1.00  0.00    -0.389 OA
ATOM     33  H6  UNL     1     -15.778   9.123  -2.563  1.00  0.00     0.210 HD
ENDBRANCH   7  32
BRANCH  16  34
HETATM   34  O8  UNL     1     -20.543   7.427  -0.137  1.00  0.00    -0.312 OA
BRANCH  34  35
HETATM   35  C25 UNL     1     -21.456   7.066  -1.112  1.00  0.00     0.255 C 
HETATM   36  C26 UNL     1     -21.827   5.676  -1.427  1.00  0.00     0.126 C 
HETATM   37  O9  UNL     1     -21.988   8.030  -1.758  1.00  0.00    -0.266 OA
ENDBRANCH  34  35
ENDBRANCH  16  34
BRANCH   6  38
HETATM   38  O5  UNL     1     -16.508  10.925  -1.273  1.00  0.00    -0.383 OA
ATOM     39  H5  UNL     1     -17.203  11.004  -1.915  1.00  0.00     0.211 HD
ENDBRANCH   6  38
TORSDOF 12
ENDMDL
