MODEL 1
REMARK VINA RESULT: -8.642821805      0.000      0.000
REMARK  11 active torsions:
REMARK  status: ('A' for Active; 'I' for Inactive)
REMARK    1  A    between atoms: C4_4  and  O1_5 
REMARK    2  A    between atoms: O1_5  and  C5_6 
REMARK    3  A    between atoms: C8_10  and  O3_11 
REMARK    4  A    between atoms: O3_11  and  C9_12 
REMARK    5  A    between atoms: C9_12  and  C10_14 
REMARK    6  A    between atoms: C12_16  and  O5_18 
REMARK    7  A    between atoms: C15_21  and  O6_22 
REMARK    8  A    between atoms: C18_26  and  O7_27 
REMARK    9  A    between atoms: N1_34  and  C23_35 
REMARK   10  A    between atoms: C23_35  and  C24_36 
REMARK   11  A    between atoms: C24_36  and  C25_37 
ROOT
HETATM    1  C5  UNL     1     -19.254   5.915   2.674  1.00  0.00     0.295 C 
HETATM    2  O2  UNL     1     -20.462   5.284   2.405  1.00  0.00    -0.351 OA
HETATM    3  C6  UNL     1     -20.606   4.035   2.925  1.00  0.00     0.151 C 
HETATM    4  C7  UNL     1     -21.872   3.432   2.311  1.00  0.00     0.042 C 
HETATM    5  C8  UNL     1     -19.480   3.082   2.569  1.00  0.00     0.170 C 
HETATM    6  C14 UNL     1     -18.223   3.772   3.107  1.00  0.00     0.086 C 
HETATM    7  C15 UNL     1     -16.971   3.088   2.694  1.00  0.00     0.128 C 
HETATM    8  C16 UNL     1     -15.955   4.207   2.674  1.00  0.00     0.035 C 
HETATM    9  C17 UNL     1     -16.773   5.504   2.646  1.00  0.00     0.046 C 
HETATM   10  C18 UNL     1     -18.134   5.054   2.236  1.00  0.00     0.116 C 
ENDROOT
BRANCH   1  11
HETATM   11  O1  UNL     1     -19.268   7.087   1.917  1.00  0.00    -0.348 OA
BRANCH  11  12
HETATM   12  C4  UNL     1     -20.419   7.371   1.313  1.00  0.00     0.160 C 
HETATM   13  C3  UNL     1     -20.810   8.793   1.421  1.00  0.00     0.003 C 
HETATM   14  C2  UNL     1     -20.086   9.826   1.722  1.00  0.00    -0.021 C 
HETATM   15  C22 UNL     1     -22.266   9.062   1.059  1.00  0.00     0.392 C 
HETATM   16  C1  UNL     1     -18.640   9.785   2.034  1.00  0.00     0.036 C 
HETATM   17  O8  UNL     1     -22.304   9.864  -0.091  1.00  0.00    -0.352 OA
HETATM   18  N1  UNL     1     -22.738   7.805   0.516  1.00  0.00     0.128 N 
HETATM   19  C21 UNL     1     -21.655   9.082  -1.071  1.00  0.00     0.207 C 
HETATM   20  C20 UNL     1     -21.853   7.643  -0.654  1.00  0.00     0.253 C 
HETATM   21  C19 UNL     1     -20.505   7.085  -0.192  1.00  0.00     0.074 C 
BRANCH  18  22
HETATM   22  C23 UNL     1     -24.072   7.982   0.045  1.00  0.00     0.277 C 
BRANCH  22  23
HETATM   23  C24 UNL     1     -25.050   7.238   0.916  1.00  0.00     0.030 C 
BRANCH  23  24
HETATM   24  C25 UNL     1     -24.342   6.267   1.841  1.00  0.00    -0.003 C 
HETATM   25  C26 UNL     1     -25.372   5.740   2.826  1.00  0.00     0.005 C 
ENDBRANCH  23  24
ENDBRANCH  22  23
ENDBRANCH  18  22
ENDBRANCH  11  12
ENDBRANCH   1  11
BRANCH  10  26
HETATM   26  O7  UNL     1     -18.222   4.612   0.924  1.00  0.00    -0.384 OA
ATOM     27  H7  UNL     1     -17.410   4.661   0.433  1.00  0.00     0.210 HD
ENDBRANCH  10  26
BRANCH   5  28
HETATM   28  O3  UNL     1     -19.715   1.867   3.240  1.00  0.00    -0.312 OA
BRANCH  28  29
HETATM   29  C9  UNL     1     -19.672   0.619   2.648  1.00  0.00     0.266 C 
HETATM   30  O4  UNL     1     -18.568   0.043   2.600  1.00  0.00    -0.265 OA
BRANCH  29  31
HETATM   31  C10 UNL     1     -20.924   0.039   2.108  1.00  0.00     0.122 A 
HETATM   32  C11 UNL     1     -21.064  -1.449   2.299  1.00  0.00     0.056 A 
HETATM   33  C12 UNL     1     -21.972  -0.482   3.019  1.00  0.00     0.068 A 
HETATM   34  C13 UNL     1     -21.795  -0.430   4.513  1.00  0.00     0.047 C 
BRANCH  33  35
HETATM   35  O5  UNL     1     -23.294  -0.462   2.572  1.00  0.00    -0.389 OA
ATOM     36  H5  UNL     1     -23.955  -0.114   3.159  1.00  0.00     0.210 HD
ENDBRANCH  33  35
ENDBRANCH  29  31
ENDBRANCH  28  29
ENDBRANCH   5  28
BRANCH   7  37
HETATM   37  O6  UNL     1     -16.596   2.060   3.558  1.00  0.00    -0.395 OA
ATOM     38  H6  UNL     1     -17.335   1.567   3.897  1.00  0.00     0.210 HD
ENDBRANCH   7  37
TORSDOF 11
ENDMDL
MODEL 2
REMARK VINA RESULT: -8.502063993      2.555      7.842
REMARK  11 active torsions:
REMARK  status: ('A' for Active; 'I' for Inactive)
REMARK    1  A    between atoms: C4_4  and  O1_5 
REMARK    2  A    between atoms: O1_5  and  C5_6 
REMARK    3  A    between atoms: C8_10  and  O3_11 
REMARK    4  A    between atoms: O3_11  and  C9_12 
REMARK    5  A    between atoms: C9_12  and  C10_14 
REMARK    6  A    between atoms: C12_16  and  O5_18 
REMARK    7  A    between atoms: C15_21  and  O6_22 
REMARK    8  A    between atoms: C18_26  and  O7_27 
REMARK    9  A    between atoms: N1_34  and  C23_35 
REMARK   10  A    between atoms: C23_35  and  C24_36 
REMARK   11  A    between atoms: C24_36  and  C25_37 
ROOT
HETATM    1  C5  UNL     1     -18.326   4.605   1.568  1.00  0.00     0.295 C 
HETATM    2  O2  UNL     1     -19.490   5.322   1.812  1.00  0.00    -0.351 OA
HETATM    3  C6  UNL     1     -19.806   6.269   0.888  1.00  0.00     0.151 C 
HETATM    4  C7  UNL     1     -20.957   7.097   1.464  1.00  0.00     0.042 C 
HETATM    5  C8  UNL     1     -18.689   7.256   0.606  1.00  0.00     0.170 C 
HETATM    6  C14 UNL     1     -17.525   6.379   0.134  1.00  0.00     0.086 C 
HETATM    7  C15 UNL     1     -16.258   7.138  -0.019  1.00  0.00     0.128 C 
HETATM    8  C16 UNL     1     -15.195   6.091   0.227  1.00  0.00     0.035 C 
HETATM    9  C17 UNL     1     -15.916   4.930   0.925  1.00  0.00     0.046 C 
HETATM   10  C18 UNL     1     -17.192   5.540   1.397  1.00  0.00     0.116 C 
ENDROOT
BRANCH   1  11
HETATM   11  O1  UNL     1     -18.121   3.826   2.707  1.00  0.00    -0.348 OA
BRANCH  11  12
HETATM   12  C4  UNL     1     -18.845   2.711   2.781  1.00  0.00     0.160 C 
HETATM   13  C3  UNL     1     -18.029   1.481   2.872  1.00  0.00     0.003 C 
HETATM   14  C2  UNL     1     -16.782   1.341   3.198  1.00  0.00    -0.021 C 
HETATM   15  C22 UNL     1     -18.811   0.201   2.598  1.00  0.00     0.392 C 
HETATM   16  C1  UNL     1     -15.874   2.449   3.568  1.00  0.00     0.036 C 
HETATM   17  O8  UNL     1     -18.838  -0.570   3.770  1.00  0.00    -0.352 OA
HETATM   18  N1  UNL     1     -20.193   0.631   2.536  1.00  0.00     0.128 N 
HETATM   19  C21 UNL     1     -19.498   0.258   4.704  1.00  0.00     0.207 C 
HETATM   20  C20 UNL     1     -20.390   1.171   3.895  1.00  0.00     0.253 C 
HETATM   21  C19 UNL     1     -19.817   2.589   3.962  1.00  0.00     0.074 C 
BRANCH  18  22
HETATM   22  C23 UNL     1     -21.024  -0.517   2.387  1.00  0.00     0.277 C 
BRANCH  22  23
HETATM   23  C24 UNL     1     -22.445  -0.203   2.774  1.00  0.00     0.030 C 
BRANCH  23  24
HETATM   24  C25 UNL     1     -22.993  -1.222   3.754  1.00  0.00    -0.003 C 
HETATM   25  C26 UNL     1     -22.935  -0.603   5.139  1.00  0.00     0.005 C 
ENDBRANCH  23  24
ENDBRANCH  22  23
ENDBRANCH  18  22
ENDBRANCH  11  12
ENDBRANCH   1  11
BRANCH  10  26
HETATM   26  O7  UNL     1     -17.043   6.464   2.421  1.00  0.00    -0.384 OA
ATOM     27  H7  UNL     1     -16.245   6.978   2.379  1.00  0.00     0.210 HD
ENDBRANCH  10  26
BRANCH   5  28
HETATM   28  O3  UNL     1     -19.122   8.116  -0.422  1.00  0.00    -0.312 OA
BRANCH  28  29
HETATM   29  C9  UNL     1     -18.882   9.476  -0.464  1.00  0.00     0.266 C 
HETATM   30  O4  UNL     1     -18.320   9.930  -1.479  1.00  0.00    -0.265 OA
BRANCH  29  31
HETATM   31  C10 UNL     1     -19.301  10.313   0.685  1.00  0.00     0.122 A 
HETATM   32  C11 UNL     1     -19.641  11.738   0.338  1.00  0.00     0.056 A 
HETATM   33  C12 UNL     1     -20.703  10.778   0.812  1.00  0.00     0.068 A 
HETATM   34  C13 UNL     1     -21.738  10.409  -0.218  1.00  0.00     0.047 C 
BRANCH  33  35
HETATM   35  O5  UNL     1     -21.196  11.022   2.095  1.00  0.00    -0.389 OA
ATOM     36  H5  UNL     1     -21.724  11.802   2.227  1.00  0.00     0.210 HD
ENDBRANCH  33  35
ENDBRANCH  29  31
ENDBRANCH  28  29
ENDBRANCH   5  28
BRANCH   7  37
HETATM   37  O6  UNL     1     -16.121   7.733  -1.271  1.00  0.00    -0.395 OA
ATOM     38  H6  UNL     1     -15.339   8.267  -1.349  1.00  0.00     0.210 HD
ENDBRANCH   7  37
TORSDOF 11
ENDMDL
MODEL 3
REMARK VINA RESULT: -8.384814745      3.227      7.696
REMARK  11 active torsions:
REMARK  status: ('A' for Active; 'I' for Inactive)
REMARK    1  A    between atoms: C4_4  and  O1_5 
REMARK    2  A    between atoms: O1_5  and  C5_6 
REMARK    3  A    between atoms: C8_10  and  O3_11 
REMARK    4  A    between atoms: O3_11  and  C9_12 
REMARK    5  A    between atoms: C9_12  and  C10_14 
REMARK    6  A    between atoms: C12_16  and  O5_18 
REMARK    7  A    between atoms: C15_21  and  O6_22 
REMARK    8  A    between atoms: C18_26  and  O7_27 
REMARK    9  A    between atoms: N1_34  and  C23_35 
REMARK   10  A    between atoms: C23_35  and  C24_36 
REMARK   11  A    between atoms: C24_36  and  C25_37 
ROOT
HETATM    1  C5  UNL     1     -18.765   5.264   1.973  1.00  0.00     0.295 C 
HETATM    2  O2  UNL     1     -17.949   4.230   2.413  1.00  0.00    -0.351 OA
HETATM    3  C6  UNL     1     -16.657   4.567   2.677  1.00  0.00     0.151 C 
HETATM    4  C7  UNL     1     -15.886   3.264   2.898  1.00  0.00     0.042 C 
HETATM    5  C8  UNL     1     -15.955   5.273   1.532  1.00  0.00     0.170 C 
HETATM    6  C14 UNL     1     -16.816   6.513   1.273  1.00  0.00     0.086 C 
HETATM    7  C15 UNL     1     -16.405   7.255   0.054  1.00  0.00     0.128 C 
HETATM    8  C16 UNL     1     -17.687   7.913  -0.400  1.00  0.00     0.035 C 
HETATM    9  C17 UNL     1     -18.813   7.162   0.322  1.00  0.00     0.046 C 
HETATM   10  C18 UNL     1     -18.159   5.906   0.785  1.00  0.00     0.116 C 
ENDROOT
BRANCH   1  11
HETATM   11  O1  UNL     1     -19.971   4.662   1.615  1.00  0.00    -0.348 OA
BRANCH  11  12
HETATM   12  C4  UNL     1     -20.110   3.388   1.974  1.00  0.00     0.160 C 
HETATM   13  C3  UNL     1     -20.980   3.197   3.154  1.00  0.00     0.003 C 
HETATM   14  C2  UNL     1     -21.848   4.006   3.678  1.00  0.00    -0.021 C 
HETATM   15  C22 UNL     1     -20.865   1.816   3.789  1.00  0.00     0.392 C 
HETATM   16  C1  UNL     1     -22.159   5.360   3.168  1.00  0.00     0.036 C 
HETATM   17  O8  UNL     1     -22.092   1.152   3.651  1.00  0.00    -0.352 OA
HETATM   18  N1  UNL     1     -20.052   1.061   2.858  1.00  0.00     0.128 N 
HETATM   19  C21 UNL     1     -22.278   1.073   2.253  1.00  0.00     0.207 C 
HETATM   20  C20 UNL     1     -20.894   1.091   1.646  1.00  0.00     0.253 C 
HETATM   21  C19 UNL     1     -20.698   2.430   0.931  1.00  0.00     0.074 C 
BRANCH  18  22
HETATM   22  C23 UNL     1     -19.971  -0.289   3.311  1.00  0.00     0.277 C 
BRANCH  22  23
HETATM   23  C24 UNL     1     -19.162  -1.126   2.356  1.00  0.00     0.030 C 
BRANCH  23  24
HETATM   24  C25 UNL     1     -17.725  -0.647   2.278  1.00  0.00    -0.003 C 
HETATM   25  C26 UNL     1     -16.954  -1.647   1.433  1.00  0.00     0.005 C 
ENDBRANCH  23  24
ENDBRANCH  22  23
ENDBRANCH  18  22
ENDBRANCH  11  12
ENDBRANCH   1  11
BRANCH  10  26
HETATM   26  O7  UNL     1     -17.814   5.028  -0.234  1.00  0.00    -0.384 OA
ATOM     27  H7  UNL     1     -16.915   5.101  -0.532  1.00  0.00     0.210 HD
ENDBRANCH  10  26
BRANCH   5  28
HETATM   28  O3  UNL     1     -14.668   5.635   1.972  1.00  0.00    -0.312 OA
BRANCH  28  29
HETATM   29  C9  UNL     1     -13.492   5.301   1.329  1.00  0.00     0.266 C 
HETATM   30  O4  UNL     1     -13.538   5.135   0.095  1.00  0.00    -0.265 OA
BRANCH  29  31
HETATM   31  C10 UNL     1     -12.253   5.158   2.130  1.00  0.00     0.122 A 
HETATM   32  C11 UNL     1     -10.975   5.275   1.342  1.00  0.00     0.056 A 
HETATM   33  C12 UNL     1     -11.361   6.320   2.358  1.00  0.00     0.068 A 
HETATM   34  C13 UNL     1     -11.692   7.675   1.789  1.00  0.00     0.047 C 
BRANCH  33  35
HETATM   35  O5  UNL     1     -10.590   6.333   3.521  1.00  0.00    -0.389 OA
ATOM     36  H5  UNL     1     -10.179   7.152   3.773  1.00  0.00     0.210 HD
ENDBRANCH  33  35
ENDBRANCH  29  31
ENDBRANCH  28  29
ENDBRANCH   5  28
BRANCH   7  37
HETATM   37  O6  UNL     1     -15.397   8.187   0.292  1.00  0.00    -0.395 OA
ATOM     38  H6  UNL     1     -14.774   8.256  -0.423  1.00  0.00     0.210 HD
ENDBRANCH   7  37
TORSDOF 11
ENDMDL
MODEL 4
REMARK VINA RESULT: -8.234305442      2.519      7.875
REMARK  11 active torsions:
REMARK  status: ('A' for Active; 'I' for Inactive)
REMARK    1  A    between atoms: C4_4  and  O1_5 
REMARK    2  A    between atoms: O1_5  and  C5_6 
REMARK    3  A    between atoms: C8_10  and  O3_11 
REMARK    4  A    between atoms: O3_11  and  C9_12 
REMARK    5  A    between atoms: C9_12  and  C10_14 
REMARK    6  A    between atoms: C12_16  and  O5_18 
REMARK    7  A    between atoms: C15_21  and  O6_22 
REMARK    8  A    between atoms: C18_26  and  O7_27 
REMARK    9  A    between atoms: N1_34  and  C23_35 
REMARK   10  A    between atoms: C23_35  and  C24_36 
REMARK   11  A    between atoms: C24_36  and  C25_37 
ROOT
HETATM    1  C5  UNL     1     -18.832   4.473   1.527  1.00  0.00     0.295 C 
HETATM    2  O2  UNL     1     -20.050   5.081   1.807  1.00  0.00    -0.351 OA
HETATM    3  C6  UNL     1     -20.502   5.959   0.872  1.00  0.00     0.151 C 
HETATM    4  C7  UNL     1     -21.701   6.689   1.479  1.00  0.00     0.042 C 
HETATM    5  C8  UNL     1     -19.503   7.041   0.504  1.00  0.00     0.170 C 
HETATM    6  C14 UNL     1     -18.281   6.266   0.001  1.00  0.00     0.086 C 
HETATM    7  C15 UNL     1     -17.104   7.140  -0.238  1.00  0.00     0.128 C 
HETATM    8  C16 UNL     1     -15.932   6.212  -0.014  1.00  0.00     0.035 C 
HETATM    9  C17 UNL     1     -16.500   5.011   0.754  1.00  0.00     0.046 C 
HETATM   10  C18 UNL     1     -17.806   5.508   1.270  1.00  0.00     0.116 C 
ENDROOT
BRANCH   1  11
HETATM   11  O1  UNL     1     -18.498   3.759   2.677  1.00  0.00    -0.348 OA
BRANCH  11  12
HETATM   12  C4  UNL     1     -19.108   2.586   2.826  1.00  0.00     0.160 C 
HETATM   13  C3  UNL     1     -18.177   1.442   2.933  1.00  0.00     0.003 C 
HETATM   14  C2  UNL     1     -16.910   1.434   3.214  1.00  0.00    -0.021 C 
HETATM   15  C22 UNL     1     -18.842   0.084   2.744  1.00  0.00     0.392 C 
HETATM   16  C1  UNL     1     -16.100   2.639   3.502  1.00  0.00     0.036 C 
HETATM   17  O8  UNL     1     -18.753  -0.633   3.946  1.00  0.00    -0.352 OA
HETATM   18  N1  UNL     1     -20.260   0.380   2.720  1.00  0.00     0.128 N 
HETATM   19  C21 UNL     1     -19.454   0.170   4.872  1.00  0.00     0.207 C 
HETATM   20  C20 UNL     1     -20.459   0.959   4.063  1.00  0.00     0.253 C 
HETATM   21  C19 UNL     1     -20.021   2.425   4.049  1.00  0.00     0.074 C 
BRANCH  18  22
HETATM   22  C23 UNL     1     -20.983  -0.847   2.652  1.00  0.00     0.277 C 
BRANCH  22  23
HETATM   23  C24 UNL     1     -22.464  -0.603   2.777  1.00  0.00     0.030 C 
BRANCH  23  24
HETATM   24  C25 UNL     1     -23.061  -1.391   3.927  1.00  0.00    -0.003 C 
HETATM   25  C26 UNL     1     -23.024  -0.503   5.159  1.00  0.00     0.005 C 
ENDBRANCH  23  24
ENDBRANCH  22  23
ENDBRANCH  18  22
ENDBRANCH  11  12
ENDBRANCH   1  11
BRANCH  10  26
HETATM   26  O7  UNL     1     -17.703   6.479   2.257  1.00  0.00    -0.384 OA
ATOM     27  H7  UNL     1     -17.097   7.183   2.059  1.00  0.00     0.210 HD
ENDBRANCH  10  26
BRANCH   5  28
HETATM   28  O3  UNL     1     -20.067   7.817  -0.526  1.00  0.00    -0.312 OA
BRANCH  28  29
HETATM   29  C9  UNL     1     -20.177   9.194  -0.505  1.00  0.00     0.266 C 
HETATM   30  O4  UNL     1     -19.133   9.857  -0.654  1.00  0.00    -0.265 OA
BRANCH  29  31
HETATM   31  C10 UNL     1     -21.514   9.803  -0.310  1.00  0.00     0.122 A 
HETATM   32  C11 UNL     1     -21.566  11.293  -0.521  1.00  0.00     0.056 A 
HETATM   33  C12 UNL     1     -22.273  10.348  -1.461  1.00  0.00     0.068 A 
HETATM   34  C13 UNL     1     -21.710  10.293  -2.856  1.00  0.00     0.047 C 
BRANCH  33  35
HETATM   35  O5  UNL     1     -23.666  10.358  -1.378  1.00  0.00    -0.389 OA
ATOM     36  H5  UNL     1     -24.069   9.955  -0.617  1.00  0.00     0.210 HD
ENDBRANCH  33  35
ENDBRANCH  29  31
ENDBRANCH  28  29
ENDBRANCH   5  28
BRANCH   7  37
HETATM   37  O6  UNL     1     -17.087   7.702  -1.513  1.00  0.00    -0.395 OA
ATOM     38  H6  UNL     1     -17.748   7.338  -2.092  1.00  0.00     0.210 HD
ENDBRANCH   7  37
TORSDOF 11
ENDMDL
MODEL 5
REMARK VINA RESULT: -8.217298246      2.382      3.571
REMARK  11 active torsions:
REMARK  status: ('A' for Active; 'I' for Inactive)
REMARK    1  A    between atoms: C4_4  and  O1_5 
REMARK    2  A    between atoms: O1_5  and  C5_6 
REMARK    3  A    between atoms: C8_10  and  O3_11 
REMARK    4  A    between atoms: O3_11  and  C9_12 
REMARK    5  A    between atoms: C9_12  and  C10_14 
REMARK    6  A    between atoms: C12_16  and  O5_18 
REMARK    7  A    between atoms: C15_21  and  O6_22 
REMARK    8  A    between atoms: C18_26  and  O7_27 
REMARK    9  A    between atoms: N1_34  and  C23_35 
REMARK   10  A    between atoms: C23_35  and  C24_36 
REMARK   11  A    between atoms: C24_36  and  C25_37 
ROOT
HETATM    1  C5  UNL     1     -15.554   5.767   2.184  1.00  0.00     0.295 C 
HETATM    2  O2  UNL     1     -16.806   5.179   2.314  1.00  0.00    -0.351 OA
HETATM    3  C6  UNL     1     -16.838   3.998   2.989  1.00  0.00     0.151 C 
HETATM    4  C7  UNL     1     -18.237   3.408   2.802  1.00  0.00     0.042 C 
HETATM    5  C8  UNL     1     -15.874   2.954   2.459  1.00  0.00     0.170 C 
HETATM    6  C14 UNL     1     -14.501   3.624   2.566  1.00  0.00     0.086 C 
HETATM    7  C15 UNL     1     -13.423   2.834   1.917  1.00  0.00     0.128 C 
HETATM    8  C16 UNL     1     -12.421   3.888   1.506  1.00  0.00     0.035 C 
HETATM    9  C17 UNL     1     -13.182   5.219   1.549  1.00  0.00     0.046 C 
HETATM   10  C18 UNL     1     -14.614   4.806   1.565  1.00  0.00     0.116 C 
ENDROOT
BRANCH   1  11
HETATM   11  O1  UNL     1     -15.739   6.855   1.331  1.00  0.00    -0.348 OA
BRANCH  11  12
HETATM   12  C4  UNL     1     -16.997   7.254   1.169  1.00  0.00     0.160 C 
HETATM   13  C3  UNL     1     -17.231   8.657   1.575  1.00  0.00     0.003 C 
HETATM   14  C2  UNL     1     -16.377   9.616   1.755  1.00  0.00    -0.021 C 
HETATM   15  C22 UNL     1     -18.704   9.016   1.736  1.00  0.00     0.392 C 
HETATM   16  C1  UNL     1     -14.913   9.490   1.579  1.00  0.00     0.036 C 
HETATM   17  O8  UNL     1     -19.043   9.974   0.770  1.00  0.00    -0.352 OA
HETATM   18  N1  UNL     1     -19.412   7.862   1.219  1.00  0.00     0.128 N 
HETATM   19  C21 UNL     1     -18.793   9.321  -0.457  1.00  0.00     0.207 C 
HETATM   20  C20 UNL     1     -18.953   7.843  -0.183  1.00  0.00     0.253 C 
HETATM   21  C19 UNL     1     -17.572   7.188  -0.252  1.00  0.00     0.074 C 
BRANCH  18  22
HETATM   22  C23 UNL     1     -20.810   8.142   1.227  1.00  0.00     0.277 C 
BRANCH  22  23
HETATM   23  C24 UNL     1     -21.605   6.889   1.489  1.00  0.00     0.030 C 
BRANCH  23  24
HETATM   24  C25 UNL     1     -20.809   5.887   2.301  1.00  0.00    -0.003 C 
HETATM   25  C26 UNL     1     -21.801   4.981   3.011  1.00  0.00     0.005 C 
ENDBRANCH  23  24
ENDBRANCH  22  23
ENDBRANCH  18  22
ENDBRANCH  11  12
ENDBRANCH   1  11
BRANCH  10  26
HETATM   26  O7  UNL     1     -15.062   4.239   0.380  1.00  0.00    -0.384 OA
ATOM     27  H7  UNL     1     -15.152   3.294   0.402  1.00  0.00     0.210 HD
ENDBRANCH  10  26
BRANCH   5  28
HETATM   28  O3  UNL     1     -15.953   1.827   3.299  1.00  0.00    -0.312 OA
BRANCH  28  29
HETATM   29  C9  UNL     1     -15.940   0.517   2.862  1.00  0.00     0.266 C 
HETATM   30  O4  UNL     1     -14.937  -0.171   3.134  1.00  0.00    -0.265 OA
BRANCH  29  31
HETATM   31  C10 UNL     1     -17.105   0.003   2.104  1.00  0.00     0.122 A 
HETATM   32  C11 UNL     1     -17.518  -1.402   2.456  1.00  0.00     0.056 A 
HETATM   33  C12 UNL     1     -18.406  -0.226   2.777  1.00  0.00     0.068 A 
HETATM   34  C13 UNL     1     -18.580   0.063   4.245  1.00  0.00     0.047 C 
BRANCH  33  35
HETATM   35  O5  UNL     1     -19.566  -0.127   2.007  1.00  0.00    -0.389 OA
ATOM     36  H5  UNL     1     -20.262  -0.753   2.171  1.00  0.00     0.210 HD
ENDBRANCH  33  35
ENDBRANCH  29  31
ENDBRANCH  28  29
ENDBRANCH   5  28
BRANCH   7  37
HETATM   37  O6  UNL     1     -12.858   1.879   2.761  1.00  0.00    -0.395 OA
ATOM     38  H6  UNL     1     -12.052   2.172   3.172  1.00  0.00     0.210 HD
ENDBRANCH   7  37
TORSDOF 11
ENDMDL
