MODEL 1
REMARK VINA RESULT: -8.840377096      0.000      0.000
REMARK  9 active torsions:
REMARK  status: ('A' for Active; 'I' for Inactive)
REMARK    1  A    between atoms: O1_2  and  C2_3 
REMARK    2  A    between atoms: C7_11  and  N2_12 
REMARK    3  A    between atoms: C8_15  and  N3_16 
REMARK    4  A    between atoms: N3_16  and  N4_18 
REMARK    5  A    between atoms: C9_20  and  C11_22 
REMARK    6  A    between atoms: N5_24  and  C12_25 
REMARK    7  A    between atoms: C12_25  and  C13_26 
REMARK    8  A    between atoms: C13_26  and  O2_27 
REMARK    9  A    between atoms: C13_26  and  C14_29 
ROOT
HETATM    1  C2  UNL     1       0.520   5.243   8.083  1.00  0.00     0.097 A 
HETATM    2  C3  UNL     1       1.524   5.910   7.399  1.00  0.00     0.041 A 
HETATM    3  C4  UNL     1       2.609   5.259   6.863  1.00  0.00     0.029 A 
HETATM    4  C5  UNL     1       2.668   3.898   7.033  1.00  0.00     0.063 A 
HETATM    5 CL1  UNL     1       4.024   2.973   6.381  1.00  0.00    -0.082 Cl
HETATM    6  C6  UNL     1       1.691   3.178   7.708  1.00  0.00     0.086 A 
HETATM    7  N1  UNL     1       1.832   1.852   7.851  1.00  0.00    -0.336 N 
ATOM      8  H1  UNL     1       2.641   1.378   7.450  1.00  0.00     0.168 HD
HETATM    9  C7  UNL     1       0.905   1.152   8.521  1.00  0.00     0.146 A 
HETATM   10  C8  UNL     1      -0.166   1.787   9.046  1.00  0.00     0.167 A 
HETATM   11  N5  UNL     1      -0.323   3.146   8.906  1.00  0.00    -0.322 N 
HETATM   12  C20 UNL     1       0.584   3.886   8.245  1.00  0.00     0.098 A 
ENDROOT
BRANCH  11  13
HETATM   13  C12 UNL     1      -1.492   3.710   9.501  1.00  0.00     0.167 C 
BRANCH  13  14
HETATM   14  C13 UNL     1      -2.730   3.664   8.623  1.00  0.00     0.169 C 
BRANCH  14  15
HETATM   15  O2  UNL     1      -2.582   3.979   7.317  1.00  0.00    -0.389 OA
ATOM     16  H2  UNL     1      -3.073   3.468   6.684  1.00  0.00     0.210 HD
ENDBRANCH  14  15
BRANCH  14  17
HETATM   17  C14 UNL     1      -3.710   4.629   9.255  1.00  0.00    -0.026 A 
HETATM   18  C15 UNL     1      -4.181   5.731   8.584  1.00  0.00     0.010 A 
HETATM   19  C16 UNL     1      -5.083   6.617   9.182  1.00  0.00     0.002 A 
HETATM   20  C17 UNL     1      -5.518   6.397  10.470  1.00  0.00     0.024 A 
HETATM   21  C18 UNL     1      -5.056   5.306  11.141  1.00  0.00     0.034 A 
HETATM   22 CL3  UNL     1      -5.645   5.072  12.784  1.00  0.00    -0.084 Cl
HETATM   23  C19 UNL     1      -4.179   4.454  10.546  1.00  0.00     0.033 A 
ENDBRANCH  14  17
ENDBRANCH  13  14
ENDBRANCH  11  13
BRANCH  10  24
HETATM   24  N3  UNL     1      -1.057   1.149   9.689  1.00  0.00    -0.282 N 
ATOM     25  H3  UNL     1      -1.961   1.023   9.234  1.00  0.00     0.188 HD
BRANCH  24  26
HETATM   26  N4  UNL     1      -0.907   0.612  10.945  1.00  0.00    -0.306 N 
HETATM   27  C9  UNL     1      -1.621   0.795  11.979  1.00  0.00     0.013 C 
HETATM   28  C10 UNL     1      -1.205   0.064  13.227  1.00  0.00     0.066 C 
ATOM     29  H4  UNL     1      -0.115  -0.019  11.064  1.00  0.00     0.186 HD
BRANCH  27  30
HETATM   30  C11 UNL     1      -2.821   1.649  12.095  1.00  0.00     0.168 C 
HETATM   31 CL2  UNL     1      -2.791   2.642  13.567  1.00  0.00    -0.124 Cl
ENDBRANCH  27  30
ENDBRANCH  24  26
ENDBRANCH  10  24
BRANCH   9  32
HETATM   32  N2  UNL     1       1.054  -0.150   8.657  1.00  0.00    -0.382 N 
ATOM     33  H22 UNL     1       1.898  -0.618   8.327  1.00  0.00     0.157 HD
ATOM     34  H21 UNL     1       0.313  -0.693   9.099  1.00  0.00     0.157 HD
ENDBRANCH   9  32
BRANCH   1  35
HETATM   35  O1  UNL     1      -0.534   5.957   8.599  1.00  0.00    -0.354 OA
HETATM   36  C1  UNL     1      -0.963   7.183   8.026  1.00  0.00     0.210 C 
ENDBRANCH   1  35
TORSDOF 9
ENDMDL
MODEL 2
REMARK VINA RESULT: -8.639979803      1.002      1.319
REMARK  9 active torsions:
REMARK  status: ('A' for Active; 'I' for Inactive)
REMARK    1  A    between atoms: O1_2  and  C2_3 
REMARK    2  A    between atoms: C7_11  and  N2_12 
REMARK    3  A    between atoms: C8_15  and  N3_16 
REMARK    4  A    between atoms: N3_16  and  N4_18 
REMARK    5  A    between atoms: C9_20  and  C11_22 
REMARK    6  A    between atoms: N5_24  and  C12_25 
REMARK    7  A    between atoms: C12_25  and  C13_26 
REMARK    8  A    between atoms: C13_26  and  O2_27 
REMARK    9  A    between atoms: C13_26  and  C14_29 
ROOT
HETATM    1  C2  UNL     1       0.273   5.455   8.188  1.00  0.00     0.097 A 
HETATM    2  C3  UNL     1       1.248   6.134   7.475  1.00  0.00     0.041 A 
HETATM    3  C4  UNL     1       2.319   5.496   6.897  1.00  0.00     0.029 A 
HETATM    4  C5  UNL     1       2.394   4.134   7.053  1.00  0.00     0.063 A 
HETATM    5 CL1  UNL     1       3.733   3.224   6.349  1.00  0.00    -0.082 Cl
HETATM    6  C6  UNL     1       1.446   3.401   7.756  1.00  0.00     0.086 A 
HETATM    7  N1  UNL     1       1.601   2.075   7.884  1.00  0.00    -0.336 N 
ATOM      8  H1  UNL     1       2.400   1.610   7.452  1.00  0.00     0.168 HD
HETATM    9  C7  UNL     1       0.703   1.363   8.580  1.00  0.00     0.146 A 
HETATM   10  C8  UNL     1      -0.354   1.986   9.146  1.00  0.00     0.167 A 
HETATM   11  N5  UNL     1      -0.525   3.345   9.022  1.00  0.00    -0.322 N 
HETATM   12  C20 UNL     1       0.353   4.096   8.337  1.00  0.00     0.098 A 
ENDROOT
BRANCH  11  13
HETATM   13  C12 UNL     1      -1.677   3.896   9.662  1.00  0.00     0.167 C 
BRANCH  13  14
HETATM   14  C13 UNL     1      -2.948   3.832   8.832  1.00  0.00     0.169 C 
BRANCH  14  15
HETATM   15  O2  UNL     1      -2.856   4.158   7.523  1.00  0.00    -0.389 OA
ATOM     16  H2  UNL     1      -2.013   4.043   7.101  1.00  0.00     0.210 HD
ENDBRANCH  14  15
BRANCH  14  17
HETATM   17  C14 UNL     1      -3.919   4.776   9.509  1.00  0.00    -0.026 A 
HETATM   18  C15 UNL     1      -4.344   4.579  10.800  1.00  0.00     0.010 A 
HETATM   19  C16 UNL     1      -5.245   5.457  11.411  1.00  0.00     0.002 A 
HETATM   20  C17 UNL     1      -5.726   6.547  10.721  1.00  0.00     0.024 A 
HETATM   21  C18 UNL     1      -5.307   6.750   9.441  1.00  0.00     0.034 A 
HETATM   22 CL3  UNL     1      -5.953   8.158   8.605  1.00  0.00    -0.084 Cl
HETATM   23  C19 UNL     1      -4.432   5.886   8.860  1.00  0.00     0.033 A 
ENDBRANCH  14  17
ENDBRANCH  13  14
ENDBRANCH  11  13
BRANCH  10  24
HETATM   24  N3  UNL     1      -1.217   1.336   9.815  1.00  0.00    -0.282 N 
ATOM     25  H3  UNL     1      -2.142   1.224   9.398  1.00  0.00     0.188 HD
BRANCH  24  26
HETATM   26  N4  UNL     1      -1.013   0.770  11.050  1.00  0.00    -0.306 N 
HETATM   27  C9  UNL     1      -1.702   0.899  12.108  1.00  0.00     0.013 C 
HETATM   28  C10 UNL     1      -1.225   0.147  13.322  1.00  0.00     0.066 C 
ATOM     29  H4  UNL     1      -0.196   0.164  11.127  1.00  0.00     0.186 HD
BRANCH  27  30
HETATM   30  C11 UNL     1      -2.927   1.706  12.282  1.00  0.00     0.168 C 
HETATM   31 CL2  UNL     1      -2.843   2.739  13.725  1.00  0.00    -0.124 Cl
ENDBRANCH  27  30
ENDBRANCH  24  26
ENDBRANCH  10  24
BRANCH   9  32
HETATM   32  N2  UNL     1       0.867   0.062   8.700  1.00  0.00    -0.382 N 
ATOM     33  H22 UNL     1       1.392  -0.331   9.482  1.00  0.00     0.157 HD
ATOM     34  H21 UNL     1       0.461  -0.559   8.000  1.00  0.00     0.157 HD
ENDBRANCH   9  32
BRANCH   1  35
HETATM   35  O1  UNL     1      -0.768   6.156   8.744  1.00  0.00    -0.354 OA
HETATM   36  C1  UNL     1      -1.294   7.327   8.138  1.00  0.00     0.210 C 
ENDBRANCH   1  35
TORSDOF 9
ENDMDL
MODEL 3
REMARK VINA RESULT: -8.609422383      1.938      2.661
REMARK  9 active torsions:
REMARK  status: ('A' for Active; 'I' for Inactive)
REMARK    1  A    between atoms: O1_2  and  C2_3 
REMARK    2  A    between atoms: C7_11  and  N2_12 
REMARK    3  A    between atoms: C8_15  and  N3_16 
REMARK    4  A    between atoms: N3_16  and  N4_18 
REMARK    5  A    between atoms: C9_20  and  C11_22 
REMARK    6  A    between atoms: N5_24  and  C12_25 
REMARK    7  A    between atoms: C12_25  and  C13_26 
REMARK    8  A    between atoms: C13_26  and  O2_27 
REMARK    9  A    between atoms: C13_26  and  C14_29 
ROOT
HETATM    1  C2  UNL     1       0.128   3.870   8.421  1.00  0.00     0.097 A 
HETATM    2  C3  UNL     1       1.338   3.697   7.767  1.00  0.00     0.041 A 
HETATM    3  C4  UNL     1       1.951   2.472   7.662  1.00  0.00     0.029 A 
HETATM    4  C5  UNL     1       1.315   1.402   8.240  1.00  0.00     0.063 A 
HETATM    5 CL1  UNL     1       2.026  -0.213   8.160  1.00  0.00    -0.082 Cl
HETATM    6  C6  UNL     1       0.102   1.516   8.908  1.00  0.00     0.086 A 
HETATM    7  N1  UNL     1      -0.446   0.426   9.466  1.00  0.00    -0.336 N 
ATOM      8  H1  UNL     1       0.018  -0.479   9.384  1.00  0.00     0.168 HD
HETATM    9  C7  UNL     1      -1.605   0.530  10.133  1.00  0.00     0.146 A 
HETATM   10  C8  UNL     1      -2.214   1.733  10.235  1.00  0.00     0.167 A 
HETATM   11  N5  UNL     1      -1.664   2.857   9.666  1.00  0.00    -0.322 N 
HETATM   12  C20 UNL     1      -0.502   2.797   8.993  1.00  0.00     0.098 A 
ENDROOT
BRANCH  11  13
HETATM   13  C12 UNL     1      -2.393   4.072   9.837  1.00  0.00     0.167 C 
BRANCH  13  14
HETATM   14  C13 UNL     1      -3.567   4.240   8.887  1.00  0.00     0.169 C 
BRANCH  14  15
HETATM   15  O2  UNL     1      -3.291   4.588   7.610  1.00  0.00    -0.389 OA
ATOM     16  H2  UNL     1      -3.229   5.515   7.411  1.00  0.00     0.210 HD
ENDBRANCH  14  15
BRANCH  14  17
HETATM   17  C14 UNL     1      -4.441   5.306   9.511  1.00  0.00    -0.026 A 
HETATM   18  C15 UNL     1      -4.824   5.253  10.829  1.00  0.00     0.010 A 
HETATM   19  C16 UNL     1      -5.636   6.243  11.391  1.00  0.00     0.002 A 
HETATM   20  C17 UNL     1      -6.071   7.300  10.624  1.00  0.00     0.024 A 
HETATM   21  C18 UNL     1      -5.694   7.361   9.317  1.00  0.00     0.034 A 
HETATM   22 CL3  UNL     1      -6.278   8.734   8.382  1.00  0.00    -0.084 Cl
HETATM   23  C19 UNL     1      -4.904   6.390   8.784  1.00  0.00     0.033 A 
ENDBRANCH  14  17
ENDBRANCH  13  14
ENDBRANCH  11  13
BRANCH  10  24
HETATM   24  N3  UNL     1      -3.311   1.860  10.864  1.00  0.00    -0.282 N 
ATOM     25  H3  UNL     1      -4.130   1.395  10.472  1.00  0.00     0.188 HD
BRANCH  24  26
HETATM   26  N4  UNL     1      -3.489   2.571  12.027  1.00  0.00    -0.306 N 
HETATM   27  C9  UNL     1      -3.126   2.270  13.205  1.00  0.00     0.013 C 
HETATM   28  C10 UNL     1      -3.465   3.257  14.290  1.00  0.00     0.066 C 
ATOM     29  H4  UNL     1      -3.979   3.460  11.930  1.00  0.00     0.186 HD
BRANCH  27  30
HETATM   30  C11 UNL     1      -2.402   1.055  13.634  1.00  0.00     0.168 C 
HETATM   31 CL2  UNL     1      -0.651   1.330  13.752  1.00  0.00    -0.124 Cl
ENDBRANCH  27  30
ENDBRANCH  24  26
ENDBRANCH  10  24
BRANCH   9  32
HETATM   32  N2  UNL     1      -2.133  -0.545  10.679  1.00  0.00    -0.382 N 
ATOM     33  H22 UNL     1      -2.811  -0.470  11.438  1.00  0.00     0.157 HD
ATOM     34  H21 UNL     1      -1.858  -1.465  10.335  1.00  0.00     0.157 HD
ENDBRANCH   9  32
BRANCH   1  35
HETATM   35  O1  UNL     1      -0.426   5.123   8.494  1.00  0.00    -0.354 OA
HETATM   36  C1  UNL     1       0.305   6.290   8.149  1.00  0.00     0.210 C 
ENDBRANCH   1  35
TORSDOF 9
ENDMDL
MODEL 4
REMARK VINA RESULT: -8.608791207      2.614      6.796
REMARK  9 active torsions:
REMARK  status: ('A' for Active; 'I' for Inactive)
REMARK    1  A    between atoms: O1_2  and  C2_3 
REMARK    2  A    between atoms: C7_11  and  N2_12 
REMARK    3  A    between atoms: C8_15  and  N3_16 
REMARK    4  A    between atoms: N3_16  and  N4_18 
REMARK    5  A    between atoms: C9_20  and  C11_22 
REMARK    6  A    between atoms: N5_24  and  C12_25 
REMARK    7  A    between atoms: C12_25  and  C13_26 
REMARK    8  A    between atoms: C13_26  and  O2_27 
REMARK    9  A    between atoms: C13_26  and  C14_29 
ROOT
HETATM    1  C2  UNL     1      -4.174   4.092  12.117  1.00  0.00     0.097 A 
HETATM    2  C3  UNL     1      -5.120   5.000  12.567  1.00  0.00     0.041 A 
HETATM    3  C4  UNL     1      -5.685   5.945  11.745  1.00  0.00     0.029 A 
HETATM    4  C5  UNL     1      -5.272   5.963  10.436  1.00  0.00     0.063 A 
HETATM    5 CL1  UNL     1      -5.939   7.142   9.303  1.00  0.00    -0.082 Cl
HETATM    6  C6  UNL     1      -4.328   5.078   9.930  1.00  0.00     0.086 A 
HETATM    7  N1  UNL     1      -3.961   5.174   8.643  1.00  0.00    -0.336 N 
ATOM      8  H1  UNL     1      -4.385   5.880   8.041  1.00  0.00     0.168 HD
HETATM    9  C7  UNL     1      -3.034   4.339   8.152  1.00  0.00     0.146 A 
HETATM   10  C8  UNL     1      -2.478   3.405   8.955  1.00  0.00     0.167 A 
HETATM   11  N5  UNL     1      -2.848   3.295  10.275  1.00  0.00    -0.322 N 
HETATM   12  C20 UNL     1      -3.769   4.114  10.809  1.00  0.00     0.098 A 
ENDROOT
BRANCH  11  13
HETATM   13  C12 UNL     1      -2.195   2.274  11.029  1.00  0.00     0.167 C 
BRANCH  13  14
HETATM   14  C13 UNL     1      -2.805   0.891  10.874  1.00  0.00     0.169 C 
BRANCH  14  15
HETATM   15  O2  UNL     1      -4.025   0.682  11.418  1.00  0.00    -0.389 OA
ATOM     16  H2  UNL     1      -4.121   0.832  12.351  1.00  0.00     0.210 HD
ENDBRANCH  14  15
BRANCH  14  17
HETATM   17  C14 UNL     1      -1.813  -0.061  11.507  1.00  0.00    -0.026 A 
HETATM   18  C15 UNL     1      -1.290  -1.129  10.819  1.00  0.00     0.010 A 
HETATM   19  C16 UNL     1      -0.377  -2.003  11.417  1.00  0.00     0.002 A 
HETATM   20  C17 UNL     1       0.019  -1.805  12.721  1.00  0.00     0.024 A 
HETATM   21  C18 UNL     1      -0.494  -0.747  13.409  1.00  0.00     0.034 A 
HETATM   22 CL3  UNL     1       0.045  -0.540  15.072  1.00  0.00    -0.084 Cl
HETATM   23  C19 UNL     1      -1.382   0.093  12.813  1.00  0.00     0.033 A 
ENDBRANCH  14  17
ENDBRANCH  13  14
ENDBRANCH  11  13
BRANCH  10  24
HETATM   24  N3  UNL     1      -1.595   2.604   8.516  1.00  0.00    -0.282 N 
ATOM     25  H3  UNL     1      -1.864   1.626   8.410  1.00  0.00     0.188 HD
BRANCH  24  26
HETATM   26  N4  UNL     1      -0.308   2.942   8.171  1.00  0.00    -0.306 N 
HETATM   27  C9  UNL     1       0.728   2.210   8.152  1.00  0.00     0.013 C 
HETATM   28  C10 UNL     1       2.014   2.868   7.725  1.00  0.00     0.066 C 
ATOM     29  H4  UNL     1      -0.167   3.913   7.893  1.00  0.00     0.186 HD
BRANCH  27  30
HETATM   30  C11 UNL     1       0.816   0.777   8.501  1.00  0.00     0.168 C 
HETATM   31 CL2  UNL     1       2.429   0.110   8.173  1.00  0.00    -0.124 Cl
ENDBRANCH  27  30
ENDBRANCH  24  26
ENDBRANCH  10  24
BRANCH   9  32
HETATM   32  N2  UNL     1      -2.678   4.444   6.888  1.00  0.00    -0.382 N 
ATOM     33  H22 UNL     1      -2.797   5.320   6.380  1.00  0.00     0.157 HD
ATOM     34  H21 UNL     1      -2.278   3.634   6.414  1.00  0.00     0.157 HD
ENDBRANCH   9  32
BRANCH   1  35
HETATM   35  O1  UNL     1      -3.646   3.178  12.994  1.00  0.00    -0.354 OA
HETATM   36  C1  UNL     1      -3.481   3.467  14.373  1.00  0.00     0.210 C 
ENDBRANCH   1  35
TORSDOF 9
ENDMDL
MODEL 5
REMARK VINA RESULT: -8.301986176      3.482      5.949
REMARK  9 active torsions:
REMARK  status: ('A' for Active; 'I' for Inactive)
REMARK    1  A    between atoms: O1_2  and  C2_3 
REMARK    2  A    between atoms: C7_11  and  N2_12 
REMARK    3  A    between atoms: C8_15  and  N3_16 
REMARK    4  A    between atoms: N3_16  and  N4_18 
REMARK    5  A    between atoms: C9_20  and  C11_22 
REMARK    6  A    between atoms: N5_24  and  C12_25 
REMARK    7  A    between atoms: C12_25  and  C13_26 
REMARK    8  A    between atoms: C13_26  and  O2_27 
REMARK    9  A    between atoms: C13_26  and  C14_29 
ROOT
HETATM    1  C2  UNL     1       1.391   6.766   5.629  1.00  0.00     0.097 A 
HETATM    2  C3  UNL     1       2.347   7.595   5.064  1.00  0.00     0.041 A 
HETATM    3  C4  UNL     1       2.069   8.883   4.674  1.00  0.00     0.029 A 
HETATM    4  C5  UNL     1       0.785   9.331   4.866  1.00  0.00     0.063 A 
HETATM    5 CL1  UNL     1       0.330  10.971   4.397  1.00  0.00    -0.082 Cl
HETATM    6  C6  UNL     1      -0.213   8.545   5.429  1.00  0.00     0.086 A 
HETATM    7  N1  UNL     1      -1.449   9.048   5.563  1.00  0.00    -0.336 N 
ATOM      8  H1  UNL     1      -1.646  10.005   5.270  1.00  0.00     0.168 HD
HETATM    9  C7  UNL     1      -2.424   8.289   6.084  1.00  0.00     0.146 A 
HETATM   10  C8  UNL     1      -2.154   7.023   6.473  1.00  0.00     0.167 A 
HETATM   11  N5  UNL     1      -0.890   6.496   6.341  1.00  0.00    -0.322 N 
HETATM   12  C20 UNL     1       0.114   7.221   5.821  1.00  0.00     0.098 A 
ENDROOT
BRANCH  11  13
HETATM   13  C12 UNL     1      -0.720   5.149   6.784  1.00  0.00     0.167 C 
BRANCH  13  14
HETATM   14  C13 UNL     1      -0.479   5.003   8.277  1.00  0.00     0.169 C 
BRANCH  14  15
HETATM   15  O2  UNL     1       0.571   5.668   8.807  1.00  0.00    -0.389 OA
ATOM     16  H2  UNL     1       0.492   5.970   9.705  1.00  0.00     0.210 HD
ENDBRANCH  14  15
BRANCH  14  17
HETATM   17  C14 UNL     1      -0.294   3.519   8.512  1.00  0.00    -0.026 A 
HETATM   18  C15 UNL     1       0.781   2.831   8.004  1.00  0.00     0.010 A 
HETATM   19  C16 UNL     1       0.937   1.459   8.226  1.00  0.00     0.002 A 
HETATM   20  C17 UNL     1       0.005   0.767   8.967  1.00  0.00     0.024 A 
HETATM   21  C18 UNL     1      -1.062   1.443   9.474  1.00  0.00     0.034 A 
HETATM   22 CL3  UNL     1      -2.224   0.510  10.413  1.00  0.00    -0.084 Cl
HETATM   23  C19 UNL     1      -1.200   2.778   9.249  1.00  0.00     0.033 A 
ENDBRANCH  14  17
ENDBRANCH  13  14
ENDBRANCH  11  13
BRANCH  10  24
HETATM   24  N3  UNL     1      -3.060   6.281   6.966  1.00  0.00    -0.282 N 
ATOM     25  H3  UNL     1      -3.271   5.413   6.473  1.00  0.00     0.188 HD
BRANCH  24  26
HETATM   26  N4  UNL     1      -3.779   6.547   8.106  1.00  0.00    -0.306 N 
HETATM   27  C9  UNL     1      -4.239   5.733   8.964  1.00  0.00     0.013 C 
HETATM   28  C10 UNL     1      -4.997   6.325  10.122  1.00  0.00     0.066 C 
ATOM     29  H4  UNL     1      -3.971   7.532   8.287  1.00  0.00     0.186 HD
BRANCH  27  30
HETATM   30  C11 UNL     1      -4.111   4.261   8.955  1.00  0.00     0.168 C 
HETATM   31 CL2  UNL     1      -4.374   3.560  10.567  1.00  0.00    -0.124 Cl
ENDBRANCH  27  30
ENDBRANCH  24  26
ENDBRANCH  10  24
BRANCH   9  32
HETATM   32  N2  UNL     1      -3.634   8.793   6.210  1.00  0.00    -0.382 N 
ATOM     33  H22 UNL     1      -3.796   9.797   6.128  1.00  0.00     0.157 HD
ATOM     34  H21 UNL     1      -4.418   8.166   6.391  1.00  0.00     0.157 HD
ENDBRANCH   9  32
BRANCH   1  35
HETATM   35  O1  UNL     1       1.736   5.487   5.990  1.00  0.00    -0.354 OA
HETATM   36  C1  UNL     1       3.077   5.124   6.283  1.00  0.00     0.210 C 
ENDBRANCH   1  35
TORSDOF 9
ENDMDL
