MODEL 1
REMARK VINA RESULT: -7.074082319      0.000      0.000
REMARK  7 active torsions:
REMARK  status: ('A' for Active; 'I' for Inactive)
REMARK    1  A    between atoms: C2_2  and  N1_3 
REMARK    2  A    between atoms: C8_11  and  C9_12 
REMARK    3  A    between atoms: C9_12  and  C10_13 
REMARK    4  A    between atoms: C10_13  and  O2_14 
REMARK    5  A    between atoms: C12_17  and  N2_18 
REMARK    6  A    between atoms: N2_18  and  N3_20 
REMARK    7  A    between atoms: N3_20  and  N4_21 
ROOT
HETATM    1  C9  UNL     1     -28.638 -11.106  54.941  1.00  0.00     0.107 C 
ENDROOT
BRANCH   1   2
HETATM    2  C8  UNL     1     -27.612 -10.700  53.952  1.00  0.00    -0.048 A 
HETATM    3  C7  UNL     1     -28.057 -10.369  52.686  1.00  0.00     0.052 A 
HETATM    4  C6  UNL     1     -27.151  -9.985  51.718  1.00  0.00     0.153 A 
HETATM    5  C5  UNL     1     -25.806  -9.926  51.993  1.00  0.00     0.141 A 
HETATM    6  F1  UNL     1     -27.542  -9.649  50.457  1.00  0.00    -0.203 F 
HETATM    7  O1  UNL     1     -25.158  -9.513  50.839  1.00  0.00    -0.340 OA
HETATM    8  C15 UNL     1     -25.379 -10.264  53.272  1.00  0.00     0.113 A 
HETATM    9  C4  UNL     1     -23.980  -8.829  50.465  1.00  0.00     0.221 C 
HETATM   10  C3  UNL     1     -23.155  -8.402  51.673  1.00  0.00     0.096 C 
HETATM   11  N1  UNL     1     -22.561  -9.472  52.356  1.00  0.00    -0.329 N 
HETATM   12  C16 UNL     1     -22.883  -9.693  53.693  1.00  0.00     0.240 C 
HETATM   13  O3  UNL     1     -24.133 -10.314  53.876  1.00  0.00    -0.303 OA
HETATM   14  C14 UNL     1     -26.289 -10.646  54.234  1.00  0.00     0.047 A 
BRANCH  11  15
HETATM   15  C2  UNL     1     -21.709 -10.335  51.680  1.00  0.00     0.066 C 
HETATM   16  C1  UNL     1     -20.296 -10.319  52.242  1.00  0.00     0.055 C 
ENDBRANCH  11  15
ENDBRANCH   1   2
BRANCH   1  17
HETATM   17  C10 UNL     1     -28.526 -10.392  56.254  1.00  0.00     0.230 C 
HETATM   18  C11 UNL     1     -27.553 -11.185  57.133  1.00  0.00     0.098 C 
HETATM   19  C12 UNL     1     -27.004 -10.099  58.060  1.00  0.00     0.144 C 
HETATM   20  C13 UNL     1     -27.049  -8.849  57.205  1.00  0.00     0.263 C 
HETATM   21  N5  UNL     1     -27.871  -9.142  56.059  1.00  0.00    -0.041 N 
ATOM     22  H52 UNL     1     -27.342  -9.115  55.188  1.00  0.00     0.280 HD
ATOM     23  H51 UNL     1     -28.528  -8.390  55.853  1.00  0.00     0.280 HD
BRANCH  17  24
HETATM   24  O2  UNL     1     -29.711 -10.345  56.956  1.00  0.00    -0.365 OA
ATOM     25  H2  UNL     1     -29.634  -9.915  57.799  1.00  0.00     0.212 HD
ENDBRANCH  17  24
BRANCH  19  26
HETATM   26  N2  UNL     1     -25.676 -10.455  58.456  1.00  0.00    -0.246 N 
ATOM     27  H2  UNL     1     -25.452 -10.505  59.450  1.00  0.00     0.197 HD
BRANCH  26  28
HETATM   28  N3  UNL     1     -24.799 -10.701  57.635  1.00  0.00    -0.248 NA
BRANCH  28  29
HETATM   29  N4  UNL     1     -23.882 -11.088  56.899  1.00  0.00    -0.261 N 
ATOM     30  H42 UNL     1     -23.389 -10.247  57.197  1.00  0.00     0.193 HD
ATOM     31  H41 UNL     1     -23.209 -11.517  56.263  1.00  0.00     0.193 HD
ENDBRANCH  28  29
ENDBRANCH  26  28
ENDBRANCH  19  26
ENDBRANCH   1  17
TORSDOF 7
ENDMDL
MODEL 2
REMARK VINA RESULT: -6.953797668      0.955      1.061
REMARK  7 active torsions:
REMARK  status: ('A' for Active; 'I' for Inactive)
REMARK    1  A    between atoms: C2_2  and  N1_3 
REMARK    2  A    between atoms: C8_11  and  C9_12 
REMARK    3  A    between atoms: C9_12  and  C10_13 
REMARK    4  A    between atoms: C10_13  and  O2_14 
REMARK    5  A    between atoms: C12_17  and  N2_18 
REMARK    6  A    between atoms: N2_18  and  N3_20 
REMARK    7  A    between atoms: N3_20  and  N4_21 
ROOT
HETATM    1  C9  UNL     1     -28.089 -11.105  55.268  1.00  0.00     0.107 C 
ENDROOT
BRANCH   1   2
HETATM    2  C8  UNL     1     -27.221 -10.705  54.136  1.00  0.00    -0.048 A 
HETATM    3  C7  UNL     1     -27.831 -10.527  52.909  1.00  0.00     0.052 A 
HETATM    4  C6  UNL     1     -27.077 -10.156  51.814  1.00  0.00     0.153 A 
HETATM    5  C5  UNL     1     -25.722  -9.960  51.923  1.00  0.00     0.141 A 
HETATM    6  F1  UNL     1     -27.634  -9.968  50.585  1.00  0.00    -0.203 F 
HETATM    7  O1  UNL     1     -25.246  -9.599  50.672  1.00  0.00    -0.340 OA
HETATM    8  C15 UNL     1     -25.127 -10.145  53.165  1.00  0.00     0.113 A 
HETATM    9  C4  UNL     1     -24.186  -8.855  50.108  1.00  0.00     0.221 C 
HETATM   10  C3  UNL     1     -23.276  -8.254  51.173  1.00  0.00     0.096 C 
HETATM   11  N1  UNL     1     -22.514  -9.205  51.864  1.00  0.00    -0.329 N 
HETATM   12  C16 UNL     1     -22.664  -9.332  53.243  1.00  0.00     0.240 C 
HETATM   13  O3  UNL     1     -23.823 -10.036  53.621  1.00  0.00    -0.303 OA
HETATM   14  C14 UNL     1     -25.886 -10.515  54.255  1.00  0.00     0.047 A 
BRANCH  11  15
HETATM   15  C2  UNL     1     -21.664 -10.051  51.163  1.00  0.00     0.066 C 
HETATM   16  C1  UNL     1     -20.378 -10.344  51.919  1.00  0.00     0.055 C 
ENDBRANCH  11  15
ENDBRANCH   1   2
BRANCH   1  17
HETATM   17  C10 UNL     1     -28.071 -10.139  56.414  1.00  0.00     0.230 C 
HETATM   18  C11 UNL     1     -27.083 -10.673  57.457  1.00  0.00     0.098 C 
HETATM   19  C12 UNL     1     -26.638  -9.389  58.160  1.00  0.00     0.144 C 
HETATM   20  C13 UNL     1     -26.730  -8.339  57.071  1.00  0.00     0.263 C 
HETATM   21  N5  UNL     1     -27.489  -8.910  55.987  1.00  0.00    -0.041 N 
ATOM     22  H52 UNL     1     -26.930  -9.021  55.141  1.00  0.00     0.280 HD
ATOM     23  H51 UNL     1     -28.184  -8.261  55.619  1.00  0.00     0.280 HD
BRANCH  17  24
HETATM   24  O2  UNL     1     -29.282 -10.035  57.063  1.00  0.00    -0.365 OA
ATOM     25  H2  UNL     1     -29.428  -9.183  57.457  1.00  0.00     0.212 HD
ENDBRANCH  17  24
BRANCH  19  26
HETATM   26  N2  UNL     1     -25.306  -9.567  58.650  1.00  0.00    -0.246 N 
ATOM     27  H2  UNL     1     -24.995 -10.503  58.909  1.00  0.00     0.197 HD
BRANCH  26  28
HETATM   28  N3  UNL     1     -24.528  -8.627  58.768  1.00  0.00    -0.248 NA
BRANCH  28  29
HETATM   29  N4  UNL     1     -23.738  -7.717  59.052  1.00  0.00    -0.261 N 
ATOM     30  H42 UNL     1     -23.856  -7.415  58.085  1.00  0.00     0.193 HD
ATOM     31  H41 UNL     1     -23.084  -7.023  59.415  1.00  0.00     0.193 HD
ENDBRANCH  28  29
ENDBRANCH  26  28
ENDBRANCH  19  26
ENDBRANCH   1  17
TORSDOF 7
ENDMDL
MODEL 3
REMARK VINA RESULT: -6.906372261      1.771      5.741
REMARK  7 active torsions:
REMARK  status: ('A' for Active; 'I' for Inactive)
REMARK    1  A    between atoms: C2_2  and  N1_3 
REMARK    2  A    between atoms: C8_11  and  C9_12 
REMARK    3  A    between atoms: C9_12  and  C10_13 
REMARK    4  A    between atoms: C10_13  and  O2_14 
REMARK    5  A    between atoms: C12_17  and  N2_18 
REMARK    6  A    between atoms: N2_18  and  N3_20 
REMARK    7  A    between atoms: N3_20  and  N4_21 
ROOT
HETATM    1  C9  UNL     1     -23.855  -9.748  50.268  1.00  0.00     0.107 C 
ENDROOT
BRANCH   1   2
HETATM    2  C8  UNL     1     -25.039  -9.878  51.148  1.00  0.00    -0.048 A 
HETATM    3  C7  UNL     1     -26.254  -9.474  50.630  1.00  0.00     0.052 A 
HETATM    4  C6  UNL     1     -27.395  -9.567  51.401  1.00  0.00     0.153 A 
HETATM    5  C5  UNL     1     -27.343 -10.056  52.684  1.00  0.00     0.141 A 
HETATM    6  F1  UNL     1     -28.615  -9.182  50.932  1.00  0.00    -0.203 F 
HETATM    7  O1  UNL     1     -28.631 -10.027  53.197  1.00  0.00    -0.340 OA
HETATM    8  C15 UNL     1     -26.111 -10.455  53.187  1.00  0.00     0.113 A 
HETATM    9  C4  UNL     1     -29.412 -10.713  54.153  1.00  0.00     0.221 C 
HETATM   10  C3  UNL     1     -28.632 -11.828  54.841  1.00  0.00     0.096 C 
HETATM   11  N1  UNL     1     -27.624 -11.363  55.696  1.00  0.00    -0.329 N 
HETATM   12  C16 UNL     1     -26.299 -11.716  55.447  1.00  0.00     0.240 C 
HETATM   13  O3  UNL     1     -25.707 -10.980  54.404  1.00  0.00    -0.303 OA
HETATM   14  C14 UNL     1     -24.976 -10.360  52.412  1.00  0.00     0.047 A 
BRANCH  11  15
HETATM   15  C2  UNL     1     -27.944 -10.510  56.743  1.00  0.00     0.066 C 
HETATM   16  C1  UNL     1     -27.262  -9.156  56.624  1.00  0.00     0.055 C 
ENDBRANCH  11  15
ENDBRANCH   1   2
BRANCH   1  17
HETATM   17  C10 UNL     1     -22.580  -9.473  51.007  1.00  0.00     0.230 C 
HETATM   18  C11 UNL     1     -22.934  -8.664  52.260  1.00  0.00     0.098 C 
HETATM   19  C12 UNL     1     -21.794  -9.034  53.211  1.00  0.00     0.144 C 
HETATM   20  C13 UNL     1     -21.434 -10.447  52.799  1.00  0.00     0.263 C 
HETATM   21  N5  UNL     1     -22.059 -10.694  51.524  1.00  0.00    -0.041 N 
ATOM     22  H52 UNL     1     -22.769 -11.425  51.578  1.00  0.00     0.280 HD
ATOM     23  H51 UNL     1     -21.428 -11.153  50.867  1.00  0.00     0.280 HD
BRANCH  17  24
HETATM   24  O2  UNL     1     -21.691  -8.695  50.298  1.00  0.00    -0.365 OA
ATOM     25  H2  UNL     1     -21.282  -9.152  49.573  1.00  0.00     0.212 HD
ENDBRANCH  17  24
BRANCH  19  26
HETATM   26  N2  UNL     1     -22.269  -8.952  54.558  1.00  0.00    -0.246 N 
ATOM     27  H2  UNL     1     -22.370  -8.034  54.992  1.00  0.00     0.197 HD
BRANCH  26  28
HETATM   28  N3  UNL     1     -22.558  -9.951  55.206  1.00  0.00    -0.248 NA
BRANCH  28  29
HETATM   29  N4  UNL     1     -22.891 -10.854  55.985  1.00  0.00    -0.261 N 
ATOM     30  H42 UNL     1     -22.953 -10.119  56.690  1.00  0.00     0.193 HD
ATOM     31  H41 UNL     1     -23.152 -11.684  56.518  1.00  0.00     0.193 HD
ENDBRANCH  28  29
ENDBRANCH  26  28
ENDBRANCH  19  26
ENDBRANCH   1  17
TORSDOF 7
ENDMDL
MODEL 4
REMARK VINA RESULT: -6.903294698      2.827      4.486
REMARK  7 active torsions:
REMARK  status: ('A' for Active; 'I' for Inactive)
REMARK    1  A    between atoms: C2_2  and  N1_3 
REMARK    2  A    between atoms: C8_11  and  C9_12 
REMARK    3  A    between atoms: C9_12  and  C10_13 
REMARK    4  A    between atoms: C10_13  and  O2_14 
REMARK    5  A    between atoms: C12_17  and  N2_18 
REMARK    6  A    between atoms: N2_18  and  N3_20 
REMARK    7  A    between atoms: N3_20  and  N4_21 
ROOT
HETATM    1  C9  UNL     1     -27.457 -10.556  57.161  1.00  0.00     0.107 C 
ENDROOT
BRANCH   1   2
HETATM    2  C8  UNL     1     -26.619 -10.386  55.950  1.00  0.00    -0.048 A 
HETATM    3  C7  UNL     1     -25.252 -10.513  56.110  1.00  0.00     0.052 A 
HETATM    4  C6  UNL     1     -24.417 -10.363  55.021  1.00  0.00     0.153 A 
HETATM    5  C5  UNL     1     -24.923 -10.087  53.775  1.00  0.00     0.141 A 
HETATM    6  F1  UNL     1     -23.064 -10.480  55.130  1.00  0.00    -0.203 F 
HETATM    7  O1  UNL     1     -23.854  -9.994  52.897  1.00  0.00    -0.340 OA
HETATM    8  C15 UNL     1     -26.300  -9.962  53.636  1.00  0.00     0.113 A 
HETATM    9  C4  UNL     1     -23.582 -10.186  51.524  1.00  0.00     0.221 C 
HETATM   10  C3  UNL     1     -24.818 -10.631  50.750  1.00  0.00     0.096 C 
HETATM   11  N1  UNL     1     -25.795  -9.634  50.628  1.00  0.00    -0.329 N 
HETATM   12  C16 UNL     1     -27.065  -9.852  51.159  1.00  0.00     0.240 C 
HETATM   13  O3  UNL     1     -27.126  -9.694  52.556  1.00  0.00    -0.303 OA
HETATM   14  C14 UNL     1     -27.129 -10.113  54.726  1.00  0.00     0.047 A 
BRANCH  11  15
HETATM   15  C2  UNL     1     -25.473  -8.420  50.037  1.00  0.00     0.066 C 
HETATM   16  C1  UNL     1     -26.701  -7.653  49.572  1.00  0.00     0.055 C 
ENDBRANCH  11  15
ENDBRANCH   1   2
BRANCH   1  17
HETATM   17  C10 UNL     1     -28.412 -11.708  57.076  1.00  0.00     0.230 C 
HETATM   18  C11 UNL     1     -29.661 -11.223  56.330  1.00  0.00     0.098 C 
HETATM   19  C12 UNL     1     -30.191 -12.521  55.719  1.00  0.00     0.144 C 
HETATM   20  C13 UNL     1     -28.938 -13.340  55.484  1.00  0.00     0.263 C 
HETATM   21  N5  UNL     1     -27.871 -12.711  56.220  1.00  0.00    -0.041 N 
ATOM     22  H52 UNL     1     -27.144 -12.343  55.606  1.00  0.00     0.280 HD
ATOM     23  H51 UNL     1     -27.302 -13.387  56.729  1.00  0.00     0.280 HD
BRANCH  17  24
HETATM   24  O2  UNL     1     -28.856 -12.146  58.304  1.00  0.00    -0.365 OA
ATOM     25  H2  UNL     1     -28.936 -11.451  58.947  1.00  0.00     0.212 HD
ENDBRANCH  17  24
BRANCH  19  26
HETATM   26  N2  UNL     1     -30.889 -12.213  54.509  1.00  0.00    -0.246 N 
ATOM     27  H2  UNL     1     -30.686 -12.753  53.669  1.00  0.00     0.197 HD
BRANCH  26  28
HETATM   28  N3  UNL     1     -31.724 -11.317  54.453  1.00  0.00    -0.248 NA
BRANCH  28  29
HETATM   29  N4  UNL     1     -32.678 -10.527  54.452  1.00  0.00    -0.261 N 
ATOM     30  H42 UNL     1     -32.996 -11.032  53.624  1.00  0.00     0.193 HD
ATOM     31  H41 UNL     1     -33.406  -9.821  54.564  1.00  0.00     0.193 HD
ENDBRANCH  28  29
ENDBRANCH  26  28
ENDBRANCH  19  26
ENDBRANCH   1  17
TORSDOF 7
ENDMDL
MODEL 5
REMARK VINA RESULT: -6.875615729      2.900      4.449
REMARK  7 active torsions:
REMARK  status: ('A' for Active; 'I' for Inactive)
REMARK    1  A    between atoms: C2_2  and  N1_3 
REMARK    2  A    between atoms: C8_11  and  C9_12 
REMARK    3  A    between atoms: C9_12  and  C10_13 
REMARK    4  A    between atoms: C10_13  and  O2_14 
REMARK    5  A    between atoms: C12_17  and  N2_18 
REMARK    6  A    between atoms: N2_18  and  N3_20 
REMARK    7  A    between atoms: N3_20  and  N4_21 
ROOT
HETATM    1  C9  UNL     1     -24.086 -10.448  57.193  1.00  0.00     0.107 C 
ENDROOT
BRANCH   1   2
HETATM    2  C8  UNL     1     -23.836 -10.158  55.762  1.00  0.00    -0.048 A 
HETATM    3  C7  UNL     1     -22.522  -9.958  55.382  1.00  0.00     0.052 A 
HETATM    4  C6  UNL     1     -22.222  -9.681  54.064  1.00  0.00     0.153 A 
HETATM    5  C5  UNL     1     -23.214  -9.601  53.116  1.00  0.00     0.141 A 
HETATM    6  F1  UNL     1     -20.943  -9.477  53.643  1.00  0.00    -0.203 F 
HETATM    7  O1  UNL     1     -22.612  -9.314  51.901  1.00  0.00    -0.340 OA
HETATM    8  C15 UNL     1     -24.528  -9.804  53.518  1.00  0.00     0.113 A 
HETATM    9  C4  UNL     1     -22.844  -9.516  50.522  1.00  0.00     0.221 C 
HETATM   10  C3  UNL     1     -24.139 -10.278  50.263  1.00  0.00     0.096 C 
HETATM   11  N1  UNL     1     -25.294  -9.541  50.560  1.00  0.00    -0.329 N 
HETATM   12  C16 UNL     1     -26.178 -10.016  51.527  1.00  0.00     0.240 C 
HETATM   13  O3  UNL     1     -25.740  -9.797  52.846  1.00  0.00    -0.303 OA
HETATM   14  C14 UNL     1     -24.821 -10.080  54.836  1.00  0.00     0.047 A 
BRANCH  11  15
HETATM   15  C2  UNL     1     -25.515  -8.321  49.935  1.00  0.00     0.066 C 
HETATM   16  C1  UNL     1     -26.991  -8.049  49.691  1.00  0.00     0.055 C 
ENDBRANCH  11  15
ENDBRANCH   1   2
BRANCH   1  17
HETATM   17  C10 UNL     1     -24.334  -9.223  58.022  1.00  0.00     0.230 C 
HETATM   18  C11 UNL     1     -25.840  -8.941  57.997  1.00  0.00     0.098 C 
HETATM   19  C12 UNL     1     -26.047  -8.200  59.319  1.00  0.00     0.144 C 
HETATM   20  C13 UNL     1     -24.987  -8.792  60.226  1.00  0.00     0.263 C 
HETATM   21  N5  UNL     1     -24.063  -9.515  59.390  1.00  0.00    -0.041 N 
ATOM     22  H52 UNL     1     -24.074 -10.517  59.581  1.00  0.00     0.280 HD
ATOM     23  H51 UNL     1     -23.092  -9.330  59.639  1.00  0.00     0.280 HD
BRANCH  17  24
HETATM   24  O2  UNL     1     -23.732  -8.090  57.521  1.00  0.00    -0.365 OA
ATOM     25  H2  UNL     1     -24.323  -7.351  57.440  1.00  0.00     0.212 HD
ENDBRANCH  17  24
BRANCH  19  26
HETATM   26  N2  UNL     1     -27.378  -8.446  59.785  1.00  0.00    -0.246 N 
ATOM     27  H2  UNL     1     -27.514  -9.039  60.604  1.00  0.00     0.197 HD
BRANCH  26  28
HETATM   28  N3  UNL     1     -28.358  -7.967  59.227  1.00  0.00    -0.248 NA
BRANCH  28  29
HETATM   29  N4  UNL     1     -29.263  -7.502  58.519  1.00  0.00    -0.261 N 
ATOM     30  H42 UNL     1     -28.530  -7.322  57.833  1.00  0.00     0.193 HD
ATOM     31  H41 UNL     1     -30.093  -7.153  58.042  1.00  0.00     0.193 HD
ENDBRANCH  28  29
ENDBRANCH  26  28
ENDBRANCH  19  26
ENDBRANCH   1  17
TORSDOF 7
ENDMDL
