MODEL 1
REMARK VINA RESULT: -7.917003695      0.000      0.000
REMARK  5 active torsions:
REMARK  status: ('A' for Active; 'I' for Inactive)
REMARK    1  A    between atoms: O1_2  and  C2_3 
REMARK    2  A    between atoms: N1_6  and  C5_7 
REMARK    3  A    between atoms: C7_10  and  N2_11 
REMARK    4  A    between atoms: C10_14  and  C11_15 
REMARK    5  A    between atoms: C11_15  and  N3_16 
ROOT
HETATM    1  C5  UNL     1     -23.231  -9.855  53.534  1.00  0.00     0.094 A 
HETATM    2  C6  UNL     1     -24.411  -9.581  52.849  1.00  0.00     0.171 A 
HETATM    3  F1  UNL     1     -25.530  -9.510  53.606  1.00  0.00    -0.201 F 
HETATM    4  C7  UNL     1     -24.439  -9.392  51.480  1.00  0.00     0.073 A 
HETATM    5  C14 UNL     1     -23.228  -9.488  50.795  1.00  0.00     0.060 A 
HETATM    6  C15 UNL     1     -22.038  -9.758  51.440  1.00  0.00     0.071 A 
HETATM    7  N4  UNL     1     -20.806  -9.851  50.713  1.00  0.00    -0.101 NA
HETATM    8  C16 UNL     1     -22.057  -9.939  52.810  1.00  0.00     0.098 A 
HETATM    9  C17 UNL     1     -20.818 -10.224  53.510  1.00  0.00     0.104 C 
HETATM   10  N5  UNL     1     -19.851 -10.460  54.078  1.00  0.00    -0.191 NA
ENDROOT
BRANCH   1  11
HETATM   11  N1  UNL     1     -23.209 -10.047  54.944  1.00  0.00    -0.374 N 
HETATM   12  C4  UNL     1     -23.659 -11.241  55.670  1.00  0.00     0.126 C 
HETATM   13  C3  UNL     1     -24.290 -10.756  56.936  1.00  0.00     0.053 C 
HETATM   14  C2  UNL     1     -23.804  -9.329  57.072  1.00  0.00     0.140 C 
HETATM   15  C18 UNL     1     -22.754  -9.143  55.987  1.00  0.00     0.155 C 
BRANCH  14  16
HETATM   16  O1  UNL     1     -23.274  -9.183  58.337  1.00  0.00    -0.389 OA
HETATM   17  C1  UNL     1     -21.948  -8.795  58.240  1.00  0.00     0.202 C 
ENDBRANCH  14  16
ENDBRANCH   1  11
BRANCH   4  18
HETATM   18  N2  UNL     1     -25.659  -9.112  50.801  1.00  0.00    -0.378 N 
HETATM   19  C8  UNL     1     -25.718  -7.913  49.995  1.00  0.00     0.123 C 
HETATM   20  C9  UNL     1     -26.856  -7.993  49.001  1.00  0.00     0.026 C 
HETATM   21  C10 UNL     1     -28.114  -8.246  49.840  1.00  0.00     0.014 C 
HETATM   22  C12 UNL     1     -28.041  -9.631  50.383  1.00  0.00     0.026 C 
HETATM   23  C13 UNL     1     -26.734 -10.036  50.962  1.00  0.00     0.123 C 
BRANCH  21  24
HETATM   24  C11 UNL     1     -29.284  -8.100  48.892  1.00  0.00     0.234 C 
BRANCH  24  25
HETATM   25  N3  UNL     1     -29.727  -9.352  48.362  1.00  0.00    -0.079 N 
ATOM     26  H33 UNL     1     -28.936  -9.963  48.159  1.00  0.00     0.274 HD
ATOM     27  H32 UNL     1     -30.188  -9.911  49.081  1.00  0.00     0.274 HD
ATOM     28  H31 UNL     1     -30.326  -9.244  47.544  1.00  0.00     0.274 HD
ENDBRANCH  24  25
ENDBRANCH  21  24
ENDBRANCH   4  18
TORSDOF 5
ENDMDL
MODEL 2
REMARK VINA RESULT: -7.399956461      2.983      6.762
REMARK  5 active torsions:
REMARK  status: ('A' for Active; 'I' for Inactive)
REMARK    1  A    between atoms: O1_2  and  C2_3 
REMARK    2  A    between atoms: N1_6  and  C5_7 
REMARK    3  A    between atoms: C7_10  and  N2_11 
REMARK    4  A    between atoms: C10_14  and  C11_15 
REMARK    5  A    between atoms: C11_15  and  N3_16 
ROOT
HETATM    1  C5  UNL     1     -26.179  -9.889  52.952  1.00  0.00     0.094 A 
HETATM    2  C6  UNL     1     -24.881 -10.103  53.404  1.00  0.00     0.171 A 
HETATM    3  F1  UNL     1     -24.768 -10.664  54.631  1.00  0.00    -0.201 F 
HETATM    4  C7  UNL     1     -23.774  -9.766  52.648  1.00  0.00     0.073 A 
HETATM    5  C14 UNL     1     -24.004  -9.193  51.398  1.00  0.00     0.060 A 
HETATM    6  C15 UNL     1     -25.277  -8.965  50.915  1.00  0.00     0.071 A 
HETATM    7  N4  UNL     1     -25.486  -8.375  49.625  1.00  0.00    -0.101 NA
HETATM    8  C16 UNL     1     -26.354  -9.319  51.705  1.00  0.00     0.098 A 
HETATM    9  C17 UNL     1     -27.702  -9.089  51.220  1.00  0.00     0.104 C 
HETATM   10  N5  UNL     1     -28.773  -8.904  50.857  1.00  0.00    -0.191 NA
ENDROOT
BRANCH   1  11
HETATM   11  N1  UNL     1     -27.314 -10.239  53.736  1.00  0.00    -0.374 N 
HETATM   12  C4  UNL     1     -27.744  -9.599  54.986  1.00  0.00     0.126 C 
HETATM   13  C3  UNL     1     -28.285 -10.688  55.857  1.00  0.00     0.053 C 
HETATM   14  C2  UNL     1     -28.521 -11.842  54.907  1.00  0.00     0.140 C 
HETATM   15  C18 UNL     1     -28.300 -11.282  53.509  1.00  0.00     0.155 C 
BRANCH  14  16
HETATM   16  O1  UNL     1     -29.816 -12.281  55.090  1.00  0.00    -0.389 OA
HETATM   17  C1  UNL     1     -30.270 -11.875  56.333  1.00  0.00     0.202 C 
ENDBRANCH  14  16
ENDBRANCH   1  11
BRANCH   4  18
HETATM   18  N2  UNL     1     -22.454  -9.996  53.131  1.00  0.00    -0.378 N 
HETATM   19  C8  UNL     1     -22.215  -9.811  54.545  1.00  0.00     0.123 C 
HETATM   20  C9  UNL     1     -20.948 -10.520  54.969  1.00  0.00     0.026 C 
HETATM   21  C10 UNL     1     -19.843  -9.956  54.069  1.00  0.00     0.014 C 
HETATM   22  C12 UNL     1     -20.066 -10.461  52.685  1.00  0.00     0.026 C 
HETATM   23  C13 UNL     1     -21.464 -10.395  52.185  1.00  0.00     0.123 C 
BRANCH  21  24
HETATM   24  C11 UNL     1     -18.539 -10.478  54.630  1.00  0.00     0.234 C 
BRANCH  24  25
HETATM   25  N3  UNL     1     -17.605 -10.844  53.611  1.00  0.00    -0.079 N 
ATOM     26  H33 UNL     1     -17.958 -10.596  52.686  1.00  0.00     0.274 HD
ATOM     27  H32 UNL     1     -16.779 -10.246  53.639  1.00  0.00     0.274 HD
ATOM     28  H31 UNL     1     -17.344 -11.829  53.650  1.00  0.00     0.274 HD
ENDBRANCH  24  25
ENDBRANCH  21  24
ENDBRANCH   4  18
TORSDOF 5
ENDMDL
MODEL 3
REMARK VINA RESULT: -7.346195925      3.874      5.919
REMARK  5 active torsions:
REMARK  status: ('A' for Active; 'I' for Inactive)
REMARK    1  A    between atoms: O1_2  and  C2_3 
REMARK    2  A    between atoms: N1_6  and  C5_7 
REMARK    3  A    between atoms: C7_10  and  N2_11 
REMARK    4  A    between atoms: C10_14  and  C11_15 
REMARK    5  A    between atoms: C11_15  and  N3_16 
ROOT
HETATM    1  C5  UNL     1     -27.949 -10.171  56.262  1.00  0.00     0.094 A 
HETATM    2  C6  UNL     1     -27.081  -9.886  55.213  1.00  0.00     0.171 A 
HETATM    3  F1  UNL     1     -25.937  -9.246  55.551  1.00  0.00    -0.201 F 
HETATM    4  C7  UNL     1     -27.368 -10.232  53.906  1.00  0.00     0.073 A 
HETATM    5  C14 UNL     1     -28.576 -10.888  53.668  1.00  0.00     0.060 A 
HETATM    6  C15 UNL     1     -29.462 -11.188  54.683  1.00  0.00     0.071 A 
HETATM    7  N4  UNL     1     -30.698 -11.864  54.412  1.00  0.00    -0.101 NA
HETATM    8  C16 UNL     1     -29.134 -10.823  55.974  1.00  0.00     0.098 A 
HETATM    9  C17 UNL     1     -30.049 -11.128  57.058  1.00  0.00     0.104 C 
HETATM   10  N5  UNL     1     -30.766 -11.352  57.924  1.00  0.00    -0.191 NA
ENDROOT
BRANCH   1  11
HETATM   11  N1  UNL     1     -27.647  -9.811  57.606  1.00  0.00    -0.374 N 
HETATM   12  C4  UNL     1     -28.072  -8.589  58.299  1.00  0.00     0.126 C 
HETATM   13  C3  UNL     1     -26.936  -8.187  59.185  1.00  0.00     0.053 C 
HETATM   14  C2  UNL     1     -26.071  -9.426  59.268  1.00  0.00     0.140 C 
HETATM   15  C18 UNL     1     -26.868 -10.535  58.596  1.00  0.00     0.155 C 
BRANCH  14  16
HETATM   16  O1  UNL     1     -25.840  -9.690  60.602  1.00  0.00    -0.389 OA
HETATM   17  C1  UNL     1     -26.583 -10.793  60.991  1.00  0.00     0.202 C 
ENDBRANCH  14  16
ENDBRANCH   1  11
BRANCH   4  18
HETATM   18  N2  UNL     1     -26.464  -9.930  52.848  1.00  0.00    -0.378 N 
HETATM   19  C8  UNL     1     -26.985  -9.220  51.702  1.00  0.00     0.123 C 
HETATM   20  C9  UNL     1     -25.862  -8.580  50.916  1.00  0.00     0.026 C 
HETATM   21  C10 UNL     1     -24.907  -9.725  50.560  1.00  0.00     0.014 C 
HETATM   22  C12 UNL     1     -24.232 -10.172  51.810  1.00  0.00     0.026 C 
HETATM   23  C13 UNL     1     -25.108 -10.349  52.997  1.00  0.00     0.123 C 
BRANCH  21  24
HETATM   24  C11 UNL     1     -23.907  -9.147  49.585  1.00  0.00     0.234 C 
BRANCH  24  25
HETATM   25  N3  UNL     1     -22.576  -9.117  50.108  1.00  0.00    -0.079 N 
ATOM     26  H33 UNL     1     -21.894  -8.973  49.364  1.00  0.00     0.274 HD
ATOM     27  H32 UNL     1     -22.414  -8.267  50.648  1.00  0.00     0.274 HD
ATOM     28  H31 UNL     1     -22.350  -9.947  50.657  1.00  0.00     0.274 HD
ENDBRANCH  24  25
ENDBRANCH  21  24
ENDBRANCH   4  18
TORSDOF 5
ENDMDL
MODEL 4
REMARK VINA RESULT: -7.280227413      3.909      6.023
REMARK  5 active torsions:
REMARK  status: ('A' for Active; 'I' for Inactive)
REMARK    1  A    between atoms: O1_2  and  C2_3 
REMARK    2  A    between atoms: N1_6  and  C5_7 
REMARK    3  A    between atoms: C7_10  and  N2_11 
REMARK    4  A    between atoms: C10_14  and  C11_15 
REMARK    5  A    between atoms: C11_15  and  N3_16 
ROOT
HETATM    1  C5  UNL     1     -27.991 -10.149  56.312  1.00  0.00     0.094 A 
HETATM    2  C6  UNL     1     -27.109  -9.838  55.283  1.00  0.00     0.171 A 
HETATM    3  F1  UNL     1     -25.971  -9.204  55.652  1.00  0.00    -0.201 F 
HETATM    4  C7  UNL     1     -27.376 -10.154  53.964  1.00  0.00     0.073 A 
HETATM    5  C14 UNL     1     -28.579 -10.806  53.693  1.00  0.00     0.060 A 
HETATM    6  C15 UNL     1     -29.479 -11.132  54.688  1.00  0.00     0.071 A 
HETATM    7  N4  UNL     1     -30.709 -11.803  54.383  1.00  0.00    -0.101 NA
HETATM    8  C16 UNL     1     -29.170 -10.796  55.992  1.00  0.00     0.098 A 
HETATM    9  C17 UNL     1     -30.100 -11.128  57.055  1.00  0.00     0.104 C 
HETATM   10  N5  UNL     1     -30.829 -11.373  57.905  1.00  0.00    -0.191 NA
ENDROOT
BRANCH   1  11
HETATM   11  N1  UNL     1     -27.709  -9.820  57.668  1.00  0.00    -0.374 N 
HETATM   12  C4  UNL     1     -28.109  -8.595  58.370  1.00  0.00     0.126 C 
HETATM   13  C3  UNL     1     -26.982  -8.245  59.290  1.00  0.00     0.053 C 
HETATM   14  C2  UNL     1     -26.162  -9.515  59.373  1.00  0.00     0.140 C 
HETATM   15  C18 UNL     1     -26.980 -10.585  58.665  1.00  0.00     0.155 C 
BRANCH  14  16
HETATM   16  O1  UNL     1     -25.972  -9.807  60.708  1.00  0.00    -0.389 OA
HETATM   17  C1  UNL     1     -26.740 -10.906  61.054  1.00  0.00     0.202 C 
ENDBRANCH  14  16
ENDBRANCH   1  11
BRANCH   4  18
HETATM   18  N2  UNL     1     -26.457  -9.826  52.927  1.00  0.00    -0.378 N 
HETATM   19  C8  UNL     1     -25.128 -10.391  53.004  1.00  0.00     0.123 C 
HETATM   20  C9  UNL     1     -24.449 -10.344  51.653  1.00  0.00     0.026 C 
HETATM   21  C10 UNL     1     -24.479  -8.870  51.231  1.00  0.00     0.014 C 
HETATM   22  C12 UNL     1     -25.888  -8.505  50.914  1.00  0.00     0.026 C 
HETATM   23  C13 UNL     1     -26.915  -8.965  51.885  1.00  0.00     0.123 C 
BRANCH  21  24
HETATM   24  C11 UNL     1     -23.607  -8.771  50.000  1.00  0.00     0.234 C 
BRANCH  24  25
HETATM   25  N3  UNL     1     -22.249  -9.141  50.252  1.00  0.00    -0.079 N 
ATOM     26  H33 UNL     1     -21.721  -8.356  50.635  1.00  0.00     0.274 HD
ATOM     27  H32 UNL     1     -22.186  -9.784  51.042  1.00  0.00     0.274 HD
ATOM     28  H31 UNL     1     -21.785  -9.526  49.430  1.00  0.00     0.274 HD
ENDBRANCH  24  25
ENDBRANCH  21  24
ENDBRANCH   4  18
TORSDOF 5
ENDMDL
MODEL 5
REMARK VINA RESULT: -7.227927411      4.488      6.407
REMARK  5 active torsions:
REMARK  status: ('A' for Active; 'I' for Inactive)
REMARK    1  A    between atoms: O1_2  and  C2_3 
REMARK    2  A    between atoms: N1_6  and  C5_7 
REMARK    3  A    between atoms: C7_10  and  N2_11 
REMARK    4  A    between atoms: C10_14  and  C11_15 
REMARK    5  A    between atoms: C11_15  and  N3_16 
ROOT
HETATM    1  C5  UNL     1     -28.230 -10.145  56.395  1.00  0.00     0.094 A 
HETATM    2  C6  UNL     1     -27.238  -9.829  55.472  1.00  0.00     0.171 A 
HETATM    3  F1  UNL     1     -26.172  -9.153  55.959  1.00  0.00    -0.201 F 
HETATM    4  C7  UNL     1     -27.335 -10.183  54.139  1.00  0.00     0.073 A 
HETATM    5  C14 UNL     1     -28.477 -10.878  53.743  1.00  0.00     0.060 A 
HETATM    6  C15 UNL     1     -29.482 -11.209  54.629  1.00  0.00     0.071 A 
HETATM    7  N4  UNL     1     -30.647 -11.924  54.196  1.00  0.00    -0.101 NA
HETATM    8  C16 UNL     1     -29.343 -10.835  55.952  1.00  0.00     0.098 A 
HETATM    9  C17 UNL     1     -30.385 -11.172  56.904  1.00  0.00     0.104 C 
HETATM   10  N5  UNL     1     -31.204 -11.421  57.666  1.00  0.00    -0.191 NA
ENDROOT
BRANCH   1  11
HETATM   11  N1  UNL     1     -28.123  -9.778  57.766  1.00  0.00    -0.374 N 
HETATM   12  C4  UNL     1     -27.452 -10.542  58.825  1.00  0.00     0.126 C 
HETATM   13  C3  UNL     1     -28.270 -10.358  60.065  1.00  0.00     0.053 C 
HETATM   14  C2  UNL     1     -29.146  -9.161  59.759  1.00  0.00     0.140 C 
HETATM   15  C18 UNL     1     -28.632  -8.597  58.442  1.00  0.00     0.155 C 
BRANCH  14  16
HETATM   16  O1  UNL     1     -29.008  -8.263  60.796  1.00  0.00    -0.389 OA
HETATM   17  C1  UNL     1     -29.404  -8.860  61.981  1.00  0.00     0.202 C 
ENDBRANCH  14  16
ENDBRANCH   1  11
BRANCH   4  18
HETATM   18  N2  UNL     1     -26.307  -9.850  53.212  1.00  0.00    -0.378 N 
HETATM   19  C8  UNL     1     -24.973 -10.338  53.484  1.00  0.00     0.123 C 
HETATM   20  C9  UNL     1     -24.129 -10.312  52.230  1.00  0.00     0.026 C 
HETATM   21  C10 UNL     1     -24.175  -8.861  51.736  1.00  0.00     0.014 C 
HETATM   22  C12 UNL     1     -25.547  -8.587  51.226  1.00  0.00     0.026 C 
HETATM   23  C13 UNL     1     -26.667  -9.060  52.080  1.00  0.00     0.123 C 
BRANCH  21  24
HETATM   24  C11 UNL     1     -23.157  -8.767  50.622  1.00  0.00     0.234 C 
BRANCH  24  25
HETATM   25  N3  UNL     1     -23.640  -9.295  49.384  1.00  0.00    -0.079 N 
ATOM     26  H33 UNL     1     -23.538  -8.613  48.631  1.00  0.00     0.274 HD
ATOM     27  H32 UNL     1     -23.020 -10.025  49.031  1.00  0.00     0.274 HD
ATOM     28  H31 UNL     1     -24.601  -9.630  49.446  1.00  0.00     0.274 HD
ENDBRANCH  24  25
ENDBRANCH  21  24
ENDBRANCH   4  18
TORSDOF 5
ENDMDL
