MODEL 1
REMARK VINA RESULT: -7.685622727      0.000      0.000
REMARK  6 active torsions:
REMARK  status: ('A' for Active; 'I' for Inactive)
REMARK    1  A    between atoms: C4_6  and  C5_7 
REMARK    2  A    between atoms: C6_8  and  C7_9 
REMARK    3  A    between atoms: C7_9  and  O1_12 
REMARK    4  A    between atoms: C16_20  and  C17_21 
REMARK    5  A    between atoms: C17_21  and  O2_22 
REMARK    6  A    between atoms: C17_21  and  N2_24 
ROOT
HETATM    1  C1  UNL     1      11.508  14.395 -10.809  1.00  0.00     0.145 C 
HETATM    2  N1  UNL     1      12.066  15.527 -10.175  1.00  0.00    -0.400 N 
ATOM      3  H1  UNL     1      13.083  15.573 -10.114  1.00  0.00     0.158 HD
HETATM    4  C2  UNL     1      11.413  16.490  -9.673  1.00  0.00    -0.008 C 
HETATM    5  C3  UNL     1       9.951  16.611  -9.656  1.00  0.00     0.070 C 
HETATM    6  C4  UNL     1       9.717  17.183  -8.265  1.00  0.00     0.076 C 
HETATM    7  C10 UNL     1      10.994  17.850  -7.810  1.00  0.00     0.020 C 
HETATM    8  C11 UNL     1      11.457  17.183  -6.591  1.00  0.00     0.001 C 
HETATM    9  C12 UNL     1      10.338  17.035  -5.551  1.00  0.00     0.006 C 
HETATM   10  C13 UNL     1      10.931  18.337  -4.950  1.00  0.00     0.010 C 
HETATM   11  C14 UNL     1      12.236  17.836  -5.562  1.00  0.00    -0.032 C 
HETATM   12  C15 UNL     1      12.782  16.767  -4.583  1.00  0.00     0.016 C 
HETATM   13  C16 UNL     1      13.193  18.918  -5.826  1.00  0.00     0.057 C 
HETATM   14  C21 UNL     1      14.353  18.503  -6.639  1.00  0.00    -0.009 C 
HETATM   15  C22 UNL     1      15.637  19.239  -6.448  1.00  0.00     0.010 C 
HETATM   16  C23 UNL     1      13.989  18.731  -8.120  1.00  0.00     0.006 C 
HETATM   17  C24 UNL     1      13.343  17.473  -8.596  1.00  0.00     0.016 C 
HETATM   18  C25 UNL     1      11.908  17.702  -8.996  1.00  0.00    -0.001 C 
HETATM   19  C26 UNL     1      11.869  18.928  -9.871  1.00  0.00     0.022 C 
ENDROOT
BRANCH   6  20
HETATM   20  C5  UNL     1       8.619  18.139  -8.384  1.00  0.00    -0.098 C 
HETATM   21  C6  UNL     1       7.706  18.905  -8.475  1.00  0.00    -0.069 C 
BRANCH  21  22
HETATM   22  C7  UNL     1       6.575  19.824  -8.580  1.00  0.00     0.113 C 
HETATM   23  C8  UNL     1       5.821  19.800  -7.293  1.00  0.00     0.060 C 
HETATM   24  C9  UNL     1       7.022  21.246  -8.844  1.00  0.00     0.060 C 
BRANCH  22  25
HETATM   25  O1  UNL     1       5.758  19.470  -9.679  1.00  0.00    -0.378 OA
ATOM     26  H1  UNL     1       5.261  20.224  -9.975  1.00  0.00     0.211 HD
ENDBRANCH  22  25
ENDBRANCH  21  22
ENDBRANCH   6  20
BRANCH  13  27
HETATM   27  C17 UNL     1      13.497  19.651  -4.536  1.00  0.00     0.362 C 
BRANCH  27  28
HETATM   28  O2  UNL     1      13.319  18.955  -3.389  1.00  0.00    -0.362 OA
HETATM   29  C18 UNL     1      14.372  18.750  -2.544  1.00  0.00     0.204 C 
ENDBRANCH  27  28
BRANCH  27  30
HETATM   30  N2  UNL     1      12.737  20.930  -4.504  1.00  0.00     0.109 N 
HETATM   31  C19 UNL     1      12.252  21.218  -3.175  1.00  0.00     0.312 C 
HETATM   32  C20 UNL     1      13.656  22.015  -4.850  1.00  0.00     0.312 C 
ENDBRANCH  27  30
ENDBRANCH  13  27
TORSDOF 6
ENDMDL
MODEL 2
REMARK VINA RESULT: -7.674154297      1.000      1.014
REMARK  6 active torsions:
REMARK  status: ('A' for Active; 'I' for Inactive)
REMARK    1  A    between atoms: C4_6  and  C5_7 
REMARK    2  A    between atoms: C6_8  and  C7_9 
REMARK    3  A    between atoms: C7_9  and  O1_12 
REMARK    4  A    between atoms: C16_20  and  C17_21 
REMARK    5  A    between atoms: C17_21  and  O2_22 
REMARK    6  A    between atoms: C17_21  and  N2_24 
ROOT
HETATM    1  C1  UNL     1      10.867  14.595 -10.496  1.00  0.00     0.145 C 
HETATM    2  N1  UNL     1      11.588  15.566  -9.765  1.00  0.00    -0.400 N 
ATOM      3  H1  UNL     1      12.589  15.412  -9.647  1.00  0.00     0.158 HD
HETATM    4  C2  UNL     1      11.098  16.611  -9.243  1.00  0.00    -0.008 C 
HETATM    5  C3  UNL     1       9.688  17.012  -9.297  1.00  0.00     0.070 C 
HETATM    6  C4  UNL     1       9.478  17.549  -7.890  1.00  0.00     0.076 C 
HETATM    7  C10 UNL     1      10.826  17.935  -7.327  1.00  0.00     0.020 C 
HETATM    8  C11 UNL     1      11.075  17.133  -6.127  1.00  0.00     0.001 C 
HETATM    9  C12 UNL     1       9.883  17.154  -5.160  1.00  0.00     0.006 C 
HETATM   10  C13 UNL     1      10.672  18.286  -4.451  1.00  0.00     0.010 C 
HETATM   11  C14 UNL     1      11.896  17.573  -5.020  1.00  0.00    -0.032 C 
HETATM   12  C15 UNL     1      12.165  16.372  -4.079  1.00  0.00     0.016 C 
HETATM   13  C16 UNL     1      13.056  18.462  -5.168  1.00  0.00     0.057 C 
HETATM   14  C21 UNL     1      14.166  17.870  -5.940  1.00  0.00    -0.009 C 
HETATM   15  C22 UNL     1      15.551  18.335  -5.636  1.00  0.00     0.010 C 
HETATM   16  C23 UNL     1      13.947  18.236  -7.422  1.00  0.00     0.006 C 
HETATM   17  C24 UNL     1      13.106  17.150  -8.006  1.00  0.00     0.016 C 
HETATM   18  C25 UNL     1      11.770  17.671  -8.469  1.00  0.00    -0.001 C 
HETATM   19  C26 UNL     1      12.021  18.923  -9.270  1.00  0.00     0.022 C 
ENDROOT
BRANCH   6  20
HETATM   20  C5  UNL     1       8.591  18.704  -8.010  1.00  0.00    -0.098 C 
HETATM   21  C6  UNL     1       7.848  19.634  -8.110  1.00  0.00    -0.069 C 
BRANCH  21  22
HETATM   22  C7  UNL     1       6.921  20.757  -8.234  1.00  0.00     0.113 C 
HETATM   23  C8  UNL     1       5.546  20.217  -8.450  1.00  0.00     0.060 C 
HETATM   24  C9  UNL     1       6.904  21.619  -6.990  1.00  0.00     0.060 C 
BRANCH  22  25
HETATM   25  O1  UNL     1       7.325  21.611  -9.286  1.00  0.00    -0.378 OA
ATOM     26  H1  UNL     1       6.740  21.517 -10.029  1.00  0.00     0.211 HD
ENDBRANCH  22  25
ENDBRANCH  21  22
ENDBRANCH   6  20
BRANCH  13  27
HETATM   27  C17 UNL     1      13.409  19.059  -3.822  1.00  0.00     0.362 C 
BRANCH  27  28
HETATM   28  O2  UNL     1      13.421  18.210  -2.767  1.00  0.00    -0.362 OA
HETATM   29  C18 UNL     1      14.586  17.969  -2.096  1.00  0.00     0.204 C 
ENDBRANCH  27  28
BRANCH  27  30
HETATM   30  N2  UNL     1      12.527  20.226  -3.553  1.00  0.00     0.109 N 
HETATM   31  C19 UNL     1      12.586  20.618  -2.163  1.00  0.00     0.312 C 
HETATM   32  C20 UNL     1      13.031  21.366  -4.322  1.00  0.00     0.312 C 
ENDBRANCH  27  30
ENDBRANCH  13  27
TORSDOF 6
ENDMDL
MODEL 3
REMARK VINA RESULT: -7.387530053      0.782      1.377
REMARK  6 active torsions:
REMARK  status: ('A' for Active; 'I' for Inactive)
REMARK    1  A    between atoms: C4_6  and  C5_7 
REMARK    2  A    between atoms: C6_8  and  C7_9 
REMARK    3  A    between atoms: C7_9  and  O1_12 
REMARK    4  A    between atoms: C16_20  and  C17_21 
REMARK    5  A    between atoms: C17_21  and  O2_22 
REMARK    6  A    between atoms: C17_21  and  N2_24 
ROOT
HETATM    1  C1  UNL     1      11.508  14.407 -10.741  1.00  0.00     0.145 C 
HETATM    2  N1  UNL     1      12.062  15.528 -10.084  1.00  0.00    -0.400 N 
ATOM      3  H1  UNL     1      13.078  15.570 -10.012  1.00  0.00     0.158 HD
HETATM    4  C2  UNL     1      11.407  16.486  -9.577  1.00  0.00    -0.008 C 
HETATM    5  C3  UNL     1       9.945  16.613  -9.574  1.00  0.00     0.070 C 
HETATM    6  C4  UNL     1       9.698  17.165  -8.179  1.00  0.00     0.076 C 
HETATM    7  C10 UNL     1      10.971  17.822  -7.699  1.00  0.00     0.020 C 
HETATM    8  C11 UNL     1      11.418  17.136  -6.485  1.00  0.00     0.001 C 
HETATM    9  C12 UNL     1      10.287  16.978  -5.460  1.00  0.00     0.006 C 
HETATM   10  C13 UNL     1      10.877  18.269  -4.834  1.00  0.00     0.010 C 
HETATM   11  C14 UNL     1      12.187  17.772  -5.438  1.00  0.00    -0.032 C 
HETATM   12  C15 UNL     1      12.719  16.687  -4.468  1.00  0.00     0.016 C 
HETATM   13  C16 UNL     1      13.151  18.854  -5.677  1.00  0.00     0.057 C 
HETATM   14  C21 UNL     1      14.319  18.446  -6.482  1.00  0.00    -0.009 C 
HETATM   15  C22 UNL     1      15.603  19.175  -6.265  1.00  0.00     0.010 C 
HETATM   16  C23 UNL     1      13.972  18.696  -7.964  1.00  0.00     0.006 C 
HETATM   17  C24 UNL     1      13.328  17.447  -8.464  1.00  0.00     0.016 C 
HETATM   18  C25 UNL     1      11.898  17.687  -8.877  1.00  0.00    -0.001 C 
HETATM   19  C26 UNL     1      11.874  18.926  -9.735  1.00  0.00     0.022 C 
ENDROOT
BRANCH   6  20
HETATM   20  C5  UNL     1       8.604  18.127  -8.297  1.00  0.00    -0.098 C 
HETATM   21  C6  UNL     1       7.696  18.897  -8.400  1.00  0.00    -0.069 C 
BRANCH  21  22
HETATM   22  C7  UNL     1       6.571  19.820  -8.533  1.00  0.00     0.113 C 
HETATM   23  C8  UNL     1       5.790  19.806  -7.261  1.00  0.00     0.060 C 
HETATM   24  C9  UNL     1       7.030  21.239  -8.794  1.00  0.00     0.060 C 
BRANCH  22  25
HETATM   25  O1  UNL     1       5.775  19.464  -9.646  1.00  0.00    -0.378 OA
ATOM     26  H1  UNL     1       5.225  20.195  -9.904  1.00  0.00     0.211 HD
ENDBRANCH  22  25
ENDBRANCH  21  22
ENDBRANCH   6  20
BRANCH  13  27
HETATM   27  C17 UNL     1      13.443  19.568  -4.373  1.00  0.00     0.362 C 
BRANCH  27  28
HETATM   28  O2  UNL     1      13.277  20.911  -4.368  1.00  0.00    -0.362 OA
HETATM   29  C18 UNL     1      12.209  21.466  -3.723  1.00  0.00     0.204 C 
ENDBRANCH  27  28
BRANCH  27  30
HETATM   30  N2  UNL     1      14.805  19.200  -3.902  1.00  0.00     0.109 N 
HETATM   31  C19 UNL     1      15.553  20.368  -3.498  1.00  0.00     0.312 C 
HETATM   32  C20 UNL     1      14.665  18.368  -2.706  1.00  0.00     0.312 C 
ENDBRANCH  27  30
ENDBRANCH  13  27
TORSDOF 6
ENDMDL
MODEL 4
REMARK VINA RESULT: -6.724610456      3.438      5.663
REMARK  6 active torsions:
REMARK  status: ('A' for Active; 'I' for Inactive)
REMARK    1  A    between atoms: C4_6  and  C5_7 
REMARK    2  A    between atoms: C6_8  and  C7_9 
REMARK    3  A    between atoms: C7_9  and  O1_12 
REMARK    4  A    between atoms: C16_20  and  C17_21 
REMARK    5  A    between atoms: C17_21  and  O2_22 
REMARK    6  A    between atoms: C17_21  and  N2_24 
ROOT
HETATM    1  C1  UNL     1       3.576  18.917  -5.557  1.00  0.00     0.145 C 
HETATM    2  N1  UNL     1       4.799  18.959  -6.263  1.00  0.00    -0.400 N 
ATOM      3  H1  UNL     1       4.965  18.224  -6.950  1.00  0.00     0.158 HD
HETATM    4  C2  UNL     1       5.708  19.829  -6.117  1.00  0.00    -0.008 C 
HETATM    5  C3  UNL     1       5.663  20.961  -5.184  1.00  0.00     0.070 C 
HETATM    6  C4  UNL     1       7.097  20.986  -4.679  1.00  0.00     0.076 C 
HETATM    7  C10 UNL     1       7.968  20.292  -5.700  1.00  0.00     0.020 C 
HETATM    8  C11 UNL     1       8.604  19.138  -5.060  1.00  0.00     0.001 C 
HETATM    9  C12 UNL     1       9.257  19.507  -3.721  1.00  0.00     0.006 C 
HETATM   10  C13 UNL     1      10.555  19.635  -4.562  1.00  0.00     0.010 C 
HETATM   11  C14 UNL     1       9.885  18.600  -5.461  1.00  0.00    -0.032 C 
HETATM   12  C15 UNL     1      10.100  17.231  -4.767  1.00  0.00     0.016 C 
HETATM   13  C16 UNL     1      10.388  18.632  -6.840  1.00  0.00     0.057 C 
HETATM   14  C21 UNL     1       9.593  17.823  -7.784  1.00  0.00    -0.009 C 
HETATM   15  C22 UNL     1      10.292  17.255  -8.975  1.00  0.00     0.010 C 
HETATM   16  C23 UNL     1       8.498  18.737  -8.372  1.00  0.00     0.006 C 
HETATM   17  C24 UNL     1       7.323  18.629  -7.460  1.00  0.00     0.016 C 
HETATM   18  C25 UNL     1       7.006  19.949  -6.805  1.00  0.00    -0.001 C 
HETATM   19  C26 UNL     1       7.012  21.005  -7.881  1.00  0.00     0.022 C 
ENDROOT
BRANCH   6  20
HETATM   20  C5  UNL     1       7.462  22.393  -4.524  1.00  0.00    -0.098 C 
HETATM   21  C6  UNL     1       7.759  23.546  -4.420  1.00  0.00    -0.069 C 
BRANCH  21  22
HETATM   22  C7  UNL     1       8.121  24.957  -4.316  1.00  0.00     0.113 C 
HETATM   23  C8  UNL     1       7.159  25.629  -3.394  1.00  0.00     0.060 C 
HETATM   24  C9  UNL     1       9.519  25.145  -3.765  1.00  0.00     0.060 C 
BRANCH  22  25
HETATM   25  O1  UNL     1       8.131  25.555  -5.597  1.00  0.00    -0.378 OA
ATOM     26  H1  UNL     1       7.478  26.244  -5.643  1.00  0.00     0.211 HD
ENDBRANCH  22  25
ENDBRANCH  21  22
ENDBRANCH   6  20
BRANCH  13  27
HETATM   27  C17 UNL     1      11.884  18.397  -6.838  1.00  0.00     0.362 C 
BRANCH  27  28
HETATM   28  O2  UNL     1      12.478  18.290  -5.626  1.00  0.00    -0.362 OA
HETATM   29  C18 UNL     1      13.351  17.269  -5.379  1.00  0.00     0.204 C 
ENDBRANCH  27  28
BRANCH  27  30
HETATM   30  N2  UNL     1      12.549  19.439  -7.665  1.00  0.00     0.109 N 
HETATM   31  C19 UNL     1      13.366  20.311  -6.852  1.00  0.00     0.312 C 
HETATM   32  C20 UNL     1      13.463  18.770  -8.594  1.00  0.00     0.312 C 
ENDBRANCH  27  30
ENDBRANCH  13  27
TORSDOF 6
ENDMDL
MODEL 5
REMARK VINA RESULT: -6.255091946      2.769      5.119
REMARK  6 active torsions:
REMARK  status: ('A' for Active; 'I' for Inactive)
REMARK    1  A    between atoms: C4_6  and  C5_7 
REMARK    2  A    between atoms: C6_8  and  C7_9 
REMARK    3  A    between atoms: C7_9  and  O1_12 
REMARK    4  A    between atoms: C16_20  and  C17_21 
REMARK    5  A    between atoms: C17_21  and  O2_22 
REMARK    6  A    between atoms: C17_21  and  N2_24 
ROOT
HETATM    1  C1  UNL     1       7.607  19.900  -5.545  1.00  0.00     0.145 C 
HETATM    2  N1  UNL     1       8.801  19.364  -5.013  1.00  0.00    -0.400 N 
ATOM      3  H1  UNL     1       8.980  19.521  -4.021  1.00  0.00     0.158 HD
HETATM    4  C2  UNL     1       9.668  18.706  -5.660  1.00  0.00    -0.008 C 
HETATM    5  C3  UNL     1       9.598  18.376  -7.088  1.00  0.00     0.070 C 
HETATM    6  C4  UNL     1      11.047  18.572  -7.509  1.00  0.00     0.076 C 
HETATM    7  C10 UNL     1      11.916  18.452  -6.279  1.00  0.00     0.020 C 
HETATM    8  C11 UNL     1      12.631  19.716  -6.091  1.00  0.00     0.001 C 
HETATM    9  C12 UNL     1      13.311  20.194  -7.381  1.00  0.00     0.006 C 
HETATM   10  C13 UNL     1      14.570  19.503  -6.795  1.00  0.00     0.010 C 
HETATM   11  C14 UNL     1      13.923  19.822  -5.450  1.00  0.00    -0.032 C 
HETATM   12  C15 UNL     1      14.232  21.315  -5.172  1.00  0.00     0.016 C 
HETATM   13  C16 UNL     1      14.376  18.930  -4.374  1.00  0.00     0.057 C 
HETATM   14  C21 UNL     1      13.591  19.049  -3.130  1.00  0.00    -0.009 C 
HETATM   15  C22 UNL     1      14.276  18.735  -1.842  1.00  0.00     0.010 C 
HETATM   16  C23 UNL     1      12.431  18.036  -3.213  1.00  0.00     0.006 C 
HETATM   17  C24 UNL     1      11.295  18.745  -3.870  1.00  0.00     0.016 C 
HETATM   18  C25 UNL     1      10.934  18.114  -5.190  1.00  0.00    -0.001 C 
HETATM   19  C26 UNL     1      10.849  16.625  -4.974  1.00  0.00     0.022 C 
ENDROOT
BRANCH   6  20
HETATM   20  C5  UNL     1      11.344  17.528  -8.487  1.00  0.00    -0.098 C 
HETATM   21  C6  UNL     1      11.567  16.678  -9.297  1.00  0.00    -0.069 C 
BRANCH  21  22
HETATM   22  C7  UNL     1      11.819  15.643 -10.297  1.00  0.00     0.113 C 
HETATM   23  C8  UNL     1      10.512  15.053 -10.710  1.00  0.00     0.060 C 
HETATM   24  C9  UNL     1      12.501  16.199 -11.529  1.00  0.00     0.060 C 
BRANCH  22  25
HETATM   25  O1  UNL     1      12.700  14.667  -9.779  1.00  0.00    -0.378 OA
ATOM     26  H1  UNL     1      12.770  13.934 -10.380  1.00  0.00     0.211 HD
ENDBRANCH  22  25
ENDBRANCH  21  22
ENDBRANCH   6  20
BRANCH  13  27
HETATM   27  C17 UNL     1      15.881  19.026  -4.238  1.00  0.00     0.362 C 
BRANCH  27  28
HETATM   28  O2  UNL     1      16.419  20.265  -4.323  1.00  0.00    -0.362 OA
HETATM   29  C18 UNL     1      16.987  20.841  -3.223  1.00  0.00     0.204 C 
ENDBRANCH  27  28
BRANCH  27  30
HETATM   30  N2  UNL     1      16.525  18.101  -5.209  1.00  0.00     0.109 N 
HETATM   31  C19 UNL     1      17.872  18.521  -5.520  1.00  0.00     0.312 C 
HETATM   32  C20 UNL     1      16.641  16.785  -4.578  1.00  0.00     0.312 C 
ENDBRANCH  27  30
ENDBRANCH  13  27
TORSDOF 6
ENDMDL
