MODEL 1
REMARK VINA RESULT: -7.927534160      0.000      0.000
REMARK  8 active torsions:
REMARK  status: ('A' for Active; 'I' for Inactive)
REMARK    1  A    between atoms: C2_2  and  C4_4 
REMARK    2  A    between atoms: C4_4  and  N2_7 
REMARK    3  A    between atoms: N2_7  and  N3_9 
REMARK    4  A    between atoms: C6_11  and  C8_14 
REMARK    5  A    between atoms: C8_14  and  N5_15 
REMARK    6  A    between atoms: C8_14  and  C14_24 
REMARK       I    between atoms: N5_15  and  C9_17 
REMARK    7  A    between atoms: C9_17  and  O2_19 
REMARK    8  A    between atoms: O2_19  and  C10_20 
ROOT
HETATM    1  C4  UNL     1      -4.147 -36.829   6.144  1.00  0.00     0.233 C 
HETATM    2  C5  UNL     1      -4.366 -35.563   6.844  1.00  0.00     0.090 C 
HETATM    3  N1  UNL     1      -4.533 -34.551   7.382  1.00  0.00    -0.195 NA
ENDROOT
BRANCH   1   4
HETATM    4  C2  UNL     1      -2.895 -37.451   6.642  1.00  0.00    -0.056 C 
HETATM    5  C1  UNL     1      -1.846 -36.727   6.990  1.00  0.00     0.017 C 
HETATM    6  C3  UNL     1      -2.829 -38.922   6.746  1.00  0.00     0.046 C 
ENDBRANCH   1   4
BRANCH   1   7
HETATM    7  N2  UNL     1      -4.005 -36.633   4.716  1.00  0.00    -0.313 N 
ATOM      8  H2  UNL     1      -4.044 -37.425   4.074  1.00  0.00     0.182 HD
BRANCH   7   9
HETATM    9  N3  UNL     1      -3.813 -35.335   4.238  1.00  0.00    -0.295 N 
HETATM   10  C6  UNL     1      -2.763 -34.996   3.600  1.00  0.00     0.133 C 
HETATM   11  C7  UNL     1      -1.745 -35.958   3.360  1.00  0.00     0.117 C 
HETATM   12  N4  UNL     1      -0.914 -36.767   3.176  1.00  0.00    -0.190 NA
ATOM     13  H3  UNL     1      -4.537 -34.636   4.404  1.00  0.00     0.187 HD
BRANCH  10  14
HETATM   14  C8  UNL     1      -2.611 -33.617   3.117  1.00  0.00     0.182 C 
BRANCH  14  15
HETATM   15  N5  UNL     1      -1.231 -33.452   2.694  1.00  0.00    -0.322 N 
HETATM   16  C9  UNL     1      -0.570 -32.203   2.685  1.00  0.00     0.362 C 
HETATM   17  O1  UNL     1      -1.150 -31.148   3.050  1.00  0.00    -0.238 OA
ATOM     18  H5  UNL     1      -0.715 -34.278   2.389  1.00  0.00     0.165 HD
BRANCH  16  19
HETATM   19  O2  UNL     1       0.733 -32.108   2.276  1.00  0.00    -0.294 OA
BRANCH  19  20
HETATM   20  C10 UNL     1       1.845 -31.885   3.087  1.00  0.00     0.061 C 
HETATM   21  C11 UNL     1       2.405 -30.466   2.935  1.00  0.00     0.046 C 
HETATM   22  C12 UNL     1       1.599 -32.198   4.548  1.00  0.00     0.046 C 
HETATM   23  C13 UNL     1       2.951 -32.820   2.607  1.00  0.00     0.046 C 
ENDBRANCH  19  20
ENDBRANCH  16  19
ENDBRANCH  14  15
BRANCH  14  24
HETATM   24  C14 UNL     1      -3.575 -33.305   2.067  1.00  0.00    -0.029 A 
HETATM   25  C15 UNL     1      -3.171 -33.275   0.756  1.00  0.00     0.011 A 
HETATM   26  C16 UNL     1      -4.029 -32.990  -0.286  1.00  0.00     0.024 A 
HETATM   27  C17 UNL     1      -5.352 -32.724  -0.000  1.00  0.00     0.034 A 
HETATM   28 CL1  UNL     1      -6.421 -32.365  -1.329  1.00  0.00    -0.084 Cl
HETATM   29  C18 UNL     1      -5.762 -32.754   1.316  1.00  0.00     0.024 A 
HETATM   30  C19 UNL     1      -4.893 -33.041   2.352  1.00  0.00     0.011 A 
ENDBRANCH  14  24
ENDBRANCH  10  14
ENDBRANCH   7   9
ENDBRANCH   1   7
TORSDOF 8
ENDMDL
MODEL 2
REMARK VINA RESULT: -7.772741022      1.948      3.375
REMARK  8 active torsions:
REMARK  status: ('A' for Active; 'I' for Inactive)
REMARK    1  A    between atoms: C2_2  and  C4_4 
REMARK    2  A    between atoms: C4_4  and  N2_7 
REMARK    3  A    between atoms: N2_7  and  N3_9 
REMARK    4  A    between atoms: C6_11  and  C8_14 
REMARK    5  A    between atoms: C8_14  and  N5_15 
REMARK    6  A    between atoms: C8_14  and  C14_24 
REMARK       I    between atoms: N5_15  and  C9_17 
REMARK    7  A    between atoms: C9_17  and  O2_19 
REMARK    8  A    between atoms: O2_19  and  C10_20 
ROOT
HETATM    1  C4  UNL     1       0.538 -37.650   2.874  1.00  0.00     0.233 C 
HETATM    2  C5  UNL     1       0.841 -37.661   1.443  1.00  0.00     0.090 C 
HETATM    3  N1  UNL     1       1.062 -37.667   0.306  1.00  0.00    -0.195 NA
ENDROOT
BRANCH   1   4
HETATM    4  C2  UNL     1       0.581 -39.040   3.393  1.00  0.00    -0.056 C 
HETATM    5  C1  UNL     1       1.535 -39.450   4.209  1.00  0.00     0.017 C 
HETATM    6  C3  UNL     1      -0.476 -39.982   2.978  1.00  0.00     0.046 C 
ENDBRANCH   1   4
BRANCH   1   7
HETATM    7  N2  UNL     1      -0.786 -37.123   3.136  1.00  0.00    -0.313 N 
ATOM      8  H2  UNL     1      -1.546 -37.740   3.423  1.00  0.00     0.182 HD
BRANCH   7   9
HETATM    9  N3  UNL     1      -0.999 -35.751   2.986  1.00  0.00    -0.295 N 
HETATM   10  C6  UNL     1      -2.045 -35.174   3.431  1.00  0.00     0.133 C 
HETATM   11  C7  UNL     1      -3.036 -35.939   4.104  1.00  0.00     0.117 C 
HETATM   12  N4  UNL     1      -3.846 -36.590   4.653  1.00  0.00    -0.190 NA
ATOM     13  H3  UNL     1      -0.294 -35.192   2.506  1.00  0.00     0.187 HD
BRANCH  10  14
HETATM   14  C8  UNL     1      -2.220 -33.728   3.248  1.00  0.00     0.182 C 
BRANCH  14  15
HETATM   15  N5  UNL     1      -0.916 -33.167   2.938  1.00  0.00    -0.322 N 
HETATM   16  C9  UNL     1      -0.673 -31.777   2.857  1.00  0.00     0.362 C 
HETATM   17  O1  UNL     1      -1.588 -30.935   3.053  1.00  0.00    -0.238 OA
ATOM     18  H5  UNL     1      -0.139 -33.807   2.770  1.00  0.00     0.165 HD
BRANCH  16  19
HETATM   19  O2  UNL     1       0.578 -31.305   2.561  1.00  0.00    -0.294 OA
BRANCH  19  20
HETATM   20  C10 UNL     1       1.514 -30.806   3.465  1.00  0.00     0.061 C 
HETATM   21  C11 UNL     1       1.107 -29.441   4.035  1.00  0.00     0.046 C 
HETATM   22  C12 UNL     1       1.839 -31.768   4.590  1.00  0.00     0.046 C 
HETATM   23  C13 UNL     1       2.807 -30.563   2.694  1.00  0.00     0.046 C 
ENDBRANCH  19  20
ENDBRANCH  16  19
ENDBRANCH  14  15
BRANCH  14  24
HETATM   24  C14 UNL     1      -3.228 -33.432   2.236  1.00  0.00    -0.029 A 
HETATM   25  C15 UNL     1      -2.867 -33.356   0.914  1.00  0.00     0.011 A 
HETATM   26  C16 UNL     1      -3.769 -33.082  -0.094  1.00  0.00     0.024 A 
HETATM   27  C17 UNL     1      -5.091 -32.877   0.239  1.00  0.00     0.034 A 
HETATM   28 CL1  UNL     1      -6.216 -32.532  -1.047  1.00  0.00    -0.084 Cl
HETATM   29  C18 UNL     1      -5.458 -32.952   1.566  1.00  0.00     0.024 A 
HETATM   30  C19 UNL     1      -4.546 -33.227   2.568  1.00  0.00     0.011 A 
ENDBRANCH  14  24
ENDBRANCH  10  14
ENDBRANCH   7   9
ENDBRANCH   1   7
TORSDOF 8
ENDMDL
MODEL 3
REMARK VINA RESULT: -7.669064514      1.231      2.436
REMARK  8 active torsions:
REMARK  status: ('A' for Active; 'I' for Inactive)
REMARK    1  A    between atoms: C2_2  and  C4_4 
REMARK    2  A    between atoms: C4_4  and  N2_7 
REMARK    3  A    between atoms: N2_7  and  N3_9 
REMARK    4  A    between atoms: C6_11  and  C8_14 
REMARK    5  A    between atoms: C8_14  and  N5_15 
REMARK    6  A    between atoms: C8_14  and  C14_24 
REMARK       I    between atoms: N5_15  and  C9_17 
REMARK    7  A    between atoms: C9_17  and  O2_19 
REMARK    8  A    between atoms: O2_19  and  C10_20 
ROOT
HETATM    1  C4  UNL     1      -3.347 -37.325   5.117  1.00  0.00     0.233 C 
HETATM    2  C5  UNL     1      -3.127 -38.382   4.129  1.00  0.00     0.090 C 
HETATM    3  N1  UNL     1      -2.968 -39.212   3.337  1.00  0.00    -0.195 NA
ENDROOT
BRANCH   1   4
HETATM    4  C2  UNL     1      -3.986 -37.909   6.322  1.00  0.00    -0.056 C 
HETATM    5  C1  UNL     1      -4.231 -39.203   6.424  1.00  0.00     0.017 C 
HETATM    6  C3  UNL     1      -4.353 -37.009   7.433  1.00  0.00     0.046 C 
ENDBRANCH   1   4
BRANCH   1   7
HETATM    7  N2  UNL     1      -4.226 -36.293   4.607  1.00  0.00    -0.313 N 
ATOM      8  H2  UNL     1      -5.218 -36.289   4.846  1.00  0.00     0.182 HD
BRANCH   7   9
HETATM    9  N3  UNL     1      -3.686 -35.304   3.783  1.00  0.00    -0.295 N 
HETATM   10  C6  UNL     1      -3.671 -34.075   4.119  1.00  0.00     0.133 C 
HETATM   11  C7  UNL     1      -4.219 -33.682   5.370  1.00  0.00     0.117 C 
HETATM   12  N4  UNL     1      -4.680 -33.377   6.406  1.00  0.00    -0.190 NA
ATOM     13  H3  UNL     1      -3.290 -35.574   2.883  1.00  0.00     0.187 HD
BRANCH  10  14
HETATM   14  C8  UNL     1      -3.090 -33.074   3.215  1.00  0.00     0.182 C 
BRANCH  14  15
HETATM   15  N5  UNL     1      -1.712 -33.461   2.964  1.00  0.00    -0.322 N 
HETATM   16  C9  UNL     1      -0.691 -32.530   2.667  1.00  0.00     0.362 C 
HETATM   17  O1  UNL     1      -0.923 -31.295   2.603  1.00  0.00    -0.238 OA
ATOM     18  H5  UNL     1      -1.470 -34.451   3.004  1.00  0.00     0.165 HD
BRANCH  16  19
HETATM   19  O2  UNL     1       0.592 -32.952   2.439  1.00  0.00    -0.294 OA
BRANCH  19  20
HETATM   20  C10 UNL     1       1.729 -32.579   3.153  1.00  0.00     0.061 C 
HETATM   21  C11 UNL     1       2.237 -31.186   2.759  1.00  0.00     0.046 C 
HETATM   22  C12 UNL     1       1.554 -32.666   4.656  1.00  0.00     0.046 C 
HETATM   23  C13 UNL     1       2.843 -33.548   2.774  1.00  0.00     0.046 C 
ENDBRANCH  19  20
ENDBRANCH  16  19
ENDBRANCH  14  15
BRANCH  14  24
HETATM   24  C14 UNL     1      -3.877 -32.930   1.995  1.00  0.00    -0.029 A 
HETATM   25  C15 UNL     1      -5.200 -32.573   2.073  1.00  0.00     0.011 A 
HETATM   26  C16 UNL     1      -6.002 -32.417   0.961  1.00  0.00     0.024 A 
HETATM   27  C17 UNL     1      -5.451 -32.626  -0.286  1.00  0.00     0.034 A 
HETATM   28 CL1  UNL     1      -6.477 -32.425  -1.679  1.00  0.00    -0.084 Cl
HETATM   29  C18 UNL     1      -4.122 -32.985  -0.369  1.00  0.00     0.024 A 
HETATM   30  C19 UNL     1      -3.328 -33.138   0.752  1.00  0.00     0.011 A 
ENDBRANCH  14  24
ENDBRANCH  10  14
ENDBRANCH   7   9
ENDBRANCH   1   7
TORSDOF 8
ENDMDL
MODEL 4
REMARK VINA RESULT: -7.656843792      2.424      4.188
REMARK  8 active torsions:
REMARK  status: ('A' for Active; 'I' for Inactive)
REMARK    1  A    between atoms: C2_2  and  C4_4 
REMARK    2  A    between atoms: C4_4  and  N2_7 
REMARK    3  A    between atoms: N2_7  and  N3_9 
REMARK    4  A    between atoms: C6_11  and  C8_14 
REMARK    5  A    between atoms: C8_14  and  N5_15 
REMARK    6  A    between atoms: C8_14  and  C14_24 
REMARK       I    between atoms: N5_15  and  C9_17 
REMARK    7  A    between atoms: C9_17  and  O2_19 
REMARK    8  A    between atoms: O2_19  and  C10_20 
ROOT
HETATM    1  C4  UNL     1       2.217 -37.121   2.818  1.00  0.00     0.233 C 
HETATM    2  C5  UNL     1       2.301 -36.996   4.273  1.00  0.00     0.090 C 
HETATM    3  N1  UNL     1       2.351 -36.888   5.426  1.00  0.00    -0.195 NA
ENDROOT
BRANCH   1   4
HETATM    4  C2  UNL     1       3.167 -36.168   2.191  1.00  0.00    -0.056 C 
HETATM    5  C1  UNL     1       3.533 -36.277   0.927  1.00  0.00     0.017 C 
HETATM    6  C3  UNL     1       3.713 -35.070   3.014  1.00  0.00     0.046 C 
ENDBRANCH   1   4
BRANCH   1   7
HETATM    7  N2  UNL     1       0.890 -36.805   2.331  1.00  0.00    -0.313 N 
ATOM      8  H2  UNL     1       0.347 -37.496   1.814  1.00  0.00     0.182 HD
BRANCH   7   9
HETATM    9  N3  UNL     1       0.372 -35.534   2.584  1.00  0.00    -0.295 N 
HETATM   10  C6  UNL     1      -0.765 -35.362   3.134  1.00  0.00     0.133 C 
HETATM   11  C7  UNL     1      -1.543 -36.492   3.507  1.00  0.00     0.117 C 
HETATM   12  N4  UNL     1      -2.172 -37.439   3.803  1.00  0.00    -0.190 NA
ATOM     13  H3  UNL     1       0.921 -34.716   2.321  1.00  0.00     0.187 HD
BRANCH  10  14
HETATM   14  C8  UNL     1      -1.264 -34.003   3.379  1.00  0.00     0.182 C 
BRANCH  14  15
HETATM   15  N5  UNL     1      -0.144 -33.092   3.220  1.00  0.00    -0.322 N 
HETATM   16  C9  UNL     1       0.877 -32.947   4.186  1.00  0.00     0.362 C 
HETATM   17  O1  UNL     1       0.872 -33.612   5.255  1.00  0.00    -0.238 OA
ATOM     18  H5  UNL     1      -0.092 -32.529   2.370  1.00  0.00     0.165 HD
BRANCH  16  19
HETATM   19  O2  UNL     1       1.910 -32.072   3.982  1.00  0.00    -0.294 OA
BRANCH  19  20
HETATM   20  C10 UNL     1       1.833 -30.680   3.981  1.00  0.00     0.061 C 
HETATM   21  C11 UNL     1       0.394 -30.174   3.823  1.00  0.00     0.046 C 
HETATM   22  C12 UNL     1       2.484 -30.038   5.189  1.00  0.00     0.046 C 
HETATM   23  C13 UNL     1       2.584 -30.184   2.750  1.00  0.00     0.046 C 
ENDBRANCH  19  20
ENDBRANCH  16  19
ENDBRANCH  14  15
BRANCH  14  24
HETATM   24  C14 UNL     1      -2.394 -33.681   2.514  1.00  0.00    -0.029 A 
HETATM   25  C15 UNL     1      -2.174 -33.317   1.209  1.00  0.00     0.011 A 
HETATM   26  C16 UNL     1      -3.196 -33.001   0.337  1.00  0.00     0.024 A 
HETATM   27  C17 UNL     1      -4.495 -33.054   0.793  1.00  0.00     0.034 A 
HETATM   28 CL1  UNL     1      -5.772 -32.652  -0.322  1.00  0.00    -0.084 Cl
HETATM   29  C18 UNL     1      -4.721 -33.420   2.103  1.00  0.00     0.024 A 
HETATM   30  C19 UNL     1      -3.690 -33.734   2.969  1.00  0.00     0.011 A 
ENDBRANCH  14  24
ENDBRANCH  10  14
ENDBRANCH   7   9
ENDBRANCH   1   7
TORSDOF 8
ENDMDL
MODEL 5
REMARK VINA RESULT: -7.630975347      3.882      6.757
REMARK  8 active torsions:
REMARK  status: ('A' for Active; 'I' for Inactive)
REMARK    1  A    between atoms: C2_2  and  C4_4 
REMARK    2  A    between atoms: C4_4  and  N2_7 
REMARK    3  A    between atoms: N2_7  and  N3_9 
REMARK    4  A    between atoms: C6_11  and  C8_14 
REMARK    5  A    between atoms: C8_14  and  N5_15 
REMARK    6  A    between atoms: C8_14  and  C14_24 
REMARK       I    between atoms: N5_15  and  C9_17 
REMARK    7  A    between atoms: C9_17  and  O2_19 
REMARK    8  A    between atoms: O2_19  and  C10_20 
ROOT
HETATM    1  C4  UNL     1       3.674 -37.139   4.091  1.00  0.00     0.233 C 
HETATM    2  C5  UNL     1       4.382 -36.834   2.848  1.00  0.00     0.090 C 
HETATM    3  N1  UNL     1       4.929 -36.603   1.853  1.00  0.00    -0.195 NA
ENDROOT
BRANCH   1   4
HETATM    4  C2  UNL     1       4.376 -38.241   4.795  1.00  0.00    -0.056 C 
HETATM    5  C1  UNL     1       5.075 -39.152   4.142  1.00  0.00     0.017 C 
HETATM    6  C3  UNL     1       4.284 -38.312   6.267  1.00  0.00     0.046 C 
ENDBRANCH   1   4
BRANCH   1   7
HETATM    7  N2  UNL     1       2.315 -37.571   3.840  1.00  0.00    -0.313 N 
ATOM      8  H2  UNL     1       2.109 -38.546   3.624  1.00  0.00     0.182 HD
BRANCH   7   9
HETATM    9  N3  UNL     1       1.292 -36.623   3.900  1.00  0.00    -0.295 N 
HETATM   10  C6  UNL     1       0.628 -36.275   2.869  1.00  0.00     0.133 C 
HETATM   11  C7  UNL     1       0.927 -36.862   1.610  1.00  0.00     0.117 C 
HETATM   12  N4  UNL     1       1.192 -37.356   0.578  1.00  0.00    -0.190 NA
ATOM     13  H3  UNL     1       1.068 -36.195   4.798  1.00  0.00     0.187 HD
BRANCH  10  14
HETATM   14  C8  UNL     1      -0.439 -35.273   2.987  1.00  0.00     0.182 C 
BRANCH  14  15
HETATM   15  N5  UNL     1      -1.123 -35.510   4.247  1.00  0.00    -0.322 N 
HETATM   16  C9  UNL     1      -2.529 -35.459   4.383  1.00  0.00     0.362 C 
HETATM   17  O1  UNL     1      -3.278 -35.201   3.405  1.00  0.00    -0.238 OA
ATOM     18  H5  UNL     1      -0.562 -35.724   5.072  1.00  0.00     0.165 HD
BRANCH  16  19
HETATM   19  O2  UNL     1      -3.120 -35.692   5.597  1.00  0.00    -0.294 OA
BRANCH  19  20
HETATM   20  C10 UNL     1      -3.344 -36.935   6.188  1.00  0.00     0.061 C 
HETATM   21  C11 UNL     1      -4.069 -37.907   5.249  1.00  0.00     0.046 C 
HETATM   22  C12 UNL     1      -2.086 -37.577   6.737  1.00  0.00     0.046 C 
HETATM   23  C13 UNL     1      -4.287 -36.715   7.366  1.00  0.00     0.046 C 
ENDBRANCH  19  20
ENDBRANCH  16  19
ENDBRANCH  14  15
BRANCH  14  24
HETATM   24  C14 UNL     1       0.082 -33.916   2.864  1.00  0.00    -0.029 A 
HETATM   25  C15 UNL     1       1.432 -33.689   2.965  1.00  0.00     0.011 A 
HETATM   26  C16 UNL     1       1.991 -32.432   2.857  1.00  0.00     0.024 A 
HETATM   27  C17 UNL     1       1.160 -31.355   2.635  1.00  0.00     0.034 A 
HETATM   28 CL1  UNL     1       1.884 -29.776   2.501  1.00  0.00    -0.084 Cl
HETATM   29  C18 UNL     1      -0.197 -31.578   2.532  1.00  0.00     0.024 A 
HETATM   30  C19 UNL     1      -0.747 -32.841   2.643  1.00  0.00     0.011 A 
ENDBRANCH  14  24
ENDBRANCH  10  14
ENDBRANCH   7   9
ENDBRANCH   1   7
TORSDOF 8
ENDMDL
