MODEL 1
REMARK VINA RESULT: -7.446458913      0.000      0.000
REMARK  7 active torsions:
REMARK  status: ('A' for Active; 'I' for Inactive)
REMARK    1  A    between atoms: O1_2  and  C2_3 
REMARK    2  A    between atoms: C4_6  and  O2_7 
REMARK    3  A    between atoms: C5_9  and  O3_10 
REMARK    4  A    between atoms: O3_10  and  C6_11 
REMARK    5  A    between atoms: C14_20  and  N1_21 
REMARK       I    between atoms: N1_21  and  C15_23 
REMARK    6  A    between atoms: C18_27  and  C20_29 
REMARK    7  A    between atoms: C20_29  and  O5_30 
ROOT
HETATM    1  C2  UNL     1     127.875 105.448 287.434  1.00  0.00     0.096 C 
HETATM    2  C3  UNL     1     128.880 104.985 288.150  1.00  0.00     0.052 C 
HETATM    3 BR1  UNL     1     128.624 103.246 288.863  1.00  0.00    -0.050 Br
HETATM    4  C4  UNL     1     130.196 105.651 288.485  1.00  0.00     0.190 C 
HETATM    5  C5  UNL     1     130.803 106.171 287.258  1.00  0.00     0.158 C 
HETATM    6  C17 UNL     1     130.089 105.777 285.977  1.00  0.00     0.049 C 
HETATM    7  C18 UNL     1     128.913 106.611 285.620  1.00  0.00     0.017 C 
HETATM    8  C19 UNL     1     128.067 105.733 284.668  1.00  0.00     0.021 C 
HETATM    9  C21 UNL     1     127.965 106.843 286.804  1.00  0.00     0.238 C 
HETATM   10  F1  UNL     1     126.705 107.174 286.397  1.00  0.00    -0.241 F 
ENDROOT
BRANCH   5  11
HETATM   11  O3  UNL     1     132.135 105.925 287.025  1.00  0.00    -0.365 OA
BRANCH  11  12
HETATM   12  C6  UNL     1     132.487 105.035 286.083  1.00  0.00     0.207 C 
HETATM   13  S1  UNL     1     133.370 103.670 286.944  1.00  0.00    -0.126 SA
HETATM   14  C7  UNL     1     133.877 102.372 285.822  1.00  0.00     0.006 C 
HETATM   15  C8  UNL     1     134.047 101.105 286.661  1.00  0.00     0.027 C 
HETATM   16  C9  UNL     1     132.783 102.083 284.802  1.00  0.00     0.027 C 
HETATM   17  C10 UNL     1     135.158 102.649 285.108  1.00  0.00     0.046 C 
HETATM   18  C11 UNL     1     135.986 103.711 285.715  1.00  0.00    -0.029 C 
HETATM   19  C12 UNL     1     135.779 104.986 286.056  1.00  0.00    -0.028 C 
HETATM   20  C13 UNL     1     134.712 105.995 286.031  1.00  0.00     0.055 C 
HETATM   21  C14 UNL     1     133.530 105.620 285.169  1.00  0.00     0.127 C 
BRANCH  21  22
HETATM   22  N1  UNL     1     132.981 106.733 284.460  1.00  0.00    -0.353 N 
HETATM   23  C15 UNL     1     132.575 106.654 283.099  1.00  0.00     0.214 C 
HETATM   24  C16 UNL     1     132.011 107.833 282.401  1.00  0.00     0.117 C 
HETATM   25  O4  UNL     1     132.715 105.547 282.518  1.00  0.00    -0.274 OA
ATOM     26  H1  UNL     1     132.876 107.621 284.950  1.00  0.00     0.163 HD
ENDBRANCH  21  22
ENDBRANCH  11  12
ENDBRANCH   5  11
BRANCH   4  27
HETATM   27  O2  UNL     1     129.828 106.694 289.372  1.00  0.00    -0.388 OA
ATOM     28  H2  UNL     1     129.696 106.248 290.200  1.00  0.00     0.210 HD
ENDBRANCH   4  27
BRANCH   7  29
HETATM   29  C20 UNL     1     129.200 107.855 284.852  1.00  0.00     0.176 C 
BRANCH  29  30
HETATM   30  O5  UNL     1     130.353 108.526 285.204  1.00  0.00    -0.400 OA
ATOM     31  H5  UNL     1     130.262 109.166 285.900  1.00  0.00     0.209 HD
ENDBRANCH  29  30
ENDBRANCH   7  29
BRANCH   1  32
HETATM   32  O1  UNL     1     126.773 104.759 287.224  1.00  0.00    -0.356 OA
HETATM   33  C1  UNL     1     125.450 104.720 287.467  1.00  0.00     0.209 C 
ENDBRANCH   1  32
TORSDOF 7
ENDMDL
MODEL 2
REMARK VINA RESULT: -7.362964308      3.262      5.612
REMARK  7 active torsions:
REMARK  status: ('A' for Active; 'I' for Inactive)
REMARK    1  A    between atoms: O1_2  and  C2_3 
REMARK    2  A    between atoms: C4_6  and  O2_7 
REMARK    3  A    between atoms: C5_9  and  O3_10 
REMARK    4  A    between atoms: O3_10  and  C6_11 
REMARK    5  A    between atoms: C14_20  and  N1_21 
REMARK       I    between atoms: N1_21  and  C15_23 
REMARK    6  A    between atoms: C18_27  and  C20_29 
REMARK    7  A    between atoms: C20_29  and  O5_30 
ROOT
HETATM    1  C2  UNL     1     134.825 104.277 287.906  1.00  0.00     0.096 C 
HETATM    2  C3  UNL     1     135.255 104.597 286.702  1.00  0.00     0.052 C 
HETATM    3 BR1  UNL     1     136.597 103.457 285.999  1.00  0.00    -0.050 Br
HETATM    4  C4  UNL     1     134.831 105.747 285.815  1.00  0.00     0.190 C 
HETATM    5  C5  UNL     1     133.370 105.779 285.725  1.00  0.00     0.158 C 
HETATM    6  C17 UNL     1     132.666 104.596 286.367  1.00  0.00     0.049 C 
HETATM    7  C18 UNL     1     132.470 104.690 287.836  1.00  0.00     0.017 C 
HETATM    8  C19 UNL     1     132.274 103.231 288.313  1.00  0.00     0.021 C 
HETATM    9  C21 UNL     1     133.739 105.125 288.579  1.00  0.00     0.238 C 
HETATM   10  F1  UNL     1     133.714 104.762 289.896  1.00  0.00    -0.241 F 
ENDROOT
BRANCH   5  11
HETATM   11  O3  UNL     1     132.788 105.925 284.489  1.00  0.00    -0.365 OA
BRANCH  11  12
HETATM   12  C6  UNL     1     131.850 105.048 284.093  1.00  0.00     0.207 C 
HETATM   13  S1  UNL     1     132.686 103.836 282.991  1.00  0.00    -0.126 SA
HETATM   14  C7  UNL     1     131.571 102.567 282.403  1.00  0.00     0.006 C 
HETATM   15  C8  UNL     1     132.433 101.364 282.020  1.00  0.00     0.027 C 
HETATM   16  C9  UNL     1     130.640 102.108 283.518  1.00  0.00     0.027 C 
HETATM   17  C10 UNL     1     130.759 102.971 281.217  1.00  0.00     0.046 C 
HETATM   18  C11 UNL     1     131.273 104.149 280.489  1.00  0.00    -0.029 C 
HETATM   19  C12 UNL     1     131.589 105.401 280.830  1.00  0.00    -0.028 C 
HETATM   20  C13 UNL     1     131.610 106.271 282.013  1.00  0.00     0.055 C 
HETATM   21  C14 UNL     1     130.847 105.721 283.195  1.00  0.00     0.127 C 
BRANCH  21  22
HETATM   22  N1  UNL     1     130.145 106.730 283.925  1.00  0.00    -0.353 N 
HETATM   23  C15 UNL     1     128.979 106.455 284.692  1.00  0.00     0.214 C 
HETATM   24  C16 UNL     1     128.281 107.532 285.433  1.00  0.00     0.117 C 
HETATM   25  O4  UNL     1     128.569 105.266 284.712  1.00  0.00    -0.274 OA
ATOM     26  H1  UNL     1     130.496 107.688 283.894  1.00  0.00     0.163 HD
ENDBRANCH  21  22
ENDBRANCH  11  12
ENDBRANCH   5  11
BRANCH   4  27
HETATM   27  O2  UNL     1     135.341 106.890 286.482  1.00  0.00    -0.388 OA
ATOM     28  H2  UNL     1     134.712 107.571 286.274  1.00  0.00     0.210 HD
ENDBRANCH   4  27
BRANCH   7  29
HETATM   29  C20 UNL     1     131.251 105.416 288.289  1.00  0.00     0.176 C 
BRANCH  29  30
HETATM   30  O5  UNL     1     131.456 106.690 288.775  1.00  0.00    -0.400 OA
ATOM     31  H5  UNL     1     130.955 106.924 289.547  1.00  0.00     0.209 HD
ENDBRANCH  29  30
ENDBRANCH   7  29
BRANCH   1  32
HETATM   32  O1  UNL     1     135.288 103.243 288.576  1.00  0.00    -0.356 OA
HETATM   33  C1  UNL     1     135.191 101.910 288.726  1.00  0.00     0.209 C 
ENDBRANCH   1  32
TORSDOF 7
ENDMDL
MODEL 3
REMARK VINA RESULT: -7.236284107      1.599      1.973
REMARK  7 active torsions:
REMARK  status: ('A' for Active; 'I' for Inactive)
REMARK    1  A    between atoms: O1_2  and  C2_3 
REMARK    2  A    between atoms: C4_6  and  O2_7 
REMARK    3  A    between atoms: C5_9  and  O3_10 
REMARK    4  A    between atoms: O3_10  and  C6_11 
REMARK    5  A    between atoms: C14_20  and  N1_21 
REMARK       I    between atoms: N1_21  and  C15_23 
REMARK    6  A    between atoms: C18_27  and  C20_29 
REMARK    7  A    between atoms: C20_29  and  O5_30 
ROOT
HETATM    1  C2  UNL     1     127.044 105.661 287.846  1.00  0.00     0.096 C 
HETATM    2  C3  UNL     1     128.161 105.091 288.248  1.00  0.00     0.052 C 
HETATM    3 BR1  UNL     1     127.955 103.367 289.012  1.00  0.00    -0.050 Br
HETATM    4  C4  UNL     1     129.576 105.625 288.190  1.00  0.00     0.190 C 
HETATM    5  C5  UNL     1     129.855 106.115 286.839  1.00  0.00     0.158 C 
HETATM    6  C17 UNL     1     128.771 105.818 285.817  1.00  0.00     0.049 C 
HETATM    7  C18 UNL     1     127.627 106.765 285.807  1.00  0.00     0.017 C 
HETATM    8  C19 UNL     1     126.466 105.991 285.140  1.00  0.00     0.021 C 
HETATM    9  C21 UNL     1     127.083 107.056 287.211  1.00  0.00     0.238 C 
HETATM   10  F1  UNL     1     125.796 107.512 287.180  1.00  0.00    -0.241 F 
ENDROOT
BRANCH   5  11
HETATM   11  O3  UNL     1     131.036 105.752 286.236  1.00  0.00    -0.365 OA
BRANCH  11  12
HETATM   12  C6  UNL     1     131.016 105.265 284.984  1.00  0.00     0.207 C 
HETATM   13  S1  UNL     1     131.356 103.461 285.109  1.00  0.00    -0.126 SA
HETATM   14  C7  UNL     1     131.327 102.650 283.516  1.00  0.00     0.006 C 
HETATM   15  C8  UNL     1     131.040 101.171 283.778  1.00  0.00     0.027 C 
HETATM   16  C9  UNL     1     130.181 103.178 282.662  1.00  0.00     0.027 C 
HETATM   17  C10 UNL     1     132.604 102.762 282.751  1.00  0.00     0.046 C 
HETATM   18  C11 UNL     1     133.778 103.148 283.562  1.00  0.00    -0.029 C 
HETATM   19  C12 UNL     1     134.060 104.162 284.384  1.00  0.00    -0.028 C 
HETATM   20  C13 UNL     1     133.437 105.380 284.920  1.00  0.00     0.055 C 
HETATM   21  C14 UNL     1     132.180 105.798 284.193  1.00  0.00     0.127 C 
BRANCH  21  22
HETATM   22  N1  UNL     1     132.061 107.216 284.056  1.00  0.00    -0.353 N 
HETATM   23  C15 UNL     1     131.824 107.850 282.805  1.00  0.00     0.214 C 
HETATM   24  C16 UNL     1     131.708 109.325 282.707  1.00  0.00     0.117 C 
HETATM   25  O4  UNL     1     131.718 107.111 281.793  1.00  0.00    -0.274 OA
ATOM     26  H1  UNL     1     132.150 107.797 284.889  1.00  0.00     0.163 HD
ENDBRANCH  21  22
ENDBRANCH  11  12
ENDBRANCH   5  11
BRANCH   4  27
HETATM   27  O2  UNL     1     129.576 106.677 289.141  1.00  0.00    -0.388 OA
ATOM     28  H2  UNL     1     130.332 106.488 289.684  1.00  0.00     0.210 HD
ENDBRANCH   4  27
BRANCH   7  29
HETATM   29  C20 UNL     1     127.801 107.994 284.983  1.00  0.00     0.176 C 
BRANCH  29  30
HETATM   30  O5  UNL     1     129.100 108.429 284.820  1.00  0.00    -0.400 OA
ATOM     31  H5  UNL     1     129.347 108.671 283.935  1.00  0.00     0.209 HD
ENDBRANCH  29  30
ENDBRANCH   7  29
BRANCH   1  32
HETATM   32  O1  UNL     1     125.867 105.082 287.963  1.00  0.00    -0.356 OA
HETATM   33  C1  UNL     1     124.999 104.247 287.363  1.00  0.00     0.209 C 
ENDBRANCH   1  32
TORSDOF 7
ENDMDL
MODEL 4
REMARK VINA RESULT: -7.095965861      2.129      3.030
REMARK  7 active torsions:
REMARK  status: ('A' for Active; 'I' for Inactive)
REMARK    1  A    between atoms: O1_2  and  C2_3 
REMARK    2  A    between atoms: C4_6  and  O2_7 
REMARK    3  A    between atoms: C5_9  and  O3_10 
REMARK    4  A    between atoms: O3_10  and  C6_11 
REMARK    5  A    between atoms: C14_20  and  N1_21 
REMARK       I    between atoms: N1_21  and  C15_23 
REMARK    6  A    between atoms: C18_27  and  C20_29 
REMARK    7  A    between atoms: C20_29  and  O5_30 
ROOT
HETATM    1  C2  UNL     1     129.237 107.040 286.509  1.00  0.00     0.096 C 
HETATM    2  C3  UNL     1     129.503 106.468 287.665  1.00  0.00     0.052 C 
HETATM    3 BR1  UNL     1     127.982 106.013 288.704  1.00  0.00    -0.050 Br
HETATM    4  C4  UNL     1     130.846 106.134 288.275  1.00  0.00     0.190 C 
HETATM    5  C5  UNL     1     131.662 105.418 287.293  1.00  0.00     0.158 C 
HETATM    6  C17 UNL     1     130.933 105.037 286.017  1.00  0.00     0.049 C 
HETATM    7  C18 UNL     1     130.836 106.109 284.993  1.00  0.00     0.017 C 
HETATM    8  C19 UNL     1     129.643 105.707 284.095  1.00  0.00     0.021 C 
HETATM    9  C21 UNL     1     130.385 107.453 285.580  1.00  0.00     0.238 C 
HETATM   10  F1  UNL     1     129.848 108.274 284.630  1.00  0.00    -0.241 F 
ENDROOT
BRANCH   5  11
HETATM   11  O3  UNL     1     132.325 104.281 287.689  1.00  0.00    -0.365 OA
BRANCH  11  12
HETATM   12  C6  UNL     1     133.255 103.745 286.882  1.00  0.00     0.207 C 
HETATM   13  S1  UNL     1     132.889 101.945 286.770  1.00  0.00    -0.126 SA
HETATM   14  C7  UNL     1     134.027 101.084 285.692  1.00  0.00     0.006 C 
HETATM   15  C8  UNL     1     133.318  99.811 285.228  1.00  0.00     0.027 C 
HETATM   16  C9  UNL     1     134.316 101.909 284.444  1.00  0.00     0.027 C 
HETATM   17  C10 UNL     1     135.316 100.705 286.343  1.00  0.00     0.046 C 
HETATM   18  C11 UNL     1     135.291 100.726 287.820  1.00  0.00    -0.029 C 
HETATM   19  C12 UNL     1     134.974 101.640 288.742  1.00  0.00    -0.028 C 
HETATM   20  C13 UNL     1     134.508 103.030 288.831  1.00  0.00     0.055 C 
HETATM   21  C14 UNL     1     134.611 103.797 287.534  1.00  0.00     0.127 C 
BRANCH  21  22
HETATM   22  N1  UNL     1     135.004 105.159 287.721  1.00  0.00    -0.353 N 
HETATM   23  C15 UNL     1     135.656 105.918 286.710  1.00  0.00     0.214 C 
HETATM   24  C16 UNL     1     136.047 107.328 286.947  1.00  0.00     0.117 C 
HETATM   25  O4  UNL     1     135.884 105.344 285.614  1.00  0.00    -0.274 OA
ATOM     26  H1  UNL     1     134.809 105.605 288.618  1.00  0.00     0.163 HD
ENDBRANCH  21  22
ENDBRANCH  11  12
ENDBRANCH   5  11
BRANCH   4  27
HETATM   27  O2  UNL     1     131.396 107.404 288.589  1.00  0.00    -0.388 OA
ATOM     28  H2  UNL     1     130.859 107.708 289.311  1.00  0.00     0.210 HD
ENDBRANCH   4  27
BRANCH   7  29
HETATM   29  C20 UNL     1     131.996 106.238 284.067  1.00  0.00     0.176 C 
BRANCH  29  30
HETATM   30  O5  UNL     1     133.200 106.568 284.654  1.00  0.00    -0.400 OA
ATOM     31  H5  UNL     1     133.969 106.156 284.279  1.00  0.00     0.209 HD
ENDBRANCH  29  30
ENDBRANCH   7  29
BRANCH   1  32
HETATM   32  O1  UNL     1     128.009 107.280 286.098  1.00  0.00    -0.356 OA
HETATM   33  C1  UNL     1     126.986 106.787 285.377  1.00  0.00     0.209 C 
ENDBRANCH   1  32
TORSDOF 7
ENDMDL
MODEL 5
REMARK VINA RESULT: -7.053456652      2.243      2.761
REMARK  7 active torsions:
REMARK  status: ('A' for Active; 'I' for Inactive)
REMARK    1  A    between atoms: O1_2  and  C2_3 
REMARK    2  A    between atoms: C4_6  and  O2_7 
REMARK    3  A    between atoms: C5_9  and  O3_10 
REMARK    4  A    between atoms: O3_10  and  C6_11 
REMARK    5  A    between atoms: C14_20  and  N1_21 
REMARK       I    between atoms: N1_21  and  C15_23 
REMARK    6  A    between atoms: C18_27  and  C20_29 
REMARK    7  A    between atoms: C20_29  and  O5_30 
ROOT
HETATM    1  C2  UNL     1     126.058 104.337 287.580  1.00  0.00     0.096 C 
HETATM    2  C3  UNL     1     127.221 103.886 288.005  1.00  0.00     0.052 C 
HETATM    3 BR1  UNL     1     127.234 102.062 288.523  1.00  0.00    -0.050 Br
HETATM    4  C4  UNL     1     128.535 104.623 288.140  1.00  0.00     0.190 C 
HETATM    5  C5  UNL     1     128.827 105.330 286.891  1.00  0.00     0.158 C 
HETATM    6  C17 UNL     1     127.875 105.023 285.748  1.00  0.00     0.049 C 
HETATM    7  C18 UNL     1     126.601 105.786 285.756  1.00  0.00     0.017 C 
HETATM    8  C19 UNL     1     125.623 104.951 284.896  1.00  0.00     0.021 C 
HETATM    9  C21 UNL     1     125.923 105.797 287.132  1.00  0.00     0.238 C 
HETATM   10  F1  UNL     1     124.586 106.061 287.044  1.00  0.00    -0.241 F 
ENDROOT
BRANCH   5  11
HETATM   11  O3  UNL     1     130.088 105.230 286.355  1.00  0.00    -0.365 OA
BRANCH  11  12
HETATM   12  C6  UNL     1     130.232 105.094 285.026  1.00  0.00     0.207 C 
HETATM   13  S1  UNL     1     130.962 103.431 284.738  1.00  0.00    -0.126 SA
HETATM   14  C7  UNL     1     131.185 103.076 282.999  1.00  0.00     0.006 C 
HETATM   15  C8  UNL     1     131.226 101.554 282.860  1.00  0.00     0.027 C 
HETATM   16  C9  UNL     1     129.987 103.561 282.192  1.00  0.00     0.027 C 
HETATM   17  C10 UNL     1     132.436 103.644 282.415  1.00  0.00     0.046 C 
HETATM   18  C11 UNL     1     133.457 104.038 283.408  1.00  0.00    -0.029 C 
HETATM   19  C12 UNL     1     133.468 104.838 284.479  1.00  0.00    -0.028 C 
HETATM   20  C13 UNL     1     132.566 105.718 285.232  1.00  0.00     0.055 C 
HETATM   21  C14 UNL     1     131.280 106.043 284.510  1.00  0.00     0.127 C 
BRANCH  21  22
HETATM   22  N1  UNL     1     130.851 107.392 284.714  1.00  0.00    -0.353 N 
HETATM   23  C15 UNL     1     130.981 108.399 283.718  1.00  0.00     0.214 C 
HETATM   24  C16 UNL     1     130.524 109.786 283.971  1.00  0.00     0.117 C 
HETATM   25  O4  UNL     1     131.496 108.064 282.621  1.00  0.00    -0.274 OA
ATOM     26  H1  UNL     1     130.436 107.642 285.611  1.00  0.00     0.163 HD
ENDBRANCH  21  22
ENDBRANCH  11  12
ENDBRANCH   5  11
BRANCH   4  27
HETATM   27  O2  UNL     1     128.306 105.523 289.212  1.00  0.00    -0.388 OA
ATOM     28  H2  UNL     1     128.574 105.030 289.979  1.00  0.00     0.210 HD
ENDBRANCH   4  27
BRANCH   7  29
HETATM   29  C20 UNL     1     126.637 107.129 285.113  1.00  0.00     0.176 C 
BRANCH  29  30
HETATM   30  O5  UNL     1     127.868 107.751 285.089  1.00  0.00    -0.400 OA
ATOM     31  H5  UNL     1     128.065 108.306 285.834  1.00  0.00     0.209 HD
ENDBRANCH  29  30
ENDBRANCH   7  29
BRANCH   1  32
HETATM   32  O1  UNL     1     124.981 103.582 287.518  1.00  0.00    -0.356 OA
HETATM   33  C1  UNL     1     123.840 103.259 288.153  1.00  0.00     0.209 C 
ENDBRANCH   1  32
TORSDOF 7
ENDMDL
