MODEL 1
REMARK VINA RESULT: -7.457890304      0.000      0.000
REMARK  7 active torsions:
REMARK  status: ('A' for Active; 'I' for Inactive)
REMARK    1  A    between atoms: O1_2  and  C2_3 
REMARK    2  A    between atoms: C2_3  and  C3_4 
REMARK    3  A    between atoms: C3_4  and  O2_5 
REMARK    4  A    between atoms: C5_8  and  O3_9 
REMARK    5  A    between atoms: O3_9  and  C6_10 
REMARK       I    between atoms: C6_10  and  N1_12 
REMARK    6  A    between atoms: C7_15  and  O5_16 
REMARK    7  A    between atoms: C19_30  and  O6_31 
ROOT
HETATM    1  C3  UNL     1     130.722 105.990 286.862  1.00  0.00     0.084 C 
HETATM    2  C4  UNL     1     129.665 106.996 286.666  1.00  0.00     0.075 C 
HETATM    3  C5  UNL     1     128.903 107.045 285.402  1.00  0.00     0.165 C 
HETATM    4  C7  UNL     1     129.618 107.834 284.334  1.00  0.00     0.148 C 
HETATM    5  C8  UNL     1     131.117 107.885 284.463  1.00  0.00     0.042 C 
HETATM    6  C9  UNL     1     131.846 106.736 283.886  1.00  0.00     0.024 C 
HETATM    7  C10 UNL     1     130.922 105.989 282.970  1.00  0.00     0.014 C 
HETATM    8  C11 UNL     1     131.877 104.882 282.593  1.00  0.00     0.016 C 
HETATM    9  C12 UNL     1     131.232 103.769 281.876  1.00  0.00     0.019 C 
HETATM   10  C13 UNL     1     129.758 103.738 282.226  1.00  0.00     0.028 C 
HETATM   11 BR1  UNL     1     131.254 104.180 279.956  1.00  0.00    -0.086 Br
HETATM   12  C14 UNL     1     131.844 102.426 282.032  1.00  0.00     0.021 C 
HETATM   13  C15 UNL     1     132.629 102.216 283.269  1.00  0.00     0.002 C 
HETATM   14  C16 UNL     1     132.364 103.222 284.370  1.00  0.00     0.012 C 
HETATM   15  C17 UNL     1     132.624 104.585 283.823  1.00  0.00    -0.007 C 
HETATM   16  C18 UNL     1     134.106 104.576 283.406  1.00  0.00     0.019 C 
HETATM   17  C19 UNL     1     132.365 105.696 284.867  1.00  0.00     0.074 C 
HETATM   18  C21 UNL     1     131.331 105.229 285.809  1.00  0.00     0.079 C 
ENDROOT
BRANCH   3  19
HETATM   19  O3  UNL     1     127.712 107.802 285.657  1.00  0.00    -0.295 OA
BRANCH  19  20
HETATM   20  C6  UNL     1     126.512 107.184 285.867  1.00  0.00     0.375 C 
HETATM   21  O4  UNL     1     125.999 106.534 284.942  1.00  0.00    -0.237 OA
HETATM   22  N1  UNL     1     125.859 107.280 287.117  1.00  0.00    -0.244 N 
HETATM   23 CL1  UNL     1     124.336 106.478 287.336  1.00  0.00     0.015 Cl
ATOM     24  H1  UNL     1     126.277 107.814 287.879  1.00  0.00     0.185 HD
ENDBRANCH  19  20
ENDBRANCH   3  19
BRANCH   4  25
HETATM   25  O5  UNL     1     129.178 109.183 284.341  1.00  0.00    -0.393 OA
ATOM     26  H5  UNL     1     128.748 109.393 283.521  1.00  0.00     0.210 HD
ENDBRANCH   4  25
BRANCH   1  27
HETATM   27  C2  UNL     1     130.035 104.912 287.777  1.00  0.00     0.205 C 
BRANCH  27  28
HETATM   28  O1  UNL     1     128.964 105.529 288.400  1.00  0.00    -0.393 OA
HETATM   29  C1  UNL     1     127.961 104.614 288.609  1.00  0.00     0.201 C 
ENDBRANCH  27  28
ENDBRANCH   1  27
BRANCH   1  30
HETATM   30  O2  UNL     1     131.573 106.574 287.833  1.00  0.00    -0.387 OA
ATOM     31  H2  UNL     1     132.397 106.479 287.371  1.00  0.00     0.210 HD
ENDBRANCH   1  30
BRANCH  17  32
HETATM   32  O6  UNL     1     133.518 106.202 285.364  1.00  0.00    -0.384 OA
HETATM   33  C20 UNL     1     134.230 105.656 286.351  1.00  0.00     0.202 C 
ENDBRANCH  17  32
TORSDOF 7
ENDMDL
MODEL 2
REMARK VINA RESULT: -7.044547596      2.117      3.285
REMARK  7 active torsions:
REMARK  status: ('A' for Active; 'I' for Inactive)
REMARK    1  A    between atoms: O1_2  and  C2_3 
REMARK    2  A    between atoms: C2_3  and  C3_4 
REMARK    3  A    between atoms: C3_4  and  O2_5 
REMARK    4  A    between atoms: C5_8  and  O3_9 
REMARK    5  A    between atoms: O3_9  and  C6_10 
REMARK       I    between atoms: C6_10  and  N1_12 
REMARK    6  A    between atoms: C7_15  and  O5_16 
REMARK    7  A    between atoms: C19_30  and  O6_31 
ROOT
HETATM    1  C3  UNL     1     129.453 103.542 286.391  1.00  0.00     0.084 C 
HETATM    2  C4  UNL     1     129.334 104.579 287.429  1.00  0.00     0.075 C 
HETATM    3  C5  UNL     1     129.822 105.950 287.176  1.00  0.00     0.165 C 
HETATM    4  C7  UNL     1     131.300 106.090 287.445  1.00  0.00     0.148 C 
HETATM    5  C8  UNL     1     132.104 104.826 287.300  1.00  0.00     0.042 C 
HETATM    6  C9  UNL     1     132.542 104.504 285.925  1.00  0.00     0.024 C 
HETATM    7  C10 UNL     1     132.398 105.729 285.072  1.00  0.00     0.014 C 
HETATM    8  C11 UNL     1     132.837 105.110 283.768  1.00  0.00     0.016 C 
HETATM    9  C12 UNL     1     132.581 105.966 282.597  1.00  0.00     0.019 C 
HETATM   10  C13 UNL     1     131.450 106.922 282.915  1.00  0.00     0.028 C 
HETATM   11 BR1  UNL     1     134.135 107.139 282.341  1.00  0.00    -0.086 Br
HETATM   12  C14 UNL     1     132.348 105.279 281.302  1.00  0.00     0.021 C 
HETATM   13  C15 UNL     1     131.836 103.892 281.391  1.00  0.00     0.002 C 
HETATM   14  C16 UNL     1     131.240 103.520 282.733  1.00  0.00     0.012 C 
HETATM   15  C17 UNL     1     132.276 103.752 283.780  1.00  0.00    -0.007 C 
HETATM   16  C18 UNL     1     133.447 102.826 283.401  1.00  0.00     0.019 C 
HETATM   17  C19 UNL     1     131.762 103.417 285.199  1.00  0.00     0.074 C 
HETATM   18  C21 UNL     1     130.305 103.633 285.239  1.00  0.00     0.079 C 
ENDROOT
BRANCH   3  19
HETATM   19  O3  UNL     1     129.208 106.802 288.152  1.00  0.00    -0.295 OA
BRANCH  19  20
HETATM   20  C6  UNL     1     127.865 106.744 288.397  1.00  0.00     0.375 C 
HETATM   21  O4  UNL     1     127.472 106.556 289.560  1.00  0.00    -0.237 OA
HETATM   22  N1  UNL     1     126.932 106.893 287.347  1.00  0.00    -0.244 N 
HETATM   23 CL1  UNL     1     125.236 106.811 287.706  1.00  0.00     0.015 Cl
ATOM     24  H1  UNL     1     127.251 107.046 286.389  1.00  0.00     0.185 HD
ENDBRANCH  19  20
ENDBRANCH   3  19
BRANCH   4  25
HETATM   25  O5  UNL     1     131.518 106.542 288.772  1.00  0.00    -0.393 OA
ATOM     26  H5  UNL     1     131.024 107.337 288.935  1.00  0.00     0.210 HD
ENDBRANCH   4  25
BRANCH   1  27
HETATM   27  C2  UNL     1     128.001 103.450 285.798  1.00  0.00     0.205 C 
BRANCH  27  28
HETATM   28  O1  UNL     1     127.122 103.765 286.820  1.00  0.00    -0.393 OA
HETATM   29  C1  UNL     1     125.848 103.402 286.462  1.00  0.00     0.201 C 
ENDBRANCH  27  28
ENDBRANCH   1  27
BRANCH   1  30
HETATM   30  O2  UNL     1     129.457 102.328 287.121  1.00  0.00    -0.387 OA
ATOM     31  H2  UNL     1     129.309 101.730 286.398  1.00  0.00     0.210 HD
ENDBRANCH   1  30
BRANCH  17  32
HETATM   32  O6  UNL     1     132.260 102.242 285.654  1.00  0.00    -0.384 OA
HETATM   33  C20 UNL     1     131.757 101.039 285.373  1.00  0.00     0.202 C 
ENDBRANCH  17  32
TORSDOF 7
ENDMDL
MODEL 3
REMARK VINA RESULT: -6.957776450      2.328      3.677
REMARK  7 active torsions:
REMARK  status: ('A' for Active; 'I' for Inactive)
REMARK    1  A    between atoms: O1_2  and  C2_3 
REMARK    2  A    between atoms: C2_3  and  C3_4 
REMARK    3  A    between atoms: C3_4  and  O2_5 
REMARK    4  A    between atoms: C5_8  and  O3_9 
REMARK    5  A    between atoms: O3_9  and  C6_10 
REMARK       I    between atoms: C6_10  and  N1_12 
REMARK    6  A    between atoms: C7_15  and  O5_16 
REMARK    7  A    between atoms: C19_30  and  O6_31 
ROOT
HETATM    1  C3  UNL     1     127.860 103.978 284.884  1.00  0.00     0.084 C 
HETATM    2  C4  UNL     1     127.826 104.819 286.092  1.00  0.00     0.075 C 
HETATM    3  C5  UNL     1     128.706 106.000 286.206  1.00  0.00     0.165 C 
HETATM    4  C7  UNL     1     130.085 105.640 286.701  1.00  0.00     0.148 C 
HETATM    5  C8  UNL     1     130.530 104.233 286.403  1.00  0.00     0.042 C 
HETATM    6  C9  UNL     1     131.123 104.022 285.066  1.00  0.00     0.024 C 
HETATM    7  C10 UNL     1     131.484 105.355 284.481  1.00  0.00     0.014 C 
HETATM    8  C11 UNL     1     131.984 104.853 283.148  1.00  0.00     0.016 C 
HETATM    9  C12 UNL     1     132.202 105.925 282.162  1.00  0.00     0.019 C 
HETATM   10  C13 UNL     1     131.332 107.113 282.516  1.00  0.00     0.028 C 
HETATM   11 BR1  UNL     1     134.034 106.597 282.379  1.00  0.00    -0.086 Br
HETATM   12  C14 UNL     1     132.047 105.561 280.731  1.00  0.00     0.021 C 
HETATM   13  C15 UNL     1     131.172 104.399 280.452  1.00  0.00     0.002 C 
HETATM   14  C16 UNL     1     130.249 104.012 281.589  1.00  0.00     0.012 C 
HETATM   15  C17 UNL     1     131.086 103.745 282.794  1.00  0.00    -0.007 C 
HETATM   16  C18 UNL     1     132.013 102.583 282.393  1.00  0.00     0.019 C 
HETATM   17  C19 UNL     1     130.235 103.355 284.025  1.00  0.00     0.074 C 
HETATM   18  C21 UNL     1     128.911 103.993 283.907  1.00  0.00     0.079 C 
ENDROOT
BRANCH   3  19
HETATM   19  O3  UNL     1     128.167 106.827 287.246  1.00  0.00    -0.295 OA
BRANCH  19  20
HETATM   20  C6  UNL     1     126.822 106.896 287.470  1.00  0.00     0.375 C 
HETATM   21  O4  UNL     1     126.371 106.504 288.558  1.00  0.00    -0.237 OA
HETATM   22  N1  UNL     1     125.950 107.404 286.480  1.00  0.00    -0.244 N 
HETATM   23 CL1  UNL     1     124.247 107.471 286.810  1.00  0.00     0.015 Cl
ATOM     24  H1  UNL     1     126.316 107.726 285.584  1.00  0.00     0.185 HD
ENDBRANCH  19  20
ENDBRANCH   3  19
BRANCH   4  25
HETATM   25  O5  UNL     1     130.155 105.782 288.111  1.00  0.00    -0.393 OA
ATOM     26  H5  UNL     1     131.008 106.111 288.366  1.00  0.00     0.210 HD
ENDBRANCH   4  25
BRANCH   1  27
HETATM   27  C2  UNL     1     126.581 104.428 284.090  1.00  0.00     0.205 C 
BRANCH  27  28
HETATM   28  O1  UNL     1     125.576 104.637 285.019  1.00  0.00    -0.393 OA
HETATM   29  C1  UNL     1     124.394 104.125 284.545  1.00  0.00     0.201 C 
ENDBRANCH  27  28
ENDBRANCH   1  27
BRANCH   1  30
HETATM   30  O2  UNL     1     127.393 102.718 285.333  1.00  0.00    -0.387 OA
ATOM     31  H2  UNL     1     128.169 102.443 285.806  1.00  0.00     0.210 HD
ENDBRANCH   1  30
BRANCH  17  32
HETATM   32  O6  UNL     1     130.298 102.028 284.284  1.00  0.00    -0.384 OA
HETATM   33  C20 UNL     1     130.716 101.491 285.431  1.00  0.00     0.202 C 
ENDBRANCH  17  32
TORSDOF 7
ENDMDL
MODEL 4
REMARK VINA RESULT: -6.878394571      3.926      6.760
REMARK  7 active torsions:
REMARK  status: ('A' for Active; 'I' for Inactive)
REMARK    1  A    between atoms: O1_2  and  C2_3 
REMARK    2  A    between atoms: C2_3  and  C3_4 
REMARK    3  A    between atoms: C3_4  and  O2_5 
REMARK    4  A    between atoms: C5_8  and  O3_9 
REMARK    5  A    between atoms: O3_9  and  C6_10 
REMARK       I    between atoms: C6_10  and  N1_12 
REMARK    6  A    between atoms: C7_15  and  O5_16 
REMARK    7  A    between atoms: C19_30  and  O6_31 
ROOT
HETATM    1  C3  UNL     1     129.762 105.983 285.165  1.00  0.00     0.084 C 
HETATM    2  C4  UNL     1     131.016 106.316 285.860  1.00  0.00     0.075 C 
HETATM    3  C5  UNL     1     131.437 105.554 287.053  1.00  0.00     0.165 C 
HETATM    4  C7  UNL     1     130.797 106.074 288.317  1.00  0.00     0.148 C 
HETATM    5  C8  UNL     1     129.473 106.766 288.133  1.00  0.00     0.042 C 
HETATM    6  C9  UNL     1     128.292 105.879 288.082  1.00  0.00     0.024 C 
HETATM    7  C10 UNL     1     128.676 104.531 288.615  1.00  0.00     0.014 C 
HETATM    8  C11 UNL     1     127.349 103.848 288.392  1.00  0.00     0.016 C 
HETATM    9  C12 UNL     1     127.404 102.387 288.565  1.00  0.00     0.019 C 
HETATM   10  C13 UNL     1     128.822 101.909 288.330  1.00  0.00     0.028 C 
HETATM   11 BR1  UNL     1     127.075 101.980 290.458  1.00  0.00    -0.086 Br
HETATM   12  C14 UNL     1     126.435 101.581 287.781  1.00  0.00     0.021 C 
HETATM   13  C15 UNL     1     125.933 102.208 286.537  1.00  0.00     0.002 C 
HETATM   14  C16 UNL     1     126.765 103.367 286.030  1.00  0.00     0.012 C 
HETATM   15  C17 UNL     1     126.852 104.385 287.117  1.00  0.00    -0.007 C 
HETATM   16  C18 UNL     1     125.397 104.806 287.392  1.00  0.00     0.019 C 
HETATM   17  C19 UNL     1     127.699 105.611 286.706  1.00  0.00     0.074 C 
HETATM   18  C21 UNL     1     128.709 105.182 285.721  1.00  0.00     0.079 C 
ENDROOT
BRANCH   3  19
HETATM   19  O3  UNL     1     132.835 105.805 287.242  1.00  0.00    -0.295 OA
BRANCH  19  20
HETATM   20  C6  UNL     1     133.750 105.465 286.287  1.00  0.00     0.375 C 
HETATM   21  O4  UNL     1     133.809 104.286 285.901  1.00  0.00    -0.237 OA
HETATM   22  N1  UNL     1     134.622 106.435 285.742  1.00  0.00    -0.244 N 
HETATM   23 CL1  UNL     1     135.768 105.955 284.531  1.00  0.00     0.015 Cl
ATOM     24  H1  UNL     1     134.578 107.405 286.057  1.00  0.00     0.185 HD
ENDBRANCH  19  20
ENDBRANCH   3  19
BRANCH   4  25
HETATM   25  O5  UNL     1     131.648 107.017 288.948  1.00  0.00    -0.393 OA
ATOM     26  H5  UNL     1     132.333 106.572 289.431  1.00  0.00     0.210 HD
ENDBRANCH   4  25
BRANCH   1  27
HETATM   27  C2  UNL     1     130.245 105.176 283.906  1.00  0.00     0.205 C 
BRANCH  27  28
HETATM   28  O1  UNL     1     131.251 105.915 283.309  1.00  0.00    -0.393 OA
HETATM   29  C1  UNL     1     131.262 105.673 281.958  1.00  0.00     0.201 C 
ENDBRANCH  27  28
ENDBRANCH   1  27
BRANCH   1  30
HETATM   30  O2  UNL     1     129.402 107.188 284.514  1.00  0.00    -0.387 OA
ATOM     31  H2  UNL     1     128.796 107.522 285.164  1.00  0.00     0.210 HD
ENDBRANCH   1  30
BRANCH  17  32
HETATM   32  O6  UNL     1     126.928 106.687 286.422  1.00  0.00    -0.384 OA
HETATM   33  C20 UNL     1     126.354 106.927 285.242  1.00  0.00     0.202 C 
ENDBRANCH  17  32
TORSDOF 7
ENDMDL
MODEL 5
REMARK VINA RESULT: -6.841551241      4.453      6.175
REMARK  7 active torsions:
REMARK  status: ('A' for Active; 'I' for Inactive)
REMARK    1  A    between atoms: O1_2  and  C2_3 
REMARK    2  A    between atoms: C2_3  and  C3_4 
REMARK    3  A    between atoms: C3_4  and  O2_5 
REMARK    4  A    between atoms: C5_8  and  O3_9 
REMARK    5  A    between atoms: O3_9  and  C6_10 
REMARK       I    between atoms: C6_10  and  N1_12 
REMARK    6  A    between atoms: C7_15  and  O5_16 
REMARK    7  A    between atoms: C19_30  and  O6_31 
ROOT
HETATM    1  C3  UNL     1     135.976 103.284 285.806  1.00  0.00     0.084 C 
HETATM    2  C4  UNL     1     135.891 103.547 287.252  1.00  0.00     0.075 C 
HETATM    3  C5  UNL     1     134.577 103.662 287.916  1.00  0.00     0.165 C 
HETATM    4  C7  UNL     1     133.999 105.051 287.802  1.00  0.00     0.148 C 
HETATM    5  C8  UNL     1     134.457 105.844 286.608  1.00  0.00     0.042 C 
HETATM    6  C9  UNL     1     133.713 105.598 285.355  1.00  0.00     0.024 C 
HETATM    7  C10 UNL     1     132.429 104.896 285.686  1.00  0.00     0.014 C 
HETATM    8  C11 UNL     1     131.931 104.725 284.271  1.00  0.00     0.016 C 
HETATM    9  C12 UNL     1     130.774 103.821 284.162  1.00  0.00     0.019 C 
HETATM   10  C13 UNL     1     130.770 102.871 285.341  1.00  0.00     0.028 C 
HETATM   11 BR1  UNL     1     129.140 104.883 284.403  1.00  0.00    -0.086 Br
HETATM   12  C14 UNL     1     130.618 103.083 282.884  1.00  0.00     0.021 C 
HETATM   13  C15 UNL     1     131.860 102.869 282.107  1.00  0.00     0.002 C 
HETATM   14  C16 UNL     1     133.141 103.056 282.893  1.00  0.00     0.012 C 
HETATM   15  C17 UNL     1     133.131 104.428 283.476  1.00  0.00    -0.007 C 
HETATM   16  C18 UNL     1     133.063 105.379 282.267  1.00  0.00     0.019 C 
HETATM   17  C19 UNL     1     134.395 104.718 284.319  1.00  0.00     0.074 C 
HETATM   18  C21 UNL     1     134.891 103.449 284.881  1.00  0.00     0.079 C 
ENDROOT
BRANCH   3  19
HETATM   19  O3  UNL     1     134.799 103.491 289.322  1.00  0.00    -0.295 OA
BRANCH  19  20
HETATM   20  C6  UNL     1     133.796 103.078 290.152  1.00  0.00     0.375 C 
HETATM   21  O4  UNL     1     133.172 102.041 289.875  1.00  0.00    -0.237 OA
HETATM   22  N1  UNL     1     133.467 103.817 291.311  1.00  0.00    -0.244 N 
HETATM   23 CL1  UNL     1     132.185 103.254 292.335  1.00  0.00     0.015 Cl
ATOM     24  H1  UNL     1     133.977 104.671 291.542  1.00  0.00     0.185 HD
ENDBRANCH  19  20
ENDBRANCH   3  19
BRANCH   4  25
HETATM   25  O5  UNL     1     134.345 105.823 288.941  1.00  0.00    -0.393 OA
ATOM     26  H5  UNL     1     133.649 106.435 289.148  1.00  0.00     0.210 HD
ENDBRANCH   4  25
BRANCH   1  27
HETATM   27  C2  UNL     1     136.325 101.754 285.732  1.00  0.00     0.205 C 
BRANCH  27  28
HETATM   28  O1  UNL     1     137.489 101.636 284.993  1.00  0.00    -0.393 OA
HETATM   29  C1  UNL     1     137.707 100.317 284.681  1.00  0.00     0.201 C 
ENDBRANCH  27  28
ENDBRANCH   1  27
BRANCH   1  30
HETATM   30  O2  UNL     1     137.242 103.804 285.439  1.00  0.00    -0.387 OA
ATOM     31  H2  UNL     1     136.971 104.687 285.217  1.00  0.00     0.210 HD
ENDBRANCH   1  30
BRANCH  17  32
HETATM   32  O6  UNL     1     135.264 105.525 283.665  1.00  0.00    -0.384 OA
HETATM   33  C20 UNL     1     135.888 106.573 284.205  1.00  0.00     0.202 C 
ENDBRANCH  17  32
TORSDOF 7
ENDMDL
