MODEL 1
REMARK VINA RESULT: -6.860118607      0.000      0.000
REMARK  9 active torsions:
REMARK  status: ('A' for Active; 'I' for Inactive)
REMARK    1  A    between atoms: C4_7  and  N3_8 
REMARK    2  A    between atoms: C5_10  and  C6_11 
REMARK    3  A    between atoms: C6_11  and  C7_12 
REMARK    4  A    between atoms: C7_12  and  N4_13 
REMARK    5  A    between atoms: C8_16  and  N5_17 
REMARK    6  A    between atoms: C10_25  and  C11_26 
REMARK    7  A    between atoms: C12_29  and  S1_30 
REMARK    8  A    between atoms: S1_30  and  C13_31 
REMARK    9  A    between atoms: C14_35  and  N9_36 
ROOT
HETATM    1  N1  UNL     1     -31.767   6.888 -21.807  1.00  0.00    -0.190 NA
HETATM    2  C1  UNL     1     -31.888   7.422 -22.823  1.00  0.00     0.119 C 
HETATM    3  C2  UNL     1     -32.046   8.117 -24.097  1.00  0.00     0.135 A 
HETATM    4  N2  UNL     1     -31.254   7.744 -25.115  1.00  0.00    -0.330 N 
ATOM      5  H2  UNL     1     -30.581   6.990 -24.976  1.00  0.00     0.168 HD
HETATM    6  C3  UNL     1     -31.333   8.347 -26.313  1.00  0.00     0.148 A 
HETATM    7  C4  UNL     1     -30.490   7.930 -27.338  1.00  0.00     0.121 A 
HETATM    8  C8  UNL     1     -30.523   8.508 -28.577  1.00  0.00     0.134 A 
HETATM    9  N6  UNL     1     -31.408   9.493 -28.744  1.00  0.00    -0.292 N 
ATOM     10  H6  UNL     1     -31.465   9.952 -29.652  1.00  0.00     0.172 HD
HETATM   11  C9  UNL     1     -32.242   9.910 -27.740  1.00  0.00     0.334 A 
HETATM   12  O3  UNL     1     -33.009  10.824 -28.020  1.00  0.00    -0.246 OA
HETATM   13  N7  UNL     1     -32.222   9.354 -26.524  1.00  0.00    -0.239 N 
HETATM   14  C10 UNL     1     -33.040   9.758 -25.516  1.00  0.00     0.142 A 
HETATM   15  C12 UNL     1     -32.956   9.125 -24.262  1.00  0.00     0.076 A 
ENDROOT
BRANCH  15  16
HETATM   16  S1  UNL     1     -34.015   9.602 -22.930  1.00  0.00    -0.063 SA
BRANCH  16  17
HETATM   17  C13 UNL     1     -35.636   8.843 -22.943  1.00  0.00     0.458 C 
HETATM   18  N8  UNL     1     -36.618   9.898 -23.289  1.00  0.00     0.017 N 
HETATM   19  C14 UNL     1     -36.629  10.177 -21.841  1.00  0.00     0.583 C 
ATOM     20  H82 UNL     1     -36.419  10.621 -23.981  1.00  0.00     0.285 HD
ATOM     21  H81 UNL     1     -37.470   9.699 -23.812  1.00  0.00     0.285 HD
HETATM   22  N10 UNL     1     -36.345   8.764 -21.688  1.00  0.00     0.017 N 
ATOM     23 2H10 UNL     1     -37.094   8.086 -21.547  1.00  0.00     0.285 HD
ATOM     24 1H10 UNL     1     -35.894   8.403 -20.849  1.00  0.00     0.285 HD
BRANCH  19  25
HETATM   25  N9  UNL     1     -37.929  10.585 -21.352  1.00  0.00    -0.025 N 
ATOM     26  H93 UNL     1     -38.297  11.362 -21.901  1.00  0.00     0.278 HD
ATOM     27  H92 UNL     1     -38.635   9.881 -21.564  1.00  0.00     0.278 HD
ATOM     28  H91 UNL     1     -37.930  10.811 -20.357  1.00  0.00     0.278 HD
ENDBRANCH  19  25
ENDBRANCH  16  17
ENDBRANCH  15  16
BRANCH  14  29
HETATM   29  C11 UNL     1     -34.005  10.792 -25.615  1.00  0.00     0.229 C 
HETATM   30  O4  UNL     1     -35.189  10.735 -25.941  1.00  0.00    -0.643 OA
HETATM   31  O5  UNL     1     -33.636  12.143 -25.313  1.00  0.00    -0.643 OA
ENDBRANCH  14  29
BRANCH   7  32
HETATM   32  N3  UNL     1     -29.587   6.878 -27.060  1.00  0.00    -0.363 N 
HETATM   33  C5  UNL     1     -29.946   5.671 -27.320  1.00  0.00     0.063 C 
ATOM     34  H3  UNL     1     -28.669   7.073 -26.661  1.00  0.00     0.165 HD
BRANCH  33  35
HETATM   35  C6  UNL     1     -29.057   4.501 -27.058  1.00  0.00     0.070 C 
BRANCH  35  36
HETATM   36  C7  UNL     1     -29.875   3.319 -26.548  1.00  0.00     0.206 C 
BRANCH  36  37
HETATM   37  N4  UNL     1     -30.688   3.703 -25.425  1.00  0.00    -0.155 N 
HETATM   38  O1  UNL     1     -31.766   3.130 -25.181  1.00  0.00    -0.537 OA
HETATM   39  O2  UNL     1     -30.274   4.715 -24.604  1.00  0.00    -0.537 OA
ENDBRANCH  36  37
ENDBRANCH  35  36
ENDBRANCH  33  35
ENDBRANCH   7  32
BRANCH   8  40
HETATM   40  N5  UNL     1     -29.727   8.094 -29.498  1.00  0.00    -0.383 N 
ATOM     41  H52 UNL     1     -28.943   8.636 -29.860  1.00  0.00     0.157 HD
ATOM     42  H51 UNL     1     -29.863   7.170 -29.908  1.00  0.00     0.157 HD
ENDBRANCH   8  40
TORSDOF 9
ENDMDL
MODEL 2
REMARK VINA RESULT: -6.787511984      2.885      7.991
REMARK  9 active torsions:
REMARK  status: ('A' for Active; 'I' for Inactive)
REMARK    1  A    between atoms: C4_7  and  N3_8 
REMARK    2  A    between atoms: C5_10  and  C6_11 
REMARK    3  A    between atoms: C6_11  and  C7_12 
REMARK    4  A    between atoms: C7_12  and  N4_13 
REMARK    5  A    between atoms: C8_16  and  N5_17 
REMARK    6  A    between atoms: C10_25  and  C11_26 
REMARK    7  A    between atoms: C12_29  and  S1_30 
REMARK    8  A    between atoms: S1_30  and  C13_31 
REMARK    9  A    between atoms: C14_35  and  N9_36 
ROOT
HETATM    1  N1  UNL     1     -34.818  10.673 -27.572  1.00  0.00    -0.190 NA
HETATM    2  C1  UNL     1     -34.366  10.120 -26.665  1.00  0.00     0.119 C 
HETATM    3  C2  UNL     1     -33.775   9.421 -25.528  1.00  0.00     0.135 A 
HETATM    4  N2  UNL     1     -34.204   9.750 -24.300  1.00  0.00    -0.330 N 
ATOM      5  H2  UNL     1     -34.929  10.460 -24.195  1.00  0.00     0.168 HD
HETATM    6  C3  UNL     1     -33.697   9.158 -23.205  1.00  0.00     0.148 A 
HETATM    7  C4  UNL     1     -34.170   9.533 -21.951  1.00  0.00     0.121 A 
HETATM    8  C8  UNL     1     -33.690   8.968 -20.802  1.00  0.00     0.134 A 
HETATM    9  N6  UNL     1     -32.743   8.040 -20.954  1.00  0.00    -0.292 N 
ATOM     10  H6  UNL     1     -32.355   7.594 -20.123  1.00  0.00     0.172 HD
HETATM   11  C9  UNL     1     -32.271   7.664 -22.185  1.00  0.00     0.334 A 
HETATM   12  O3  UNL     1     -31.401   6.802 -22.189  1.00  0.00    -0.246 OA
HETATM   13  N7  UNL     1     -32.732   8.207 -23.317  1.00  0.00    -0.239 N 
HETATM   14  C10 UNL     1     -32.273   7.850 -24.545  1.00  0.00     0.142 A 
HETATM   15  C12 UNL     1     -32.805   8.469 -25.690  1.00  0.00     0.076 A 
ENDROOT
BRANCH  15  16
HETATM   16  S1  UNL     1     -32.255   8.019 -27.308  1.00  0.00    -0.063 SA
BRANCH  16  17
HETATM   17  C13 UNL     1     -30.666   8.693 -27.782  1.00  0.00     0.458 C 
HETATM   18  N8  UNL     1     -30.442   8.345 -29.204  1.00  0.00     0.017 N 
HETATM   19  C14 UNL     1     -29.883   7.089 -28.672  1.00  0.00     0.583 C 
ATOM     20  H82 UNL     1     -31.195   8.358 -29.893  1.00  0.00     0.285 HD
ATOM     21  H81 UNL     1     -29.918   8.950 -29.837  1.00  0.00     0.285 HD
HETATM   22  N10 UNL     1     -29.496   7.886 -27.526  1.00  0.00     0.017 N 
ATOM     23 2H10 UNL     1     -28.569   8.306 -27.462  1.00  0.00     0.285 HD
ATOM     24 1H10 UNL     1     -29.338   7.459 -26.614  1.00  0.00     0.285 HD
BRANCH  19  25
HETATM   25  N9  UNL     1     -28.775   6.584 -29.455  1.00  0.00    -0.025 N 
ATOM     26  H93 UNL     1     -28.876   6.843 -30.437  1.00  0.00     0.278 HD
ATOM     27  H92 UNL     1     -27.916   7.088 -29.236  1.00  0.00     0.278 HD
ATOM     28  H91 UNL     1     -28.641   5.577 -29.357  1.00  0.00     0.278 HD
ENDBRANCH  19  25
ENDBRANCH  16  17
ENDBRANCH  15  16
BRANCH  14  29
HETATM   29  C11 UNL     1     -31.273   6.873 -24.788  1.00  0.00     0.229 C 
HETATM   30  O4  UNL     1     -31.386   5.668 -25.006  1.00  0.00    -0.643 OA
HETATM   31  O5  UNL     1     -29.892   7.254 -24.798  1.00  0.00    -0.643 OA
ENDBRANCH  14  29
BRANCH   7  32
HETATM   32  N3  UNL     1     -35.175  10.526 -21.897  1.00  0.00    -0.363 N 
HETATM   33  C5  UNL     1     -36.387  10.194 -22.168  1.00  0.00     0.063 C 
ATOM     34  H3  UNL     1     -34.942  11.488 -21.649  1.00  0.00     0.165 HD
BRANCH  33  35
HETATM   35  C6  UNL     1     -37.509  11.177 -22.137  1.00  0.00     0.070 C 
BRANCH  35  36
HETATM   36  C7  UNL     1     -38.565  10.744 -21.127  1.00  0.00     0.206 C 
BRANCH  36  37
HETATM   37  N4  UNL     1     -37.991   9.901 -20.113  1.00  0.00    -0.155 N 
HETATM   38  O1  UNL     1     -38.301   8.699 -20.017  1.00  0.00    -0.537 OA
HETATM   39  O2  UNL     1     -37.083  10.423 -19.232  1.00  0.00    -0.537 OA
ENDBRANCH  36  37
ENDBRANCH  35  36
ENDBRANCH  33  35
ENDBRANCH   7  32
BRANCH   8  40
HETATM   40  N5  UNL     1     -34.153   9.342 -19.663  1.00  0.00    -0.383 N 
ATOM     41  H52 UNL     1     -34.980   9.927 -19.548  1.00  0.00     0.157 HD
ATOM     42  H51 UNL     1     -33.686   9.049 -18.805  1.00  0.00     0.157 HD
ENDBRANCH   8  40
TORSDOF 9
ENDMDL
MODEL 3
REMARK VINA RESULT: -6.753165128      2.631      6.901
REMARK  9 active torsions:
REMARK  status: ('A' for Active; 'I' for Inactive)
REMARK    1  A    between atoms: C4_7  and  N3_8 
REMARK    2  A    between atoms: C5_10  and  C6_11 
REMARK    3  A    between atoms: C6_11  and  C7_12 
REMARK    4  A    between atoms: C7_12  and  N4_13 
REMARK    5  A    between atoms: C8_16  and  N5_17 
REMARK    6  A    between atoms: C10_25  and  C11_26 
REMARK    7  A    between atoms: C12_29  and  S1_30 
REMARK    8  A    between atoms: S1_30  and  C13_31 
REMARK    9  A    between atoms: C14_35  and  N9_36 
ROOT
HETATM    1  N1  UNL     1     -30.991   5.755 -22.798  1.00  0.00    -0.190 NA
HETATM    2  C1  UNL     1     -31.388   6.688 -23.350  1.00  0.00     0.119 C 
HETATM    3  C2  UNL     1     -31.881   7.860 -24.066  1.00  0.00     0.135 A 
HETATM    4  N2  UNL     1     -33.022   8.421 -23.636  1.00  0.00    -0.330 N 
ATOM      5  H2  UNL     1     -33.501   8.026 -22.826  1.00  0.00     0.168 HD
HETATM    6  C3  UNL     1     -33.545   9.494 -24.254  1.00  0.00     0.148 A 
HETATM    7  C4  UNL     1     -34.732  10.040 -23.775  1.00  0.00     0.121 A 
HETATM    8  C8  UNL     1     -35.312  11.130 -24.365  1.00  0.00     0.134 A 
HETATM    9  N6  UNL     1     -34.675  11.635 -25.423  1.00  0.00    -0.292 N 
ATOM     10  H6  UNL     1     -35.073  12.447 -25.894  1.00  0.00     0.172 HD
HETATM   11  C9  UNL     1     -33.506  11.104 -25.901  1.00  0.00     0.334 A 
HETATM   12  O3  UNL     1     -33.020  11.660 -26.879  1.00  0.00    -0.246 OA
HETATM   13  N7  UNL     1     -32.926  10.040 -25.335  1.00  0.00    -0.239 N 
HETATM   14  C10 UNL     1     -31.769   9.497 -25.798  1.00  0.00     0.142 A 
HETATM   15  C12 UNL     1     -31.223   8.375 -25.149  1.00  0.00     0.076 A 
ENDROOT
BRANCH  15  16
HETATM   16  S1  UNL     1     -29.709   7.652 -25.703  1.00  0.00    -0.063 SA
BRANCH  16  17
HETATM   17  C13 UNL     1     -29.862   6.560 -27.113  1.00  0.00     0.458 C 
HETATM   18  N8  UNL     1     -30.933   5.584 -26.804  1.00  0.00     0.017 N 
HETATM   19  C14 UNL     1     -29.856   4.803 -26.168  1.00  0.00     0.583 C 
ATOM     20  H82 UNL     1     -31.783   5.847 -26.305  1.00  0.00     0.285 HD
ATOM     21  H81 UNL     1     -31.536   5.191 -27.526  1.00  0.00     0.285 HD
HETATM   22  N10 UNL     1     -28.993   5.409 -27.162  1.00  0.00     0.017 N 
ATOM     23 2H10 UNL     1     -28.790   4.937 -28.043  1.00  0.00     0.285 HD
ATOM     24 1H10 UNL     1     -27.989   5.497 -27.008  1.00  0.00     0.285 HD
BRANCH  19  25
HETATM   25  N9  UNL     1     -30.029   3.374 -26.312  1.00  0.00    -0.025 N 
ATOM     26  H93 UNL     1     -30.747   3.162 -27.006  1.00  0.00     0.278 HD
ATOM     27  H92 UNL     1     -29.222   2.954 -26.773  1.00  0.00     0.278 HD
ATOM     28  H91 UNL     1     -30.228   2.903 -25.429  1.00  0.00     0.278 HD
ENDBRANCH  19  25
ENDBRANCH  16  17
ENDBRANCH  15  16
BRANCH  14  29
HETATM   29  C11 UNL     1     -31.034   9.977 -26.911  1.00  0.00     0.229 C 
HETATM   30  O4  UNL     1     -31.121   9.678 -28.101  1.00  0.00    -0.643 OA
HETATM   31  O5  UNL     1     -30.009  10.960 -26.719  1.00  0.00    -0.643 OA
ENDBRANCH  14  29
BRANCH   7  32
HETATM   32  N3  UNL     1     -35.329   9.431 -22.648  1.00  0.00    -0.363 N 
HETATM   33  C5  UNL     1     -35.248  10.023 -21.510  1.00  0.00     0.063 C 
ATOM     34  H3  UNL     1     -35.814   8.538 -22.736  1.00  0.00     0.165 HD
BRANCH  33  35
HETATM   35  C6  UNL     1     -35.848   9.452 -20.269  1.00  0.00     0.070 C 
BRANCH  35  36
HETATM   36  C7  UNL     1     -37.358   9.659 -20.266  1.00  0.00     0.206 C 
BRANCH  36  37
HETATM   37  N4  UNL     1     -38.044   8.447 -20.627  1.00  0.00    -0.155 N 
HETATM   38  O1  UNL     1     -38.946   7.976 -19.911  1.00  0.00    -0.537 OA
HETATM   39  O2  UNL     1     -37.704   7.795 -21.780  1.00  0.00    -0.537 OA
ENDBRANCH  36  37
ENDBRANCH  35  36
ENDBRANCH  33  35
ENDBRANCH   7  32
BRANCH   8  40
HETATM   40  N5  UNL     1     -36.409  11.604 -23.892  1.00  0.00    -0.383 N 
ATOM     41  H52 UNL     1     -36.902  11.210 -23.092  1.00  0.00     0.157 HD
ATOM     42  H51 UNL     1     -36.834  12.425 -24.324  1.00  0.00     0.157 HD
ENDBRANCH   8  40
TORSDOF 9
ENDMDL
MODEL 4
REMARK VINA RESULT: -6.713926276      3.792      5.029
REMARK  9 active torsions:
REMARK  status: ('A' for Active; 'I' for Inactive)
REMARK    1  A    between atoms: C4_7  and  N3_8 
REMARK    2  A    between atoms: C5_10  and  C6_11 
REMARK    3  A    between atoms: C6_11  and  C7_12 
REMARK    4  A    between atoms: C7_12  and  N4_13 
REMARK    5  A    between atoms: C8_16  and  N5_17 
REMARK    6  A    between atoms: C10_25  and  C11_26 
REMARK    7  A    between atoms: C12_29  and  S1_30 
REMARK    8  A    between atoms: S1_30  and  C13_31 
REMARK    9  A    between atoms: C14_35  and  N9_36 
ROOT
HETATM    1  N1  UNL     1     -28.815   4.174 -26.166  1.00  0.00    -0.190 NA
HETATM    2  C1  UNL     1     -29.409   4.998 -26.714  1.00  0.00     0.119 C 
HETATM    3  C2  UNL     1     -30.153   6.055 -27.393  1.00  0.00     0.135 A 
HETATM    4  N2  UNL     1     -30.353   5.929 -28.714  1.00  0.00    -0.330 N 
ATOM      5  H2  UNL     1     -29.995   5.106 -29.200  1.00  0.00     0.168 HD
HETATM    6  C3  UNL     1     -31.017   6.869 -29.409  1.00  0.00     0.148 A 
HETATM    7  C4  UNL     1     -31.197   6.698 -30.779  1.00  0.00     0.121 A 
HETATM    8  C8  UNL     1     -31.861   7.622 -31.538  1.00  0.00     0.134 A 
HETATM    9  N6  UNL     1     -32.323   8.693 -30.890  1.00  0.00    -0.292 N 
ATOM     10  H6  UNL     1     -32.824   9.407 -31.417  1.00  0.00     0.172 HD
HETATM   11  C9  UNL     1     -32.150   8.869 -29.542  1.00  0.00     0.334 A 
HETATM   12  O3  UNL     1     -32.621   9.896 -29.066  1.00  0.00    -0.246 OA
HETATM   13  N7  UNL     1     -31.504   7.975 -28.787  1.00  0.00    -0.239 N 
HETATM   14  C10 UNL     1     -31.319   8.136 -27.449  1.00  0.00     0.142 A 
HETATM   15  C12 UNL     1     -30.625   7.151 -26.723  1.00  0.00     0.076 A 
ENDROOT
BRANCH  15  16
HETATM   16  S1  UNL     1     -30.382   7.308 -24.980  1.00  0.00    -0.063 SA
BRANCH  16  17
HETATM   17  C13 UNL     1     -31.593   6.464 -23.969  1.00  0.00     0.458 C 
HETATM   18  N8  UNL     1     -32.889   7.157 -24.156  1.00  0.00     0.017 N 
HETATM   19  C14 UNL     1     -32.423   8.040 -23.070  1.00  0.00     0.583 C 
ATOM     20  H82 UNL     1     -33.188   7.519 -25.062  1.00  0.00     0.285 HD
ATOM     21  H81 UNL     1     -33.782   6.665 -24.113  1.00  0.00     0.285 HD
HETATM   22  N10 UNL     1     -31.711   6.873 -22.589  1.00  0.00     0.017 N 
ATOM     23 2H10 UNL     1     -32.121   6.255 -21.888  1.00  0.00     0.285 HD
ATOM     24 1H10 UNL     1     -30.890   6.963 -21.993  1.00  0.00     0.285 HD
BRANCH  19  25
HETATM   25  N9  UNL     1     -33.494   8.490 -22.205  1.00  0.00    -0.025 N 
ATOM     26  H93 UNL     1     -33.181   8.541 -21.236  1.00  0.00     0.278 HD
ATOM     27  H92 UNL     1     -33.700   9.475 -22.366  1.00  0.00     0.278 HD
ATOM     28  H91 UNL     1     -34.338   7.923 -22.285  1.00  0.00     0.278 HD
ENDBRANCH  19  25
ENDBRANCH  16  17
ENDBRANCH  15  16
BRANCH  14  29
HETATM   29  C11 UNL     1     -31.781   9.242 -26.691  1.00  0.00     0.229 C 
HETATM   30  O4  UNL     1     -32.881   9.442 -26.180  1.00  0.00    -0.643 OA
HETATM   31  O5  UNL     1     -30.904  10.344 -26.433  1.00  0.00    -0.643 OA
ENDBRANCH  14  29
BRANCH   7  32
HETATM   32  N3  UNL     1     -30.669   5.528 -31.371  1.00  0.00    -0.363 N 
HETATM   33  C5  UNL     1     -29.423   5.504 -31.688  1.00  0.00     0.063 C 
ATOM     34  H3  UNL     1     -31.265   4.718 -31.542  1.00  0.00     0.165 HD
BRANCH  33  35
HETATM   35  C6  UNL     1     -28.783   4.312 -32.318  1.00  0.00     0.070 C 
BRANCH  35  36
HETATM   36  C7  UNL     1     -27.906   4.739 -33.489  1.00  0.00     0.206 C 
BRANCH  36  37
HETATM   37  N4  UNL     1     -26.522   4.796 -33.102  1.00  0.00    -0.155 N 
HETATM   38  O1  UNL     1     -26.174   5.297 -32.016  1.00  0.00    -0.537 OA
HETATM   39  O2  UNL     1     -25.564   4.292 -33.937  1.00  0.00    -0.537 OA
ENDBRANCH  36  37
ENDBRANCH  35  36
ENDBRANCH  33  35
ENDBRANCH   7  32
BRANCH   8  40
HETATM   40  N5  UNL     1     -32.007   7.427 -32.799  1.00  0.00    -0.383 N 
ATOM     41  H52 UNL     1     -31.711   6.580 -33.283  1.00  0.00     0.157 HD
ATOM     42  H51 UNL     1     -32.444   8.146 -33.376  1.00  0.00     0.157 HD
ENDBRANCH   8  40
TORSDOF 9
ENDMDL
MODEL 5
REMARK VINA RESULT: -6.701353304      2.934      7.814
REMARK  9 active torsions:
REMARK  status: ('A' for Active; 'I' for Inactive)
REMARK    1  A    between atoms: C4_7  and  N3_8 
REMARK    2  A    between atoms: C5_10  and  C6_11 
REMARK    3  A    between atoms: C6_11  and  C7_12 
REMARK    4  A    between atoms: C7_12  and  N4_13 
REMARK    5  A    between atoms: C8_16  and  N5_17 
REMARK    6  A    between atoms: C10_25  and  C11_26 
REMARK    7  A    between atoms: C12_29  and  S1_30 
REMARK    8  A    between atoms: S1_30  and  C13_31 
REMARK    9  A    between atoms: C14_35  and  N9_36 
ROOT
HETATM    1  N1  UNL     1     -34.032  10.657 -28.256  1.00  0.00    -0.190 NA
HETATM    2  C1  UNL     1     -33.589  10.037 -27.388  1.00  0.00     0.119 C 
HETATM    3  C2  UNL     1     -33.010   9.256 -26.301  1.00  0.00     0.135 A 
HETATM    4  N2  UNL     1     -33.499   9.445 -25.065  1.00  0.00    -0.330 N 
ATOM      5  H2  UNL     1     -34.258  10.111 -24.923  1.00  0.00     0.168 HD
HETATM    6  C3  UNL     1     -33.006   8.770 -24.012  1.00  0.00     0.148 A 
HETATM    7  C4  UNL     1     -33.542   9.002 -22.748  1.00  0.00     0.121 A 
HETATM    8  C8  UNL     1     -33.079   8.347 -21.640  1.00  0.00     0.134 A 
HETATM    9  N6  UNL     1     -32.086   7.479 -21.841  1.00  0.00    -0.292 N 
ATOM     10  H6  UNL     1     -31.710   6.970 -21.042  1.00  0.00     0.172 HD
HETATM   11  C9  UNL     1     -31.553   7.245 -23.082  1.00  0.00     0.334 A 
HETATM   12  O3  UNL     1     -30.644   6.424 -23.133  1.00  0.00    -0.246 OA
HETATM   13  N7  UNL     1     -31.995   7.876 -24.174  1.00  0.00    -0.239 N 
HETATM   14  C10 UNL     1     -31.475   7.660 -25.412  1.00  0.00     0.142 A 
HETATM   15  C12 UNL     1     -31.993   8.366 -26.513  1.00  0.00     0.076 A 
ENDROOT
BRANCH  15  16
HETATM   16  S1  UNL     1     -31.363   8.099 -28.142  1.00  0.00    -0.063 SA
BRANCH  16  17
HETATM   17  C13 UNL     1     -32.237   6.865 -29.099  1.00  0.00     0.458 C 
HETATM   18  N8  UNL     1     -31.773   5.535 -28.639  1.00  0.00     0.017 N 
HETATM   19  C14 UNL     1     -30.697   5.714 -29.632  1.00  0.00     0.583 C 
ATOM     20  H82 UNL     1     -31.580   5.335 -27.657  1.00  0.00     0.285 HD
ATOM     21  H81 UNL     1     -32.381   4.716 -28.636  1.00  0.00     0.285 HD
HETATM   22  N10 UNL     1     -31.673   6.486 -30.373  1.00  0.00     0.017 N 
ATOM     23 2H10 UNL     1     -32.247   6.057 -31.098  1.00  0.00     0.285 HD
ATOM     24 1H10 UNL     1     -31.385   7.189 -31.053  1.00  0.00     0.285 HD
BRANCH  19  25
HETATM   25  N9  UNL     1     -30.300   4.476 -30.268  1.00  0.00    -0.025 N 
ATOM     26  H93 UNL     1     -29.413   4.587 -30.759  1.00  0.00     0.278 HD
ATOM     27  H92 UNL     1     -30.021   3.783 -29.574  1.00  0.00     0.278 HD
ATOM     28  H91 UNL     1     -31.015   4.099 -30.891  1.00  0.00     0.278 HD
ENDBRANCH  19  25
ENDBRANCH  16  17
ENDBRANCH  15  16
BRANCH  14  29
HETATM   29  C11 UNL     1     -30.424   6.754 -25.706  1.00  0.00     0.229 C 
HETATM   30  O4  UNL     1     -29.215   6.956 -25.805  1.00  0.00    -0.643 OA
HETATM   31  O5  UNL     1     -30.719   5.372 -25.942  1.00  0.00    -0.643 OA
ENDBRANCH  14  29
BRANCH   7  32
HETATM   32  N3  UNL     1     -34.592   9.942 -22.641  1.00  0.00    -0.363 N 
HETATM   33  C5  UNL     1     -35.804   9.514 -22.606  1.00  0.00     0.063 C 
ATOM     34  H3  UNL     1     -34.392  10.941 -22.593  1.00  0.00     0.165 HD
BRANCH  33  35
HETATM   35  C6  UNL     1     -36.972  10.435 -22.495  1.00  0.00     0.070 C 
BRANCH  35  36
HETATM   36  C7  UNL     1     -36.719  11.484 -21.418  1.00  0.00     0.206 C 
BRANCH  36  37
HETATM   37  N4  UNL     1     -36.394  10.863 -20.162  1.00  0.00    -0.155 N 
HETATM   38  O1  UNL     1     -37.252  10.244 -19.504  1.00  0.00    -0.537 OA
HETATM   39  O2  UNL     1     -35.119  10.948 -19.675  1.00  0.00    -0.537 OA
ENDBRANCH  36  37
ENDBRANCH  35  36
ENDBRANCH  33  35
ENDBRANCH   7  32
BRANCH   8  40
HETATM   40  N5  UNL     1     -33.600   8.589 -20.491  1.00  0.00    -0.383 N 
ATOM     41  H52 UNL     1     -33.293   9.338 -19.871  1.00  0.00     0.157 HD
ATOM     42  H51 UNL     1     -34.372   8.013 -20.153  1.00  0.00     0.157 HD
ENDBRANCH   8  40
TORSDOF 9
ENDMDL
