MODEL 1
REMARK VINA RESULT: -8.522401883      0.000      0.000
REMARK  3 active torsions:
REMARK  status: ('A' for Active; 'I' for Inactive)
REMARK    1  A    between atoms: O1_1  and  C1_3 
REMARK    2  A    between atoms: C1_3  and  C2_4 
REMARK    3  A    between atoms: C1_3  and  N2_16 
ROOT
HETATM    1  C1  UNL     1      -5.396   4.101  16.420  1.00  0.00     0.408 C 
ENDROOT
BRANCH   1   2
HETATM    2  O1  UNL     1      -6.398   3.628  17.253  1.00  0.00    -0.363 OA
ATOM      3  H1  UNL     1      -6.291   4.021  18.112  1.00  0.00     0.212 HD
ENDBRANCH   1   2
BRANCH   1   4
HETATM    4  C2  UNL     1      -4.703   2.956  15.819  1.00  0.00     0.070 A 
HETATM    5  C3  UNL     1      -3.826   2.155  16.548  1.00  0.00     0.043 A 
HETATM    6  C4  UNL     1      -3.333   1.173  15.730  1.00  0.00    -0.004 A 
HETATM    7  C5  UNL     1      -2.436   0.128  15.955  1.00  0.00     0.017 A 
HETATM    8  C9  UNL     1      -3.913   1.379  14.496  1.00  0.00     0.085 A 
HETATM    9  C6  UNL     1      -2.128  -0.716  14.908  1.00  0.00     0.046 A 
HETATM   10  C7  UNL     1      -2.703  -0.521  13.668  1.00  0.00     0.157 A 
HETATM   11  F1  UNL     1      -2.401  -1.356  12.626  1.00  0.00    -0.203 F 
HETATM   12  C8  UNL     1      -3.582   0.518  13.482  1.00  0.00     0.182 A 
HETATM   13  F2  UNL     1      -4.144   0.701  12.249  1.00  0.00    -0.200 F 
HETATM   14  N1  UNL     1      -4.730   2.458  14.585  1.00  0.00    -0.353 N 
ATOM     15  H1  UNL     1      -5.286   2.834  13.816  1.00  0.00     0.166 HD
ENDBRANCH   1   4
BRANCH   1  16
HETATM   16  N2  UNL     1      -5.938   5.015  15.434  1.00  0.00     0.126 N 
HETATM   17  C10 UNL     1      -4.875   5.939  15.097  1.00  0.00     0.279 C 
HETATM   18  C11 UNL     1      -5.219   7.232  15.808  1.00  0.00     0.073 C 
HETATM   19  C12 UNL     1      -6.728   7.234  15.667  1.00  0.00     0.124 C 
HETATM   20  C13 UNL     1      -7.393   8.165  16.613  1.00  0.00     0.043 C 
HETATM   21  O3  UNL     1      -7.015   7.465  14.332  1.00  0.00    -0.228 OA
HETATM   22  C17 UNL     1      -7.037   5.776  15.944  1.00  0.00     0.317 C 
HETATM   23  C14 UNL     1      -8.523   8.948  16.065  1.00  0.00     0.005 C 
HETATM   24  C15 UNL     1      -8.418   9.321  14.632  1.00  0.00     0.029 C 
HETATM   25  C16 UNL     1      -9.019   8.168  13.818  1.00  0.00     0.210 C 
HETATM   26  O2  UNL     1      -8.207   7.039  13.978  1.00  0.00    -0.240 OA
ENDBRANCH   1  16
TORSDOF 3
ENDMDL
MODEL 2
REMARK VINA RESULT: -8.306195921      6.060      8.140
REMARK  3 active torsions:
REMARK  status: ('A' for Active; 'I' for Inactive)
REMARK    1  A    between atoms: O1_1  and  C1_3 
REMARK    2  A    between atoms: C1_3  and  C2_4 
REMARK    3  A    between atoms: C1_3  and  N2_16 
ROOT
HETATM    1  C1  UNL     1      -8.374   9.951  17.780  1.00  0.00     0.408 C 
ENDROOT
BRANCH   1   2
HETATM    2  O1  UNL     1      -9.070  11.149  17.751  1.00  0.00    -0.363 OA
ATOM      3  H1  UNL     1      -9.837  11.072  18.308  1.00  0.00     0.212 HD
ENDBRANCH   1   2
BRANCH   1   4
HETATM    4  C2  UNL     1      -8.341   9.391  16.425  1.00  0.00     0.070 A 
HETATM    5  C3  UNL     1      -8.922  10.044  15.338  1.00  0.00     0.043 A 
HETATM    6  C4  UNL     1      -8.735   9.288  14.212  1.00  0.00    -0.004 A 
HETATM    7  C5  UNL     1      -9.111   9.480  12.881  1.00  0.00     0.017 A 
HETATM    8  C9  UNL     1      -8.038   8.169  14.615  1.00  0.00     0.085 A 
HETATM    9  C6  UNL     1      -8.772   8.518  11.953  1.00  0.00     0.046 A 
HETATM   10  C7  UNL     1      -8.073   7.393  12.344  1.00  0.00     0.157 A 
HETATM   11  F1  UNL     1      -7.734   6.435  11.427  1.00  0.00    -0.203 F 
HETATM   12  C8  UNL     1      -7.719   7.237  13.662  1.00  0.00     0.182 A 
HETATM   13  F2  UNL     1      -7.028   6.118  14.037  1.00  0.00    -0.200 F 
HETATM   14  N1  UNL     1      -7.818   8.263  15.950  1.00  0.00    -0.353 N 
ATOM     15  H1  UNL     1      -7.323   7.569  16.510  1.00  0.00     0.166 HD
ENDBRANCH   1   4
BRANCH   1  16
HETATM   16  N2  UNL     1      -7.053  10.139  18.347  1.00  0.00     0.126 N 
HETATM   17  C10 UNL     1      -6.759   8.947  19.116  1.00  0.00     0.279 C 
HETATM   18  C11 UNL     1      -6.933   9.346  20.568  1.00  0.00     0.073 C 
HETATM   19  C12 UNL     1      -6.394  10.762  20.533  1.00  0.00     0.124 C 
HETATM   20  C13 UNL     1      -6.804  11.562  21.715  1.00  0.00     0.043 C 
HETATM   21  O3  UNL     1      -5.025  10.674  20.341  1.00  0.00    -0.228 OA
HETATM   22  C17 UNL     1      -6.997  11.260  19.234  1.00  0.00     0.317 C 
HETATM   23  C14 UNL     1      -5.762  12.439  22.295  1.00  0.00     0.005 C 
HETATM   24  C15 UNL     1      -4.368  11.938  22.206  1.00  0.00     0.029 C 
HETATM   25  C16 UNL     1      -3.801  12.409  20.860  1.00  0.00     0.210 C 
HETATM   26  O2  UNL     1      -4.504  11.769  19.832  1.00  0.00    -0.240 OA
ENDBRANCH   1  16
TORSDOF 3
ENDMDL
MODEL 3
REMARK VINA RESULT: -8.295725946      4.099      7.444
REMARK  3 active torsions:
REMARK  status: ('A' for Active; 'I' for Inactive)
REMARK    1  A    between atoms: O1_1  and  C1_3 
REMARK    2  A    between atoms: C1_3  and  C2_4 
REMARK    3  A    between atoms: C1_3  and  N2_16 
ROOT
HETATM    1  C1  UNL     1      -6.498   4.777  16.259  1.00  0.00     0.408 C 
ENDROOT
BRANCH   1   2
HETATM    2  O1  UNL     1      -7.515   3.935  16.681  1.00  0.00    -0.363 OA
ATOM      3  H1  UNL     1      -7.232   3.035  16.572  1.00  0.00     0.212 HD
ENDBRANCH   1   2
BRANCH   1   4
HETATM    4  C2  UNL     1      -7.065   5.788  15.359  1.00  0.00     0.070 A 
HETATM    5  C3  UNL     1      -7.797   6.875  15.833  1.00  0.00     0.043 A 
HETATM    6  C4  UNL     1      -8.195   7.642  14.770  1.00  0.00    -0.004 A 
HETATM    7  C5  UNL     1      -8.939   8.821  14.691  1.00  0.00     0.017 A 
HETATM    8  C9  UNL     1      -7.703   7.017  13.644  1.00  0.00     0.085 A 
HETATM    9  C6  UNL     1      -9.182   9.367  13.448  1.00  0.00     0.046 A 
HETATM   10  C7  UNL     1      -8.693   8.751  12.312  1.00  0.00     0.157 A 
HETATM   11  F1  UNL     1      -8.931   9.289  11.076  1.00  0.00    -0.203 F 
HETATM   12  C8  UNL     1      -7.965   7.592  12.427  1.00  0.00     0.182 A 
HETATM   13  F2  UNL     1      -7.487   6.992  11.296  1.00  0.00    -0.200 F 
HETATM   14  N1  UNL     1      -7.029   5.907  14.034  1.00  0.00    -0.353 N 
ATOM     15  H1  UNL     1      -6.561   5.256  13.402  1.00  0.00     0.166 HD
ENDBRANCH   1   4
BRANCH   1  16
HETATM   16  N2  UNL     1      -5.806   5.355  17.395  1.00  0.00     0.126 N 
HETATM   17  C10 UNL     1      -4.867   6.319  16.861  1.00  0.00     0.279 C 
HETATM   18  C11 UNL     1      -3.507   5.658  16.957  1.00  0.00     0.073 C 
HETATM   19  C12 UNL     1      -3.652   4.913  18.269  1.00  0.00     0.124 C 
HETATM   20  C13 UNL     1      -2.636   3.845  18.439  1.00  0.00     0.043 C 
HETATM   21  O3  UNL     1      -3.669   5.861  19.279  1.00  0.00    -0.228 OA
HETATM   22  C17 UNL     1      -5.065   4.380  18.133  1.00  0.00     0.317 C 
HETATM   23  C14 UNL     1      -2.049   3.719  19.792  1.00  0.00     0.005 C 
HETATM   24  C15 UNL     1      -1.910   4.982  20.559  1.00  0.00     0.029 C 
HETATM   25  C16 UNL     1      -3.227   5.201  21.315  1.00  0.00     0.210 C 
HETATM   26  O2  UNL     1      -4.244   5.433  20.380  1.00  0.00    -0.240 OA
ENDBRANCH   1  16
TORSDOF 3
ENDMDL
MODEL 4
REMARK VINA RESULT: -8.200946193      7.370     10.083
REMARK  3 active torsions:
REMARK  status: ('A' for Active; 'I' for Inactive)
REMARK    1  A    between atoms: O1_1  and  C1_3 
REMARK    2  A    between atoms: C1_3  and  C2_4 
REMARK    3  A    between atoms: C1_3  and  N2_16 
ROOT
HETATM    1  C1  UNL     1      -5.586  10.917  19.549  1.00  0.00     0.408 C 
ENDROOT
BRANCH   1   2
HETATM    2  O1  UNL     1      -4.939   9.730  19.857  1.00  0.00    -0.363 OA
ATOM      3  H1  UNL     1      -4.009   9.903  19.944  1.00  0.00     0.212 HD
ENDBRANCH   1   2
BRANCH   1   4
HETATM    4  C2  UNL     1      -6.504  10.678  18.429  1.00  0.00     0.070 A 
HETATM    5  C3  UNL     1      -7.712  11.362  18.303  1.00  0.00     0.043 A 
HETATM    6  C4  UNL     1      -8.350  10.933  17.170  1.00  0.00    -0.004 A 
HETATM    7  C5  UNL     1      -9.570  11.288  16.590  1.00  0.00     0.017 A 
HETATM    8  C9  UNL     1      -7.527   9.983  16.604  1.00  0.00     0.085 A 
HETATM    9  C6  UNL     1      -9.951  10.665  15.420  1.00  0.00     0.046 A 
HETATM   10  C7  UNL     1      -9.134   9.712  14.843  1.00  0.00     0.157 A 
HETATM   11  F1  UNL     1      -9.508   9.091  13.682  1.00  0.00    -0.203 F 
HETATM   12  C8  UNL     1      -7.940   9.388  15.441  1.00  0.00     0.182 A 
HETATM   13  F2  UNL     1      -7.141   8.443  14.860  1.00  0.00    -0.200 F 
HETATM   14  N1  UNL     1      -6.426   9.855  17.386  1.00  0.00    -0.353 N 
ATOM     15  H1  UNL     1      -5.650   9.219  17.202  1.00  0.00     0.166 HD
ENDBRANCH   1   4
BRANCH   1  16
HETATM   16  N2  UNL     1      -6.249  11.459  20.719  1.00  0.00     0.126 N 
HETATM   17  C10 UNL     1      -5.761  12.812  20.882  1.00  0.00     0.279 C 
HETATM   18  C11 UNL     1      -4.781  12.754  22.037  1.00  0.00     0.073 C 
HETATM   19  C12 UNL     1      -5.467  11.744  22.934  1.00  0.00     0.124 C 
HETATM   20  C13 UNL     1      -4.555  11.170  23.955  1.00  0.00     0.043 C 
HETATM   21  O3  UNL     1      -6.599  12.356  23.448  1.00  0.00    -0.228 OA
HETATM   22  C17 UNL     1      -5.934  10.730  21.908  1.00  0.00     0.317 C 
HETATM   23  C14 UNL     1      -5.128  10.996  25.309  1.00  0.00     0.005 C 
HETATM   24  C15 UNL     1      -6.137  12.004  25.721  1.00  0.00     0.029 C 
HETATM   25  C16 UNL     1      -7.504  11.499  25.243  1.00  0.00     0.210 C 
HETATM   26  O2  UNL     1      -7.515  11.499  23.842  1.00  0.00    -0.240 OA
ENDBRANCH   1  16
TORSDOF 3
ENDMDL
MODEL 5
REMARK VINA RESULT: -8.178993418      3.896      7.195
REMARK  3 active torsions:
REMARK  status: ('A' for Active; 'I' for Inactive)
REMARK    1  A    between atoms: O1_1  and  C1_3 
REMARK    2  A    between atoms: C1_3  and  C2_4 
REMARK    3  A    between atoms: C1_3  and  N2_16 
ROOT
HETATM    1  C1  UNL     1      -7.384   6.218  15.743  1.00  0.00     0.408 C 
ENDROOT
BRANCH   1   2
HETATM    2  O1  UNL     1      -7.651   7.291  16.579  1.00  0.00    -0.363 OA
ATOM      3  H1  UNL     1      -8.533   7.599  16.408  1.00  0.00     0.212 HD
ENDBRANCH   1   2
BRANCH   1   4
HETATM    4  C2  UNL     1      -7.735   6.592  14.369  1.00  0.00     0.070 A 
HETATM    5  C3  UNL     1      -7.810   7.922  13.958  1.00  0.00     0.043 A 
HETATM    6  C4  UNL     1      -8.156   7.961  12.634  1.00  0.00    -0.004 A 
HETATM    7  C5  UNL     1      -8.362   9.021  11.750  1.00  0.00     0.017 A 
HETATM    8  C9  UNL     1      -8.294   6.648  12.237  1.00  0.00     0.085 A 
HETATM    9  C6  UNL     1      -8.713   8.737  10.446  1.00  0.00     0.046 A 
HETATM   10  C7  UNL     1      -8.853   7.425  10.036  1.00  0.00     0.157 A 
HETATM   11  F1  UNL     1      -9.200   7.138   8.744  1.00  0.00    -0.203 F 
HETATM   12  C8  UNL     1      -8.642   6.406  10.934  1.00  0.00     0.182 A 
HETATM   13  F2  UNL     1      -8.784   5.113  10.515  1.00  0.00    -0.200 F 
HETATM   14  N1  UNL     1      -8.034   5.851  13.304  1.00  0.00    -0.353 N 
ATOM     15  H1  UNL     1      -8.062   4.832  13.291  1.00  0.00     0.166 HD
ENDBRANCH   1   4
BRANCH   1  16
HETATM   16  N2  UNL     1      -6.004   5.793  15.879  1.00  0.00     0.126 N 
HETATM   17  C10 UNL     1      -6.003   4.349  15.766  1.00  0.00     0.279 C 
HETATM   18  C11 UNL     1      -5.817   3.830  17.177  1.00  0.00     0.073 C 
HETATM   19  C12 UNL     1      -4.858   4.865  17.730  1.00  0.00     0.124 C 
HETATM   20  C13 UNL     1      -4.802   4.863  19.214  1.00  0.00     0.043 C 
HETATM   21  O3  UNL     1      -3.637   4.667  17.106  1.00  0.00    -0.228 OA
HETATM   22  C17 UNL     1      -5.453   6.135  17.154  1.00  0.00     0.317 C 
HETATM   23  C14 UNL     1      -3.457   5.020  19.812  1.00  0.00     0.005 C 
HETATM   24  C15 UNL     1      -2.333   4.432  19.042  1.00  0.00     0.029 C 
HETATM   25  C16 UNL     1      -1.852   5.500  18.051  1.00  0.00     0.210 C 
HETATM   26  O2  UNL     1      -2.871   5.735  17.119  1.00  0.00    -0.240 OA
ENDBRANCH   1  16
TORSDOF 3
ENDMDL
