MODEL 1
REMARK VINA RESULT: -7.143273043      0.000      0.000
REMARK  7 active torsions:
REMARK  status: ('A' for Active; 'I' for Inactive)
REMARK    1  A    between atoms: O1_2  and  C2_3 
REMARK    2  A    between atoms: C8_9  and  C9_10 
REMARK    3  A    between atoms: C9_10  and  O2_11 
REMARK    4  A    between atoms: C9_10  and  C10_13 
REMARK    5  A    between atoms: C9_10  and  C14_17 
REMARK    6  A    between atoms: C14_17  and  N1_19 
REMARK    7  A    between atoms: C14_17  and  C16_23 
ROOT
HETATM    1  C9  UNL     1      -6.321   6.608  16.712  1.00  0.00     0.136 C 
ENDROOT
BRANCH   1   2
HETATM    2  C8  UNL     1      -7.013   7.073  15.443  1.00  0.00     0.022 A 
HETATM    3  C7  UNL     1      -7.688   8.212  15.140  1.00  0.00     0.030 A 
HETATM    4  C6  UNL     1      -8.209   8.337  13.898  1.00  0.00    -0.015 A 
HETATM    5  C5  UNL     1      -8.960   9.430  13.382  1.00  0.00     0.013 A 
HETATM    6  C17 UNL     1      -8.016   7.303  13.035  1.00  0.00     0.049 A 
HETATM    7  C4  UNL     1      -9.440   9.406  12.105  1.00  0.00     0.004 A 
HETATM    8  C3  UNL     1      -9.235   8.359  11.257  1.00  0.00     0.038 A 
HETATM    9  C2  UNL     1      -8.518   7.287  11.708  1.00  0.00     0.086 A 
HETATM   10  S1  UNL     1      -7.122   6.191  13.959  1.00  0.00    -0.088 SA
BRANCH   9  11
HETATM   11  O1  UNL     1      -8.216   6.155  11.005  1.00  0.00    -0.355 OA
HETATM   12  C1  UNL     1      -9.153   5.551  10.142  1.00  0.00     0.210 C 
ENDBRANCH   9  11
ENDBRANCH   1   2
BRANCH   1  13
HETATM   13  O2  UNL     1      -7.004   7.494  17.655  1.00  0.00    -0.381 OA
ATOM     14  H2  UNL     1      -6.242   7.964  17.973  1.00  0.00     0.211 HD
ENDBRANCH   1  13
BRANCH   1  15
HETATM   15  C10 UNL     1      -4.934   7.007  16.713  1.00  0.00    -0.013 C 
HETATM   16  C11 UNL     1      -4.253   7.056  18.071  1.00  0.00     0.018 C 
HETATM   17  C12 UNL     1      -3.951   6.438  15.740  1.00  0.00     0.018 C 
HETATM   18  C13 UNL     1      -4.852   8.571  16.382  1.00  0.00     0.018 C 
ENDBRANCH   1  15
BRANCH   1  19
HETATM   19  C14 UNL     1      -6.802   5.320  17.202  1.00  0.00     0.214 C 
HETATM   20  C15 UNL     1      -8.209   5.106  16.736  1.00  0.00     0.056 C 
BRANCH  19  21
HETATM   21  N1  UNL     1      -6.927   5.452  18.698  1.00  0.00    -0.062 N 
ATOM     22  H13 UNL     1      -7.662   4.868  19.095  1.00  0.00     0.275 HD
ATOM     23  H12 UNL     1      -6.147   5.038  19.207  1.00  0.00     0.275 HD
ATOM     24  H11 UNL     1      -7.054   6.446  18.891  1.00  0.00     0.275 HD
ENDBRANCH  19  21
BRANCH  19  25
HETATM   25  C16 UNL     1      -6.041   4.065  17.080  1.00  0.00     0.392 C 
HETATM   26  F1  UNL     1      -5.858   3.908  15.673  1.00  0.00    -0.212 F 
HETATM   27  F2  UNL     1      -4.818   3.911  17.585  1.00  0.00    -0.212 F 
ENDBRANCH  19  25
ENDBRANCH   1  19
TORSDOF 7
ENDMDL
MODEL 2
REMARK VINA RESULT: -6.877653225      3.026      4.264
REMARK  7 active torsions:
REMARK  status: ('A' for Active; 'I' for Inactive)
REMARK    1  A    between atoms: O1_2  and  C2_3 
REMARK    2  A    between atoms: C8_9  and  C9_10 
REMARK    3  A    between atoms: C9_10  and  O2_11 
REMARK    4  A    between atoms: C9_10  and  C10_13 
REMARK    5  A    between atoms: C9_10  and  C14_17 
REMARK    6  A    between atoms: C14_17  and  N1_19 
REMARK    7  A    between atoms: C14_17  and  C16_23 
ROOT
HETATM    1  C9  UNL     1      -6.020   5.804  17.287  1.00  0.00     0.136 C 
ENDROOT
BRANCH   1   2
HETATM    2  C8  UNL     1      -6.805   7.088  17.085  1.00  0.00     0.022 A 
HETATM    3  C7  UNL     1      -7.437   7.606  16.001  1.00  0.00     0.030 A 
HETATM    4  C6  UNL     1      -8.061   8.800  16.133  1.00  0.00    -0.015 A 
HETATM    5  C5  UNL     1      -8.763   9.523  15.128  1.00  0.00     0.013 A 
HETATM    6  C17 UNL     1      -8.008   9.399  17.353  1.00  0.00     0.049 A 
HETATM    7  C4  UNL     1      -9.328  10.734  15.407  1.00  0.00     0.004 A 
HETATM    8  C3  UNL     1      -9.262  11.316  16.637  1.00  0.00     0.038 A 
HETATM    9  C2  UNL     1      -8.600  10.657  17.634  1.00  0.00     0.086 A 
HETATM   10  S1  UNL     1      -7.103   8.300  18.283  1.00  0.00    -0.088 SA
BRANCH   9  11
HETATM   11  O1  UNL     1      -8.432  11.084  18.921  1.00  0.00    -0.355 OA
HETATM   12  C1  UNL     1      -7.337  11.891  19.293  1.00  0.00     0.210 C 
ENDBRANCH   9  11
ENDBRANCH   1   2
BRANCH   1  13
HETATM   13  O2  UNL     1      -6.542   5.449  18.607  1.00  0.00    -0.381 OA
ATOM     14  H2  UNL     1      -7.093   4.722  18.341  1.00  0.00     0.211 HD
ENDBRANCH   1  13
BRANCH   1  15
HETATM   15  C10 UNL     1      -4.616   6.087  17.469  1.00  0.00    -0.013 C 
HETATM   16  C11 UNL     1      -3.685   4.886  17.466  1.00  0.00     0.018 C 
HETATM   17  C12 UNL     1      -3.932   7.186  16.719  1.00  0.00     0.018 C 
HETATM   18  C13 UNL     1      -4.378   6.533  18.987  1.00  0.00     0.018 C 
ENDBRANCH   1  15
BRANCH   1  19
HETATM   19  C14 UNL     1      -6.533   4.676  16.515  1.00  0.00     0.214 C 
HETATM   20  C15 UNL     1      -8.030   4.705  16.531  1.00  0.00     0.056 C 
BRANCH  19  21
HETATM   21  N1  UNL     1      -6.181   3.433  17.290  1.00  0.00    -0.062 N 
ATOM     22  H13 UNL     1      -6.179   2.588  16.719  1.00  0.00     0.275 HD
ATOM     23  H12 UNL     1      -5.202   3.398  17.573  1.00  0.00     0.275 HD
ATOM     24  H11 UNL     1      -6.831   3.388  18.075  1.00  0.00     0.275 HD
ENDBRANCH  19  21
BRANCH  19  25
HETATM   25  C16 UNL     1      -6.057   4.327  15.165  1.00  0.00     0.392 C 
HETATM   26  F1  UNL     1      -5.601   5.568  14.629  1.00  0.00    -0.212 F 
HETATM   27  F2  UNL     1      -5.045   3.489  14.952  1.00  0.00    -0.212 F 
ENDBRANCH  19  25
ENDBRANCH   1  19
TORSDOF 7
ENDMDL
MODEL 3
REMARK VINA RESULT: -6.802356393      2.275      3.539
REMARK  7 active torsions:
REMARK  status: ('A' for Active; 'I' for Inactive)
REMARK    1  A    between atoms: O1_2  and  C2_3 
REMARK    2  A    between atoms: C8_9  and  C9_10 
REMARK    3  A    between atoms: C9_10  and  O2_11 
REMARK    4  A    between atoms: C9_10  and  C10_13 
REMARK    5  A    between atoms: C9_10  and  C14_17 
REMARK    6  A    between atoms: C14_17  and  N1_19 
REMARK    7  A    between atoms: C14_17  and  C16_23 
ROOT
HETATM    1  C9  UNL     1      -5.818   6.236  16.476  1.00  0.00     0.136 C 
ENDROOT
BRANCH   1   2
HETATM    2  C8  UNL     1      -6.815   7.327  16.126  1.00  0.00     0.022 A 
HETATM    3  C7  UNL     1      -7.341   8.347  16.853  1.00  0.00     0.030 A 
HETATM    4  C6  UNL     1      -8.230   9.170  16.252  1.00  0.00    -0.015 A 
HETATM    5  C5  UNL     1      -8.908  10.280  16.830  1.00  0.00     0.013 A 
HETATM    6  C17 UNL     1      -8.536   8.914  14.951  1.00  0.00     0.049 A 
HETATM    7  C4  UNL     1      -9.799  11.011  16.100  1.00  0.00     0.004 A 
HETATM    8  C3  UNL     1     -10.091  10.736  14.798  1.00  0.00     0.038 A 
HETATM    9  C2  UNL     1      -9.463   9.680  14.199  1.00  0.00     0.086 A 
HETATM   10  S1  UNL     1      -7.588   7.548  14.594  1.00  0.00    -0.088 SA
BRANCH   9  11
HETATM   11  O1  UNL     1      -9.630   9.258  12.910  1.00  0.00    -0.355 OA
HETATM   12  C1  UNL     1      -8.829   9.755  11.862  1.00  0.00     0.210 C 
ENDBRANCH   9  11
ENDBRANCH   1   2
BRANCH   1  13
HETATM   13  O2  UNL     1      -5.689   5.642  15.145  1.00  0.00    -0.381 OA
ATOM     14  H2  UNL     1      -5.033   4.986  15.355  1.00  0.00     0.211 HD
ENDBRANCH   1  13
BRANCH   1  15
HETATM   15  C10 UNL     1      -6.433   5.232  17.311  1.00  0.00    -0.013 C 
HETATM   16  C11 UNL     1      -5.712   3.897  17.392  1.00  0.00     0.018 C 
HETATM   17  C12 UNL     1      -6.938   5.551  18.682  1.00  0.00     0.018 C 
HETATM   18  C13 UNL     1      -7.761   4.709  16.588  1.00  0.00     0.018 C 
ENDBRANCH   1  15
BRANCH   1  19
HETATM   19  C14 UNL     1      -4.454   6.726  16.653  1.00  0.00     0.214 C 
HETATM   20  C15 UNL     1      -4.238   7.921  15.778  1.00  0.00     0.056 C 
BRANCH  19  21
HETATM   21  N1  UNL     1      -3.545   5.674  16.071  1.00  0.00    -0.062 N 
ATOM     22  H13 UNL     1      -3.764   5.443  15.102  1.00  0.00     0.275 HD
ATOM     23  H12 UNL     1      -2.594   6.007  15.911  1.00  0.00     0.275 HD
ATOM     24  H11 UNL     1      -3.592   4.871  16.698  1.00  0.00     0.275 HD
ENDBRANCH  19  21
BRANCH  19  25
HETATM   25  C16 UNL     1      -3.835   6.955  17.970  1.00  0.00     0.392 C 
HETATM   26  F1  UNL     1      -4.680   7.927  18.584  1.00  0.00    -0.212 F 
HETATM   27  F2  UNL     1      -3.720   5.998  18.889  1.00  0.00    -0.212 F 
ENDBRANCH  19  25
ENDBRANCH   1  19
TORSDOF 7
ENDMDL
MODEL 4
REMARK VINA RESULT: -6.786632069      3.168      4.472
REMARK  7 active torsions:
REMARK  status: ('A' for Active; 'I' for Inactive)
REMARK    1  A    between atoms: O1_2  and  C2_3 
REMARK    2  A    between atoms: C8_9  and  C9_10 
REMARK    3  A    between atoms: C9_10  and  O2_11 
REMARK    4  A    between atoms: C9_10  and  C10_13 
REMARK    5  A    between atoms: C9_10  and  C14_17 
REMARK    6  A    between atoms: C14_17  and  N1_19 
REMARK    7  A    between atoms: C14_17  and  C16_23 
ROOT
HETATM    1  C9  UNL     1      -6.252   6.113  16.817  1.00  0.00     0.136 C 
ENDROOT
BRANCH   1   2
HETATM    2  C8  UNL     1      -6.985   7.442  16.806  1.00  0.00     0.022 A 
HETATM    3  C7  UNL     1      -7.685   8.087  15.837  1.00  0.00     0.030 A 
HETATM    4  C6  UNL     1      -8.232   9.288  16.134  1.00  0.00    -0.015 A 
HETATM    5  C5  UNL     1      -8.984  10.132  15.269  1.00  0.00     0.013 A 
HETATM    6  C17 UNL     1      -8.038   9.768  17.392  1.00  0.00     0.049 A 
HETATM    7  C4  UNL     1      -9.458  11.335  15.707  1.00  0.00     0.004 A 
HETATM    8  C3  UNL     1      -9.250  11.796  16.973  1.00  0.00     0.038 A 
HETATM    9  C2  UNL     1      -8.535  11.018  17.839  1.00  0.00     0.086 A 
HETATM   10  S1  UNL     1      -7.110   8.549  18.130  1.00  0.00    -0.088 SA
BRANCH   9  11
HETATM   11  O1  UNL     1      -8.230  11.316  19.137  1.00  0.00    -0.355 OA
HETATM   12  C1  UNL     1      -7.147  12.157  19.466  1.00  0.00     0.210 C 
ENDBRANCH   9  11
ENDBRANCH   1   2
BRANCH   1  13
HETATM   13  O2  UNL     1      -5.865   6.103  18.228  1.00  0.00    -0.381 OA
ATOM     14  H2  UNL     1      -6.296   5.294  18.480  1.00  0.00     0.211 HD
ENDBRANCH   1  13
BRANCH   1  15
HETATM   15  C10 UNL     1      -5.025   6.200  16.061  1.00  0.00    -0.013 C 
HETATM   16  C11 UNL     1      -3.775   5.682  16.753  1.00  0.00     0.018 C 
HETATM   17  C12 UNL     1      -4.952   5.775  14.629  1.00  0.00     0.018 C 
HETATM   18  C13 UNL     1      -4.591   7.737  15.967  1.00  0.00     0.018 C 
ENDBRANCH   1  15
BRANCH   1  19
HETATM   19  C14 UNL     1      -7.140   4.954  16.805  1.00  0.00     0.214 C 
HETATM   20  C15 UNL     1      -8.057   5.020  17.986  1.00  0.00     0.056 C 
BRANCH  19  21
HETATM   21  N1  UNL     1      -6.276   3.751  17.077  1.00  0.00    -0.062 N 
ATOM     22  H13 UNL     1      -5.542   3.615  16.383  1.00  0.00     0.275 HD
ATOM     23  H12 UNL     1      -5.665   3.867  17.886  1.00  0.00     0.275 HD
ATOM     24  H11 UNL     1      -6.907   2.954  17.158  1.00  0.00     0.275 HD
ENDBRANCH  19  21
BRANCH  19  25
HETATM   25  C16 UNL     1      -7.891   4.515  15.616  1.00  0.00     0.392 C 
HETATM   26  F1  UNL     1      -9.207   4.271  16.110  1.00  0.00    -0.212 F 
HETATM   27  F2  UNL     1      -8.083   5.297  14.555  1.00  0.00    -0.212 F 
ENDBRANCH  19  25
ENDBRANCH   1  19
TORSDOF 7
ENDMDL
MODEL 5
REMARK VINA RESULT: -6.779820946      2.021      2.907
REMARK  7 active torsions:
REMARK  status: ('A' for Active; 'I' for Inactive)
REMARK    1  A    between atoms: O1_2  and  C2_3 
REMARK    2  A    between atoms: C8_9  and  C9_10 
REMARK    3  A    between atoms: C9_10  and  O2_11 
REMARK    4  A    between atoms: C9_10  and  C10_13 
REMARK    5  A    between atoms: C9_10  and  C14_17 
REMARK    6  A    between atoms: C14_17  and  N1_19 
REMARK    7  A    between atoms: C14_17  and  C16_23 
ROOT
HETATM    1  C9  UNL     1      -6.117   5.912  17.391  1.00  0.00     0.136 C 
ENDROOT
BRANCH   1   2
HETATM    2  C8  UNL     1      -6.924   7.111  16.925  1.00  0.00     0.022 A 
HETATM    3  C7  UNL     1      -7.639   8.045  17.604  1.00  0.00     0.030 A 
HETATM    4  C6  UNL     1      -8.267   9.011  16.894  1.00  0.00    -0.015 A 
HETATM    5  C5  UNL     1      -9.075  10.067  17.400  1.00  0.00     0.013 A 
HETATM    6  C17 UNL     1      -8.137   8.974  15.540  1.00  0.00     0.049 A 
HETATM    7  C4  UNL     1      -9.665  10.961  16.554  1.00  0.00     0.004 A 
HETATM    8  C3  UNL     1      -9.521  10.905  15.200  1.00  0.00     0.038 A 
HETATM    9  C2  UNL     1      -8.752   9.909  14.669  1.00  0.00     0.086 A 
HETATM   10  S1  UNL     1      -7.150   7.613  15.285  1.00  0.00    -0.088 SA
BRANCH   9  11
HETATM   11  O1  UNL     1      -8.497   9.697  13.343  1.00  0.00    -0.355 OA
HETATM   12  C1  UNL     1      -9.337   8.888  12.551  1.00  0.00     0.210 C 
ENDBRANCH   9  11
ENDBRANCH   1   2
BRANCH   1  13
HETATM   13  O2  UNL     1      -7.019   5.457  18.450  1.00  0.00    -0.381 OA
ATOM     14  H2  UNL     1      -7.236   4.607  18.085  1.00  0.00     0.211 HD
ENDBRANCH   1  13
BRANCH   1  15
HETATM   15  C10 UNL     1      -4.903   6.336  18.045  1.00  0.00    -0.013 C 
HETATM   16  C11 UNL     1      -4.053   5.234  18.656  1.00  0.00     0.018 C 
HETATM   17  C12 UNL     1      -3.972   7.322  17.414  1.00  0.00     0.018 C 
HETATM   18  C13 UNL     1      -5.291   7.080  19.408  1.00  0.00     0.018 C 
ENDBRANCH   1  15
BRANCH   1  19
HETATM   19  C14 UNL     1      -6.205   4.763  16.493  1.00  0.00     0.214 C 
HETATM   20  C15 UNL     1      -7.565   4.726  15.867  1.00  0.00     0.056 C 
BRANCH  19  21
HETATM   21  N1  UNL     1      -6.169   3.536  17.366  1.00  0.00    -0.062 N 
ATOM     22  H13 UNL     1      -7.040   3.007  17.355  1.00  0.00     0.275 HD
ATOM     23  H12 UNL     1      -5.568   2.798  17.000  1.00  0.00     0.275 HD
ATOM     24  H11 UNL     1      -5.900   3.852  18.298  1.00  0.00     0.275 HD
ENDBRANCH  19  21
BRANCH  19  25
HETATM   25  C16 UNL     1      -5.183   4.438  15.483  1.00  0.00     0.392 C 
HETATM   26  F1  UNL     1      -5.453   3.079  15.144  1.00  0.00    -0.212 F 
HETATM   27  F2  UNL     1      -5.109   5.058  14.306  1.00  0.00    -0.212 F 
ENDBRANCH  19  25
ENDBRANCH   1  19
TORSDOF 7
ENDMDL
