MODEL 1
REMARK VINA RESULT: -9.344334259      0.000      0.000
REMARK  4 active torsions:
REMARK  status: ('A' for Active; 'I' for Inactive)
REMARK    1  A    between atoms: C2_2  and  C4_4 
REMARK    2  A    between atoms: C13_16  and  C14_17 
REMARK    3  A    between atoms: C14_17  and  C15_18 
REMARK    4  A    between atoms: C16_21  and  O3_22 
ROOT
HETATM    1  C4  UNL     1      -7.957   8.613  15.390  1.00  0.00    -0.039 A 
HETATM    2  C5  UNL     1      -8.967   9.066  14.582  1.00  0.00     0.054 A 
HETATM    3  C6  UNL     1      -9.608  10.232  15.003  1.00  0.00     0.156 A 
HETATM    4  F1  UNL     1     -10.681  10.703  14.229  1.00  0.00    -0.203 F 
HETATM    5  C7  UNL     1      -9.244  10.888  16.132  1.00  0.00     0.166 A 
HETATM    6  F2  UNL     1      -9.870  12.024  16.532  1.00  0.00    -0.202 F 
HETATM    7  C8  UNL     1      -8.217  10.404  16.909  1.00  0.00     0.029 A 
HETATM    8  C9  UNL     1      -7.539   9.233  16.560  1.00  0.00     0.007 A 
HETATM    9  C10 UNL     1      -6.445   9.021  17.492  1.00  0.00     0.054 A 
HETATM   10  S1  UNL     1      -5.367   7.768  17.486  1.00  0.00    -0.078 SA
HETATM   11  C11 UNL     1      -6.463  10.136  18.447  1.00  0.00    -0.002 A 
HETATM   12  C12 UNL     1      -5.616  10.422  19.453  1.00  0.00     0.024 A 
HETATM   13  C13 UNL     1      -5.759  11.607  20.219  1.00  0.00    -0.014 A 
HETATM   14  C16 UNL     1      -6.786  12.443  19.907  1.00  0.00     0.073 A 
HETATM   15  C17 UNL     1      -7.639  12.109  18.861  1.00  0.00     0.050 A 
HETATM   16  C18 UNL     1      -7.488  10.955  18.117  1.00  0.00    -0.007 A 
ENDROOT
BRANCH  13  17
HETATM   17  C14 UNL     1      -4.747  11.801  21.262  1.00  0.00     0.154 C 
BRANCH  17  18
HETATM   18  C15 UNL     1      -3.753  12.873  21.040  1.00  0.00     0.177 C 
HETATM   19  O1  UNL     1      -2.799  12.797  20.282  1.00  0.00    -0.648 OA
HETATM   20  O2  UNL     1      -3.932  14.078  21.782  1.00  0.00    -0.648 OA
ENDBRANCH  17  18
ENDBRANCH  13  17
BRANCH  14  21
HETATM   21  O3  UNL     1      -6.935  13.605  20.659  1.00  0.00    -0.360 OA
ATOM     22  H3  UNL     1      -7.216  13.520  21.563  1.00  0.00     0.217 HD
ENDBRANCH  14  21
BRANCH   1  23
HETATM   23  C2  UNL     1      -7.285   7.293  15.137  1.00  0.00     0.011 C 
HETATM   24  C1  UNL     1      -7.434   6.953  13.635  1.00  0.00     0.015 C 
HETATM   25  C3  UNL     1      -8.261   6.153  15.717  1.00  0.00     0.015 C 
ENDBRANCH   1  23
TORSDOF 4
ENDMDL
MODEL 2
REMARK VINA RESULT: -8.957526095      1.644      1.924
REMARK  4 active torsions:
REMARK  status: ('A' for Active; 'I' for Inactive)
REMARK    1  A    between atoms: C2_2  and  C4_4 
REMARK    2  A    between atoms: C13_16  and  C14_17 
REMARK    3  A    between atoms: C14_17  and  C15_18 
REMARK    4  A    between atoms: C16_21  and  O3_22 
ROOT
HETATM    1  C4  UNL     1      -7.986   8.025  15.677  1.00  0.00    -0.039 A 
HETATM    2  C5  UNL     1      -8.653   8.524  14.588  1.00  0.00     0.054 A 
HETATM    3  C6  UNL     1      -9.185   9.806  14.733  1.00  0.00     0.156 A 
HETATM    4  F1  UNL     1      -9.919  10.333  13.657  1.00  0.00    -0.203 F 
HETATM    5  C7  UNL     1      -9.039  10.522  15.874  1.00  0.00     0.166 A 
HETATM    6  F2  UNL     1      -9.556  11.770  16.005  1.00  0.00    -0.202 F 
HETATM    7  C8  UNL     1      -8.352   9.988  16.940  1.00  0.00     0.029 A 
HETATM    8  C9  UNL     1      -7.805   8.704  16.874  1.00  0.00     0.007 A 
HETATM    9  C10 UNL     1      -7.053   8.445  18.090  1.00  0.00     0.054 A 
HETATM   10  S1  UNL     1      -6.232   7.062  18.471  1.00  0.00    -0.078 SA
HETATM   11  C11 UNL     1      -7.147   9.648  18.925  1.00  0.00    -0.002 A 
HETATM   12  C12 UNL     1      -6.569   9.921  20.110  1.00  0.00     0.024 A 
HETATM   13  C13 UNL     1      -6.719  11.191  20.725  1.00  0.00    -0.014 A 
HETATM   14  C16 UNL     1      -7.474  12.121  20.081  1.00  0.00     0.073 A 
HETATM   15  C17 UNL     1      -8.055  11.797  18.860  1.00  0.00     0.050 A 
HETATM   16  C18 UNL     1      -7.898  10.561  18.266  1.00  0.00    -0.007 A 
ENDROOT
BRANCH  13  17
HETATM   17  C14 UNL     1      -6.009  11.355  21.998  1.00  0.00     0.154 C 
BRANCH  17  18
HETATM   18  C15 UNL     1      -6.827  11.333  23.229  1.00  0.00     0.177 C 
HETATM   19  O1  UNL     1      -7.114  10.328  23.861  1.00  0.00    -0.648 OA
HETATM   20  O2  UNL     1      -7.318  12.588  23.695  1.00  0.00    -0.648 OA
ENDBRANCH  17  18
ENDBRANCH  13  17
BRANCH  14  21
HETATM   21  O3  UNL     1      -7.630  13.367  20.683  1.00  0.00    -0.360 OA
ATOM     22  H3  UNL     1      -7.814  13.394  21.615  1.00  0.00     0.217 HD
ENDBRANCH  14  21
BRANCH   1  23
HETATM   23  C2  UNL     1      -7.494   6.606  15.711  1.00  0.00     0.011 C 
HETATM   24  C1  UNL     1      -7.031   6.218  14.286  1.00  0.00     0.015 C 
HETATM   25  C3  UNL     1      -8.795   5.662  15.782  1.00  0.00     0.015 C 
ENDBRANCH   1  23
TORSDOF 4
ENDMDL
MODEL 3
REMARK VINA RESULT: -8.439007108      5.491      8.287
REMARK  4 active torsions:
REMARK  status: ('A' for Active; 'I' for Inactive)
REMARK    1  A    between atoms: C2_2  and  C4_4 
REMARK    2  A    between atoms: C13_16  and  C14_17 
REMARK    3  A    between atoms: C14_17  and  C15_18 
REMARK    4  A    between atoms: C16_21  and  O3_22 
ROOT
HETATM    1  C4  UNL     1      -6.709   9.676  17.435  1.00  0.00    -0.039 A 
HETATM    2  C5  UNL     1      -5.616   9.138  18.064  1.00  0.00     0.054 A 
HETATM    3  C6  UNL     1      -5.095   7.976  17.494  1.00  0.00     0.156 A 
HETATM    4  F1  UNL     1      -4.006   7.366  18.137  1.00  0.00    -0.203 F 
HETATM    5  C7  UNL     1      -5.626   7.420  16.378  1.00  0.00     0.166 A 
HETATM    6  F2  UNL     1      -5.111   6.291  15.828  1.00  0.00    -0.202 F 
HETATM    7  C8  UNL     1      -6.718   7.998  15.772  1.00  0.00     0.029 A 
HETATM    8  C9  UNL     1      -7.303   9.155  16.294  1.00  0.00     0.007 A 
HETATM    9  C10 UNL     1      -8.359   9.598  15.400  1.00  0.00     0.054 A 
HETATM   10  S1  UNL     1      -9.335  10.917  15.598  1.00  0.00    -0.078 SA
HETATM   11  C11 UNL     1      -8.399   8.658  14.273  1.00  0.00    -0.002 A 
HETATM   12  C12 UNL     1      -9.157   8.679  13.161  1.00  0.00     0.024 A 
HETATM   13  C13 UNL     1      -8.986   7.713  12.137  1.00  0.00    -0.014 A 
HETATM   14  C16 UNL     1      -8.033   6.760  12.318  1.00  0.00     0.073 A 
HETATM   15  C17 UNL     1      -7.273   6.773  13.483  1.00  0.00     0.050 A 
HETATM   16  C18 UNL     1      -7.444   7.721  14.472  1.00  0.00    -0.007 A 
ENDROOT
BRANCH  13  17
HETATM   17  C14 UNL     1      -9.861   7.878  10.971  1.00  0.00     0.154 C 
BRANCH  17  18
HETATM   18  C15 UNL     1      -9.696   6.909   9.867  1.00  0.00     0.177 C 
HETATM   19  O1  UNL     1      -9.019   7.095   8.867  1.00  0.00    -0.648 OA
HETATM   20  O2  UNL     1     -10.393   5.672   9.990  1.00  0.00    -0.648 OA
ENDBRANCH  17  18
ENDBRANCH  13  17
BRANCH  14  21
HETATM   21  O3  UNL     1      -7.864   5.805  11.319  1.00  0.00    -0.360 OA
ATOM     22  H3  UNL     1      -8.598   5.237  11.114  1.00  0.00     0.217 HD
ENDBRANCH  14  21
BRANCH   1  23
HETATM   23  C2  UNL     1      -7.458  10.837  18.025  1.00  0.00     0.011 C 
HETATM   24  C1  UNL     1      -6.558  11.504  19.094  1.00  0.00     0.015 C 
HETATM   25  C3  UNL     1      -8.563  10.224  19.021  1.00  0.00     0.015 C 
ENDBRANCH   1  23
TORSDOF 4
ENDMDL
MODEL 4
REMARK VINA RESULT: -8.375427694      5.092      7.699
REMARK  4 active torsions:
REMARK  status: ('A' for Active; 'I' for Inactive)
REMARK    1  A    between atoms: C2_2  and  C4_4 
REMARK    2  A    between atoms: C13_16  and  C14_17 
REMARK    3  A    between atoms: C14_17  and  C15_18 
REMARK    4  A    between atoms: C16_21  and  O3_22 
ROOT
HETATM    1  C4  UNL     1      -6.346   8.014  18.963  1.00  0.00    -0.039 A 
HETATM    2  C5  UNL     1      -5.597   6.997  19.497  1.00  0.00     0.054 A 
HETATM    3  C6  UNL     1      -5.497   5.842  18.721  1.00  0.00     0.156 A 
HETATM    4  F1  UNL     1      -4.779   4.758  19.254  1.00  0.00    -0.203 F 
HETATM    5  C7  UNL     1      -6.089   5.735  17.507  1.00  0.00     0.166 A 
HETATM    6  F2  UNL     1      -5.983   4.609  16.757  1.00  0.00    -0.202 F 
HETATM    7  C8  UNL     1      -6.823   6.785  17.003  1.00  0.00     0.029 A 
HETATM    8  C9  UNL     1      -6.981   7.968  17.729  1.00  0.00     0.007 A 
HETATM    9  C10 UNL     1      -7.705   8.931  16.918  1.00  0.00     0.054 A 
HETATM   10  S1  UNL     1      -8.132  10.468  17.350  1.00  0.00    -0.078 SA
HETATM   11  C11 UNL     1      -7.986   8.289  15.628  1.00  0.00    -0.002 A 
HETATM   12  C12 UNL     1      -8.573   8.793  14.526  1.00  0.00     0.024 A 
HETATM   13  C13 UNL     1      -8.678   8.029  13.336  1.00  0.00    -0.014 A 
HETATM   14  C16 UNL     1      -8.172   6.767  13.347  1.00  0.00     0.073 A 
HETATM   15  C17 UNL     1      -7.576   6.285  14.507  1.00  0.00     0.050 A 
HETATM   16  C18 UNL     1      -7.473   7.038  15.659  1.00  0.00    -0.007 A 
ENDROOT
BRANCH  13  17
HETATM   17  C14 UNL     1      -9.314   8.717  12.207  1.00  0.00     0.154 C 
BRANCH  17  18
HETATM   18  C15 UNL     1      -8.496   8.902  10.989  1.00  0.00     0.177 C 
HETATM   19  O1  UNL     1      -8.167   8.008  10.225  1.00  0.00    -0.648 OA
HETATM   20  O2  UNL     1      -8.059  10.229  10.706  1.00  0.00    -0.648 OA
ENDBRANCH  17  18
ENDBRANCH  13  17
BRANCH  14  21
HETATM   21  O3  UNL     1      -8.278   6.010  12.183  1.00  0.00    -0.360 OA
ATOM     22  H3  UNL     1      -8.090   5.079  12.236  1.00  0.00     0.217 HD
ENDBRANCH  14  21
BRANCH   1  23
HETATM   23  C2  UNL     1      -6.660   9.253  19.754  1.00  0.00     0.011 C 
HETATM   24  C1  UNL     1      -5.436  10.198  19.684  1.00  0.00     0.015 C 
HETATM   25  C3  UNL     1      -6.542   8.857  21.309  1.00  0.00     0.015 C 
ENDBRANCH   1  23
TORSDOF 4
ENDMDL
MODEL 5
REMARK VINA RESULT: -8.370685205      4.198      6.895
REMARK  4 active torsions:
REMARK  status: ('A' for Active; 'I' for Inactive)
REMARK    1  A    between atoms: C2_2  and  C4_4 
REMARK    2  A    between atoms: C13_16  and  C14_17 
REMARK    3  A    between atoms: C14_17  and  C15_18 
REMARK    4  A    between atoms: C16_21  and  O3_22 
ROOT
HETATM    1  C4  UNL     1      -6.381   9.483  19.271  1.00  0.00    -0.039 A 
HETATM    2  C5  UNL     1      -6.898  10.530  19.990  1.00  0.00     0.054 A 
HETATM    3  C6  UNL     1      -7.752  11.386  19.292  1.00  0.00     0.156 A 
HETATM    4  F1  UNL     1      -8.264  12.499  19.979  1.00  0.00    -0.203 F 
HETATM    5  C7  UNL     1      -8.066  11.185  17.989  1.00  0.00     0.166 A 
HETATM    6  F2  UNL     1      -8.901  12.020  17.319  1.00  0.00    -0.202 F 
HETATM    7  C8  UNL     1      -7.533  10.115  17.308  1.00  0.00     0.029 A 
HETATM    8  C9  UNL     1      -6.658   9.225  17.936  1.00  0.00     0.007 A 
HETATM    9  C10 UNL     1      -6.341   8.144  17.019  1.00  0.00     0.054 A 
HETATM   10  S1  UNL     1      -5.344   6.858  17.311  1.00  0.00    -0.078 SA
HETATM   11  C11 UNL     1      -7.079   8.397  15.775  1.00  0.00    -0.002 A 
HETATM   12  C12 UNL     1      -7.163   7.651  14.658  1.00  0.00     0.024 A 
HETATM   13  C13 UNL     1      -8.006   8.032  13.583  1.00  0.00    -0.014 A 
HETATM   14  C16 UNL     1      -8.721   9.181  13.715  1.00  0.00     0.073 A 
HETATM   15  C17 UNL     1      -8.603   9.923  14.885  1.00  0.00     0.050 A 
HETATM   16  C18 UNL     1      -7.784   9.541  15.929  1.00  0.00    -0.007 A 
ENDROOT
BRANCH  13  17
HETATM   17  C14 UNL     1      -8.021   7.108  12.443  1.00  0.00     0.154 C 
BRANCH  17  18
HETATM   18  C15 UNL     1      -8.395   7.672  11.129  1.00  0.00     0.177 C 
HETATM   19  O1  UNL     1      -7.762   8.526  10.528  1.00  0.00    -0.648 OA
HETATM   20  O2  UNL     1      -9.593   7.177  10.537  1.00  0.00    -0.648 OA
ENDBRANCH  17  18
ENDBRANCH  13  17
BRANCH  14  21
HETATM   21  O3  UNL     1      -9.546   9.564  12.661  1.00  0.00    -0.360 OA
ATOM     22  H3  UNL     1     -10.224  10.208  12.834  1.00  0.00     0.217 HD
ENDBRANCH  14  21
BRANCH   1  23
HETATM   23  C2  UNL     1      -5.335   8.576  19.854  1.00  0.00     0.011 C 
HETATM   24  C1  UNL     1      -6.019   7.643  20.883  1.00  0.00     0.015 C 
HETATM   25  C3  UNL     1      -4.479   9.456  20.893  1.00  0.00     0.015 C 
ENDBRANCH   1  23
TORSDOF 4
ENDMDL
