MODEL 1
REMARK VINA RESULT: -7.302718484      0.000      0.000
REMARK  4 active torsions:
REMARK  status: ('A' for Active; 'I' for Inactive)
REMARK    1  A    between atoms: C4_5  and  O2_6 
REMARK    2  A    between atoms: C5_8  and  C6_9 
REMARK    3  A    between atoms: C6_9  and  C7_10 
REMARK    4  A    between atoms: C9_13  and  C10_14 
ROOT
HETATM    1  C1  UNL     1      -7.701  12.287  19.739  1.00  0.00     0.078 C 
HETATM    2  C2  UNL     1      -7.873  11.489  18.482  1.00  0.00     0.072 A 
HETATM    3  O1  UNL     1      -8.786  11.542  17.589  1.00  0.00    -0.310 OA
HETATM    4  C3  UNL     1      -8.583  10.668  16.627  1.00  0.00     0.122 A 
HETATM    5  C4  UNL     1      -9.316  10.397  15.498  1.00  0.00     0.106 A 
HETATM    6  C5  UNL     1      -8.861   9.412  14.659  1.00  0.00    -0.020 A 
HETATM    7  C8  UNL     1      -7.718   8.718  14.931  1.00  0.00     0.029 A 
HETATM    8  C9  UNL     1      -6.956   8.985  16.084  1.00  0.00     0.056 A 
HETATM    9  C11 UNL     1      -7.408   9.970  16.927  1.00  0.00     0.042 A 
HETATM   10  C12 UNL     1      -6.954  10.499  18.123  1.00  0.00     0.077 A 
HETATM   11 CL1  UNL     1      -5.556  10.040  19.049  1.00  0.00    -0.081 Cl
ENDROOT
BRANCH   6  12
HETATM   12  C6  UNL     1      -9.586   9.082  13.421  1.00  0.00     0.052 C 
BRANCH  12  13
HETATM   13  C7  UNL     1      -8.888   9.551  12.175  1.00  0.00     0.089 C 
HETATM   14 BR1  UNL     1      -8.400   8.041  11.041  1.00  0.00    -0.096 Br
ENDBRANCH  12  13
ENDBRANCH   6  12
BRANCH   5  15
HETATM   15  O2  UNL     1     -10.497  11.128  15.238  1.00  0.00    -0.357 OA
ATOM     16  H2  UNL     1     -10.680  11.427  14.355  1.00  0.00     0.217 HD
ENDBRANCH   5  15
BRANCH   8  17
HETATM   17  C10 UNL     1      -5.729   8.269  16.293  1.00  0.00     0.210 C 
HETATM   18  O3  UNL     1      -4.600   8.545  15.933  1.00  0.00    -0.644 OA
HETATM   19  O4  UNL     1      -5.843   7.056  17.031  1.00  0.00    -0.644 OA
ENDBRANCH   8  17
TORSDOF 4
ENDMDL
MODEL 2
REMARK VINA RESULT: -7.121560860      2.137      4.017
REMARK  4 active torsions:
REMARK  status: ('A' for Active; 'I' for Inactive)
REMARK    1  A    between atoms: C4_5  and  O2_6 
REMARK    2  A    between atoms: C5_8  and  C6_9 
REMARK    3  A    between atoms: C6_9  and  C7_10 
REMARK    4  A    between atoms: C9_13  and  C10_14 
ROOT
HETATM    1  C1  UNL     1      -6.711   6.716  18.344  1.00  0.00     0.078 C 
HETATM    2  C2  UNL     1      -7.217   7.264  17.043  1.00  0.00     0.072 A 
HETATM    3  O1  UNL     1      -7.137   6.788  15.860  1.00  0.00    -0.310 OA
HETATM    4  C3  UNL     1      -7.710   7.574  14.975  1.00  0.00     0.122 A 
HETATM    5  C4  UNL     1      -7.842   7.440  13.614  1.00  0.00     0.106 A 
HETATM    6  C5  UNL     1      -8.494   8.434  12.932  1.00  0.00    -0.020 A 
HETATM    7  C8  UNL     1      -9.000   9.526  13.577  1.00  0.00     0.029 A 
HETATM    8  C9  UNL     1      -8.873   9.676  14.970  1.00  0.00     0.056 A 
HETATM    9  C11 UNL     1      -8.220   8.684  15.658  1.00  0.00     0.042 A 
HETATM   10  C12 UNL     1      -7.899   8.483  16.989  1.00  0.00     0.077 A 
HETATM   11 CL1  UNL     1      -8.221   9.517  18.349  1.00  0.00    -0.081 Cl
ENDROOT
BRANCH   6  12
HETATM   12  C6  UNL     1      -8.689   8.347  11.476  1.00  0.00     0.052 C 
BRANCH  12  13
HETATM   13  C7  UNL     1      -9.965   7.658  11.082  1.00  0.00     0.089 C 
HETATM   14 BR1  UNL     1      -9.643   6.349   9.671  1.00  0.00    -0.096 Br
ENDBRANCH  12  13
ENDBRANCH   6  12
BRANCH   5  15
HETATM   15  O2  UNL     1      -7.310   6.301  12.969  1.00  0.00    -0.357 OA
ATOM     16  H2  UNL     1      -7.601   6.078  12.092  1.00  0.00     0.217 HD
ENDBRANCH   5  15
BRANCH   8  17
HETATM   17  C10 UNL     1      -9.475  10.813  15.608  1.00  0.00     0.210 C 
HETATM   18  O3  UNL     1      -8.953  11.717  16.235  1.00  0.00    -0.644 OA
HETATM   19  O4  UNL     1     -10.892  10.904  15.493  1.00  0.00    -0.644 OA
ENDBRANCH   8  17
TORSDOF 4
ENDMDL
MODEL 3
REMARK VINA RESULT: -7.085940495      3.148      5.003
REMARK  4 active torsions:
REMARK  status: ('A' for Active; 'I' for Inactive)
REMARK    1  A    between atoms: C4_5  and  O2_6 
REMARK    2  A    between atoms: C5_8  and  C6_9 
REMARK    3  A    between atoms: C6_9  and  C7_10 
REMARK    4  A    between atoms: C9_13  and  C10_14 
ROOT
HETATM    1  C1  UNL     1      -9.541   8.214  11.690  1.00  0.00     0.078 C 
HETATM    2  C2  UNL     1      -9.101   8.689  13.043  1.00  0.00     0.072 A 
HETATM    3  O1  UNL     1      -9.493   9.691  13.734  1.00  0.00    -0.310 OA
HETATM    4  C3  UNL     1      -8.859   9.772  14.883  1.00  0.00     0.122 A 
HETATM    5  C4  UNL     1      -8.972  10.686  15.902  1.00  0.00     0.106 A 
HETATM    6  C5  UNL     1      -8.167  10.525  17.000  1.00  0.00    -0.020 A 
HETATM    7  C8  UNL     1      -7.279   9.492  17.085  1.00  0.00     0.029 A 
HETATM    8  C9  UNL     1      -7.152   8.548  16.049  1.00  0.00     0.056 A 
HETATM    9  C11 UNL     1      -7.956   8.706  14.947  1.00  0.00     0.042 A 
HETATM   10  C12 UNL     1      -8.112   8.011  13.761  1.00  0.00     0.077 A 
HETATM   11 CL1  UNL     1      -7.257   6.602  13.209  1.00  0.00    -0.081 Cl
ENDROOT
BRANCH   6  12
HETATM   12  C6  UNL     1      -8.249  11.455  18.138  1.00  0.00     0.052 C 
BRANCH  12  13
HETATM   13  C7  UNL     1      -7.009  11.474  18.988  1.00  0.00     0.089 C 
HETATM   14 BR1  UNL     1      -7.259  12.604  20.557  1.00  0.00    -0.096 Br
ENDBRANCH  12  13
ENDBRANCH   6  12
BRANCH   5  15
HETATM   15  O2  UNL     1      -9.899  11.747  15.791  1.00  0.00    -0.357 OA
ATOM     16  H2  UNL     1      -9.934  12.414  16.467  1.00  0.00     0.217 HD
ENDBRANCH   5  15
BRANCH   8  17
HETATM   17  C10 UNL     1      -6.246   7.447  16.214  1.00  0.00     0.210 C 
HETATM   18  O3  UNL     1      -6.442   6.348  16.699  1.00  0.00    -0.644 OA
HETATM   19  O4  UNL     1      -4.920   7.665  15.740  1.00  0.00    -0.644 OA
ENDBRANCH   8  17
TORSDOF 4
ENDMDL
MODEL 4
REMARK VINA RESULT: -7.020533309      2.332      3.077
REMARK  4 active torsions:
REMARK  status: ('A' for Active; 'I' for Inactive)
REMARK    1  A    between atoms: C4_5  and  O2_6 
REMARK    2  A    between atoms: C5_8  and  C6_9 
REMARK    3  A    between atoms: C6_9  and  C7_10 
REMARK    4  A    between atoms: C9_13  and  C10_14 
ROOT
HETATM    1  C1  UNL     1      -8.826  10.503  17.462  1.00  0.00     0.078 C 
HETATM    2  C2  UNL     1      -8.634   9.722  16.196  1.00  0.00     0.072 A 
HETATM    3  O1  UNL     1      -8.995   9.988  14.999  1.00  0.00    -0.310 OA
HETATM    4  C3  UNL     1      -8.636   9.043  14.158  1.00  0.00     0.122 A 
HETATM    5  C4  UNL     1      -8.829   8.935  12.802  1.00  0.00     0.106 A 
HETATM    6  C5  UNL     1      -8.343   7.818  12.172  1.00  0.00    -0.020 A 
HETATM    7  C8  UNL     1      -7.688   6.841  12.863  1.00  0.00     0.029 A 
HETATM    8  C9  UNL     1      -7.481   6.939  14.252  1.00  0.00     0.056 A 
HETATM    9  C11 UNL     1      -7.967   8.055  14.887  1.00  0.00     0.042 A 
HETATM   10  C12 UNL     1      -7.969   8.493  16.200  1.00  0.00     0.077 A 
HETATM   11 CL1  UNL     1      -7.324   7.702  17.607  1.00  0.00    -0.081 Cl
ENDROOT
BRANCH   6  12
HETATM   12  C6  UNL     1      -8.497   7.646  10.719  1.00  0.00     0.052 C 
BRANCH  12  13
HETATM   13  C7  UNL     1      -9.778   6.963  10.328  1.00  0.00     0.089 C 
HETATM   14 BR1  UNL     1      -9.447   5.115   9.800  1.00  0.00    -0.096 Br
ENDBRANCH  12  13
ENDBRANCH   6  12
BRANCH   5  15
HETATM   15  O2  UNL     1      -9.512   9.960  12.109  1.00  0.00    -0.357 OA
ATOM     16  H2  UNL     1      -9.244  10.190  11.227  1.00  0.00     0.217 HD
ENDBRANCH   5  15
BRANCH   8  17
HETATM   17  C10 UNL     1      -6.733   5.913  14.921  1.00  0.00     0.210 C 
HETATM   18  O3  UNL     1      -5.528   5.781  15.036  1.00  0.00    -0.644 OA
HETATM   19  O4  UNL     1      -7.509   4.895  15.548  1.00  0.00    -0.644 OA
ENDBRANCH   8  17
TORSDOF 4
ENDMDL
MODEL 5
REMARK VINA RESULT: -6.812191128      3.127      4.904
REMARK  4 active torsions:
REMARK  status: ('A' for Active; 'I' for Inactive)
REMARK    1  A    between atoms: C4_5  and  O2_6 
REMARK    2  A    between atoms: C5_8  and  C6_9 
REMARK    3  A    between atoms: C6_9  and  C7_10 
REMARK    4  A    between atoms: C9_13  and  C10_14 
ROOT
HETATM    1  C1  UNL     1      -9.525   8.317  12.352  1.00  0.00     0.078 C 
HETATM    2  C2  UNL     1      -9.016   8.823  13.669  1.00  0.00     0.072 A 
HETATM    3  O1  UNL     1      -9.462   9.754  14.424  1.00  0.00    -0.310 OA
HETATM    4  C3  UNL     1      -8.731   9.898  15.508  1.00  0.00     0.122 A 
HETATM    5  C4  UNL     1      -8.857  10.772  16.559  1.00  0.00     0.106 A 
HETATM    6  C5  UNL     1      -7.932  10.699  17.569  1.00  0.00    -0.020 A 
HETATM    7  C8  UNL     1      -6.916   9.789  17.537  1.00  0.00     0.029 A 
HETATM    8  C9  UNL     1      -6.774   8.887  16.466  1.00  0.00     0.056 A 
HETATM    9  C11 UNL     1      -7.697   8.957  15.453  1.00  0.00     0.042 A 
HETATM   10  C12 UNL     1      -7.882   8.267  14.267  1.00  0.00     0.077 A 
HETATM   11 CL1  UNL     1      -6.913   6.990  13.594  1.00  0.00    -0.081 Cl
ENDROOT
BRANCH   6  12
HETATM   12  C6  UNL     1      -8.018  11.591  18.736  1.00  0.00     0.052 C 
BRANCH  12  13
HETATM   13  C7  UNL     1      -7.084  11.212  19.851  1.00  0.00     0.089 C 
HETATM   14 BR1  UNL     1      -6.386  12.800  20.743  1.00  0.00    -0.096 Br
ENDBRANCH  12  13
ENDBRANCH   6  12
BRANCH   5  15
HETATM   15  O2  UNL     1      -9.919  11.705  16.570  1.00  0.00    -0.357 OA
ATOM     16  H2  UNL     1     -10.129  12.169  17.372  1.00  0.00     0.217 HD
ENDBRANCH   5  15
BRANCH   8  17
HETATM   17  C10 UNL     1      -5.723   7.910  16.510  1.00  0.00     0.210 C 
HETATM   18  O3  UNL     1      -4.602   7.955  16.038  1.00  0.00    -0.644 OA
HETATM   19  O4  UNL     1      -6.030   6.706  17.209  1.00  0.00    -0.644 OA
ENDBRANCH   8  17
TORSDOF 4
ENDMDL
