MODEL 1
REMARK VINA RESULT: -7.252212786      0.000      0.000
REMARK  5 active torsions:
REMARK  status: ('A' for Active; 'I' for Inactive)
REMARK    1  A    between atoms: C2_2  and  C4_5 
REMARK    2  A    between atoms: C4_5  and  N1_8 
REMARK    3  A    between atoms: N1_8  and  N2_10 
REMARK    4  A    between atoms: C7_12  and  C8_13 
REMARK    5  A    between atoms: C11_16  and  O1_17 
ROOT
HETATM    1  N2  UNL     1      -9.201   8.308  13.388  1.00  0.00    -0.315 N 
ATOM      2  H2  UNL     1      -8.739   7.634  13.999  1.00  0.00     0.185 HD
HETATM    3  C7  UNL     1      -9.315   9.523  13.795  1.00  0.00     0.118 C 
ENDROOT
BRANCH   1   4
HETATM    4  N1  UNL     1      -9.673   7.867  12.162  1.00  0.00    -0.326 N 
ATOM      5  H1  UNL     1     -10.676   7.806  11.988  1.00  0.00     0.181 HD
BRANCH   4   6
HETATM    6  C4  UNL     1      -8.735   7.496  11.138  1.00  0.00     0.059 C 
HETATM    7  C5  UNL     1      -7.658   6.655  11.792  1.00  0.00     0.041 C 
HETATM    8  C6  UNL     1      -8.069   8.706  10.534  1.00  0.00     0.041 C 
BRANCH   6   9
HETATM    9  C2  UNL     1      -9.423   6.684  10.063  1.00  0.00     0.056 C 
HETATM   10  C1  UNL     1      -9.034   5.232  10.116  1.00  0.00     0.035 C 
HETATM   11  C3  UNL     1     -10.930   6.757  10.185  1.00  0.00     0.035 C 
HETATM   12 CL1  UNL     1      -8.990   7.307   8.461  1.00  0.00    -0.117 Cl
ENDBRANCH   6   9
ENDBRANCH   4   6
ENDBRANCH   1   4
BRANCH   3  13
HETATM   13  C8  UNL     1      -8.787   9.896  15.101  1.00  0.00    -0.018 A 
HETATM   14  C9  UNL     1      -9.391  10.873  15.863  1.00  0.00     0.015 A 
HETATM   15  C10 UNL     1      -8.876  11.213  17.096  1.00  0.00     0.039 A 
HETATM   16  C11 UNL     1      -7.750  10.569  17.567  1.00  0.00     0.083 A 
HETATM   17  C12 UNL     1      -7.116   9.578  16.826  1.00  0.00     0.044 A 
HETATM   18 BR1  UNL     1      -5.566   8.672  17.447  1.00  0.00    -0.048 Br
HETATM   19  C13 UNL     1      -7.661   9.272  15.605  1.00  0.00     0.034 A 
BRANCH  16  20
HETATM   20  O1  UNL     1      -7.215  10.887  18.795  1.00  0.00    -0.359 OA
ATOM     21  H1  UNL     1      -6.887  10.210  19.375  1.00  0.00     0.217 HD
ENDBRANCH  16  20
ENDBRANCH   3  13
TORSDOF 5
ENDMDL
MODEL 2
REMARK VINA RESULT: -6.980728505      1.359      1.795
REMARK  5 active torsions:
REMARK  status: ('A' for Active; 'I' for Inactive)
REMARK    1  A    between atoms: C2_2  and  C4_5 
REMARK    2  A    between atoms: C4_5  and  N1_8 
REMARK    3  A    between atoms: N1_8  and  N2_10 
REMARK    4  A    between atoms: C7_12  and  C8_13 
REMARK    5  A    between atoms: C11_16  and  O1_17 
ROOT
HETATM    1  N2  UNL     1      -9.131   7.773  13.500  1.00  0.00    -0.315 N 
ATOM      2  H2  UNL     1      -9.003   6.881  13.980  1.00  0.00     0.185 HD
HETATM    3  C7  UNL     1      -8.828   8.853  14.128  1.00  0.00     0.118 C 
ENDROOT
BRANCH   1   4
HETATM    4  N1  UNL     1      -9.623   7.756  12.205  1.00  0.00    -0.326 N 
ATOM      5  H1  UNL     1     -10.608   7.952  12.025  1.00  0.00     0.181 HD
BRANCH   4   6
HETATM    6  C4  UNL     1      -8.732   7.461  11.117  1.00  0.00     0.059 C 
HETATM    7  C5  UNL     1      -7.597   6.626  11.672  1.00  0.00     0.041 C 
HETATM    8  C6  UNL     1      -8.135   8.717  10.535  1.00  0.00     0.041 C 
BRANCH   6   9
HETATM    9  C2  UNL     1      -9.453   6.676  10.043  1.00  0.00     0.056 C 
HETATM   10  C1  UNL     1      -9.094   5.217  10.072  1.00  0.00     0.035 C 
HETATM   11  C3  UNL     1     -10.956   6.779  10.190  1.00  0.00     0.035 C 
HETATM   12 CL1  UNL     1      -9.033   7.310   8.442  1.00  0.00    -0.117 Cl
ENDBRANCH   6   9
ENDBRANCH   4   6
ENDBRANCH   1   4
BRANCH   3  13
HETATM   13  C8  UNL     1      -8.316   8.773  15.490  1.00  0.00    -0.018 A 
HETATM   14  C9  UNL     1      -7.857   7.582  16.012  1.00  0.00     0.015 A 
HETATM   15  C10 UNL     1      -7.377   7.525  17.303  1.00  0.00     0.039 A 
HETATM   16  C11 UNL     1      -7.357   8.670  18.075  1.00  0.00     0.083 A 
HETATM   17  C12 UNL     1      -7.811   9.887  17.581  1.00  0.00     0.044 A 
HETATM   18 BR1  UNL     1      -7.795  11.480  18.617  1.00  0.00    -0.048 Br
HETATM   19  C13 UNL     1      -8.280   9.899  16.293  1.00  0.00     0.034 A 
BRANCH  16  20
HETATM   20  O1  UNL     1      -6.882   8.643  19.367  1.00  0.00    -0.359 OA
ATOM     21  H1  UNL     1      -6.219   9.260  19.656  1.00  0.00     0.217 HD
ENDBRANCH  16  20
ENDBRANCH   3  13
TORSDOF 5
ENDMDL
MODEL 3
REMARK VINA RESULT: -6.648145250      5.216      7.434
REMARK  5 active torsions:
REMARK  status: ('A' for Active; 'I' for Inactive)
REMARK    1  A    between atoms: C2_2  and  C4_5 
REMARK    2  A    between atoms: C4_5  and  N1_8 
REMARK    3  A    between atoms: N1_8  and  N2_10 
REMARK    4  A    between atoms: C7_12  and  C8_13 
REMARK    5  A    between atoms: C11_16  and  O1_17 
ROOT
HETATM    1  N2  UNL     1      -5.651   8.502  17.516  1.00  0.00    -0.315 N 
ATOM      2  H2  UNL     1      -6.046   7.973  16.738  1.00  0.00     0.185 HD
HETATM    3  C7  UNL     1      -6.224   9.600  17.860  1.00  0.00     0.118 C 
ENDROOT
BRANCH   1   4
HETATM    4  N1  UNL     1      -4.524   8.000  18.146  1.00  0.00    -0.326 N 
ATOM      5  H1  UNL     1      -3.694   8.582  18.259  1.00  0.00     0.181 HD
BRANCH   4   6
HETATM    6  C4  UNL     1      -4.536   6.650  18.641  1.00  0.00     0.059 C 
HETATM    7  C5  UNL     1      -3.324   5.946  18.069  1.00  0.00     0.041 C 
HETATM    8  C6  UNL     1      -5.762   5.904  18.179  1.00  0.00     0.041 C 
BRANCH   6   9
HETATM    9  C2  UNL     1      -4.455   6.642  20.152  1.00  0.00     0.056 C 
HETATM   10  C1  UNL     1      -4.263   5.256  20.699  1.00  0.00     0.035 C 
HETATM   11  C3  UNL     1      -3.311   7.495  20.655  1.00  0.00     0.035 C 
HETATM   12 CL1  UNL     1      -5.949   7.300  20.843  1.00  0.00    -0.117 Cl
ENDBRANCH   6   9
ENDBRANCH   4   6
ENDBRANCH   1   4
BRANCH   3  13
HETATM   13  C8  UNL     1      -7.408  10.050  17.138  1.00  0.00    -0.018 A 
HETATM   14  C9  UNL     1      -8.290  10.947  17.701  1.00  0.00     0.015 A 
HETATM   15  C10 UNL     1      -9.404  11.361  17.003  1.00  0.00     0.039 A 
HETATM   16  C11 UNL     1      -9.634  10.872  15.732  1.00  0.00     0.083 A 
HETATM   17  C12 UNL     1      -8.766   9.968  15.133  1.00  0.00     0.044 A 
HETATM   18 BR1  UNL     1      -9.053   9.278  13.386  1.00  0.00    -0.048 Br
HETATM   19  C13 UNL     1      -7.670   9.583  15.863  1.00  0.00     0.034 A 
BRANCH  16  20
HETATM   20  O1  UNL     1     -10.738  11.269  15.011  1.00  0.00    -0.359 OA
ATOM     21  H1  UNL     1     -11.467  10.676  14.869  1.00  0.00     0.217 HD
ENDBRANCH  16  20
ENDBRANCH   3  13
TORSDOF 5
ENDMDL
MODEL 4
REMARK VINA RESULT: -6.627559680      5.307      7.442
REMARK  5 active torsions:
REMARK  status: ('A' for Active; 'I' for Inactive)
REMARK    1  A    between atoms: C2_2  and  C4_5 
REMARK    2  A    between atoms: C4_5  and  N1_8 
REMARK    3  A    between atoms: N1_8  and  N2_10 
REMARK    4  A    between atoms: C7_12  and  C8_13 
REMARK    5  A    between atoms: C11_16  and  O1_17 
ROOT
HETATM    1  N2  UNL     1      -5.622   8.456  17.448  1.00  0.00    -0.315 N 
ATOM      2  H2  UNL     1      -6.008   7.958  16.646  1.00  0.00     0.185 HD
HETATM    3  C7  UNL     1      -6.204   9.536  17.833  1.00  0.00     0.118 C 
ENDROOT
BRANCH   1   4
HETATM    4  N1  UNL     1      -4.498   7.934  18.067  1.00  0.00    -0.326 N 
ATOM      5  H1  UNL     1      -3.634   8.474  18.107  1.00  0.00     0.181 HD
BRANCH   4   6
HETATM    6  C4  UNL     1      -4.562   6.623  18.653  1.00  0.00     0.059 C 
HETATM    7  C5  UNL     1      -3.372   5.838  18.141  1.00  0.00     0.041 C 
HETATM    8  C6  UNL     1      -5.810   5.890  18.232  1.00  0.00     0.041 C 
BRANCH   6   9
HETATM    9  C2  UNL     1      -4.491   6.715  20.161  1.00  0.00     0.056 C 
HETATM   10  C1  UNL     1      -3.406   7.651  20.619  1.00  0.00     0.035 C 
HETATM   11  C3  UNL     1      -5.795   7.204  20.753  1.00  0.00     0.035 C 
HETATM   12 CL1  UNL     1      -4.161   5.117  20.853  1.00  0.00    -0.117 Cl
ENDBRANCH   6   9
ENDBRANCH   4   6
ENDBRANCH   1   4
BRANCH   3  13
HETATM   13  C8  UNL     1      -7.384  10.010  17.120  1.00  0.00    -0.018 A 
HETATM   14  C9  UNL     1      -8.249  10.918  17.694  1.00  0.00     0.015 A 
HETATM   15  C10 UNL     1      -9.360  11.354  17.004  1.00  0.00     0.039 A 
HETATM   16  C11 UNL     1      -9.604  10.878  15.732  1.00  0.00     0.083 A 
HETATM   17  C12 UNL     1      -8.754   9.963  15.122  1.00  0.00     0.044 A 
HETATM   18 BR1  UNL     1      -9.061   9.290  13.373  1.00  0.00    -0.048 Br
HETATM   19  C13 UNL     1      -7.661   9.556  15.844  1.00  0.00     0.034 A 
BRANCH  16  20
HETATM   20  O1  UNL     1     -10.705  11.297  15.019  1.00  0.00    -0.359 OA
ATOM     21  H1  UNL     1     -11.293  10.669  14.615  1.00  0.00     0.217 HD
ENDBRANCH  16  20
ENDBRANCH   3  13
TORSDOF 5
ENDMDL
MODEL 5
REMARK VINA RESULT: -6.589943702      5.325      7.441
REMARK  5 active torsions:
REMARK  status: ('A' for Active; 'I' for Inactive)
REMARK    1  A    between atoms: C2_2  and  C4_5 
REMARK    2  A    between atoms: C4_5  and  N1_8 
REMARK    3  A    between atoms: N1_8  and  N2_10 
REMARK    4  A    between atoms: C7_12  and  C8_13 
REMARK    5  A    between atoms: C11_16  and  O1_17 
ROOT
HETATM    1  N2  UNL     1      -5.662   8.515  17.498  1.00  0.00    -0.315 N 
ATOM      2  H2  UNL     1      -6.050   7.989  16.714  1.00  0.00     0.185 HD
HETATM    3  C7  UNL     1      -6.244   9.607  17.848  1.00  0.00     0.118 C 
ENDROOT
BRANCH   1   4
HETATM    4  N1  UNL     1      -4.534   8.016  18.129  1.00  0.00    -0.326 N 
ATOM      5  H1  UNL     1      -3.704   8.598  18.237  1.00  0.00     0.181 HD
BRANCH   4   6
HETATM    6  C4  UNL     1      -4.546   6.669  18.631  1.00  0.00     0.059 C 
HETATM    7  C5  UNL     1      -3.318   5.970  18.086  1.00  0.00     0.041 C 
HETATM    8  C6  UNL     1      -5.757   5.911  18.148  1.00  0.00     0.041 C 
BRANCH   6   9
HETATM    9  C2  UNL     1      -4.495   6.669  20.142  1.00  0.00     0.056 C 
HETATM   10  C1  UNL     1      -5.777   7.168  20.751  1.00  0.00     0.035 C 
HETATM   11  C3  UNL     1      -4.238   5.283  20.693  1.00  0.00     0.035 C 
HETATM   12 CL1  UNL     1      -3.180   7.715  20.706  1.00  0.00    -0.117 Cl
ENDBRANCH   6   9
ENDBRANCH   4   6
ENDBRANCH   1   4
BRANCH   3  13
HETATM   13  C8  UNL     1      -7.427  10.055  17.124  1.00  0.00    -0.018 A 
HETATM   14  C9  UNL     1      -8.315  10.947  17.688  1.00  0.00     0.015 A 
HETATM   15  C10 UNL     1      -9.429  11.358  16.989  1.00  0.00     0.039 A 
HETATM   16  C11 UNL     1      -9.653  10.873  15.716  1.00  0.00     0.083 A 
HETATM   17  C12 UNL     1      -8.780   9.974  15.116  1.00  0.00     0.044 A 
HETATM   18 BR1  UNL     1      -9.061   9.288  13.367  1.00  0.00    -0.048 Br
HETATM   19  C13 UNL     1      -7.685   9.590  15.848  1.00  0.00     0.034 A 
BRANCH  16  20
HETATM   20  O1  UNL     1     -10.757  11.268  14.994  1.00  0.00    -0.359 OA
ATOM     21  H1  UNL     1     -10.748  12.073  14.489  1.00  0.00     0.217 HD
ENDBRANCH  16  20
ENDBRANCH   3  13
TORSDOF 5
ENDMDL
