MODEL 1
REMARK VINA RESULT: -6.213954734      0.000      0.000
REMARK  1 active torsions:
REMARK  status: ('A' for Active; 'I' for Inactive)
REMARK    1  A    between atoms: C5_5  and  N1_6 
ROOT
HETATM    1  C1  UNL     1      -8.072   4.793  17.860  1.00  0.00     0.013 C 
HETATM    2  C2  UNL     1      -6.644   4.464  18.115  1.00  0.00     0.019 C 
HETATM    3  C3  UNL     1      -5.858   5.736  17.745  1.00  0.00     0.015 C 
HETATM    4  C4  UNL     1      -5.912   6.605  18.985  1.00  0.00     0.101 C 
HETATM    5  C5  UNL     1      -5.479   5.743  20.150  1.00  0.00     0.309 C 
HETATM    6  O3  UNL     1      -6.592   5.484  20.928  1.00  0.00    -0.320 OA
HETATM    7  C6  UNL     1      -6.955   4.152  20.628  1.00  0.00     0.090 C 
HETATM    8  C7  UNL     1      -6.254   3.327  21.727  1.00  0.00     0.049 C 
HETATM    9  C8  UNL     1      -8.399   3.975  20.733  1.00  0.00     0.049 C 
HETATM   10  C9  UNL     1      -6.248   3.894  19.381  1.00  0.00     0.097 C 
HETATM   11  C10 UNL     1      -5.912   2.400  19.247  1.00  0.00     0.050 C 
HETATM   12  O4  UNL     1      -4.990   4.492  19.708  1.00  0.00    -0.320 OA
ENDROOT
BRANCH   5  13
HETATM   13  N1  UNL     1      -4.507   6.469  20.903  1.00  0.00    -0.087 N 
HETATM   14  O1  UNL     1      -3.467   6.980  20.446  1.00  0.00    -0.532 OA
HETATM   15  O2  UNL     1      -4.731   6.625  22.252  1.00  0.00    -0.532 OA
ENDBRANCH   5  13
TORSDOF 1
ENDMDL
MODEL 2
REMARK VINA RESULT: -5.873594293      1.072      3.052
REMARK  1 active torsions:
REMARK  status: ('A' for Active; 'I' for Inactive)
REMARK    1  A    between atoms: C5_5  and  N1_6 
ROOT
HETATM    1  C1  UNL     1      -7.644   2.765  19.108  1.00  0.00     0.013 C 
HETATM    2  C2  UNL     1      -7.873   4.119  19.678  1.00  0.00     0.019 C 
HETATM    3  C3  UNL     1      -7.390   4.035  21.139  1.00  0.00     0.015 C 
HETATM    4  C4  UNL     1      -5.897   4.280  21.074  1.00  0.00     0.101 C 
HETATM    5  C5  UNL     1      -5.689   5.540  20.265  1.00  0.00     0.309 C 
HETATM    6  O3  UNL     1      -5.147   5.181  19.044  1.00  0.00    -0.320 OA
HETATM    7  C6  UNL     1      -6.213   5.275  18.122  1.00  0.00     0.090 C 
HETATM    8  C7  UNL     1      -6.065   6.694  17.534  1.00  0.00     0.049 C 
HETATM    9  C8  UNL     1      -6.063   4.289  17.058  1.00  0.00     0.049 C 
HETATM   10  C9  UNL     1      -7.389   5.288  18.982  1.00  0.00     0.097 C 
HETATM   11  C10 UNL     1      -8.537   6.066  18.320  1.00  0.00     0.050 C 
HETATM   12  O4  UNL     1      -6.917   6.184  19.993  1.00  0.00    -0.320 OA
ENDROOT
BRANCH   5  13
HETATM   13  N1  UNL     1      -4.782   6.381  20.979  1.00  0.00    -0.087 N 
HETATM   14  O1  UNL     1      -4.786   6.575  22.209  1.00  0.00    -0.532 OA
HETATM   15  O2  UNL     1      -3.816   7.040  20.253  1.00  0.00    -0.532 OA
ENDBRANCH   5  13
TORSDOF 1
ENDMDL
MODEL 3
REMARK VINA RESULT: -5.822321274      3.711      5.250
REMARK  1 active torsions:
REMARK  status: ('A' for Active; 'I' for Inactive)
REMARK    1  A    between atoms: C5_5  and  N1_6 
ROOT
HETATM    1  C1  UNL     1      -6.273   2.285  17.621  1.00  0.00     0.013 C 
HETATM    2  C2  UNL     1      -6.766   2.934  16.376  1.00  0.00     0.019 C 
HETATM    3  C3  UNL     1      -8.176   2.358  16.144  1.00  0.00     0.015 C 
HETATM    4  C4  UNL     1      -9.094   3.214  16.991  1.00  0.00     0.101 C 
HETATM    5  C5  UNL     1      -8.787   4.658  16.659  1.00  0.00     0.309 C 
HETATM    6  O3  UNL     1      -8.136   5.217  17.743  1.00  0.00    -0.320 OA
HETATM    7  C6  UNL     1      -6.776   5.286  17.367  1.00  0.00     0.090 C 
HETATM    8  C7  UNL     1      -6.624   6.714  16.804  1.00  0.00     0.049 C 
HETATM    9  C8  UNL     1      -5.910   5.126  18.528  1.00  0.00     0.049 C 
HETATM   10  C9  UNL     1      -6.704   4.370  16.236  1.00  0.00     0.097 C 
HETATM   11  C10 UNL     1      -5.592   4.794  15.263  1.00  0.00     0.050 C 
HETATM   12  O4  UNL     1      -7.904   4.754  15.559  1.00  0.00    -0.320 OA
ENDROOT
BRANCH   5  13
HETATM   13  N1  UNL     1     -10.023   5.332  16.423  1.00  0.00    -0.087 N 
HETATM   14  O1  UNL     1     -11.141   4.960  16.824  1.00  0.00    -0.532 OA
HETATM   15  O2  UNL     1      -9.986   6.496  15.689  1.00  0.00    -0.532 OA
ENDBRANCH   5  13
TORSDOF 1
ENDMDL
MODEL 4
REMARK VINA RESULT: -5.747165121      3.628      4.997
REMARK  1 active torsions:
REMARK  status: ('A' for Active; 'I' for Inactive)
REMARK    1  A    between atoms: C5_5  and  N1_6 
ROOT
HETATM    1  C1  UNL     1      -9.231   2.527  17.656  1.00  0.00     0.013 C 
HETATM    2  C2  UNL     1      -8.004   3.353  17.811  1.00  0.00     0.019 C 
HETATM    3  C3  UNL     1      -6.956   2.710  16.882  1.00  0.00     0.015 C 
HETATM    4  C4  UNL     1      -7.224   3.307  15.516  1.00  0.00     0.101 C 
HETATM    5  C5  UNL     1      -7.280   4.809  15.692  1.00  0.00     0.309 C 
HETATM    6  O3  UNL     1      -8.594   5.209  15.539  1.00  0.00    -0.320 OA
HETATM    7  C6  UNL     1      -9.061   5.466  16.847  1.00  0.00     0.090 C 
HETATM    8  C7  UNL     1      -8.838   6.983  17.022  1.00  0.00     0.049 C 
HETATM    9  C8  UNL     1     -10.483   5.167  16.956  1.00  0.00     0.049 C 
HETATM   10  C9  UNL     1      -8.078   4.790  17.682  1.00  0.00     0.097 C 
HETATM   11  C10 UNL     1      -7.955   5.486  19.047  1.00  0.00     0.050 C 
HETATM   12  O4  UNL     1      -6.887   5.187  16.996  1.00  0.00    -0.320 OA
ENDROOT
BRANCH   5  13
HETATM   13  N1  UNL     1      -6.461   5.404  14.685  1.00  0.00    -0.087 N 
HETATM   14  O1  UNL     1      -6.266   4.947  13.543  1.00  0.00    -0.532 OA
HETATM   15  O2  UNL     1      -5.828   6.587  14.992  1.00  0.00    -0.532 OA
ENDBRANCH   5  13
TORSDOF 1
ENDMDL
MODEL 5
REMARK VINA RESULT: -5.741030705      1.279      3.069
REMARK  1 active torsions:
REMARK  status: ('A' for Active; 'I' for Inactive)
REMARK    1  A    between atoms: C5_5  and  N1_6 
ROOT
HETATM    1  C1  UNL     1      -7.303   1.394  20.606  1.00  0.00     0.013 C 
HETATM    2  C2  UNL     1      -7.736   2.808  20.454  1.00  0.00     0.019 C 
HETATM    3  C3  UNL     1      -7.455   3.472  21.816  1.00  0.00     0.015 C 
HETATM    4  C4  UNL     1      -5.997   3.879  21.761  1.00  0.00     0.101 C 
HETATM    5  C5  UNL     1      -5.800   4.649  20.474  1.00  0.00     0.309 C 
HETATM    6  O3  UNL     1      -5.063   3.859  19.611  1.00  0.00    -0.320 OA
HETATM    7  C6  UNL     1      -5.995   3.361  18.673  1.00  0.00     0.090 C 
HETATM    8  C7  UNL     1      -5.902   4.362  17.501  1.00  0.00     0.049 C 
HETATM    9  C8  UNL     1      -5.605   2.034  18.212  1.00  0.00     0.049 C 
HETATM   10  C9  UNL     1      -7.274   3.590  19.331  1.00  0.00     0.097 C 
HETATM   11  C10 UNL     1      -8.389   3.800  18.293  1.00  0.00     0.050 C 
HETATM   12  O4  UNL     1      -7.035   4.907  19.836  1.00  0.00    -0.320 OA
ENDROOT
BRANCH   5  13
HETATM   13  N1  UNL     1      -5.086   5.847  20.778  1.00  0.00    -0.087 N 
HETATM   14  O1  UNL     1      -4.027   5.917  21.428  1.00  0.00    -0.532 OA
HETATM   15  O2  UNL     1      -5.606   7.035  20.317  1.00  0.00    -0.532 OA
ENDBRANCH   5  13
TORSDOF 1
ENDMDL
