MODEL 1
REMARK VINA RESULT: -6.808852175      0.000      0.000
REMARK  2 active torsions:
REMARK  status: ('A' for Active; 'I' for Inactive)
REMARK    1  A    between atoms: C2_3  and  N2_4 
REMARK       I    between atoms: N2_4  and  C3_6 
REMARK    2  A    between atoms: C3_6  and  C4_8 
ROOT
HETATM    1  N1  UNL     1      42.600  25.495  58.568  1.00  0.00    -0.195 NA
HETATM    2  C1  UNL     1      42.289  25.563  57.458  1.00  0.00     0.091 C 
HETATM    3  C2  UNL     1      41.915  25.651  56.057  1.00  0.00     0.122 C 
HETATM    4  C7  UNL     1      42.897  24.925  55.197  1.00  0.00     0.047 C 
HETATM    5  C8  UNL     1      43.467  26.237  54.757  1.00  0.00     0.007 C 
HETATM    6  C9  UNL     1      42.353  26.950  55.464  1.00  0.00     0.047 C 
ENDROOT
BRANCH   3   7
HETATM    7  N2  UNL     1      40.524  25.297  55.852  1.00  0.00    -0.335 N 
HETATM    8  C3  UNL     1      39.467  26.217  55.955  1.00  0.00     0.274 C 
HETATM    9  O1  UNL     1      39.716  27.402  56.235  1.00  0.00    -0.268 OA
ATOM     10  H2  UNL     1      40.301  24.328  55.621  1.00  0.00     0.164 HD
BRANCH   8  11
HETATM   11  C4  UNL     1      38.078  25.797  55.737  1.00  0.00     0.353 C 
HETATM   12  O2  UNL     1      37.653  25.986  54.423  1.00  0.00    -0.351 OA
HETATM   13  C5  UNL     1      36.280  25.678  54.574  1.00  0.00     0.197 C 
HETATM   14  C6  UNL     1      35.959  26.484  55.816  1.00  0.00     0.197 C 
HETATM   15  O3  UNL     1      37.190  26.652  56.420  1.00  0.00    -0.351 OA
ENDBRANCH   8  11
ENDBRANCH   3   7
TORSDOF 2
ENDMDL
MODEL 2
REMARK VINA RESULT: -6.798961438      0.592      1.080
REMARK  2 active torsions:
REMARK  status: ('A' for Active; 'I' for Inactive)
REMARK    1  A    between atoms: C2_3  and  N2_4 
REMARK       I    between atoms: N2_4  and  C3_6 
REMARK    2  A    between atoms: C3_6  and  C4_8 
ROOT
HETATM    1  N1  UNL     1      42.511  25.458  58.610  1.00  0.00    -0.195 NA
HETATM    2  C1  UNL     1      42.246  25.535  57.488  1.00  0.00     0.091 C 
HETATM    3  C2  UNL     1      41.929  25.631  56.074  1.00  0.00     0.122 C 
HETATM    4  C7  UNL     1      42.795  24.717  55.271  1.00  0.00     0.047 C 
HETATM    5  C8  UNL     1      43.592  25.895  54.806  1.00  0.00     0.007 C 
HETATM    6  C9  UNL     1      42.598  26.813  55.453  1.00  0.00     0.047 C 
ENDROOT
BRANCH   3   7
HETATM    7  N2  UNL     1      40.504  25.510  55.836  1.00  0.00    -0.335 N 
HETATM    8  C3  UNL     1      39.609  26.590  55.925  1.00  0.00     0.274 C 
HETATM    9  O1  UNL     1      40.042  27.717  56.222  1.00  0.00    -0.268 OA
ATOM     10  H2  UNL     1      40.131  24.593  55.590  1.00  0.00     0.164 HD
BRANCH   8  11
HETATM   11  C4  UNL     1      38.176  26.404  55.673  1.00  0.00     0.353 C 
HETATM   12  O2  UNL     1      37.629  25.348  56.400  1.00  0.00    -0.351 OA
HETATM   13  C5  UNL     1      36.338  25.309  55.821  1.00  0.00     0.197 C 
HETATM   14  C6  UNL     1      36.700  25.383  54.352  1.00  0.00     0.197 C 
HETATM   15  O3  UNL     1      37.959  25.951  54.356  1.00  0.00    -0.351 OA
ENDBRANCH   8  11
ENDBRANCH   3   7
TORSDOF 2
ENDMDL
MODEL 3
REMARK VINA RESULT: -5.917605849      1.903      5.394
REMARK  2 active torsions:
REMARK  status: ('A' for Active; 'I' for Inactive)
REMARK    1  A    between atoms: C2_3  and  N2_4 
REMARK       I    between atoms: N2_4  and  C3_6 
REMARK    2  A    between atoms: C3_6  and  C4_8 
ROOT
HETATM    1  N1  UNL     1      36.450  27.702  56.857  1.00  0.00    -0.195 NA
HETATM    2  C1  UNL     1      36.824  26.736  56.346  1.00  0.00     0.091 C 
HETATM    3  C2  UNL     1      37.280  25.522  55.693  1.00  0.00     0.122 C 
HETATM    4  C7  UNL     1      36.940  25.538  54.239  1.00  0.00     0.047 C 
HETATM    5  C8  UNL     1      35.837  24.560  54.495  1.00  0.00     0.007 C 
HETATM    6  C9  UNL     1      36.315  24.402  55.908  1.00  0.00     0.047 C 
ENDROOT
BRANCH   3   7
HETATM    7  N2  UNL     1      38.666  25.234  56.007  1.00  0.00    -0.335 N 
HETATM    8  C3  UNL     1      39.715  26.143  55.787  1.00  0.00     0.274 C 
HETATM    9  O1  UNL     1      39.463  27.258  55.297  1.00  0.00    -0.268 OA
ATOM     10  H2  UNL     1      38.892  24.325  56.410  1.00  0.00     0.164 HD
BRANCH   8  11
HETATM   11  C4  UNL     1      41.099  25.794  56.125  1.00  0.00     0.353 C 
HETATM   12  O2  UNL     1      41.607  26.547  57.182  1.00  0.00    -0.351 OA
HETATM   13  C5  UNL     1      42.957  26.125  57.143  1.00  0.00     0.197 C 
HETATM   14  C6  UNL     1      43.232  26.242  55.658  1.00  0.00     0.197 C 
HETATM   15  O3  UNL     1      41.974  26.181  55.089  1.00  0.00    -0.351 OA
ENDBRANCH   8  11
ENDBRANCH   3   7
TORSDOF 2
ENDMDL
MODEL 4
REMARK VINA RESULT: -5.795686079      1.458      2.225
REMARK  2 active torsions:
REMARK  status: ('A' for Active; 'I' for Inactive)
REMARK    1  A    between atoms: C2_3  and  N2_4 
REMARK       I    between atoms: N2_4  and  C3_6 
REMARK    2  A    between atoms: C3_6  and  C4_8 
ROOT
HETATM    1  N1  UNL     1      43.432  23.280  54.124  1.00  0.00    -0.195 NA
HETATM    2  C1  UNL     1      43.057  24.273  54.580  1.00  0.00     0.091 C 
HETATM    3  C2  UNL     1      42.603  25.526  55.155  1.00  0.00     0.122 C 
HETATM    4  C7  UNL     1      43.444  26.666  54.682  1.00  0.00     0.047 C 
HETATM    5  C8  UNL     1      44.117  26.710  56.018  1.00  0.00     0.007 C 
HETATM    6  C9  UNL     1      43.133  25.706  56.539  1.00  0.00     0.047 C 
ENDROOT
BRANCH   3   7
HETATM    7  N2  UNL     1      41.172  25.700  54.995  1.00  0.00    -0.335 N 
HETATM    8  C3  UNL     1      40.381  26.461  55.872  1.00  0.00     0.274 C 
HETATM    9  O1  UNL     1      40.917  27.025  56.842  1.00  0.00    -0.268 OA
ATOM     10  H2  UNL     1      40.715  25.245  54.205  1.00  0.00     0.164 HD
BRANCH   8  11
HETATM   11  C4  UNL     1      38.936  26.599  55.659  1.00  0.00     0.353 C 
HETATM   12  O2  UNL     1      38.179  25.907  56.604  1.00  0.00    -0.351 OA
HETATM   13  C5  UNL     1      36.892  26.074  56.039  1.00  0.00     0.197 C 
HETATM   14  C6  UNL     1      37.184  25.723  54.595  1.00  0.00     0.197 C 
HETATM   15  O3  UNL     1      38.545  25.934  54.479  1.00  0.00    -0.351 OA
ENDBRANCH   8  11
ENDBRANCH   3   7
TORSDOF 2
ENDMDL
MODEL 5
REMARK VINA RESULT: -5.783709741      1.228      1.259
REMARK  2 active torsions:
REMARK  status: ('A' for Active; 'I' for Inactive)
REMARK    1  A    between atoms: C2_3  and  N2_4 
REMARK       I    between atoms: N2_4  and  C3_6 
REMARK    2  A    between atoms: C3_6  and  C4_8 
ROOT
HETATM    1  N1  UNL     1      42.496  25.444  58.590  1.00  0.00    -0.195 NA
HETATM    2  C1  UNL     1      42.259  25.642  57.477  1.00  0.00     0.091 C 
HETATM    3  C2  UNL     1      41.977  25.887  56.074  1.00  0.00     0.122 C 
HETATM    4  C7  UNL     1      42.781  24.979  55.202  1.00  0.00     0.047 C 
HETATM    5  C8  UNL     1      43.679  26.124  54.853  1.00  0.00     0.007 C 
HETATM    6  C9  UNL     1      42.751  27.061  55.569  1.00  0.00     0.047 C 
ENDROOT
BRANCH   3   7
HETATM    7  N2  UNL     1      40.551  25.906  55.810  1.00  0.00    -0.335 N 
HETATM    8  C3  UNL     1      39.802  24.753  55.521  1.00  0.00     0.274 C 
HETATM    9  O1  UNL     1      40.372  23.649  55.485  1.00  0.00    -0.268 OA
ATOM     10  H2  UNL     1      40.066  26.803  55.836  1.00  0.00     0.164 HD
BRANCH   8  11
HETATM   11  C4  UNL     1      38.360  24.836  55.262  1.00  0.00     0.353 C 
HETATM   12  O2  UNL     1      38.046  25.695  54.210  1.00  0.00    -0.351 OA
HETATM   13  C5  UNL     1      36.636  25.703  54.328  1.00  0.00     0.197 C 
HETATM   14  C6  UNL     1      36.492  25.914  55.821  1.00  0.00     0.197 C 
HETATM   15  O3  UNL     1      37.702  25.482  56.328  1.00  0.00    -0.351 OA
ENDBRANCH   8  11
ENDBRANCH   3   7
TORSDOF 2
ENDMDL
