MODEL 1
REMARK VINA RESULT: -5.160212760      0.000      0.000
REMARK  3 active torsions:
REMARK  status: ('A' for Active; 'I' for Inactive)
REMARK    1  A    between atoms: N3_6  and  C4_7 
REMARK    2  A    between atoms: C4_7  and  C5_8 
REMARK    3  A    between atoms: C5_8  and  O1_9 
ROOT
HETATM    1  N1  UNL     1      33.529  23.388  52.281  1.00  0.00    -0.172 NA
HETATM    2  C1  UNL     1      34.340  23.894  52.958  1.00  0.00     0.180 C 
HETATM    3  N2  UNL     1      35.310  24.479  53.775  1.00  0.00    -0.312 N 
HETATM    4  C2  UNL     1      36.538  23.774  54.057  1.00  0.00     0.165 C 
HETATM    5  C3  UNL     1      37.677  24.637  54.422  1.00  0.00     0.293 C 
HETATM    6  N3  UNL     1      37.360  25.844  55.122  1.00  0.00     0.098 N 
HETATM    7  C6  UNL     1      36.009  25.879  55.576  1.00  0.00     0.246 C 
HETATM    8  C7  UNL     1      35.532  27.201  56.092  1.00  0.00     0.038 C 
HETATM    9  C8  UNL     1      34.056  27.299  55.691  1.00  0.00     0.004 C 
HETATM   10  C9  UNL     1      33.777  25.939  55.062  1.00  0.00     0.028 C 
HETATM   11  C10 UNL     1      35.109  25.760  54.333  1.00  0.00     0.128 C 
ENDROOT
BRANCH   6  12
HETATM   12  C4  UNL     1      38.210  26.056  56.286  1.00  0.00     0.299 C 
BRANCH  12  13
HETATM   13  C5  UNL     1      39.424  26.891  55.979  1.00  0.00     0.194 C 
BRANCH  13  14
HETATM   14  O1  UNL     1      39.107  28.219  56.204  1.00  0.00    -0.399 OA
ATOM     15  H1  UNL     1      38.599  28.272  57.004  1.00  0.00     0.209 HD
ENDBRANCH  13  14
ENDBRANCH  12  13
ENDBRANCH   6  12
TORSDOF 3
ENDMDL
MODEL 2
REMARK VINA RESULT: -5.135105353      5.110      7.096
REMARK  3 active torsions:
REMARK  status: ('A' for Active; 'I' for Inactive)
REMARK    1  A    between atoms: N3_6  and  C4_7 
REMARK    2  A    between atoms: C4_7  and  C5_8 
REMARK    3  A    between atoms: C5_8  and  O1_9 
ROOT
HETATM    1  N1  UNL     1      39.120  27.773  56.184  1.00  0.00    -0.172 NA
HETATM    2  C1  UNL     1      39.787  26.886  55.810  1.00  0.00     0.180 C 
HETATM    3  N2  UNL     1      40.578  25.817  55.381  1.00  0.00    -0.312 N 
HETATM    4  C2  UNL     1      40.058  24.471  55.423  1.00  0.00     0.165 C 
HETATM    5  C3  UNL     1      40.690  23.533  54.476  1.00  0.00     0.293 C 
HETATM    6  N3  UNL     1      42.071  23.766  54.180  1.00  0.00     0.098 N 
HETATM    7  C6  UNL     1      42.670  24.717  55.056  1.00  0.00     0.246 C 
HETATM    8  C7  UNL     1      44.031  25.198  54.659  1.00  0.00     0.038 C 
HETATM    9  C8  UNL     1      44.098  26.667  55.089  1.00  0.00     0.004 C 
HETATM   10  C9  UNL     1      42.775  26.875  55.818  1.00  0.00     0.028 C 
HETATM   11  C10 UNL     1      41.888  26.034  54.900  1.00  0.00     0.128 C 
ENDROOT
BRANCH   6  12
HETATM   12  C4  UNL     1      42.871  22.550  54.253  1.00  0.00     0.299 C 
BRANCH  12  13
HETATM   13  C5  UNL     1      43.041  21.880  52.916  1.00  0.00     0.194 C 
BRANCH  13  14
HETATM   14  O1  UNL     1      43.657  22.773  52.058  1.00  0.00    -0.399 OA
ATOM     15  H1  UNL     1      44.021  22.284  51.330  1.00  0.00     0.209 HD
ENDBRANCH  13  14
ENDBRANCH  12  13
ENDBRANCH   6  12
TORSDOF 3
ENDMDL
MODEL 3
REMARK VINA RESULT: -5.098890519      3.828      6.439
REMARK  3 active torsions:
REMARK  status: ('A' for Active; 'I' for Inactive)
REMARK    1  A    between atoms: N3_6  and  C4_7 
REMARK    2  A    between atoms: C4_7  and  C5_8 
REMARK    3  A    between atoms: C5_8  and  O1_9 
ROOT
HETATM    1  N1  UNL     1      43.460  21.864  53.708  1.00  0.00    -0.172 NA
HETATM    2  C1  UNL     1      42.760  22.702  54.132  1.00  0.00     0.180 C 
HETATM    3  N2  UNL     1      41.915  23.702  54.619  1.00  0.00    -0.312 N 
HETATM    4  C2  UNL     1      40.491  23.618  54.395  1.00  0.00     0.165 C 
HETATM    5  C3  UNL     1      39.667  24.354  55.372  1.00  0.00     0.293 C 
HETATM    6  N3  UNL     1      40.243  25.544  55.920  1.00  0.00     0.098 N 
HETATM    7  C6  UNL     1      41.419  25.955  55.229  1.00  0.00     0.246 C 
HETATM    8  C7  UNL     1      42.215  27.038  55.890  1.00  0.00     0.038 C 
HETATM    9  C8  UNL     1      43.684  26.727  55.579  1.00  0.00     0.004 C 
HETATM   10  C9  UNL     1      43.593  25.525  54.646  1.00  0.00     0.028 C 
HETATM   11  C10 UNL     1      42.435  24.803  55.335  1.00  0.00     0.128 C 
ENDROOT
BRANCH   6  12
HETATM   12  C4  UNL     1      39.319  26.671  55.905  1.00  0.00     0.299 C 
BRANCH  12  13
HETATM   13  C5  UNL     1      37.876  26.244  55.901  1.00  0.00     0.194 C 
BRANCH  13  14
HETATM   14  O1  UNL     1      37.147  27.168  56.628  1.00  0.00    -0.399 OA
ATOM     15  H1  UNL     1      36.229  27.060  56.412  1.00  0.00     0.209 HD
ENDBRANCH  13  14
ENDBRANCH  12  13
ENDBRANCH   6  12
TORSDOF 3
ENDMDL
MODEL 4
REMARK VINA RESULT: -5.081074295      4.642      6.808
REMARK  3 active torsions:
REMARK  status: ('A' for Active; 'I' for Inactive)
REMARK    1  A    between atoms: N3_6  and  C4_7 
REMARK    2  A    between atoms: C4_7  and  C5_8 
REMARK    3  A    between atoms: C5_8  and  O1_9 
ROOT
HETATM    1  N1  UNL     1      42.842  21.239  53.382  1.00  0.00    -0.172 NA
HETATM    2  C1  UNL     1      42.482  22.238  53.877  1.00  0.00     0.180 C 
HETATM    3  N2  UNL     1      42.041  23.432  54.452  1.00  0.00    -0.312 N 
HETATM    4  C2  UNL     1      40.629  23.735  54.496  1.00  0.00     0.165 C 
HETATM    5  C3  UNL     1      40.231  24.672  55.563  1.00  0.00     0.293 C 
HETATM    6  N3  UNL     1      41.194  25.665  55.928  1.00  0.00     0.098 N 
HETATM    7  C6  UNL     1      42.283  25.739  55.012  1.00  0.00     0.246 C 
HETATM    8  C7  UNL     1      43.448  26.570  55.454  1.00  0.00     0.038 C 
HETATM    9  C8  UNL     1      44.695  25.873  54.899  1.00  0.00     0.004 C 
HETATM   10  C9  UNL     1      44.114  24.734  54.069  1.00  0.00     0.028 C 
HETATM   11  C10 UNL     1      42.959  24.356  54.997  1.00  0.00     0.128 C 
ENDROOT
BRANCH   6  12
HETATM   12  C4  UNL     1      40.616  27.000  56.017  1.00  0.00     0.299 C 
BRANCH  12  13
HETATM   13  C5  UNL     1      39.111  26.988  55.992  1.00  0.00     0.194 C 
BRANCH  13  14
HETATM   14  O1  UNL     1      38.661  28.247  56.344  1.00  0.00    -0.399 OA
ATOM     15  H1  UNL     1      38.653  28.307  57.292  1.00  0.00     0.209 HD
ENDBRANCH  13  14
ENDBRANCH  12  13
ENDBRANCH   6  12
TORSDOF 3
ENDMDL
MODEL 5
REMARK VINA RESULT: -5.035216702      3.082      5.111
REMARK  3 active torsions:
REMARK  status: ('A' for Active; 'I' for Inactive)
REMARK    1  A    between atoms: N3_6  and  C4_7 
REMARK    2  A    between atoms: C4_7  and  C5_8 
REMARK    3  A    between atoms: C5_8  and  O1_9 
ROOT
HETATM    1  N1  UNL     1      36.198  26.269  56.007  1.00  0.00    -0.172 NA
HETATM    2  C1  UNL     1      37.347  26.059  55.924  1.00  0.00     0.180 C 
HETATM    3  N2  UNL     1      38.720  25.826  55.815  1.00  0.00    -0.312 N 
HETATM    4  C2  UNL     1      39.658  26.886  56.100  1.00  0.00     0.165 C 
HETATM    5  C3  UNL     1      41.003  26.432  56.501  1.00  0.00     0.293 C 
HETATM    6  N3  UNL     1      41.455  25.203  55.924  1.00  0.00     0.098 N 
HETATM    7  C6  UNL     1      40.625  24.758  54.854  1.00  0.00     0.246 C 
HETATM    8  C7  UNL     1      40.884  23.366  54.367  1.00  0.00     0.038 C 
HETATM    9  C8  UNL     1      39.516  22.801  53.966  1.00  0.00     0.004 C 
HETATM   10  C9  UNL     1      38.582  23.991  54.156  1.00  0.00     0.028 C 
HETATM   11  C10 UNL     1      39.211  24.560  55.429  1.00  0.00     0.128 C 
ENDROOT
BRANCH   6  12
HETATM   12  C4  UNL     1      42.813  25.295  55.404  1.00  0.00     0.299 C 
BRANCH  12  13
HETATM   13  C5  UNL     1      43.609  26.404  56.040  1.00  0.00     0.194 C 
BRANCH  13  14
HETATM   14  O1  UNL     1      44.015  27.274  55.045  1.00  0.00    -0.399 OA
ATOM     15  H1  UNL     1      44.881  27.011  54.755  1.00  0.00     0.209 HD
ENDBRANCH  13  14
ENDBRANCH  12  13
ENDBRANCH   6  12
TORSDOF 3
ENDMDL
