MODEL 1
REMARK VINA RESULT: -8.274490951      0.000      0.000
REMARK  10 active torsions:
REMARK  status: ('A' for Active; 'I' for Inactive)
REMARK    1  A    between atoms: C2_2  and  C3_3 
REMARK    2  A    between atoms: C3_3  and  C5_5 
REMARK    3  A    between atoms: C5_5  and  O1_6 
REMARK    4  A    between atoms: C5_5  and  N1_8 
REMARK    5  A    between atoms: C7_10  and  C8_11 
REMARK    6  A    between atoms: C11_15  and  C12_16 
REMARK       I    between atoms: C12_16  and  N2_18 
REMARK    7  A    between atoms: N2_18  and  N3_20 
REMARK    8  A    between atoms: C13_22  and  C14_23 
REMARK    9  A    between atoms: C17_27  and  N4_28 
REMARK       I    between atoms: N4_28  and  C18_29 
REMARK   10  A    between atoms: C20_33  and  O3_34 
ROOT
HETATM    1  C12 UNL     1     -11.180  83.525  17.756  1.00  0.00     0.261 C 
HETATM    2  O2  UNL     1      -9.971  83.630  17.923  1.00  0.00    -0.269 OA
HETATM    3  N2  UNL     1     -11.757  82.445  17.123  1.00  0.00    -0.269 N 
ATOM      4  H2  UNL     1     -12.767  82.546  17.019  1.00  0.00     0.190 HD
ENDROOT
BRANCH   3   5
HETATM    5  N3  UNL     1     -11.281  81.239  16.587  1.00  0.00    -0.308 N 
HETATM    6  C13 UNL     1     -10.978  81.285  15.338  1.00  0.00     0.121 C 
ATOM      7  H3  UNL     1     -11.184  80.391  17.145  1.00  0.00     0.186 HD
BRANCH   6   8
HETATM    8  C14 UNL     1     -10.487  80.405  14.373  1.00  0.00     0.016 A 
HETATM    9  C15 UNL     1     -10.266  80.908  13.057  1.00  0.00     0.043 A 
HETATM   10  C16 UNL     1      -9.803  80.134  12.052  1.00  0.00     0.075 A 
HETATM   11 CL2  UNL     1      -9.562  80.830  10.465  1.00  0.00    -0.081 Cl
HETATM   12  C17 UNL     1      -9.511  78.768  12.267  1.00  0.00     0.134 A 
HETATM   13  C19 UNL     1      -9.738  78.318  13.561  1.00  0.00     0.084 A 
HETATM   14  C20 UNL     1     -10.213  79.085  14.608  1.00  0.00     0.080 A 
BRANCH  12  15
HETATM   15  N4  UNL     1      -9.063  78.044  11.232  1.00  0.00    -0.375 NA
HETATM   16  C18 UNL     1      -8.690  77.420  10.328  1.00  0.00     0.275 C 
HETATM   17  N5  UNL     1      -9.507  77.204   9.140  1.00  0.00    -0.052 NA
HETATM   18  N6  UNL     1      -7.384  76.745  10.265  1.00  0.00    -0.052 NA
ENDBRANCH  12  15
BRANCH  14  19
HETATM   19  O3  UNL     1     -10.374  78.460  15.804  1.00  0.00    -0.360 OA
ATOM     20  H3  UNL     1     -11.212  78.237  16.191  1.00  0.00     0.217 HD
ENDBRANCH  14  19
ENDBRANCH   6   8
ENDBRANCH   3   5
BRANCH   1  21
HETATM   21  C11 UNL     1     -12.135  84.544  18.242  1.00  0.00     0.210 C 
HETATM   22  N1  UNL     1     -13.067  85.329  17.598  1.00  0.00    -0.314 N 
HETATM   23  C6  UNL     1     -12.571  86.410  18.514  1.00  0.00     0.032 C 
HETATM   24  C7  UNL     1     -13.086  87.236  19.348  1.00  0.00    -0.000 C 
HETATM   25  C10 UNL     1     -11.250  85.935  18.047  1.00  0.00     0.164 C 
HETATM   26 CL1  UNL     1     -11.019  86.226  16.335  1.00  0.00    -0.116 Cl
BRANCH  22  27
HETATM   27  C5  UNL     1     -14.062  85.560  16.612  1.00  0.00     0.149 C 
BRANCH  27  28
HETATM   28  C3  UNL     1     -14.686  84.625  15.713  1.00  0.00    -0.015 C 
HETATM   29  C4  UNL     1     -16.133  84.486  15.601  1.00  0.00     0.052 C 
BRANCH  28  30
HETATM   30  C2  UNL     1     -13.929  83.895  14.885  1.00  0.00    -0.020 C 
HETATM   31  C1  UNL     1     -14.268  82.520  14.463  1.00  0.00     0.036 C 
ENDBRANCH  28  30
ENDBRANCH  27  28
BRANCH  27  32
HETATM   32  O1  UNL     1     -14.526  86.785  16.463  1.00  0.00    -0.346 OA
ATOM     33  H1  UNL     1     -14.292  87.162  15.623  1.00  0.00     0.219 HD
ENDBRANCH  27  32
ENDBRANCH  22  27
BRANCH  24  34
HETATM   34  C8  UNL     1     -14.417  87.491  19.803  1.00  0.00     0.025 C 
HETATM   35  C9  UNL     1     -15.130  88.712  19.362  1.00  0.00     0.009 C 
ENDBRANCH  24  34
ENDBRANCH   1  21
TORSDOF 10
ENDMDL
MODEL 2
REMARK VINA RESULT: -8.078729055      1.446      1.940
REMARK  10 active torsions:
REMARK  status: ('A' for Active; 'I' for Inactive)
REMARK    1  A    between atoms: C2_2  and  C3_3 
REMARK    2  A    between atoms: C3_3  and  C5_5 
REMARK    3  A    between atoms: C5_5  and  O1_6 
REMARK    4  A    between atoms: C5_5  and  N1_8 
REMARK    5  A    between atoms: C7_10  and  C8_11 
REMARK    6  A    between atoms: C11_15  and  C12_16 
REMARK       I    between atoms: C12_16  and  N2_18 
REMARK    7  A    between atoms: N2_18  and  N3_20 
REMARK    8  A    between atoms: C13_22  and  C14_23 
REMARK    9  A    between atoms: C17_27  and  N4_28 
REMARK       I    between atoms: N4_28  and  C18_29 
REMARK   10  A    between atoms: C20_33  and  O3_34 
ROOT
HETATM    1  C12 UNL     1     -12.501  84.849  18.801  1.00  0.00     0.261 C 
HETATM    2  O2  UNL     1     -11.705  84.867  19.732  1.00  0.00    -0.269 OA
HETATM    3  N2  UNL     1     -12.452  83.910  17.792  1.00  0.00    -0.269 N 
ATOM      4  H2  UNL     1     -13.152  84.077  17.069  1.00  0.00     0.190 HD
ENDROOT
BRANCH   3   5
HETATM    5  N3  UNL     1     -11.667  82.779  17.527  1.00  0.00    -0.308 N 
HETATM    6  C13 UNL     1     -11.801  82.293  16.345  1.00  0.00     0.121 C 
ATOM      7  H3  UNL     1     -11.037  82.373  18.220  1.00  0.00     0.186 HD
BRANCH   6   8
HETATM    8  C14 UNL     1     -11.276  81.228  15.612  1.00  0.00     0.016 A 
HETATM    9  C15 UNL     1     -11.383  81.273  14.191  1.00  0.00     0.043 A 
HETATM   10  C16 UNL     1     -10.916  80.287  13.396  1.00  0.00     0.075 A 
HETATM   11 CL2  UNL     1     -11.091  80.420  11.660  1.00  0.00    -0.081 Cl
HETATM   12  C17 UNL     1     -10.287  79.149  13.948  1.00  0.00     0.134 A 
HETATM   13  C19 UNL     1     -10.200  79.144  15.335  1.00  0.00     0.084 A 
HETATM   14  C20 UNL     1     -10.672  80.136  16.174  1.00  0.00     0.080 A 
BRANCH  12  15
HETATM   15  N4  UNL     1      -9.849  78.196  13.113  1.00  0.00    -0.375 NA
HETATM   16  C18 UNL     1      -9.481  77.360  12.400  1.00  0.00     0.275 C 
HETATM   17  N5  UNL     1      -9.925  75.977  12.523  1.00  0.00    -0.052 NA
HETATM   18  N6  UNL     1      -8.509  77.562  11.313  1.00  0.00    -0.052 NA
ENDBRANCH  12  15
BRANCH  14  19
HETATM   19  O3  UNL     1     -10.497  79.946  17.508  1.00  0.00    -0.360 OA
ATOM     20  H3  UNL     1     -11.031  80.340  18.187  1.00  0.00     0.217 HD
ENDBRANCH  14  19
ENDBRANCH   6   8
ENDBRANCH   3   5
BRANCH   1  21
HETATM   21  C11 UNL     1     -13.604  85.827  18.686  1.00  0.00     0.210 C 
HETATM   22  N1  UNL     1     -14.279  86.347  17.603  1.00  0.00    -0.314 N 
HETATM   23  C6  UNL     1     -14.178  87.645  18.351  1.00  0.00     0.032 C 
HETATM   24  C7  UNL     1     -14.983  88.560  18.746  1.00  0.00    -0.000 C 
HETATM   25  C10 UNL     1     -12.760  87.243  18.476  1.00  0.00     0.164 C 
HETATM   26 CL1  UNL     1     -11.954  87.198  16.922  1.00  0.00    -0.116 Cl
BRANCH  22  27
HETATM   27  C5  UNL     1     -14.873  86.251  16.317  1.00  0.00     0.149 C 
BRANCH  27  28
HETATM   28  C3  UNL     1     -15.296  85.079  15.596  1.00  0.00    -0.015 C 
HETATM   29  C4  UNL     1     -16.686  84.643  15.552  1.00  0.00     0.052 C 
BRANCH  28  30
HETATM   30  C2  UNL     1     -14.408  84.389  14.872  1.00  0.00    -0.020 C 
HETATM   31  C1  UNL     1     -14.605  82.986  14.454  1.00  0.00     0.036 C 
ENDBRANCH  28  30
ENDBRANCH  27  28
BRANCH  27  32
HETATM   32  O1  UNL     1     -15.102  87.363  15.646  1.00  0.00    -0.346 OA
ATOM     33  H1  UNL     1     -15.034  88.137  16.193  1.00  0.00     0.219 HD
ENDBRANCH  27  32
ENDBRANCH  22  27
BRANCH  24  34
HETATM   34  C8  UNL     1     -16.399  88.746  18.658  1.00  0.00     0.025 C 
HETATM   35  C9  UNL     1     -17.267  87.627  18.224  1.00  0.00     0.009 C 
ENDBRANCH  24  34
ENDBRANCH   1  21
TORSDOF 10
ENDMDL
MODEL 3
REMARK VINA RESULT: -8.050794037      1.103      1.507
REMARK  10 active torsions:
REMARK  status: ('A' for Active; 'I' for Inactive)
REMARK    1  A    between atoms: C2_2  and  C3_3 
REMARK    2  A    between atoms: C3_3  and  C5_5 
REMARK    3  A    between atoms: C5_5  and  O1_6 
REMARK    4  A    between atoms: C5_5  and  N1_8 
REMARK    5  A    between atoms: C7_10  and  C8_11 
REMARK    6  A    between atoms: C11_15  and  C12_16 
REMARK       I    between atoms: C12_16  and  N2_18 
REMARK    7  A    between atoms: N2_18  and  N3_20 
REMARK    8  A    between atoms: C13_22  and  C14_23 
REMARK    9  A    between atoms: C17_27  and  N4_28 
REMARK       I    between atoms: N4_28  and  C18_29 
REMARK   10  A    between atoms: C20_33  and  O3_34 
ROOT
HETATM    1  C12 UNL     1     -11.270  82.508  18.904  1.00  0.00     0.261 C 
HETATM    2  O2  UNL     1     -10.593  82.003  19.792  1.00  0.00    -0.269 OA
HETATM    3  N2  UNL     1     -11.362  81.973  17.637  1.00  0.00    -0.269 N 
ATOM      4  H2  UNL     1     -11.921  82.551  17.009  1.00  0.00     0.190 HD
ENDROOT
BRANCH   3   5
HETATM    5  N3  UNL     1     -10.868  80.820  17.009  1.00  0.00    -0.308 N 
HETATM    6  C13 UNL     1     -10.743  80.913  15.732  1.00  0.00     0.121 C 
ATOM      7  H3  UNL     1     -10.627  79.974  17.525  1.00  0.00     0.186 HD
BRANCH   6   8
HETATM    8  C14 UNL     1     -10.319  80.094  14.685  1.00  0.00     0.016 A 
HETATM    9  C15 UNL     1     -10.135  80.686  13.402  1.00  0.00     0.043 A 
HETATM   10  C16 UNL     1      -9.738  79.976  12.324  1.00  0.00     0.075 A 
HETATM   11 CL2  UNL     1      -9.539  80.781  10.783  1.00  0.00    -0.081 Cl
HETATM   12  C17 UNL     1      -9.480  78.591  12.426  1.00  0.00     0.134 A 
HETATM   13  C19 UNL     1      -9.669  78.052  13.692  1.00  0.00     0.084 A 
HETATM   14  C20 UNL     1     -10.078  78.753  14.811  1.00  0.00     0.080 A 
BRANCH  12  15
HETATM   15  N4  UNL     1      -9.096  77.933  11.323  1.00  0.00    -0.375 NA
HETATM   16  C18 UNL     1      -8.748  77.361  10.376  1.00  0.00     0.275 C 
HETATM   17  N5  UNL     1      -7.427  76.752  10.274  1.00  0.00    -0.052 NA
HETATM   18  N6  UNL     1      -9.556  77.202   9.156  1.00  0.00    -0.052 NA
ENDBRANCH  12  15
BRANCH  14  19
HETATM   19  O3  UNL     1     -10.210  78.045  15.964  1.00  0.00    -0.360 OA
ATOM     20  H3  UNL     1      -9.681  77.293  16.203  1.00  0.00     0.217 HD
ENDBRANCH  14  19
ENDBRANCH   6   8
ENDBRANCH   3   5
BRANCH   1  21
HETATM   21  C11 UNL     1     -12.070  83.732  19.122  1.00  0.00     0.210 C 
HETATM   22  N1  UNL     1     -12.427  84.772  18.290  1.00  0.00    -0.314 N 
HETATM   23  C6  UNL     1     -12.125  85.633  19.483  1.00  0.00     0.032 C 
HETATM   24  C7  UNL     1     -12.732  86.536  20.160  1.00  0.00    -0.000 C 
HETATM   25  C10 UNL     1     -10.884  84.828  19.510  1.00  0.00     0.164 C 
HETATM   26 CL1  UNL     1      -9.889  85.113  18.098  1.00  0.00    -0.116 Cl
BRANCH  22  27
HETATM   27  C5  UNL     1     -12.825  85.312  17.039  1.00  0.00     0.149 C 
BRANCH  27  28
HETATM   28  C3  UNL     1     -13.806  84.820  16.108  1.00  0.00    -0.015 C 
HETATM   29  C4  UNL     1     -13.498  83.816  15.098  1.00  0.00     0.052 C 
BRANCH  28  30
HETATM   30  C2  UNL     1     -15.076  85.233  16.202  1.00  0.00    -0.020 C 
HETATM   31  C1  UNL     1     -16.096  84.988  15.162  1.00  0.00     0.036 C 
ENDBRANCH  28  30
ENDBRANCH  27  28
BRANCH  27  32
HETATM   32  O1  UNL     1     -12.257  86.428  16.627  1.00  0.00    -0.346 OA
ATOM     33  H1  UNL     1     -11.605  86.750  17.239  1.00  0.00     0.219 HD
ENDBRANCH  27  32
ENDBRANCH  22  27
BRANCH  24  34
HETATM   34  C8  UNL     1     -14.029  87.133  20.083  1.00  0.00     0.025 C 
HETATM   35  C9  UNL     1     -14.375  88.008  18.939  1.00  0.00     0.009 C 
ENDBRANCH  24  34
ENDBRANCH   1  21
TORSDOF 10
ENDMDL
MODEL 4
REMARK VINA RESULT: -8.018421782      2.003      2.884
REMARK  10 active torsions:
REMARK  status: ('A' for Active; 'I' for Inactive)
REMARK    1  A    between atoms: C2_2  and  C3_3 
REMARK    2  A    between atoms: C3_3  and  C5_5 
REMARK    3  A    between atoms: C5_5  and  O1_6 
REMARK    4  A    between atoms: C5_5  and  N1_8 
REMARK    5  A    between atoms: C7_10  and  C8_11 
REMARK    6  A    between atoms: C11_15  and  C12_16 
REMARK       I    between atoms: C12_16  and  N2_18 
REMARK    7  A    between atoms: N2_18  and  N3_20 
REMARK    8  A    between atoms: C13_22  and  C14_23 
REMARK    9  A    between atoms: C17_27  and  N4_28 
REMARK       I    between atoms: N4_28  and  C18_29 
REMARK   10  A    between atoms: C20_33  and  O3_34 
ROOT
HETATM    1  C12 UNL     1     -12.704  84.145  15.920  1.00  0.00     0.261 C 
HETATM    2  O2  UNL     1     -12.673  84.249  14.700  1.00  0.00    -0.269 OA
HETATM    3  N2  UNL     1     -12.256  83.027  16.588  1.00  0.00    -0.269 N 
ATOM      4  H2  UNL     1     -12.408  83.086  17.596  1.00  0.00     0.190 HD
ENDROOT
BRANCH   3   5
HETATM    5  N3  UNL     1     -11.639  81.826  16.209  1.00  0.00    -0.308 N 
HETATM    6  C13 UNL     1     -11.355  81.736  14.958  1.00  0.00     0.121 C 
ATOM      7  H3  UNL     1     -11.431  81.081  16.874  1.00  0.00     0.186 HD
BRANCH   6   8
HETATM    8  C14 UNL     1     -10.767  80.798  14.109  1.00  0.00     0.016 A 
HETATM    9  C15 UNL     1     -10.479  81.193  12.769  1.00  0.00     0.043 A 
HETATM   10  C16 UNL     1      -9.921  80.355  11.869  1.00  0.00     0.075 A 
HETATM   11 CL2  UNL     1      -9.604  80.920  10.243  1.00  0.00    -0.081 Cl
HETATM   12  C17 UNL     1      -9.591  79.028  12.224  1.00  0.00     0.134 A 
HETATM   13  C19 UNL     1      -9.885  78.683  13.537  1.00  0.00     0.084 A 
HETATM   14  C20 UNL     1     -10.458  79.517  14.478  1.00  0.00     0.080 A 
BRANCH  12  15
HETATM   15  N4  UNL     1      -9.047  78.237  11.288  1.00  0.00    -0.375 NA
HETATM   16  C18 UNL     1      -8.592  77.553  10.469  1.00  0.00     0.275 C 
HETATM   17  N5  UNL     1      -9.341  77.148   9.286  1.00  0.00    -0.052 NA
HETATM   18  N6  UNL     1      -7.237  76.982  10.522  1.00  0.00    -0.052 NA
ENDBRANCH  12  15
BRANCH  14  19
HETATM   19  O3  UNL     1     -10.673  78.992  15.713  1.00  0.00    -0.360 OA
ATOM     20  H3  UNL     1     -11.526  78.778  16.071  1.00  0.00     0.217 HD
ENDBRANCH  14  19
ENDBRANCH   6   8
ENDBRANCH   3   5
BRANCH   1  21
HETATM   21  C11 UNL     1     -13.210  85.229  16.791  1.00  0.00     0.210 C 
HETATM   22  N1  UNL     1     -14.047  85.230  17.886  1.00  0.00    -0.314 N 
HETATM   23  C6  UNL     1     -14.633  86.458  17.250  1.00  0.00     0.032 C 
HETATM   24  C7  UNL     1     -14.877  87.665  17.602  1.00  0.00    -0.000 C 
HETATM   25  C10 UNL     1     -14.650  85.595  16.048  1.00  0.00     0.164 C 
HETATM   26 CL1  UNL     1     -15.744  84.240  16.232  1.00  0.00    -0.116 Cl
BRANCH  22  27
HETATM   27  C5  UNL     1     -14.554  84.678  19.091  1.00  0.00     0.149 C 
BRANCH  27  28
HETATM   28  C3  UNL     1     -13.838  84.106  20.201  1.00  0.00    -0.015 C 
HETATM   29  C4  UNL     1     -12.413  84.325  20.414  1.00  0.00     0.052 C 
BRANCH  28  30
HETATM   30  C2  UNL     1     -14.500  83.402  21.126  1.00  0.00    -0.020 C 
HETATM   31  C1  UNL     1     -14.213  81.987  21.441  1.00  0.00     0.036 C 
ENDBRANCH  28  30
ENDBRANCH  27  28
BRANCH  27  32
HETATM   32  O1  UNL     1     -15.859  84.672  19.279  1.00  0.00    -0.346 OA
ATOM     33  H1  UNL     1     -16.341  84.537  18.472  1.00  0.00     0.219 HD
ENDBRANCH  27  32
ENDBRANCH  22  27
BRANCH  24  34
HETATM   34  C8  UNL     1     -14.674  88.411  18.806  1.00  0.00     0.025 C 
HETATM   35  C9  UNL     1     -15.616  89.493  19.175  1.00  0.00     0.009 C 
ENDBRANCH  24  34
ENDBRANCH   1  21
TORSDOF 10
ENDMDL
MODEL 5
REMARK VINA RESULT: -7.709502604      1.947      2.384
REMARK  10 active torsions:
REMARK  status: ('A' for Active; 'I' for Inactive)
REMARK    1  A    between atoms: C2_2  and  C3_3 
REMARK    2  A    between atoms: C3_3  and  C5_5 
REMARK    3  A    between atoms: C5_5  and  O1_6 
REMARK    4  A    between atoms: C5_5  and  N1_8 
REMARK    5  A    between atoms: C7_10  and  C8_11 
REMARK    6  A    between atoms: C11_15  and  C12_16 
REMARK       I    between atoms: C12_16  and  N2_18 
REMARK    7  A    between atoms: N2_18  and  N3_20 
REMARK    8  A    between atoms: C13_22  and  C14_23 
REMARK    9  A    between atoms: C17_27  and  N4_28 
REMARK       I    between atoms: N4_28  and  C18_29 
REMARK   10  A    between atoms: C20_33  and  O3_34 
ROOT
HETATM    1  C12 UNL     1     -11.389  82.169  19.092  1.00  0.00     0.261 C 
HETATM    2  O2  UNL     1     -11.216  81.386  20.018  1.00  0.00    -0.269 OA
HETATM    3  N2  UNL     1     -11.041  81.878  17.790  1.00  0.00    -0.269 N 
ATOM      4  H2  UNL     1     -11.202  82.663  17.158  1.00  0.00     0.190 HD
ENDROOT
BRANCH   3   5
HETATM    5  N3  UNL     1     -10.517  80.757  17.130  1.00  0.00    -0.308 N 
HETATM    6  C13 UNL     1     -10.527  80.832  15.847  1.00  0.00     0.121 C 
ATOM      7  H3  UNL     1     -10.155  79.945  17.631  1.00  0.00     0.186 HD
BRANCH   6   8
HETATM    8  C14 UNL     1     -10.141  80.028  14.774  1.00  0.00     0.016 A 
HETATM    9  C15 UNL     1      -9.896  80.657  13.518  1.00  0.00     0.043 A 
HETATM   10  C16 UNL     1      -9.529  79.964  12.418  1.00  0.00     0.075 A 
HETATM   11 CL2  UNL     1      -9.251  80.814  10.914  1.00  0.00    -0.081 Cl
HETATM   12  C17 UNL     1      -9.367  78.562  12.467  1.00  0.00     0.134 A 
HETATM   13  C19 UNL     1      -9.613  77.987  13.708  1.00  0.00     0.084 A 
HETATM   14  C20 UNL     1      -9.992  78.670  14.849  1.00  0.00     0.080 A 
BRANCH  12  15
HETATM   15  N4  UNL     1      -9.010  77.924  11.344  1.00  0.00    -0.375 NA
HETATM   16  C18 UNL     1      -8.684  77.369  10.379  1.00  0.00     0.275 C 
HETATM   17  N5  UNL     1      -7.365  76.764  10.235  1.00  0.00    -0.052 NA
HETATM   18  N6  UNL     1      -9.521  77.228   9.178  1.00  0.00    -0.052 NA
ENDBRANCH  12  15
BRANCH  14  19
HETATM   19  O3  UNL     1     -10.191  77.928  15.970  1.00  0.00    -0.360 OA
ATOM     20  H3  UNL     1      -9.616  77.922  16.726  1.00  0.00     0.217 HD
ENDBRANCH  14  19
ENDBRANCH   6   8
ENDBRANCH   3   5
BRANCH   1  21
HETATM   21  C11 UNL     1     -12.013  83.496  19.287  1.00  0.00     0.210 C 
HETATM   22  N1  UNL     1     -11.686  84.755  18.829  1.00  0.00    -0.314 N 
HETATM   23  C6  UNL     1     -12.044  85.191  20.221  1.00  0.00     0.032 C 
HETATM   24  C7  UNL     1     -12.821  86.057  20.757  1.00  0.00    -0.000 C 
HETATM   25  C10 UNL     1     -11.161  84.063  20.595  1.00  0.00     0.164 C 
HETATM   26 CL1  UNL     1      -9.501  84.345  20.115  1.00  0.00    -0.116 Cl
BRANCH  22  27
HETATM   27  C5  UNL     1     -11.206  85.658  17.845  1.00  0.00     0.149 C 
BRANCH  27  28
HETATM   28  C3  UNL     1     -11.107  85.482  16.420  1.00  0.00    -0.015 C 
HETATM   29  C4  UNL     1     -10.066  86.114  15.620  1.00  0.00     0.052 C 
BRANCH  28  30
HETATM   30  C2  UNL     1     -11.948  84.650  15.795  1.00  0.00    -0.020 C 
HETATM   31  C1  UNL     1     -11.674  84.048  14.474  1.00  0.00     0.036 C 
ENDBRANCH  28  30
ENDBRANCH  27  28
BRANCH  27  32
HETATM   32  O1  UNL     1     -10.790  86.847  18.234  1.00  0.00    -0.346 OA
ATOM     33  H1  UNL     1     -10.642  86.891  19.171  1.00  0.00     0.219 HD
ENDBRANCH  27  32
ENDBRANCH  22  27
BRANCH  24  34
HETATM   34  C8  UNL     1     -13.743  87.021  20.242  1.00  0.00     0.025 C 
HETATM   35  C9  UNL     1     -14.421  86.778  18.947  1.00  0.00     0.009 C 
ENDBRANCH  24  34
ENDBRANCH   1  21
TORSDOF 10
ENDMDL
