MODEL 1
REMARK VINA RESULT: -5.387286928      0.000      0.000
REMARK  1 active torsions:
REMARK  status: ('A' for Active; 'I' for Inactive)
REMARK    1  A    between atoms: O1_1  and  C1_3 
ROOT
HETATM    1  C1  UNL     1      -0.303   4.859  82.226  1.00  0.00     0.205 C 
HETATM    2  C2  UNL     1      -1.097   3.921  81.407  1.00  0.00     0.291 C 
HETATM    3  O2  UNL     1      -0.847   2.596  81.581  1.00  0.00    -0.358 OA
HETATM    4  C3  UNL     1       0.454   2.206  81.545  1.00  0.00     0.173 C 
HETATM    5  C4  UNL     1       1.143   2.432  80.217  1.00  0.00     0.061 C 
HETATM    6  C5  UNL     1       2.026   3.609  80.175  1.00  0.00     0.155 A 
HETATM    7  O3  UNL     1       2.371   4.076  81.505  1.00  0.00    -0.373 OA
HETATM    8  C6  UNL     1       1.643   4.869  80.626  1.00  0.00     0.182 A 
HETATM    9  C7  UNL     1       0.238   5.240  80.889  1.00  0.00     0.189 C 
HETATM   10  O4  UNL     1      -0.623   4.431  80.197  1.00  0.00    -0.348 OA
ENDROOT
BRANCH   1  11
HETATM   11  O1  UNL     1      -1.153   5.817  82.830  1.00  0.00    -0.388 OA
ATOM     12  H1  UNL     1      -0.980   6.679  82.472  1.00  0.00     0.210 HD
ENDBRANCH   1  11
TORSDOF 1
ENDMDL
MODEL 2
REMARK VINA RESULT: -5.318264886      4.130      5.781
REMARK  1 active torsions:
REMARK  status: ('A' for Active; 'I' for Inactive)
REMARK    1  A    between atoms: O1_1  and  C1_3 
ROOT
HETATM    1  C1  UNL     1      -0.807   3.655  84.487  1.00  0.00     0.205 C 
HETATM    2  C2  UNL     1      -0.467   2.883  85.700  1.00  0.00     0.291 C 
HETATM    3  O2  UNL     1      -1.506   2.346  86.393  1.00  0.00    -0.358 OA
HETATM    4  C3  UNL     1      -2.544   3.172  86.683  1.00  0.00     0.173 C 
HETATM    5  C4  UNL     1      -2.192   4.330  87.593  1.00  0.00     0.061 C 
HETATM    6  C5  UNL     1      -2.022   5.621  86.906  1.00  0.00     0.155 A 
HETATM    7  O3  UNL     1      -2.612   5.612  85.581  1.00  0.00    -0.373 OA
HETATM    8  C6  UNL     1      -1.245   5.783  85.763  1.00  0.00     0.182 A 
HETATM    9  C7  UNL     1      -0.264   4.779  85.305  1.00  0.00     0.189 C 
HETATM   10  O4  UNL     1       0.133   3.971  86.336  1.00  0.00    -0.348 OA
ENDROOT
BRANCH   1  11
HETATM   11  O1  UNL     1       0.009   3.244  83.405  1.00  0.00    -0.388 OA
ATOM     12  H1  UNL     1      -0.438   2.581  82.893  1.00  0.00     0.210 HD
ENDBRANCH   1  11
TORSDOF 1
ENDMDL
MODEL 3
REMARK VINA RESULT: -5.194943466      1.491      2.557
REMARK  1 active torsions:
REMARK  status: ('A' for Active; 'I' for Inactive)
REMARK    1  A    between atoms: O1_1  and  C1_3 
ROOT
HETATM    1  C1  UNL     1      -0.040   3.182  82.606  1.00  0.00     0.205 C 
HETATM    2  C2  UNL     1      -0.630   3.138  81.252  1.00  0.00     0.291 C 
HETATM    3  O2  UNL     1       0.228   3.277  80.207  1.00  0.00    -0.358 OA
HETATM    4  C3  UNL     1       1.102   4.315  80.263  1.00  0.00     0.173 C 
HETATM    5  C4  UNL     1       0.456   5.684  80.258  1.00  0.00     0.061 C 
HETATM    6  C5  UNL     1       0.387   6.336  81.575  1.00  0.00     0.155 A 
HETATM    7  O3  UNL     1       1.297   5.730  82.529  1.00  0.00    -0.373 OA
HETATM    8  C6  UNL     1      -0.080   5.698  82.721  1.00  0.00     0.182 A 
HETATM    9  C7  UNL     1      -0.844   4.435  82.688  1.00  0.00     0.189 C 
HETATM   10  O4  UNL     1      -1.441   4.253  81.470  1.00  0.00    -0.348 OA
ENDROOT
BRANCH   1  11
HETATM   11  O1  UNL     1      -0.522   2.101  83.382  1.00  0.00    -0.388 OA
ATOM     12  H1  UNL     1      -0.052   2.055  84.206  1.00  0.00     0.210 HD
ENDBRANCH   1  11
TORSDOF 1
ENDMDL
MODEL 4
REMARK VINA RESULT: -5.147344503      1.320      2.628
REMARK  1 active torsions:
REMARK  status: ('A' for Active; 'I' for Inactive)
REMARK    1  A    between atoms: O1_1  and  C1_3 
ROOT
HETATM    1  C1  UNL     1      -0.254   5.456  80.430  1.00  0.00     0.205 C 
HETATM    2  C2  UNL     1       1.039   5.676  81.110  1.00  0.00     0.291 C 
HETATM    3  O2  UNL     1       2.153   5.252  80.457  1.00  0.00    -0.358 OA
HETATM    4  C3  UNL     1       2.133   3.985  79.967  1.00  0.00     0.173 C 
HETATM    5  C4  UNL     1       2.017   2.904  81.020  1.00  0.00     0.061 C 
HETATM    6  C5  UNL     1       0.671   2.325  81.162  1.00  0.00     0.155 A 
HETATM    7  O3  UNL     1      -0.165   2.610  80.011  1.00  0.00    -0.373 OA
HETATM    8  C6  UNL     1      -0.484   3.094  81.275  1.00  0.00     0.182 A 
HETATM    9  C7  UNL     1      -0.466   4.537  81.586  1.00  0.00     0.189 C 
HETATM   10  O4  UNL     1       0.697   4.892  82.213  1.00  0.00    -0.348 OA
ENDROOT
BRANCH   1  11
HETATM   11  O1  UNL     1      -1.023   6.644  80.452  1.00  0.00    -0.388 OA
ATOM     12  H1  UNL     1      -1.324   6.822  81.336  1.00  0.00     0.210 HD
ENDBRANCH   1  11
TORSDOF 1
ENDMDL
MODEL 5
REMARK VINA RESULT: -5.128862467      1.293      2.571
REMARK  1 active torsions:
REMARK  status: ('A' for Active; 'I' for Inactive)
REMARK    1  A    between atoms: O1_1  and  C1_3 
ROOT
HETATM    1  C1  UNL     1       0.203   3.039  82.175  1.00  0.00     0.205 C 
HETATM    2  C2  UNL     1       0.981   2.391  81.100  1.00  0.00     0.291 C 
HETATM    3  O2  UNL     1       2.276   2.779  80.963  1.00  0.00    -0.358 OA
HETATM    4  C3  UNL     1       2.516   4.116  80.923  1.00  0.00     0.173 C 
HETATM    5  C4  UNL     1       1.900   4.831  79.740  1.00  0.00     0.061 C 
HETATM    6  C5  UNL     1       0.669   5.578  80.047  1.00  0.00     0.155 A 
HETATM    7  O3  UNL     1       0.517   5.812  81.470  1.00  0.00    -0.373 OA
HETATM    8  C6  UNL     1      -0.395   5.038  80.763  1.00  0.00     0.182 A 
HETATM    9  C7  UNL     1      -0.550   3.591  81.011  1.00  0.00     0.189 C 
HETATM   10  O4  UNL     1       0.141   2.855  80.086  1.00  0.00    -0.348 OA
ENDROOT
BRANCH   1  11
HETATM   11  O1  UNL     1      -0.486   2.063  82.935  1.00  0.00    -0.388 OA
ATOM     12  H1  UNL     1      -1.018   1.521  82.363  1.00  0.00     0.210 HD
ENDBRANCH   1  11
TORSDOF 1
ENDMDL
