MODEL 1
REMARK VINA RESULT: -7.199564048      0.000      0.000
REMARK  11 active torsions:
REMARK  status: ('A' for Active; 'I' for Inactive)
REMARK    1  A    between atoms: O1_2  and  C2_3 
REMARK       I    between atoms: C2_3  and  N1_5 
REMARK    2  A    between atoms: N1_5  and  C3_7 
REMARK    3  A    between atoms: C5_14  and  O4_15 
REMARK    4  A    between atoms: C6_17  and  C7_18 
REMARK    5  A    between atoms: C7_18  and  N4_19 
REMARK    6  A    between atoms: C10_22  and  O5_23 
REMARK    7  A    between atoms: O5_23  and  N5_24 
REMARK    8  A    between atoms: N5_24  and  O6_26 
REMARK    9  A    between atoms: N7_31  and  C12_33 
REMARK   10  A    between atoms: C12_33  and  C13_34 
REMARK   11  A    between atoms: C13_34  and  O7_35 
ROOT
HETATM    1  N4  UNL     1       1.577   5.723 -49.240  1.00  0.00    -0.157 N 
HETATM    2  C8  UNL     1       1.235   4.504 -49.685  1.00  0.00     0.083 A 
HETATM    3  C9  UNL     1      -0.102   3.840 -49.781  1.00  0.00     0.074 C 
HETATM    4  C10 UNL     1       2.369   3.785 -50.031  1.00  0.00     0.210 A 
HETATM    5  N6  UNL     1       3.417   4.588 -49.786  1.00  0.00    -0.166 N 
ATOM      6  H6  UNL     1       4.398   4.351 -49.935  1.00  0.00     0.186 HD
HETATM    7  C11 UNL     1       2.949   5.767 -49.305  1.00  0.00     0.690 A 
HETATM    8  N7  UNL     1       3.671   6.725 -48.981  1.00  0.00    -0.203 N 
ATOM      9  H7  UNL     1       3.081   7.489 -48.653  1.00  0.00     0.183 HD
ENDROOT
BRANCH   1  10
HETATM   10  C7  UNL     1       0.730   6.793 -48.844  1.00  0.00     0.135 C 
BRANCH  10  11
HETATM   11  C6  UNL     1       0.057   7.624 -49.817  1.00  0.00     0.076 A 
HETATM   12  C3  UNL     1      -1.249   7.490 -50.182  1.00  0.00     0.129 A 
HETATM   13  N2  UNL     1      -1.771   8.361 -51.080  1.00  0.00    -0.293 N 
HETATM   14  C4  UNL     1      -1.042   9.347 -51.620  1.00  0.00     0.327 A 
ATOM     15  H2  UNL     1      -2.748   8.262 -51.353  1.00  0.00     0.172 HD
HETATM   16  O3  UNL     1      -1.530  10.144 -52.448  1.00  0.00    -0.247 OA
HETATM   17  N3  UNL     1       0.243   9.493 -51.272  1.00  0.00    -0.288 N 
HETATM   18  C5  UNL     1       0.807   8.674 -50.398  1.00  0.00     0.159 A 
ATOM     19  H3  UNL     1       0.795  10.244 -51.687  1.00  0.00     0.172 HD
BRANCH  12  20
HETATM   20  N1  UNL     1      -2.050   6.606 -49.740  1.00  0.00    -0.287 N 
HETATM   21  C2  UNL     1      -3.447   6.619 -49.936  1.00  0.00     0.365 C 
HETATM   22  O2  UNL     1      -3.927   5.890 -50.841  1.00  0.00    -0.238 OA
ATOM     23  H1  UNL     1      -1.654   5.833 -49.204  1.00  0.00     0.172 HD
BRANCH  21  24
HETATM   24  O1  UNL     1      -4.339   7.383 -49.199  1.00  0.00    -0.309 OA
HETATM   25  C1  UNL     1      -4.110   7.730 -47.845  1.00  0.00     0.215 C 
ENDBRANCH  21  24
ENDBRANCH  12  20
BRANCH  18  26
HETATM   26  O4  UNL     1       2.149   8.881 -50.070  1.00  0.00    -0.345 OA
ATOM     27  H4  UNL     1       2.442   8.631 -49.203  1.00  0.00     0.219 HD
ENDBRANCH  18  26
ENDBRANCH  10  11
ENDBRANCH   1  10
BRANCH   4  28
HETATM   28  O5  UNL     1       2.472   2.483 -50.537  1.00  0.00    -0.196 OA
BRANCH  28  29
HETATM   29  N5  UNL     1       3.295   1.527 -50.051  1.00  0.00    -0.167 N 
ATOM     30  H5  UNL     1       2.868   0.731 -49.577  1.00  0.00     0.224 HD
BRANCH  29  31
HETATM   31  O6  UNL     1       4.544   1.548 -50.141  1.00  0.00    -0.269 OA
ATOM     32  H6  UNL     1       5.097   0.776 -50.169  1.00  0.00     0.246 HD
ENDBRANCH  29  31
ENDBRANCH  28  29
ENDBRANCH   4  28
BRANCH   8  33
HETATM   33  C12 UNL     1       4.988   7.112 -48.909  1.00  0.00     0.105 C 
BRANCH  33  34
HETATM   34  C13 UNL     1       5.513   7.798 -47.693  1.00  0.00     0.209 C 
BRANCH  34  35
HETATM   35  O7  UNL     1       6.574   7.117 -47.100  1.00  0.00    -0.396 OA
ATOM     36  H7  UNL     1       6.403   6.190 -46.989  1.00  0.00     0.209 HD
ENDBRANCH  34  35
ENDBRANCH  33  34
ENDBRANCH   8  33
TORSDOF 11
ENDMDL
MODEL 2
REMARK VINA RESULT: -6.951010947      1.974      3.664
REMARK  11 active torsions:
REMARK  status: ('A' for Active; 'I' for Inactive)
REMARK    1  A    between atoms: O1_2  and  C2_3 
REMARK       I    between atoms: C2_3  and  N1_5 
REMARK    2  A    between atoms: N1_5  and  C3_7 
REMARK    3  A    between atoms: C5_14  and  O4_15 
REMARK    4  A    between atoms: C6_17  and  C7_18 
REMARK    5  A    between atoms: C7_18  and  N4_19 
REMARK    6  A    between atoms: C10_22  and  O5_23 
REMARK    7  A    between atoms: O5_23  and  N5_24 
REMARK    8  A    between atoms: N5_24  and  O6_26 
REMARK    9  A    between atoms: N7_31  and  C12_33 
REMARK   10  A    between atoms: C12_33  and  C13_34 
REMARK   11  A    between atoms: C13_34  and  O7_35 
ROOT
HETATM    1  N4  UNL     1       1.396   3.424 -50.309  1.00  0.00    -0.157 N 
HETATM    2  C8  UNL     1       1.568   2.098 -50.194  1.00  0.00     0.083 A 
HETATM    3  C9  UNL     1       0.641   0.964 -50.499  1.00  0.00     0.074 C 
HETATM    4  C10 UNL     1       2.805   1.823 -49.633  1.00  0.00     0.210 A 
HETATM    5  N6  UNL     1       3.390   3.009 -49.402  1.00  0.00    -0.166 N 
ATOM      6  H6  UNL     1       4.313   3.150 -48.992  1.00  0.00     0.186 HD
HETATM    7  C11 UNL     1       2.544   3.989 -49.808  1.00  0.00     0.690 A 
HETATM    8  N7  UNL     1       2.793   5.204 -49.729  1.00  0.00    -0.203 N 
ATOM      9  H7  UNL     1       2.002   5.730 -50.099  1.00  0.00     0.183 HD
ENDROOT
BRANCH   1  10
HETATM   10  C7  UNL     1       0.306   4.131 -50.884  1.00  0.00     0.135 C 
BRANCH  10  11
HETATM   11  C6  UNL     1      -0.477   5.070 -50.112  1.00  0.00     0.076 A 
HETATM   12  C3  UNL     1      -0.491   6.418 -50.311  1.00  0.00     0.129 A 
HETATM   13  N2  UNL     1      -1.301   7.186 -49.541  1.00  0.00    -0.293 N 
HETATM   14  C4  UNL     1      -2.085   6.660 -48.591  1.00  0.00     0.327 A 
ATOM     15  H2  UNL     1      -1.313   8.194 -49.690  1.00  0.00     0.172 HD
HETATM   16  O3  UNL     1      -2.826   7.375 -47.885  1.00  0.00    -0.247 OA
HETATM   17  N3  UNL     1      -2.083   5.337 -48.381  1.00  0.00    -0.288 N 
HETATM   18  C5  UNL     1      -1.314   4.537 -49.104  1.00  0.00     0.159 A 
ATOM     19  H3  UNL     1      -2.680   4.941 -47.655  1.00  0.00     0.172 HD
BRANCH  12  20
HETATM   20  N1  UNL     1       0.195   7.040 -51.184  1.00  0.00    -0.287 N 
HETATM   21  C2  UNL     1      -0.015   8.384 -51.560  1.00  0.00     0.365 C 
HETATM   22  O2  UNL     1       0.733   9.264 -51.065  1.00  0.00    -0.238 OA
ATOM     23  H1  UNL     1       0.950   6.532 -51.643  1.00  0.00     0.172 HD
BRANCH  21  24
HETATM   24  O1  UNL     1      -0.994   8.810 -52.445  1.00  0.00    -0.309 OA
HETATM   25  C1  UNL     1      -1.924   9.828 -52.121  1.00  0.00     0.215 C 
ENDBRANCH  21  24
ENDBRANCH  12  20
BRANCH  18  26
HETATM   26  O4  UNL     1      -1.361   3.166 -48.843  1.00  0.00    -0.345 OA
ATOM     27  H4  UNL     1      -2.082   2.664 -49.207  1.00  0.00     0.219 HD
ENDBRANCH  18  26
ENDBRANCH  10  11
ENDBRANCH   1  10
BRANCH   4  28
HETATM   28  O5  UNL     1       3.388   0.584 -49.339  1.00  0.00    -0.196 OA
BRANCH  28  29
HETATM   29  N5  UNL     1       4.706   0.383 -49.108  1.00  0.00    -0.167 N 
ATOM     30  H5  UNL     1       4.966  -0.122 -48.262  1.00  0.00     0.224 HD
BRANCH  29  31
HETATM   31  O6  UNL     1       5.628   0.774 -49.860  1.00  0.00    -0.269 OA
ATOM     32  H6  UNL     1       6.553   0.731 -49.648  1.00  0.00     0.246 HD
ENDBRANCH  29  31
ENDBRANCH  28  29
ENDBRANCH   4  28
BRANCH   8  33
HETATM   33  C12 UNL     1       3.763   6.085 -49.315  1.00  0.00     0.105 C 
BRANCH  33  34
HETATM   34  C13 UNL     1       3.470   7.544 -49.212  1.00  0.00     0.209 C 
BRANCH  34  35
HETATM   35  O7  UNL     1       3.193   8.131 -50.445  1.00  0.00    -0.396 OA
ATOM     36  H7  UNL     1       3.864   7.962 -51.095  1.00  0.00     0.209 HD
ENDBRANCH  34  35
ENDBRANCH  33  34
ENDBRANCH   8  33
TORSDOF 11
ENDMDL
MODEL 3
REMARK VINA RESULT: -6.916823162      3.809      8.947
REMARK  11 active torsions:
REMARK  status: ('A' for Active; 'I' for Inactive)
REMARK    1  A    between atoms: O1_2  and  C2_3 
REMARK       I    between atoms: C2_3  and  N1_5 
REMARK    2  A    between atoms: N1_5  and  C3_7 
REMARK    3  A    between atoms: C5_14  and  O4_15 
REMARK    4  A    between atoms: C6_17  and  C7_18 
REMARK    5  A    between atoms: C7_18  and  N4_19 
REMARK    6  A    between atoms: C10_22  and  O5_23 
REMARK    7  A    between atoms: O5_23  and  N5_24 
REMARK    8  A    between atoms: N5_24  and  O6_26 
REMARK    9  A    between atoms: N7_31  and  C12_33 
REMARK   10  A    between atoms: C12_33  and  C13_34 
REMARK   11  A    between atoms: C13_34  and  O7_35 
ROOT
HETATM    1  N4  UNL     1      -2.239  10.429 -53.729  1.00  0.00    -0.157 N 
HETATM    2  C8  UNL     1      -1.606  11.596 -53.537  1.00  0.00     0.083 A 
HETATM    3  C9  UNL     1      -0.558  11.986 -52.543  1.00  0.00     0.074 C 
HETATM    4  C10 UNL     1      -2.109  12.561 -54.397  1.00  0.00     0.210 A 
HETATM    5  N6  UNL     1      -3.070  11.962 -55.119  1.00  0.00    -0.166 N 
ATOM      6  H6  UNL     1      -3.636  12.404 -55.843  1.00  0.00     0.186 HD
HETATM    7  C11 UNL     1      -3.158  10.667 -54.723  1.00  0.00     0.690 A 
HETATM    8  N7  UNL     1      -3.956   9.844 -55.201  1.00  0.00    -0.203 N 
ATOM      9  H7  UNL     1      -3.824   8.945 -54.737  1.00  0.00     0.183 HD
ENDROOT
BRANCH   1  10
HETATM   10  C7  UNL     1      -1.996   9.175 -53.108  1.00  0.00     0.135 C 
BRANCH  10  11
HETATM   11  C6  UNL     1      -2.251   8.966 -51.700  1.00  0.00     0.076 A 
HETATM   12  C3  UNL     1      -1.303   9.022 -50.722  1.00  0.00     0.129 A 
HETATM   13  N2  UNL     1      -1.681   8.845 -49.433  1.00  0.00    -0.293 N 
HETATM   14  C4  UNL     1      -2.956   8.616 -49.091  1.00  0.00     0.327 A 
ATOM     15  H2  UNL     1      -0.973   8.888 -48.700  1.00  0.00     0.172 HD
HETATM   16  O3  UNL     1      -3.295   8.452 -47.901  1.00  0.00    -0.247 OA
HETATM   17  N3  UNL     1      -3.900   8.557 -50.039  1.00  0.00    -0.288 N 
HETATM   18  C5  UNL     1      -3.591   8.724 -51.316  1.00  0.00     0.159 A 
ATOM     19  H3  UNL     1      -4.869   8.381 -49.775  1.00  0.00     0.172 HD
BRANCH  12  20
HETATM   20  N1  UNL     1      -0.064   9.242 -50.910  1.00  0.00    -0.287 N 
HETATM   21  C2  UNL     1       0.980   8.465 -50.366  1.00  0.00     0.365 C 
HETATM   22  O2  UNL     1       1.528   7.606 -51.102  1.00  0.00    -0.238 OA
ATOM     23  H1  UNL     1       0.193  10.037 -51.496  1.00  0.00     0.172 HD
BRANCH  21  24
HETATM   24  O1  UNL     1       1.452   8.579 -49.066  1.00  0.00    -0.309 OA
HETATM   25  C1  UNL     1       2.759   8.181 -48.692  1.00  0.00     0.215 C 
ENDBRANCH  21  24
ENDBRANCH  12  20
BRANCH  18  26
HETATM   26  O4  UNL     1      -4.620   8.659 -52.258  1.00  0.00    -0.345 OA
ATOM     27  H4  UNL     1      -5.514   8.598 -51.942  1.00  0.00     0.219 HD
ENDBRANCH  18  26
ENDBRANCH  10  11
ENDBRANCH   1  10
BRANCH   4  28
HETATM   28  O5  UNL     1      -1.739  13.905 -54.534  1.00  0.00    -0.196 OA
BRANCH  28  29
HETATM   29  N5  UNL     1      -0.867  14.553 -53.730  1.00  0.00    -0.167 N 
ATOM     30  H5  UNL     1      -1.248  15.067 -52.936  1.00  0.00     0.224 HD
BRANCH  29  31
HETATM   31  O6  UNL     1       0.375  14.568 -53.890  1.00  0.00    -0.269 OA
ATOM     32  H6  UNL     1       0.820  14.327 -54.694  1.00  0.00     0.246 HD
ENDBRANCH  29  31
ENDBRANCH  28  29
ENDBRANCH   4  28
BRANCH   8  33
HETATM   33  C12 UNL     1      -4.954   9.722 -56.138  1.00  0.00     0.105 C 
BRANCH  33  34
HETATM   34  C13 UNL     1      -4.747  10.199 -57.536  1.00  0.00     0.209 C 
BRANCH  34  35
HETATM   35  O7  UNL     1      -4.806  11.586 -57.651  1.00  0.00    -0.396 OA
ATOM     36  H7  UNL     1      -3.980  12.011 -57.453  1.00  0.00     0.209 HD
ENDBRANCH  34  35
ENDBRANCH  33  34
ENDBRANCH   8  33
TORSDOF 11
ENDMDL
MODEL 4
REMARK VINA RESULT: -6.868109574      2.104      5.478
REMARK  11 active torsions:
REMARK  status: ('A' for Active; 'I' for Inactive)
REMARK    1  A    between atoms: O1_2  and  C2_3 
REMARK       I    between atoms: C2_3  and  N1_5 
REMARK    2  A    between atoms: N1_5  and  C3_7 
REMARK    3  A    between atoms: C5_14  and  O4_15 
REMARK    4  A    between atoms: C6_17  and  C7_18 
REMARK    5  A    between atoms: C7_18  and  N4_19 
REMARK    6  A    between atoms: C10_22  and  O5_23 
REMARK    7  A    between atoms: O5_23  and  N5_24 
REMARK    8  A    between atoms: N5_24  and  O6_26 
REMARK    9  A    between atoms: N7_31  and  C12_33 
REMARK   10  A    between atoms: C12_33  and  C13_34 
REMARK   11  A    between atoms: C13_34  and  O7_35 
ROOT
HETATM    1  N4  UNL     1       1.261   6.984 -49.266  1.00  0.00    -0.157 N 
HETATM    2  C8  UNL     1       0.310   7.465 -50.081  1.00  0.00     0.083 A 
HETATM    3  C9  UNL     1      -0.984   6.865 -50.530  1.00  0.00     0.074 C 
HETATM    4  C10 UNL     1       0.698   8.691 -50.598  1.00  0.00     0.210 A 
HETATM    5  N6  UNL     1       1.911   8.953 -50.086  1.00  0.00    -0.166 N 
ATOM      6  H6  UNL     1       2.472   9.784 -50.274  1.00  0.00     0.186 HD
HETATM    7  C11 UNL     1       2.264   7.924 -49.276  1.00  0.00     0.690 A 
HETATM    8  N7  UNL     1       3.336   7.864 -48.650  1.00  0.00    -0.203 N 
ATOM      9  H7  UNL     1       3.361   6.996 -48.115  1.00  0.00     0.183 HD
ENDROOT
BRANCH   1  10
HETATM   10  C7  UNL     1       1.245   5.797 -48.486  1.00  0.00     0.135 C 
BRANCH  10  11
HETATM   11  C6  UNL     1       1.326   4.490 -49.099  1.00  0.00     0.076 A 
HETATM   12  C3  UNL     1       0.313   3.578 -49.121  1.00  0.00     0.129 A 
HETATM   13  N2  UNL     1       0.506   2.400 -49.763  1.00  0.00    -0.293 N 
HETATM   14  C4  UNL     1       1.660   2.105 -50.376  1.00  0.00     0.327 A 
ATOM     15  H2  UNL     1      -0.252   1.718 -49.781  1.00  0.00     0.172 HD
HETATM   16  O3  UNL     1       1.829   1.016 -50.963  1.00  0.00    -0.247 OA
HETATM   17  N3  UNL     1       2.666   2.989 -50.364  1.00  0.00    -0.288 N 
HETATM   18  C5  UNL     1       2.536   4.157 -49.754  1.00  0.00     0.159 A 
ATOM     19  H3  UNL     1       3.544   2.760 -50.830  1.00  0.00     0.172 HD
BRANCH  12  20
HETATM   20  N1  UNL     1      -0.832   3.737 -48.589  1.00  0.00    -0.287 N 
HETATM   21  C2  UNL     1      -1.945   2.902 -48.817  1.00  0.00     0.365 C 
HETATM   22  O2  UNL     1      -2.217   2.025 -47.959  1.00  0.00    -0.238 OA
ATOM     23  H1  UNL     1      -0.953   4.525 -47.952  1.00  0.00     0.172 HD
BRANCH  21  24
HETATM   24  O1  UNL     1      -2.771   2.976 -49.929  1.00  0.00    -0.309 OA
HETATM   25  C1  UNL     1      -3.343   1.829 -50.532  1.00  0.00     0.215 C 
ENDBRANCH  21  24
ENDBRANCH  12  20
BRANCH  18  26
HETATM   26  O4  UNL     1       3.617   5.040 -49.782  1.00  0.00    -0.345 OA
ATOM     27  H4  UNL     1       3.454   5.955 -49.588  1.00  0.00     0.219 HD
ENDBRANCH  18  26
ENDBRANCH  10  11
ENDBRANCH   1  10
BRANCH   4  28
HETATM   28  O5  UNL     1       0.013   9.537 -51.481  1.00  0.00    -0.196 OA
BRANCH  28  29
HETATM   29  N5  UNL     1      -1.077  10.269 -51.161  1.00  0.00    -0.167 N 
ATOM     30  H5  UNL     1      -1.716   9.887 -50.464  1.00  0.00     0.224 HD
BRANCH  29  31
HETATM   31  O6  UNL     1      -1.359  11.383 -51.659  1.00  0.00    -0.269 OA
ATOM     32  H6  UNL     1      -1.318  12.210 -51.194  1.00  0.00     0.246 HD
ENDBRANCH  29  31
ENDBRANCH  28  29
ENDBRANCH   4  28
BRANCH   8  33
HETATM   33  C12 UNL     1       4.499   8.560 -48.427  1.00  0.00     0.105 C 
BRANCH  33  34
HETATM   34  C13 UNL     1       5.820   7.865 -48.460  1.00  0.00     0.209 C 
BRANCH  34  35
HETATM   35  O7  UNL     1       6.088   7.152 -47.294  1.00  0.00    -0.396 OA
ATOM     36  H7  UNL     1       6.993   7.223 -47.016  1.00  0.00     0.209 HD
ENDBRANCH  34  35
ENDBRANCH  33  34
ENDBRANCH   8  33
TORSDOF 11
ENDMDL
MODEL 5
REMARK VINA RESULT: -6.867936812      2.425      5.766
REMARK  11 active torsions:
REMARK  status: ('A' for Active; 'I' for Inactive)
REMARK    1  A    between atoms: O1_2  and  C2_3 
REMARK       I    between atoms: C2_3  and  N1_5 
REMARK    2  A    between atoms: N1_5  and  C3_7 
REMARK    3  A    between atoms: C5_14  and  O4_15 
REMARK    4  A    between atoms: C6_17  and  C7_18 
REMARK    5  A    between atoms: C7_18  and  N4_19 
REMARK    6  A    between atoms: C10_22  and  O5_23 
REMARK    7  A    between atoms: O5_23  and  N5_24 
REMARK    8  A    between atoms: N5_24  and  O6_26 
REMARK    9  A    between atoms: N7_31  and  C12_33 
REMARK   10  A    between atoms: C12_33  and  C13_34 
REMARK   11  A    between atoms: C13_34  and  O7_35 
ROOT
HETATM    1  N4  UNL     1       1.299   7.050 -49.218  1.00  0.00    -0.157 N 
HETATM    2  C8  UNL     1       0.319   7.424 -50.055  1.00  0.00     0.083 A 
HETATM    3  C9  UNL     1      -0.927   6.712 -50.477  1.00  0.00     0.074 C 
HETATM    4  C10 UNL     1       0.620   8.650 -50.627  1.00  0.00     0.210 A 
HETATM    5  N6  UNL     1       1.809   9.021 -50.126  1.00  0.00    -0.166 N 
ATOM      6  H6  UNL     1       2.310   9.881 -50.351  1.00  0.00     0.186 HD
HETATM    7  C11 UNL     1       2.232   8.058 -49.269  1.00  0.00     0.690 A 
HETATM    8  N7  UNL     1       3.302   8.103 -48.640  1.00  0.00    -0.203 N 
ATOM      9  H7  UNL     1       3.387   7.264 -48.067  1.00  0.00     0.183 HD
ENDROOT
BRANCH   1  10
HETATM   10  C7  UNL     1       1.364   5.901 -48.385  1.00  0.00     0.135 C 
BRANCH  10  11
HETATM   11  C6  UNL     1       1.532   4.576 -48.938  1.00  0.00     0.076 A 
HETATM   12  C3  UNL     1       0.701   3.523 -48.697  1.00  0.00     0.129 A 
HETATM   13  N2  UNL     1       0.948   2.339 -49.310  1.00  0.00    -0.293 N 
HETATM   14  C4  UNL     1       1.985   2.173 -50.142  1.00  0.00     0.327 A 
ATOM     15  H2  UNL     1       0.326   1.551 -49.131  1.00  0.00     0.172 HD
HETATM   16  O3  UNL     1       2.206   1.078 -50.700  1.00  0.00    -0.247 OA
HETATM   17  N3  UNL     1       2.812   3.197 -50.389  1.00  0.00    -0.288 N 
HETATM   18  C5  UNL     1       2.619   4.378 -49.822  1.00  0.00     0.159 A 
ATOM     19  H3  UNL     1       3.601   3.065 -51.023  1.00  0.00     0.172 HD
BRANCH  12  20
HETATM   20  N1  UNL     1      -0.321   3.550 -47.939  1.00  0.00    -0.287 N 
HETATM   21  C2  UNL     1      -0.598   2.601 -46.932  1.00  0.00     0.365 C 
HETATM   22  O2  UNL     1      -0.322   2.898 -45.742  1.00  0.00    -0.238 OA
ATOM     23  H1  UNL     1      -0.986   4.312 -48.068  1.00  0.00     0.172 HD
BRANCH  21  24
HETATM   24  O1  UNL     1      -1.158   1.352 -47.159  1.00  0.00    -0.309 OA
HETATM   25  C1  UNL     1      -2.497   1.043 -46.816  1.00  0.00     0.215 C 
ENDBRANCH  21  24
ENDBRANCH  12  20
BRANCH  18  26
HETATM   26  O4  UNL     1       3.511   5.408 -50.125  1.00  0.00    -0.345 OA
ATOM     27  H4  UNL     1       3.167   6.290 -50.207  1.00  0.00     0.219 HD
ENDBRANCH  18  26
ENDBRANCH  10  11
ENDBRANCH   1  10
BRANCH   4  28
HETATM   28  O5  UNL     1      -0.119   9.403 -51.548  1.00  0.00    -0.196 OA
BRANCH  28  29
HETATM   29  N5  UNL     1      -1.138  10.234 -51.228  1.00  0.00    -0.167 N 
ATOM     30  H5  UNL     1      -1.870   9.871 -50.618  1.00  0.00     0.224 HD
BRANCH  29  31
HETATM   31  O6  UNL     1      -1.246  11.416 -51.627  1.00  0.00    -0.269 OA
ATOM     32  H6  UNL     1      -2.070  11.873 -51.748  1.00  0.00     0.246 HD
ENDBRANCH  29  31
ENDBRANCH  28  29
ENDBRANCH   4  28
BRANCH   8  33
HETATM   33  C12 UNL     1       4.412   8.891 -48.448  1.00  0.00     0.105 C 
BRANCH  33  34
HETATM   34  C13 UNL     1       5.783   8.327 -48.618  1.00  0.00     0.209 C 
BRANCH  34  35
HETATM   35  O7  UNL     1       5.812   7.213 -49.455  1.00  0.00    -0.396 OA
ATOM     36  H7  UNL     1       6.429   7.304 -50.171  1.00  0.00     0.209 HD
ENDBRANCH  34  35
ENDBRANCH  33  34
ENDBRANCH   8  33
TORSDOF 11
ENDMDL
