MODEL 1
REMARK VINA RESULT: -9.493652889      0.000      0.000
REMARK  9 active torsions:
REMARK  status: ('A' for Active; 'I' for Inactive)
REMARK    1  A    between atoms: N1_2  and  C2_3 
REMARK       I    between atoms: N1_2  and  C8_10 
REMARK    2  A    between atoms: C2_3  and  C3_4 
REMARK    3  A    between atoms: C8_10  and  C9_12 
REMARK       I    between atoms: N2_16  and  C13_17 
REMARK    4  A    between atoms: C13_17  and  C14_19 
REMARK    5  A    between atoms: C14_19  and  C15_20 
REMARK    6  A    between atoms: C15_20  and  C16_21 
REMARK    7  A    between atoms: C17_26  and  C18_27 
REMARK    8  A    between atoms: C18_27  and  C19_28 
REMARK    9  A    between atoms: C19_28  and  C20_29 
ROOT
HETATM    1  C9  UNL     1      42.057  39.614 -56.876  1.00  0.00     0.179 C 
HETATM    2  C10 UNL     1      42.286  38.412 -56.017  1.00  0.00     0.037 C 
HETATM    3  C11 UNL     1      41.732  37.227 -56.803  1.00  0.00     0.022 C 
HETATM    4  C12 UNL     1      40.752  37.876 -57.740  1.00  0.00     0.127 C 
HETATM    5  N2  UNL     1      40.751  39.287 -57.489  1.00  0.00    -0.339 N 
HETATM    6  C13 UNL     1      39.717  40.214 -57.770  1.00  0.00     0.220 C 
HETATM    7  O3  UNL     1      39.819  41.438 -57.512  1.00  0.00    -0.273 OA
ENDROOT
BRANCH   6   8
HETATM    8  C14 UNL     1      38.457  39.737 -58.393  1.00  0.00     0.110 C 
BRANCH   8   9
HETATM    9  C15 UNL     1      37.337  39.626 -57.349  1.00  0.00     0.087 C 
BRANCH   9  10
HETATM   10  C16 UNL     1      37.710  38.670 -56.295  1.00  0.00     0.099 A 
HETATM   11  N3  UNL     1      37.719  37.336 -56.428  1.00  0.00    -0.287 N 
HETATM   12  N4  UNL     1      38.098  36.818 -55.259  1.00  0.00    -0.287 N 
ATOM     13  H3  UNL     1      37.480  36.813 -57.270  1.00  0.00     0.188 HD
HETATM   14  C17 UNL     1      38.332  37.806 -54.378  1.00  0.00     0.099 A 
ATOM     15  H4  UNL     1      38.197  35.822 -55.063  1.00  0.00     0.188 HD
HETATM   16  N5  UNL     1      38.086  38.943 -55.041  1.00  0.00    -0.329 N 
HETATM   17  C25 UNL     1      38.206  40.272 -54.493  1.00  0.00     0.159 C 
BRANCH  14  18
HETATM   18  C18 UNL     1      38.770  37.700 -52.951  1.00  0.00     0.078 C 
BRANCH  18  19
HETATM   19  C19 UNL     1      37.538  37.642 -52.110  1.00  0.00     0.012 C 
BRANCH  19  20
HETATM   20  C20 UNL     1      37.351  38.837 -51.218  1.00  0.00    -0.014 C 
HETATM   21  C21 UNL     1      36.315  38.621 -50.159  1.00  0.00     0.004 C 
HETATM   22  C22 UNL     1      37.028  38.688 -48.824  1.00  0.00     0.000 C 
HETATM   23  C23 UNL     1      38.435  38.313 -49.195  1.00  0.00     0.000 C 
HETATM   24  C24 UNL     1      38.652  39.079 -50.482  1.00  0.00     0.004 C 
ENDBRANCH  19  20
ENDBRANCH  18  19
ENDBRANCH  14  18
ENDBRANCH   9  10
ENDBRANCH   8   9
ENDBRANCH   6   8
BRANCH   1  25
HETATM   25  C8  UNL     1      43.054  39.819 -57.954  1.00  0.00     0.242 C 
HETATM   26  N1  UNL     1      44.363  40.287 -57.770  1.00  0.00    -0.352 N 
HETATM   27  C1  UNL     1      45.171  40.505 -58.998  1.00  0.00     0.152 C 
HETATM   28  O2  UNL     1      42.701  39.564 -59.174  1.00  0.00    -0.271 OA
BRANCH  26  29
HETATM   29  C2  UNL     1      45.038  40.540 -56.550  1.00  0.00     0.157 C 
BRANCH  29  30
HETATM   30  C3  UNL     1      44.727  41.795 -55.837  1.00  0.00     0.139 C 
HETATM   31  C4  UNL     1      43.974  42.865 -56.509  1.00  0.00     0.034 C 
HETATM   32  C5  UNL     1      44.842  43.971 -57.051  1.00  0.00     0.005 C 
HETATM   33  C6  UNL     1      46.210  43.461 -57.374  1.00  0.00     0.026 C 
HETATM   34  C7  UNL     1      46.798  42.749 -56.208  1.00  0.00     0.168 C 
HETATM   35  O1  UNL     1      45.880  42.337 -55.256  1.00  0.00    -0.384 OA
ENDBRANCH  29  30
ENDBRANCH  26  29
ENDBRANCH   1  25
TORSDOF 9
ENDMDL
MODEL 2
REMARK VINA RESULT: -9.467310816      1.869      3.354
REMARK  9 active torsions:
REMARK  status: ('A' for Active; 'I' for Inactive)
REMARK    1  A    between atoms: N1_2  and  C2_3 
REMARK       I    between atoms: N1_2  and  C8_10 
REMARK    2  A    between atoms: C2_3  and  C3_4 
REMARK    3  A    between atoms: C8_10  and  C9_12 
REMARK       I    between atoms: N2_16  and  C13_17 
REMARK    4  A    between atoms: C13_17  and  C14_19 
REMARK    5  A    between atoms: C14_19  and  C15_20 
REMARK    6  A    between atoms: C15_20  and  C16_21 
REMARK    7  A    between atoms: C17_26  and  C18_27 
REMARK    8  A    between atoms: C18_27  and  C19_28 
REMARK    9  A    between atoms: C19_28  and  C20_29 
ROOT
HETATM    1  C9  UNL     1      40.061  40.828 -57.058  1.00  0.00     0.179 C 
HETATM    2  C10 UNL     1      38.644  40.925 -57.525  1.00  0.00     0.037 C 
HETATM    3  C11 UNL     1      37.875  39.859 -56.748  1.00  0.00     0.022 C 
HETATM    4  C12 UNL     1      38.955  38.891 -56.351  1.00  0.00     0.127 C 
HETATM    5  N2  UNL     1      40.203  39.367 -56.868  1.00  0.00    -0.339 N 
HETATM    6  C13 UNL     1      41.367  38.610 -57.148  1.00  0.00     0.220 C 
HETATM    7  O3  UNL     1      42.418  39.127 -57.600  1.00  0.00    -0.273 OA
ENDROOT
BRANCH   6   8
HETATM    8  C14 UNL     1      41.363  37.145 -56.904  1.00  0.00     0.110 C 
BRANCH   8   9
HETATM    9  C15 UNL     1      42.194  36.793 -55.662  1.00  0.00     0.087 C 
BRANCH   9  10
HETATM   10  C16 UNL     1      41.446  37.115 -54.436  1.00  0.00     0.099 A 
HETATM   11  N3  UNL     1      40.332  36.494 -54.024  1.00  0.00    -0.287 N 
HETATM   12  N4  UNL     1      39.946  37.072 -52.886  1.00  0.00    -0.287 N 
ATOM     13  H3  UNL     1      39.865  35.720 -54.496  1.00  0.00     0.188 HD
HETATM   14  C17 UNL     1      40.802  38.058 -52.565  1.00  0.00     0.099 A 
ATOM     15  H4  UNL     1      39.126  36.806 -52.341  1.00  0.00     0.188 HD
HETATM   16  N5  UNL     1      41.722  38.065 -53.537  1.00  0.00    -0.329 N 
HETATM   17  C25 UNL     1      42.848  38.963 -53.614  1.00  0.00     0.159 C 
BRANCH  14  18
HETATM   18  C18 UNL     1      40.766  38.977 -51.384  1.00  0.00     0.078 C 
BRANCH  18  19
HETATM   19  C19 UNL     1      39.850  38.368 -50.374  1.00  0.00     0.012 C 
BRANCH  19  20
HETATM   20  C20 UNL     1      38.704  39.255 -49.977  1.00  0.00    -0.014 C 
HETATM   21  C21 UNL     1      37.376  38.735 -50.433  1.00  0.00     0.004 C 
HETATM   22  C22 UNL     1      36.574  38.423 -49.187  1.00  0.00     0.000 C 
HETATM   23  C23 UNL     1      37.650  38.183 -48.166  1.00  0.00     0.000 C 
HETATM   24  C24 UNL     1      38.640  39.287 -48.464  1.00  0.00     0.004 C 
ENDBRANCH  19  20
ENDBRANCH  18  19
ENDBRANCH  14  18
ENDBRANCH   9  10
ENDBRANCH   8   9
ENDBRANCH   6   8
BRANCH   1  25
HETATM   25  C8  UNL     1      40.350  41.507 -55.772  1.00  0.00     0.242 C 
HETATM   26  N1  UNL     1      41.618  41.917 -55.338  1.00  0.00    -0.352 N 
HETATM   27  C1  UNL     1      41.699  42.501 -53.974  1.00  0.00     0.152 C 
HETATM   28  O2  UNL     1      39.364  41.737 -54.963  1.00  0.00    -0.271 OA
BRANCH  26  29
HETATM   29  C2  UNL     1      42.840  41.886 -56.056  1.00  0.00     0.157 C 
BRANCH  29  30
HETATM   30  C3  UNL     1      43.842  42.927 -55.757  1.00  0.00     0.139 C 
HETATM   31  C4  UNL     1      44.470  43.691 -56.847  1.00  0.00     0.034 C 
HETATM   32  C5  UNL     1      45.837  43.187 -57.232  1.00  0.00     0.005 C 
HETATM   33  C6  UNL     1      45.970  41.729 -56.929  1.00  0.00     0.026 C 
HETATM   34  C7  UNL     1      45.598  41.447 -55.516  1.00  0.00     0.168 C 
HETATM   35  O1  UNL     1      44.839  42.432 -54.908  1.00  0.00    -0.384 OA
ENDBRANCH  29  30
ENDBRANCH  26  29
ENDBRANCH   1  25
TORSDOF 9
ENDMDL
MODEL 3
REMARK VINA RESULT: -9.455413498      1.646      2.912
REMARK  9 active torsions:
REMARK  status: ('A' for Active; 'I' for Inactive)
REMARK    1  A    between atoms: N1_2  and  C2_3 
REMARK       I    between atoms: N1_2  and  C8_10 
REMARK    2  A    between atoms: C2_3  and  C3_4 
REMARK    3  A    between atoms: C8_10  and  C9_12 
REMARK       I    between atoms: N2_16  and  C13_17 
REMARK    4  A    between atoms: C13_17  and  C14_19 
REMARK    5  A    between atoms: C14_19  and  C15_20 
REMARK    6  A    between atoms: C15_20  and  C16_21 
REMARK    7  A    between atoms: C17_26  and  C18_27 
REMARK    8  A    between atoms: C18_27  and  C19_28 
REMARK    9  A    between atoms: C19_28  and  C20_29 
ROOT
HETATM    1  C9  UNL     1      41.460  40.805 -57.194  1.00  0.00     0.179 C 
HETATM    2  C10 UNL     1      40.487  41.079 -58.296  1.00  0.00     0.037 C 
HETATM    3  C11 UNL     1      39.230  40.285 -57.948  1.00  0.00     0.022 C 
HETATM    4  C12 UNL     1      39.754  39.212 -57.035  1.00  0.00     0.127 C 
HETATM    5  N2  UNL     1      41.170  39.384 -56.899  1.00  0.00    -0.339 N 
HETATM    6  C13 UNL     1      42.129  38.403 -56.545  1.00  0.00     0.220 C 
HETATM    7  O3  UNL     1      43.354  38.660 -56.449  1.00  0.00    -0.273 OA
ENDROOT
BRANCH   6   8
HETATM    8  C14 UNL     1      41.687  37.012 -56.274  1.00  0.00     0.110 C 
BRANCH   8   9
HETATM    9  C15 UNL     1      41.574  36.757 -54.764  1.00  0.00     0.087 C 
BRANCH   9  10
HETATM   10  C16 UNL     1      40.186  36.943 -54.315  1.00  0.00     0.099 A 
HETATM   11  N3  UNL     1      39.182  36.081 -54.525  1.00  0.00    -0.287 N 
HETATM   12  N4  UNL     1      38.081  36.603 -53.983  1.00  0.00    -0.287 N 
ATOM     13  H3  UNL     1      39.248  35.187 -55.012  1.00  0.00     0.188 HD
HETATM   14  C17 UNL     1      38.370  37.793 -53.427  1.00  0.00     0.099 A 
ATOM     15  H4  UNL     1      37.160  36.166 -53.988  1.00  0.00     0.188 HD
HETATM   16  N5  UNL     1      39.677  37.982 -53.644  1.00  0.00    -0.329 N 
HETATM   17  C25 UNL     1      40.435  39.134 -53.221  1.00  0.00     0.159 C 
BRANCH  14  18
HETATM   18  C18 UNL     1      37.453  38.737 -52.713  1.00  0.00     0.078 C 
BRANCH  18  19
HETATM   19  C19 UNL     1      37.022  38.068 -51.451  1.00  0.00     0.012 C 
BRANCH  19  20
HETATM   20  C20 UNL     1      37.042  38.967 -50.247  1.00  0.00    -0.014 C 
HETATM   21  C21 UNL     1      36.483  38.314 -49.020  1.00  0.00     0.004 C 
HETATM   22  C22 UNL     1      37.616  38.215 -48.019  1.00  0.00     0.000 C 
HETATM   23  C23 UNL     1      38.828  38.220 -48.908  1.00  0.00     0.000 C 
HETATM   24  C24 UNL     1      38.487  39.287 -49.925  1.00  0.00     0.004 C 
ENDBRANCH  19  20
ENDBRANCH  18  19
ENDBRANCH  14  18
ENDBRANCH   9  10
ENDBRANCH   8   9
ENDBRANCH   6   8
BRANCH   1  25
HETATM   25  C8  UNL     1      41.257  41.600 -55.960  1.00  0.00     0.242 C 
HETATM   26  N1  UNL     1      42.268  41.986 -55.068  1.00  0.00    -0.352 N 
HETATM   27  C1  UNL     1      41.836  42.706 -53.843  1.00  0.00     0.152 C 
HETATM   28  O2  UNL     1      40.053  41.966 -55.655  1.00  0.00    -0.271 OA
BRANCH  26  29
HETATM   29  C2  UNL     1      43.668  41.815 -55.207  1.00  0.00     0.157 C 
BRANCH  29  30
HETATM   30  C3  UNL     1      44.434  42.894 -55.860  1.00  0.00     0.139 C 
HETATM   31  C4  UNL     1      44.116  43.305 -57.237  1.00  0.00     0.034 C 
HETATM   32  C5  UNL     1      45.029  42.705 -58.275  1.00  0.00     0.005 C 
HETATM   33  C6  UNL     1      45.582  41.398 -57.805  1.00  0.00     0.026 C 
HETATM   34  C7  UNL     1      46.207  41.541 -56.462  1.00  0.00     0.168 C 
HETATM   35  O1  UNL     1      45.811  42.664 -55.755  1.00  0.00    -0.384 OA
ENDBRANCH  29  30
ENDBRANCH  26  29
ENDBRANCH   1  25
TORSDOF 9
ENDMDL
MODEL 4
REMARK VINA RESULT: -9.373338709      2.241      3.711
REMARK  9 active torsions:
REMARK  status: ('A' for Active; 'I' for Inactive)
REMARK    1  A    between atoms: N1_2  and  C2_3 
REMARK       I    between atoms: N1_2  and  C8_10 
REMARK    2  A    between atoms: C2_3  and  C3_4 
REMARK    3  A    between atoms: C8_10  and  C9_12 
REMARK       I    between atoms: N2_16  and  C13_17 
REMARK    4  A    between atoms: C13_17  and  C14_19 
REMARK    5  A    between atoms: C14_19  and  C15_20 
REMARK    6  A    between atoms: C15_20  and  C16_21 
REMARK    7  A    between atoms: C17_26  and  C18_27 
REMARK    8  A    between atoms: C18_27  and  C19_28 
REMARK    9  A    between atoms: C19_28  and  C20_29 
ROOT
HETATM    1  C9  UNL     1      42.952  41.901 -54.558  1.00  0.00     0.179 C 
HETATM    2  C10 UNL     1      41.918  42.861 -54.064  1.00  0.00     0.037 C 
HETATM    3  C11 UNL     1      41.310  42.216 -52.821  1.00  0.00     0.022 C 
HETATM    4  C12 UNL     1      41.609  40.756 -53.022  1.00  0.00     0.127 C 
HETATM    5  N2  UNL     1      42.304  40.603 -54.265  1.00  0.00    -0.339 N 
HETATM    6  C13 UNL     1      42.380  39.443 -55.075  1.00  0.00     0.220 C 
HETATM    7  O3  UNL     1      43.024  39.412 -56.152  1.00  0.00    -0.273 OA
ENDROOT
BRANCH   6   8
HETATM    8  C14 UNL     1      41.677  38.207 -54.650  1.00  0.00     0.110 C 
BRANCH   8   9
HETATM    9  C15 UNL     1      40.326  38.070 -55.366  1.00  0.00     0.087 C 
BRANCH   9  10
HETATM   10  C16 UNL     1      39.227  38.464 -54.470  1.00  0.00     0.099 A 
HETATM   11  N3  UNL     1      38.540  39.612 -54.547  1.00  0.00    -0.287 N 
HETATM   12  N4  UNL     1      37.640  39.610 -53.563  1.00  0.00    -0.287 N 
ATOM     13  H3  UNL     1      38.680  40.353 -55.234  1.00  0.00     0.188 HD
HETATM   14  C17 UNL     1      37.745  38.471 -52.855  1.00  0.00     0.099 A 
ATOM     15  H4  UNL     1      36.974  40.359 -53.375  1.00  0.00     0.188 HD
HETATM   16  N5  UNL     1      38.732  37.778 -53.436  1.00  0.00    -0.329 N 
HETATM   17  C25 UNL     1      39.200  36.480 -53.013  1.00  0.00     0.159 C 
BRANCH  14  18
HETATM   18  C18 UNL     1      36.949  38.037 -51.665  1.00  0.00     0.078 C 
BRANCH  18  19
HETATM   19  C19 UNL     1      37.295  38.954 -50.539  1.00  0.00     0.012 C 
BRANCH  19  20
HETATM   20  C20 UNL     1      38.517  38.540 -49.769  1.00  0.00    -0.014 C 
HETATM   21  C21 UNL     1      39.791  39.020 -50.392  1.00  0.00     0.004 C 
HETATM   22  C22 UNL     1      40.429  39.980 -49.408  1.00  0.00     0.000 C 
HETATM   23  C23 UNL     1      39.244  40.461 -48.620  1.00  0.00     0.000 C 
HETATM   24  C24 UNL     1      38.453  39.190 -48.403  1.00  0.00     0.004 C 
ENDBRANCH  19  20
ENDBRANCH  18  19
ENDBRANCH  14  18
ENDBRANCH   9  10
ENDBRANCH   8   9
ENDBRANCH   6   8
BRANCH   1  25
HETATM   25  C8  UNL     1      44.254  41.955 -53.850  1.00  0.00     0.242 C 
HETATM   26  N1  UNL     1      45.438  41.339 -54.281  1.00  0.00    -0.352 N 
HETATM   27  C1  UNL     1      46.611  41.445 -53.375  1.00  0.00     0.152 C 
HETATM   28  O2  UNL     1      44.320  42.609 -52.734  1.00  0.00    -0.271 OA
BRANCH  26  29
HETATM   29  C2  UNL     1      45.675  40.659 -55.501  1.00  0.00     0.157 C 
BRANCH  29  30
HETATM   30  C3  UNL     1      46.490  41.341 -56.525  1.00  0.00     0.139 C 
HETATM   31  C4  UNL     1      46.737  42.789 -56.436  1.00  0.00     0.034 C 
HETATM   32  C5  UNL     1      45.835  43.613 -57.319  1.00  0.00     0.005 C 
HETATM   33  C6  UNL     1      44.538  42.909 -57.557  1.00  0.00     0.026 C 
HETATM   34  C7  UNL     1      44.771  41.527 -58.055  1.00  0.00     0.168 C 
HETATM   35  O1  UNL     1      46.040  41.029 -57.813  1.00  0.00    -0.384 OA
ENDBRANCH  29  30
ENDBRANCH  26  29
ENDBRANCH   1  25
TORSDOF 9
ENDMDL
MODEL 5
REMARK VINA RESULT: -9.312767002      2.176      3.541
REMARK  9 active torsions:
REMARK  status: ('A' for Active; 'I' for Inactive)
REMARK    1  A    between atoms: N1_2  and  C2_3 
REMARK       I    between atoms: N1_2  and  C8_10 
REMARK    2  A    between atoms: C2_3  and  C3_4 
REMARK    3  A    between atoms: C8_10  and  C9_12 
REMARK       I    between atoms: N2_16  and  C13_17 
REMARK    4  A    between atoms: C13_17  and  C14_19 
REMARK    5  A    between atoms: C14_19  and  C15_20 
REMARK    6  A    between atoms: C15_20  and  C16_21 
REMARK    7  A    between atoms: C17_26  and  C18_27 
REMARK    8  A    between atoms: C18_27  and  C19_28 
REMARK    9  A    between atoms: C19_28  and  C20_29 
ROOT
HETATM    1  C9  UNL     1      42.937  41.428 -54.430  1.00  0.00     0.179 C 
HETATM    2  C10 UNL     1      41.760  42.089 -53.788  1.00  0.00     0.037 C 
HETATM    3  C11 UNL     1      41.426  41.243 -52.561  1.00  0.00     0.022 C 
HETATM    4  C12 UNL     1      42.028  39.908 -52.902  1.00  0.00     0.127 C 
HETATM    5  N2  UNL     1      42.628  40.000 -54.199  1.00  0.00    -0.339 N 
HETATM    6  C13 UNL     1      42.894  38.943 -55.104  1.00  0.00     0.220 C 
HETATM    7  O3  UNL     1      43.431  39.130 -56.223  1.00  0.00    -0.273 OA
ENDROOT
BRANCH   6   8
HETATM    8  C14 UNL     1      42.529  37.553 -54.733  1.00  0.00     0.110 C 
BRANCH   8   9
HETATM    9  C15 UNL     1      41.169  37.164 -55.330  1.00  0.00     0.087 C 
BRANCH   9  10
HETATM   10  C16 UNL     1      40.117  37.241 -54.305  1.00  0.00     0.099 A 
HETATM   11  N3  UNL     1      39.876  36.310 -53.372  1.00  0.00    -0.287 N 
HETATM   12  N4  UNL     1      38.843  36.730 -52.641  1.00  0.00    -0.287 N 
ATOM     13  H3  UNL     1      40.390  35.438 -53.244  1.00  0.00     0.188 HD
HETATM   14  C17 UNL     1      38.418  37.921 -53.097  1.00  0.00     0.099 A 
ATOM     15  H4  UNL     1      38.436  36.224 -51.854  1.00  0.00     0.188 HD
HETATM   16  N5  UNL     1      39.222  38.218 -54.126  1.00  0.00    -0.329 N 
HETATM   17  C25 UNL     1      39.141  39.413 -54.930  1.00  0.00     0.159 C 
BRANCH  14  18
HETATM   18  C18 UNL     1      37.290  38.765 -52.592  1.00  0.00     0.078 C 
BRANCH  18  19
HETATM   19  C19 UNL     1      36.760  38.109 -51.361  1.00  0.00     0.012 C 
BRANCH  19  20
HETATM   20  C20 UNL     1      36.830  38.971 -50.132  1.00  0.00    -0.014 C 
HETATM   21  C21 UNL     1      36.325  38.280 -48.904  1.00  0.00     0.004 C 
HETATM   22  C22 UNL     1      37.499  38.153 -47.955  1.00  0.00     0.000 C 
HETATM   23  C23 UNL     1      38.672  38.189 -48.894  1.00  0.00     0.000 C 
HETATM   24  C24 UNL     1      38.286  39.284 -49.863  1.00  0.00     0.004 C 
ENDBRANCH  19  20
ENDBRANCH  18  19
ENDBRANCH  14  18
ENDBRANCH   9  10
ENDBRANCH   8   9
ENDBRANCH   6   8
BRANCH   1  25
HETATM   25  C8  UNL     1      44.250  41.739 -53.815  1.00  0.00     0.242 C 
HETATM   26  N1  UNL     1      45.497  41.343 -54.319  1.00  0.00    -0.352 N 
HETATM   27  C1  UNL     1      46.686  41.684 -53.497  1.00  0.00     0.152 C 
HETATM   28  O2  UNL     1      44.266  42.420 -52.712  1.00  0.00    -0.271 OA
BRANCH  26  29
HETATM   29  C2  UNL     1      45.776  40.689 -55.544  1.00  0.00     0.157 C 
BRANCH  29  30
HETATM   30  C3  UNL     1      46.447  41.467 -56.604  1.00  0.00     0.139 C 
HETATM   31  C4  UNL     1      46.468  42.938 -56.548  1.00  0.00     0.034 C 
HETATM   32  C5  UNL     1      45.426  43.592 -57.418  1.00  0.00     0.005 C 
HETATM   33  C6  UNL     1      44.248  42.691 -57.605  1.00  0.00     0.026 C 
HETATM   34  C7  UNL     1      44.679  41.350 -58.085  1.00  0.00     0.168 C 
HETATM   35  O1  UNL     1      46.017  41.060 -57.872  1.00  0.00    -0.384 OA
ENDBRANCH  29  30
ENDBRANCH  26  29
ENDBRANCH   1  25
TORSDOF 9
ENDMDL
