MODEL 1
REMARK VINA RESULT: -7.361637498      0.000      0.000
REMARK  6 active torsions:
REMARK  status: ('A' for Active; 'I' for Inactive)
REMARK    1  A    between atoms: O1_2  and  C2_3 
REMARK    2  A    between atoms: C6_7  and  C7_8 
REMARK    3  A    between atoms: C9_12  and  N2_13 
REMARK    4  A    between atoms: N2_13  and  C10_15 
REMARK    5  A    between atoms: C10_15  and  C11_16 
REMARK    6  A    between atoms: C17_26  and  O2_27 
ROOT
HETATM    1  C7  UNL     1      -8.109  -6.516  -1.817  1.00  0.00     0.078 A 
HETATM    2  C8  UNL     1      -7.215  -6.709  -0.784  1.00  0.00     0.138 A 
HETATM    3  N1  UNL     1      -5.911  -6.937  -1.057  1.00  0.00    -0.199 N 
ATOM      4  H1  UNL     1      -5.263  -7.076  -0.282  1.00  0.00     0.183 HD
HETATM    5  C9  UNL     1      -5.434  -6.985  -2.325  1.00  0.00     0.692 A 
HETATM    6  N3  UNL     1      -6.336  -6.792  -3.302  1.00  0.00    -0.132 N 
ATOM      7  H3  UNL     1      -6.017  -6.819  -4.270  1.00  0.00     0.205 HD
HETATM    8  N4  UNL     1      -7.618  -6.567  -3.066  1.00  0.00    -0.284 N 
ATOM      9  H4  UNL     1      -8.251  -6.430  -3.855  1.00  0.00     0.187 HD
ENDROOT
BRANCH   1  10
HETATM   10  C6  UNL     1      -9.537  -6.265  -1.559  1.00  0.00     0.033 A 
HETATM   11  C4  UNL     1     -10.308  -7.121  -0.800  1.00  0.00    -0.044 A 
HETATM   12  C3  UNL     1     -11.658  -6.828  -0.591  1.00  0.00     0.044 A 
HETATM   13  C5  UNL     1      -9.682  -8.338  -0.220  1.00  0.00     0.049 C 
HETATM   14  C2  UNL     1     -12.250  -5.711  -1.118  1.00  0.00     0.071 A 
HETATM   15  C19 UNL     1     -11.469  -4.864  -1.875  1.00  0.00     0.074 A 
HETATM   16  C17 UNL     1     -10.135  -5.127  -2.097  1.00  0.00     0.084 A 
BRANCH  14  17
HETATM   17  O1  UNL     1     -13.584  -5.370  -0.945  1.00  0.00    -0.356 OA
HETATM   18  C1  UNL     1     -14.105  -4.343  -1.780  1.00  0.00     0.210 C 
ENDBRANCH  14  17
BRANCH  16  19
HETATM   19  O2  UNL     1      -9.392  -4.243  -2.867  1.00  0.00    -0.355 OA
HETATM   20  C18 UNL     1     -10.018  -3.316  -3.710  1.00  0.00     0.210 C 
ENDBRANCH  16  19
ENDBRANCH   1  10
BRANCH   5  21
HETATM   21  N2  UNL     1      -4.187  -7.203  -2.562  1.00  0.00    -0.224 N 
ATOM     22  H2  UNL     1      -3.694  -6.585  -3.206  1.00  0.00     0.177 HD
BRANCH  21  23
HETATM   23  C10 UNL     1      -3.461  -8.294  -1.948  1.00  0.00     0.142 C 
BRANCH  23  24
HETATM   24  C11 UNL     1      -2.904  -9.244  -2.988  1.00  0.00     0.004 C 
HETATM   25  C12 UNL     1      -1.416  -9.081  -3.153  1.00  0.00     0.006 C 
HETATM   26  C13 UNL     1      -1.174  -8.001  -4.188  1.00  0.00     0.000 C 
HETATM   27  C14 UNL     1      -1.533  -8.592  -5.552  1.00  0.00     0.000 C 
HETATM   28  C15 UNL     1      -2.752  -9.464  -5.433  1.00  0.00     0.000 C 
HETATM   29  C16 UNL     1      -3.641  -9.038  -4.270  1.00  0.00     0.006 C 
ENDBRANCH  23  24
ENDBRANCH  21  23
ENDBRANCH   5  21
TORSDOF 6
ENDMDL
MODEL 2
REMARK VINA RESULT: -7.173078098      2.909      3.761
REMARK  6 active torsions:
REMARK  status: ('A' for Active; 'I' for Inactive)
REMARK    1  A    between atoms: O1_2  and  C2_3 
REMARK    2  A    between atoms: C6_7  and  C7_8 
REMARK    3  A    between atoms: C9_12  and  N2_13 
REMARK    4  A    between atoms: N2_13  and  C10_15 
REMARK    5  A    between atoms: C10_15  and  C11_16 
REMARK    6  A    between atoms: C17_26  and  O2_27 
ROOT
HETATM    1  C7  UNL     1      -8.171  -7.126   0.547  1.00  0.00     0.078 A 
HETATM    2  C8  UNL     1      -6.980  -7.821   0.535  1.00  0.00     0.138 A 
HETATM    3  N1  UNL     1      -6.138  -7.695  -0.515  1.00  0.00    -0.199 N 
ATOM      4  H1  UNL     1      -5.260  -8.215  -0.508  1.00  0.00     0.183 HD
HETATM    5  C9  UNL     1      -6.419  -6.901  -1.577  1.00  0.00     0.692 A 
HETATM    6  N3  UNL     1      -7.588  -6.241  -1.527  1.00  0.00    -0.132 N 
ATOM      7  H3  UNL     1      -7.836  -5.631  -2.306  1.00  0.00     0.205 HD
HETATM    8  N4  UNL     1      -8.432  -6.344  -0.514  1.00  0.00    -0.284 N 
ATOM      9  H4  UNL     1      -9.305  -5.817  -0.539  1.00  0.00     0.187 HD
ENDROOT
BRANCH   1  10
HETATM   10  C6  UNL     1      -9.113  -7.238   1.673  1.00  0.00     0.033 A 
HETATM   11  C4  UNL     1      -8.749  -6.936   2.969  1.00  0.00    -0.044 A 
HETATM   12  C3  UNL     1      -9.689  -7.062   3.994  1.00  0.00     0.044 A 
HETATM   13  C5  UNL     1      -7.361  -6.481   3.244  1.00  0.00     0.049 C 
HETATM   14  C2  UNL     1     -10.972  -7.479   3.759  1.00  0.00     0.071 A 
HETATM   15  C19 UNL     1     -11.324  -7.778   2.460  1.00  0.00     0.074 A 
HETATM   16  C17 UNL     1     -10.418  -7.662   1.428  1.00  0.00     0.084 A 
BRANCH  14  17
HETATM   17  O1  UNL     1     -11.946  -7.623   4.736  1.00  0.00    -0.356 OA
HETATM   18  C1  UNL     1     -11.765  -6.897   5.946  1.00  0.00     0.210 C 
ENDBRANCH  14  17
BRANCH  16  19
HETATM   19  O2  UNL     1     -10.821  -7.976   0.138  1.00  0.00    -0.355 OA
HETATM   20  C18 UNL     1     -11.869  -7.282  -0.480  1.00  0.00     0.210 C 
ENDBRANCH  16  19
ENDBRANCH   1  10
BRANCH   5  21
HETATM   21  N2  UNL     1      -5.602  -6.795  -2.567  1.00  0.00    -0.224 N 
ATOM     22  H2  UNL     1      -5.917  -6.325  -3.416  1.00  0.00     0.177 HD
BRANCH  21  23
HETATM   23  C10 UNL     1      -4.254  -7.320  -2.519  1.00  0.00     0.142 C 
BRANCH  23  24
HETATM   24  C11 UNL     1      -4.151  -8.650  -3.237  1.00  0.00     0.004 C 
HETATM   25  C12 UNL     1      -2.726  -9.126  -3.328  1.00  0.00     0.006 C 
HETATM   26  C13 UNL     1      -2.114  -8.540  -4.584  1.00  0.00     0.000 C 
HETATM   27  C14 UNL     1      -2.722  -9.283  -5.773  1.00  0.00     0.000 C 
HETATM   28  C15 UNL     1      -4.181  -9.549  -5.526  1.00  0.00     0.000 C 
HETATM   29  C16 UNL     1      -4.791  -8.521  -4.580  1.00  0.00     0.006 C 
ENDBRANCH  23  24
ENDBRANCH  21  23
ENDBRANCH   5  21
TORSDOF 6
ENDMDL
MODEL 3
REMARK VINA RESULT: -6.920446921      3.030      3.945
REMARK  6 active torsions:
REMARK  status: ('A' for Active; 'I' for Inactive)
REMARK    1  A    between atoms: O1_2  and  C2_3 
REMARK    2  A    between atoms: C6_7  and  C7_8 
REMARK    3  A    between atoms: C9_12  and  N2_13 
REMARK    4  A    between atoms: N2_13  and  C10_15 
REMARK    5  A    between atoms: C10_15  and  C11_16 
REMARK    6  A    between atoms: C17_26  and  O2_27 
ROOT
HETATM    1  C7  UNL     1      -8.335  -7.169   0.360  1.00  0.00     0.078 A 
HETATM    2  C8  UNL     1      -8.578  -6.356  -0.727  1.00  0.00     0.138 A 
HETATM    3  N1  UNL     1      -7.648  -6.239  -1.702  1.00  0.00    -0.199 N 
ATOM      4  H1  UNL     1      -7.845  -5.635  -2.499  1.00  0.00     0.183 HD
HETATM    5  C9  UNL     1      -6.465  -6.898  -1.656  1.00  0.00     0.692 A 
HETATM    6  N3  UNL     1      -6.266  -7.680  -0.581  1.00  0.00    -0.132 N 
ATOM      7  H3  UNL     1      -5.389  -8.194  -0.509  1.00  0.00     0.205 HD
HETATM    8  N4  UNL     1      -7.157  -7.814   0.388  1.00  0.00    -0.284 N 
ATOM      9  H4  UNL     1      -6.943  -8.423   1.178  1.00  0.00     0.187 HD
ENDROOT
BRANCH   1  10
HETATM   10  C6  UNL     1      -9.323  -7.321   1.441  1.00  0.00     0.033 A 
HETATM   11  C4  UNL     1     -10.642  -7.637   1.191  1.00  0.00    -0.044 A 
HETATM   12  C3  UNL     1     -11.532  -7.768   2.260  1.00  0.00     0.044 A 
HETATM   13  C5  UNL     1     -11.087  -7.832  -0.213  1.00  0.00     0.049 C 
HETATM   14  C2  UNL     1     -11.139  -7.593   3.560  1.00  0.00     0.071 A 
HETATM   15  C19 UNL     1      -9.818  -7.277   3.797  1.00  0.00     0.074 A 
HETATM   16  C17 UNL     1      -8.917  -7.142   2.763  1.00  0.00     0.084 A 
BRANCH  14  17
HETATM   17  O1  UNL     1     -11.977  -7.709   4.660  1.00  0.00    -0.356 OA
HETATM   18  C1  UNL     1     -11.699  -6.876   5.780  1.00  0.00     0.210 C 
ENDBRANCH  14  17
BRANCH  16  19
HETATM   19  O2  UNL     1      -7.599  -6.823   3.053  1.00  0.00    -0.355 OA
HETATM   20  C18 UNL     1      -7.244  -5.537   3.481  1.00  0.00     0.210 C 
ENDBRANCH  16  19
ENDBRANCH   1  10
BRANCH   5  21
HETATM   21  N2  UNL     1      -5.593  -6.773  -2.596  1.00  0.00    -0.224 N 
ATOM     22  H2  UNL     1      -5.855  -6.274  -3.446  1.00  0.00     0.177 HD
BRANCH  21  23
HETATM   23  C10 UNL     1      -4.256  -7.314  -2.488  1.00  0.00     0.142 C 
BRANCH  23  24
HETATM   24  C11 UNL     1      -4.137  -8.644  -3.204  1.00  0.00     0.004 C 
HETATM   25  C12 UNL     1      -2.708  -9.111  -3.281  1.00  0.00     0.006 C 
HETATM   26  C13 UNL     1      -2.088  -8.522  -4.532  1.00  0.00     0.000 C 
HETATM   27  C14 UNL     1      -2.679  -9.269  -5.726  1.00  0.00     0.000 C 
HETATM   28  C15 UNL     1      -4.139  -9.545  -5.493  1.00  0.00     0.000 C 
HETATM   29  C16 UNL     1      -4.765  -8.520  -4.553  1.00  0.00     0.006 C 
ENDBRANCH  23  24
ENDBRANCH  21  23
ENDBRANCH   5  21
TORSDOF 6
ENDMDL
MODEL 4
REMARK VINA RESULT: -6.857295799      3.501      4.588
REMARK  6 active torsions:
REMARK  status: ('A' for Active; 'I' for Inactive)
REMARK    1  A    between atoms: O1_2  and  C2_3 
REMARK    2  A    between atoms: C6_7  and  C7_8 
REMARK    3  A    between atoms: C9_12  and  N2_13 
REMARK    4  A    between atoms: N2_13  and  C10_15 
REMARK    5  A    between atoms: C10_15  and  C11_16 
REMARK    6  A    between atoms: C17_26  and  O2_27 
ROOT
HETATM    1  C7  UNL     1      -7.762  -7.254   1.092  1.00  0.00     0.078 A 
HETATM    2  C8  UNL     1      -6.524  -7.852   0.967  1.00  0.00     0.138 A 
HETATM    3  N1  UNL     1      -5.859  -7.782  -0.208  1.00  0.00    -0.199 N 
ATOM      4  H1  UNL     1      -4.945  -8.228  -0.284  1.00  0.00     0.183 HD
HETATM    5  C9  UNL     1      -6.365  -7.140  -1.289  1.00  0.00     0.692 A 
HETATM    6  N3  UNL     1      -7.572  -6.571  -1.127  1.00  0.00    -0.132 N 
ATOM      7  H3  UNL     1      -7.987  -6.077  -1.916  1.00  0.00     0.205 HD
HETATM    8  N4  UNL     1      -8.246  -6.623   0.010  1.00  0.00    -0.284 N 
ATOM      9  H4  UNL     1      -9.159  -6.171   0.067  1.00  0.00     0.187 HD
ENDROOT
BRANCH   1  10
HETATM   10  C6  UNL     1      -8.516  -7.308   2.356  1.00  0.00     0.033 A 
HETATM   11  C4  UNL     1      -8.256  -6.450   3.403  1.00  0.00    -0.044 A 
HETATM   12  C3  UNL     1      -9.007  -6.551   4.577  1.00  0.00     0.044 A 
HETATM   13  C5  UNL     1      -7.181  -5.433   3.259  1.00  0.00     0.049 C 
HETATM   14  C2  UNL     1     -10.000  -7.481   4.728  1.00  0.00     0.071 A 
HETATM   15  C19 UNL     1     -10.250  -8.334   3.674  1.00  0.00     0.074 A 
HETATM   16  C17 UNL     1      -9.527  -8.257   2.504  1.00  0.00     0.084 A 
BRANCH  14  17
HETATM   17  O1  UNL     1     -10.776  -7.628   5.869  1.00  0.00    -0.356 OA
HETATM   18  C1  UNL     1     -11.282  -6.440   6.468  1.00  0.00     0.210 C 
ENDBRANCH  14  17
BRANCH  16  19
HETATM   19  O2  UNL     1      -9.815  -9.138   1.472  1.00  0.00    -0.355 OA
HETATM   20  C18 UNL     1      -9.299 -10.440   1.468  1.00  0.00     0.210 C 
ENDBRANCH  16  19
ENDBRANCH   1  10
BRANCH   5  21
HETATM   21  N2  UNL     1      -5.714  -7.086  -2.399  1.00  0.00    -0.224 N 
ATOM     22  H2  UNL     1      -6.201  -6.775  -3.240  1.00  0.00     0.177 HD
BRANCH  21  23
HETATM   23  C10 UNL     1      -4.318  -7.451  -2.497  1.00  0.00     0.142 C 
BRANCH  23  24
HETATM   24  C11 UNL     1      -4.134  -8.742  -3.268  1.00  0.00     0.004 C 
HETATM   25  C12 UNL     1      -2.690  -9.164  -3.316  1.00  0.00     0.006 C 
HETATM   26  C13 UNL     1      -2.046  -8.499  -4.516  1.00  0.00     0.000 C 
HETATM   27  C14 UNL     1      -2.574  -9.207  -5.763  1.00  0.00     0.000 C 
HETATM   28  C15 UNL     1      -4.032  -9.535  -5.594  1.00  0.00     0.000 C 
HETATM   29  C16 UNL     1      -4.720  -8.574  -4.631  1.00  0.00     0.006 C 
ENDBRANCH  23  24
ENDBRANCH  21  23
ENDBRANCH   5  21
TORSDOF 6
ENDMDL
MODEL 5
REMARK VINA RESULT: -6.847193133      5.179     10.083
REMARK  6 active torsions:
REMARK  status: ('A' for Active; 'I' for Inactive)
REMARK    1  A    between atoms: O1_2  and  C2_3 
REMARK    2  A    between atoms: C6_7  and  C7_8 
REMARK    3  A    between atoms: C9_12  and  N2_13 
REMARK    4  A    between atoms: N2_13  and  C10_15 
REMARK    5  A    between atoms: C10_15  and  C11_16 
REMARK    6  A    between atoms: C17_26  and  O2_27 
ROOT
HETATM    1  C7  UNL     1      -9.903  -8.046   1.062  1.00  0.00     0.078 A 
HETATM    2  C8  UNL     1     -10.720  -7.101   1.647  1.00  0.00     0.138 A 
HETATM    3  N1  UNL     1     -11.711  -7.491   2.480  1.00  0.00    -0.199 N 
ATOM      4  H1  UNL     1     -12.305  -6.779   2.906  1.00  0.00     0.183 HD
HETATM    5  C9  UNL     1     -11.943  -8.794   2.769  1.00  0.00     0.692 A 
HETATM    6  N3  UNL     1     -11.125  -9.684   2.179  1.00  0.00    -0.132 N 
ATOM      7  H3  UNL     1     -11.265 -10.675   2.372  1.00  0.00     0.205 HD
HETATM    8  N4  UNL     1     -10.148  -9.333   1.360  1.00  0.00    -0.284 N 
ATOM      9  H4  UNL     1      -9.564 -10.059   0.944  1.00  0.00     0.187 HD
ENDROOT
BRANCH   1  10
HETATM   10  C6  UNL     1      -8.813  -7.660   0.150  1.00  0.00     0.033 A 
HETATM   11  C4  UNL     1      -9.053  -7.204  -1.130  1.00  0.00    -0.044 A 
HETATM   12  C3  UNL     1      -7.976  -6.853  -1.948  1.00  0.00     0.044 A 
HETATM   13  C5  UNL     1     -10.455  -7.097  -1.611  1.00  0.00     0.049 C 
HETATM   14  C2  UNL     1      -6.678  -6.945  -1.521  1.00  0.00     0.071 A 
HETATM   15  C19 UNL     1      -6.451  -7.401  -0.240  1.00  0.00     0.074 A 
HETATM   16  C17 UNL     1      -7.494  -7.755   0.589  1.00  0.00     0.084 A 
BRANCH  14  17
HETATM   17  O1  UNL     1      -5.571  -6.611  -2.288  1.00  0.00    -0.356 OA
HETATM   18  C1  UNL     1      -4.549  -7.594  -2.415  1.00  0.00     0.210 C 
ENDBRANCH  14  17
BRANCH  16  19
HETATM   19  O2  UNL     1      -7.214  -8.209   1.869  1.00  0.00    -0.355 OA
HETATM   20  C18 UNL     1      -6.094  -9.012   2.122  1.00  0.00     0.210 C 
ENDBRANCH  16  19
ENDBRANCH   1  10
BRANCH   5  21
HETATM   21  N2  UNL     1     -12.892  -9.144   3.566  1.00  0.00    -0.224 N 
ATOM     22  H2  UNL     1     -13.140  -8.525   4.337  1.00  0.00     0.177 HD
BRANCH  21  23
HETATM   23  C10 UNL     1     -13.620 -10.384   3.406  1.00  0.00     0.142 C 
BRANCH  23  24
HETATM   24  C11 UNL     1     -14.714 -10.523   4.443  1.00  0.00     0.004 C 
HETATM   25  C12 UNL     1     -16.075 -10.638   3.809  1.00  0.00     0.006 C 
HETATM   26  C13 UNL     1     -16.617  -9.238   3.603  1.00  0.00     0.000 C 
HETATM   27  C14 UNL     1     -17.007  -8.697   4.978  1.00  0.00     0.000 C 
HETATM   28  C15 UNL     1     -15.998  -9.126   6.008  1.00  0.00     0.000 C 
HETATM   29  C16 UNL     1     -14.627  -9.371   5.389  1.00  0.00     0.006 C 
ENDBRANCH  23  24
ENDBRANCH  21  23
ENDBRANCH   5  21
TORSDOF 6
ENDMDL
