MODEL 1
REMARK VINA RESULT: -9.062528562      0.000      0.000
REMARK  4 active torsions:
REMARK  status: ('A' for Active; 'I' for Inactive)
REMARK    1  A    between atoms: C2_2  and  O2_4 
REMARK    2  A    between atoms: O2_4  and  C3_5 
REMARK    3  A    between atoms: C13_16  and  C14_17 
REMARK    4  A    between atoms: C14_17  and  O4_18 
ROOT
HETATM    1  C3  UNL     1      60.766 -29.699  34.418  1.00  0.00     0.276 C 
HETATM    2  O3  UNL     1      59.677 -30.151  33.686  1.00  0.00    -0.349 OA
HETATM    3  C4  UNL     1      59.185 -29.138  32.826  1.00  0.00     0.064 C 
HETATM    4  C5  UNL     1      57.783 -29.526  32.483  1.00  0.00     0.038 C 
HETATM    5  C6  UNL     1      57.063 -28.591  31.592  1.00  0.00     0.003 C 
HETATM    6  C7  UNL     1      57.085 -29.066  30.139  1.00  0.00     0.000 C 
HETATM    7  C8  UNL     1      58.465 -29.566  29.834  1.00  0.00     0.000 C 
HETATM    8  C9  UNL     1      59.454 -28.575  30.391  1.00  0.00     0.003 C 
HETATM    9  C10 UNL     1      60.101 -29.107  31.643  1.00  0.00     0.038 C 
HETATM   10  C11 UNL     1      59.227 -27.857  33.631  1.00  0.00     0.039 C 
HETATM   11  C12 UNL     1      59.002 -28.172  35.107  1.00  0.00     0.014 C 
HETATM   12  C13 UNL     1      60.185 -28.961  35.628  1.00  0.00     0.065 C 
ENDROOT
BRANCH   1  13
HETATM   13  O2  UNL     1      61.631 -30.727  34.809  1.00  0.00    -0.289 OA
BRANCH  13  14
HETATM   14  C2  UNL     1      62.951 -30.691  34.357  1.00  0.00     0.257 C 
HETATM   15  C1  UNL     1      63.327 -30.229  33.006  1.00  0.00     0.126 C 
HETATM   16  O1  UNL     1      63.874 -31.066  35.124  1.00  0.00    -0.266 OA
ENDBRANCH  13  14
ENDBRANCH   1  13
BRANCH  12  17
HETATM   17  C14 UNL     1      59.753 -29.941  36.696  1.00  0.00     0.173 C 
BRANCH  17  18
HETATM   18  O4  UNL     1      58.627 -30.601  36.207  1.00  0.00    -0.400 OA
ATOM     19  H4  UNL     1      58.877 -31.507  36.069  1.00  0.00     0.209 HD
ENDBRANCH  17  18
ENDBRANCH  12  17
TORSDOF 4
ENDMDL
MODEL 2
REMARK VINA RESULT: -8.957294402      2.457      5.785
REMARK  4 active torsions:
REMARK  status: ('A' for Active; 'I' for Inactive)
REMARK    1  A    between atoms: C2_2  and  O2_4 
REMARK    2  A    between atoms: O2_4  and  C3_5 
REMARK    3  A    between atoms: C13_16  and  C14_17 
REMARK    4  A    between atoms: C14_17  and  O4_18 
ROOT
HETATM    1  C3  UNL     1      57.032 -29.628  32.220  1.00  0.00     0.276 C 
HETATM    2  O3  UNL     1      58.343 -30.084  32.250  1.00  0.00    -0.349 OA
HETATM    3  C4  UNL     1      59.084 -29.436  33.269  1.00  0.00     0.064 C 
HETATM    4  C5  UNL     1      60.525 -29.601  32.908  1.00  0.00     0.038 C 
HETATM    5  C6  UNL     1      61.491 -28.983  33.841  1.00  0.00     0.003 C 
HETATM    6  C7  UNL     1      62.070 -30.009  34.815  1.00  0.00     0.000 C 
HETATM    7  C8  UNL     1      60.951 -30.889  35.283  1.00  0.00     0.000 C 
HETATM    8  C9  UNL     1      59.774 -30.009  35.617  1.00  0.00     0.003 C 
HETATM    9  C10 UNL     1      58.711 -30.107  34.554  1.00  0.00     0.038 C 
HETATM   10  C11 UNL     1      58.663 -27.982  33.225  1.00  0.00     0.039 C 
HETATM   11  C12 UNL     1      58.300 -27.597  31.794  1.00  0.00     0.014 C 
HETATM   12  C13 UNL     1      57.048 -28.345  31.385  1.00  0.00     0.065 C 
ENDROOT
BRANCH   1  13
HETATM   13  O2  UNL     1      56.135 -30.570  31.701  1.00  0.00    -0.289 OA
BRANCH  13  14
HETATM   14  C2  UNL     1      55.039 -30.941  32.481  1.00  0.00     0.257 C 
HETATM   15  C1  UNL     1      54.283 -32.191  32.265  1.00  0.00     0.126 C 
HETATM   16  O1  UNL     1      54.666 -30.187  33.416  1.00  0.00    -0.266 OA
ENDBRANCH  13  14
ENDBRANCH   1  13
BRANCH  12  17
HETATM   17  C14 UNL     1      57.070 -28.668  29.907  1.00  0.00     0.173 C 
BRANCH  17  18
HETATM   18  O4  UNL     1      58.271 -29.331  29.656  1.00  0.00    -0.400 OA
ATOM     19  H4  UNL     1      58.825 -29.194  30.416  1.00  0.00     0.209 HD
ENDBRANCH  17  18
ENDBRANCH  12  17
TORSDOF 4
ENDMDL
MODEL 3
REMARK VINA RESULT: -8.879252329      2.365      5.441
REMARK  4 active torsions:
REMARK  status: ('A' for Active; 'I' for Inactive)
REMARK    1  A    between atoms: C2_2  and  O2_4 
REMARK    2  A    between atoms: O2_4  and  C3_5 
REMARK    3  A    between atoms: C13_16  and  C14_17 
REMARK    4  A    between atoms: C14_17  and  O4_18 
ROOT
HETATM    1  C3  UNL     1      57.316 -28.676  32.937  1.00  0.00     0.276 C 
HETATM    2  O3  UNL     1      58.399 -29.543  32.901  1.00  0.00    -0.349 OA
HETATM    3  C4  UNL     1      59.309 -29.264  33.951  1.00  0.00     0.064 C 
HETATM    4  C5  UNL     1      60.614 -29.870  33.545  1.00  0.00     0.038 C 
HETATM    5  C6  UNL     1      61.727 -29.687  34.501  1.00  0.00     0.003 C 
HETATM    6  C7  UNL     1      61.925 -30.923  35.379  1.00  0.00     0.000 C 
HETATM    7  C8  UNL     1      60.574 -31.415  35.802  1.00  0.00     0.000 C 
HETATM    8  C9  UNL     1      59.757 -30.223  36.231  1.00  0.00     0.003 C 
HETATM    9  C10 UNL     1      58.728 -29.874  35.187  1.00  0.00     0.038 C 
HETATM   10  C11 UNL     1      59.398 -27.755  34.030  1.00  0.00     0.039 C 
HETATM   11  C12 UNL     1      59.192 -27.156  32.642  1.00  0.00     0.014 C 
HETATM   12  C13 UNL     1      57.764 -27.407  32.204  1.00  0.00     0.065 C 
ENDROOT
BRANCH   1  13
HETATM   13  O2  UNL     1      56.158 -29.218  32.366  1.00  0.00    -0.289 OA
BRANCH  13  14
HETATM   14  C2  UNL     1      56.148 -30.578  32.054  1.00  0.00     0.257 C 
HETATM   15  C1  UNL     1      56.284 -31.091  30.676  1.00  0.00     0.126 C 
HETATM   16  O1  UNL     1      56.018 -31.420  32.980  1.00  0.00    -0.266 OA
ENDBRANCH  13  14
ENDBRANCH   1  13
BRANCH  12  17
HETATM   17  C14 UNL     1      57.684 -27.598  30.705  1.00  0.00     0.173 C 
BRANCH  17  18
HETATM   18  O4  UNL     1      58.660 -28.533  30.365  1.00  0.00    -0.400 OA
ATOM     19  H4  UNL     1      58.541 -29.279  30.941  1.00  0.00     0.209 HD
ENDBRANCH  17  18
ENDBRANCH  12  17
TORSDOF 4
ENDMDL
MODEL 4
REMARK VINA RESULT: -7.839199539      2.070      5.756
REMARK  4 active torsions:
REMARK  status: ('A' for Active; 'I' for Inactive)
REMARK    1  A    between atoms: C2_2  and  O2_4 
REMARK    2  A    between atoms: O2_4  and  C3_5 
REMARK    3  A    between atoms: C13_16  and  C14_17 
REMARK    4  A    between atoms: C14_17  and  O4_18 
ROOT
HETATM    1  C3  UNL     1      58.333 -29.437  32.487  1.00  0.00     0.276 C 
HETATM    2  O3  UNL     1      59.263 -30.327  33.006  1.00  0.00    -0.349 OA
HETATM    3  C4  UNL     1      59.914 -29.780  34.140  1.00  0.00     0.064 C 
HETATM    4  C5  UNL     1      61.183 -30.551  34.306  1.00  0.00     0.038 C 
HETATM    5  C6  UNL     1      62.039 -30.136  35.439  1.00  0.00     0.003 C 
HETATM    6  C7  UNL     1      61.843 -31.040  36.655  1.00  0.00     0.000 C 
HETATM    7  C8  UNL     1      60.375 -31.301  36.810  1.00  0.00     0.000 C 
HETATM    8  C9  UNL     1      59.648 -29.993  36.631  1.00  0.00     0.003 C 
HETATM    9  C10 UNL     1      58.966 -29.937  35.288  1.00  0.00     0.038 C 
HETATM   10  C11 UNL     1      60.185 -28.330  33.800  1.00  0.00     0.039 C 
HETATM   11  C12 UNL     1      60.413 -28.189  32.298  1.00  0.00     0.014 C 
HETATM   12  C13 UNL     1      59.117 -28.490  31.574  1.00  0.00     0.065 C 
ENDROOT
BRANCH   1  13
HETATM   13  O2  UNL     1      57.290 -30.069  31.800  1.00  0.00    -0.289 OA
BRANCH  13  14
HETATM   14  C2  UNL     1      56.006 -30.007  32.341  1.00  0.00     0.257 C 
HETATM   15  C1  UNL     1      54.797 -30.407  31.596  1.00  0.00     0.126 C 
HETATM   16  O1  UNL     1      55.855 -29.593  33.520  1.00  0.00    -0.266 OA
ENDBRANCH  13  14
ENDBRANCH   1  13
BRANCH  12  17
HETATM   17  C14 UNL     1      59.386 -29.139  30.234  1.00  0.00     0.173 C 
BRANCH  17  18
HETATM   18  O4  UNL     1      58.249 -28.941  29.453  1.00  0.00    -0.400 OA
ATOM     19  H4  UNL     1      57.632 -29.626  29.684  1.00  0.00     0.209 HD
ENDBRANCH  17  18
ENDBRANCH  12  17
TORSDOF 4
ENDMDL
MODEL 5
REMARK VINA RESULT: -7.594688906      1.882      5.823
REMARK  4 active torsions:
REMARK  status: ('A' for Active; 'I' for Inactive)
REMARK    1  A    between atoms: C2_2  and  O2_4 
REMARK    2  A    between atoms: O2_4  and  C3_5 
REMARK    3  A    between atoms: C13_16  and  C14_17 
REMARK    4  A    between atoms: C14_17  and  O4_18 
ROOT
HETATM    1  C3  UNL     1      58.863 -29.551  33.240  1.00  0.00     0.276 C 
HETATM    2  O3  UNL     1      59.565 -30.563  33.879  1.00  0.00    -0.349 OA
HETATM    3  C4  UNL     1      60.278 -30.062  34.996  1.00  0.00     0.064 C 
HETATM    4  C5  UNL     1      61.349 -31.062  35.291  1.00  0.00     0.038 C 
HETATM    5  C6  UNL     1      62.235 -30.731  36.428  1.00  0.00     0.003 C 
HETATM    6  C7  UNL     1      61.811 -31.459  37.703  1.00  0.00     0.000 C 
HETATM    7  C8  UNL     1      60.317 -31.393  37.803  1.00  0.00     0.000 C 
HETATM    8  C9  UNL     1      59.890 -29.985  37.478  1.00  0.00     0.003 C 
HETATM    9  C10 UNL     1      59.281 -29.912  36.102  1.00  0.00     0.038 C 
HETATM   10  C11 UNL     1      60.862 -28.738  34.552  1.00  0.00     0.039 C 
HETATM   11  C12 UNL     1      61.165 -28.786  33.057  1.00  0.00     0.014 C 
HETATM   12  C13 UNL     1      59.860 -28.876  32.293  1.00  0.00     0.065 C 
ENDROOT
BRANCH   1  13
HETATM   13  O2  UNL     1      57.733 -30.013  32.554  1.00  0.00    -0.289 OA
BRANCH  13  14
HETATM   14  C2  UNL     1      56.847 -29.073  32.027  1.00  0.00     0.257 C 
HETATM   15  C1  UNL     1      55.954 -29.358  30.886  1.00  0.00     0.126 C 
HETATM   16  O1  UNL     1      56.794 -27.925  32.538  1.00  0.00    -0.266 OA
ENDBRANCH  13  14
ENDBRANCH   1  13
BRANCH  12  17
HETATM   17  C14 UNL     1      60.030 -29.688  31.028  1.00  0.00     0.173 C 
BRANCH  17  18
HETATM   18  O4  UNL     1      59.445 -28.955  29.996  1.00  0.00    -0.400 OA
ATOM     19  H4  UNL     1      58.809 -29.525  29.579  1.00  0.00     0.209 HD
ENDBRANCH  17  18
ENDBRANCH  12  17
TORSDOF 4
ENDMDL
