MODEL 1
REMARK VINA RESULT: -9.265431768      0.000      0.000
REMARK  2 active torsions:
REMARK  status: ('A' for Active; 'I' for Inactive)
REMARK    1  A    between atoms: C3_3  and  C4_4 
REMARK    2  A    between atoms: N2_6  and  O1_8 
ROOT
HETATM    1  C1  UNL     1      59.586 -28.308  29.673  1.00  0.00     0.013 C 
HETATM    2  C2  UNL     1      59.496 -28.351  30.879  1.00  0.00    -0.100 C 
HETATM    3  C3  UNL     1      59.376 -28.428  32.373  1.00  0.00     0.080 C 
HETATM    4  C5  UNL     1      58.716 -29.691  32.685  1.00  0.00     0.030 C 
HETATM    5  C6  UNL     1      58.003 -29.946  33.925  1.00  0.00     0.002 C 
HETATM    6  C7  UNL     1      58.656 -29.707  35.232  1.00  0.00     0.000 C 
HETATM    7  C8  UNL     1      59.643 -30.828  35.604  1.00  0.00     0.000 C 
HETATM    8  C9  UNL     1      60.678 -30.225  36.484  1.00  0.00     0.000 C 
HETATM    9  C10 UNL     1      62.032 -30.817  36.446  1.00  0.00     0.000 C 
HETATM   10  C11 UNL     1      62.570 -31.211  35.118  1.00  0.00     0.000 C 
HETATM   11  C12 UNL     1      62.925 -30.017  34.221  1.00  0.00     0.000 C 
HETATM   12  C13 UNL     1      62.403 -30.225  32.844  1.00  0.00     0.000 C 
HETATM   13  C14 UNL     1      61.843 -29.023  32.153  1.00  0.00     0.002 C 
HETATM   14  C15 UNL     1      60.798 -28.258  32.863  1.00  0.00     0.030 C 
ENDROOT
BRANCH   3  15
HETATM   15  C4  UNL     1      58.644 -27.201  32.729  1.00  0.00     0.133 C 
HETATM   16  N1  UNL     1      57.563 -26.839  31.875  1.00  0.00    -0.084 NA
HETATM   17  N2  UNL     1      58.876 -26.433  33.716  1.00  0.00    -0.258 N 
ATOM     18  H2  UNL     1      59.648 -26.676  34.338  1.00  0.00     0.195 HD
BRANCH  17  19
HETATM   19  O1  UNL     1      58.160 -25.302  33.997  1.00  0.00    -0.289 OA
ATOM     20  H1  UNL     1      58.122 -24.893  34.853  1.00  0.00     0.244 HD
ENDBRANCH  17  19
ENDBRANCH   3  15
TORSDOF 2
ENDMDL
MODEL 2
REMARK VINA RESULT: -6.917557887      2.015      3.567
REMARK  2 active torsions:
REMARK  status: ('A' for Active; 'I' for Inactive)
REMARK    1  A    between atoms: C3_3  and  C4_4 
REMARK    2  A    between atoms: N2_6  and  O1_8 
ROOT
HETATM    1  C1  UNL     1      57.603 -26.235  32.835  1.00  0.00     0.013 C 
HETATM    2  C2  UNL     1      58.396 -27.141  32.715  1.00  0.00    -0.100 C 
HETATM    3  C3  UNL     1      59.398 -28.250  32.576  1.00  0.00     0.080 C 
HETATM    4  C5  UNL     1      60.700 -27.697  32.928  1.00  0.00     0.030 C 
HETATM    5  C6  UNL     1      61.965 -28.266  32.495  1.00  0.00     0.002 C 
HETATM    6  C7  UNL     1      62.264 -29.699  32.719  1.00  0.00     0.000 C 
HETATM    7  C8  UNL     1      62.667 -29.989  34.175  1.00  0.00     0.000 C 
HETATM    8  C9  UNL     1      62.289 -31.398  34.461  1.00  0.00     0.000 C 
HETATM    9  C10 UNL     1      61.934 -31.737  35.855  1.00  0.00     0.000 C 
HETATM   10  C11 UNL     1      61.107 -30.760  36.608  1.00  0.00     0.000 C 
HETATM   11  C12 UNL     1      59.654 -30.681  36.120  1.00  0.00     0.000 C 
HETATM   12  C13 UNL     1      59.227 -29.263  35.975  1.00  0.00     0.000 C 
HETATM   13  C14 UNL     1      58.364 -28.942  34.798  1.00  0.00     0.002 C 
HETATM   14  C15 UNL     1      58.854 -29.347  33.465  1.00  0.00     0.030 C 
ENDROOT
BRANCH   3  15
HETATM   15  C4  UNL     1      59.233 -28.698  31.183  1.00  0.00     0.133 C 
HETATM   16  N1  UNL     1      58.570 -29.944  30.993  1.00  0.00    -0.084 NA
HETATM   17  N2  UNL     1      59.621 -28.090  30.134  1.00  0.00    -0.258 N 
ATOM     18  H2  UNL     1      60.099 -27.196  30.250  1.00  0.00     0.195 HD
BRANCH  17  19
HETATM   19  O1  UNL     1      59.439 -28.558  28.862  1.00  0.00    -0.289 OA
ATOM     20  H1  UNL     1      58.598 -28.597  28.422  1.00  0.00     0.244 HD
ENDBRANCH  17  19
ENDBRANCH   3  15
TORSDOF 2
ENDMDL
MODEL 3
REMARK VINA RESULT: -6.578270129      2.439      5.325
REMARK  2 active torsions:
REMARK  status: ('A' for Active; 'I' for Inactive)
REMARK    1  A    between atoms: C3_3  and  C4_4 
REMARK    2  A    between atoms: N2_6  and  O1_8 
ROOT
HETATM    1  C1  UNL     1      62.186 -29.708  32.850  1.00  0.00     0.013 C 
HETATM    2  C2  UNL     1      61.073 -29.250  32.979  1.00  0.00    -0.100 C 
HETATM    3  C3  UNL     1      59.703 -28.660  33.134  1.00  0.00     0.080 C 
HETATM    4  C5  UNL     1      59.855 -27.210  33.109  1.00  0.00     0.030 C 
HETATM    5  C6  UNL     1      58.890 -26.284  33.677  1.00  0.00     0.002 C 
HETATM    6  C7  UNL     1      57.459 -26.364  33.305  1.00  0.00     0.000 C 
HETATM    7  C8  UNL     1      57.183 -25.754  31.919  1.00  0.00     0.000 C 
HETATM    8  C9  UNL     1      55.988 -26.445  31.368  1.00  0.00     0.000 C 
HETATM    9  C10 UNL     1      55.893 -26.570  29.898  1.00  0.00     0.000 C 
HETATM   10  C11 UNL     1      57.138 -26.902  29.158  1.00  0.00     0.000 C 
HETATM   11  C12 UNL     1      57.619 -28.342  29.381  1.00  0.00     0.000 C 
HETATM   12  C13 UNL     1      59.081 -28.370  29.650  1.00  0.00     0.000 C 
HETATM   13  C14 UNL     1      59.553 -29.340  30.685  1.00  0.00     0.002 C 
HETATM   14  C15 UNL     1      58.905 -29.286  32.011  1.00  0.00     0.030 C 
ENDROOT
BRANCH   3  15
HETATM   15  C4  UNL     1      59.211 -29.243  34.394  1.00  0.00     0.133 C 
HETATM   16  N1  UNL     1      57.971 -29.941  34.327  1.00  0.00    -0.084 NA
HETATM   17  N2  UNL     1      59.776 -29.188  35.533  1.00  0.00    -0.258 N 
ATOM     18  H2  UNL     1      60.665 -28.691  35.601  1.00  0.00     0.195 HD
BRANCH  17  19
HETATM   19  O1  UNL     1      59.270 -29.751  36.672  1.00  0.00    -0.289 OA
ATOM     20  H1  UNL     1      59.030 -29.260  37.449  1.00  0.00     0.244 HD
ENDBRANCH  17  19
ENDBRANCH   3  15
TORSDOF 2
ENDMDL
MODEL 4
REMARK VINA RESULT: -5.340752800     10.283     12.523
REMARK  2 active torsions:
REMARK  status: ('A' for Active; 'I' for Inactive)
REMARK    1  A    between atoms: C3_3  and  C4_4 
REMARK    2  A    between atoms: N2_6  and  O1_8 
ROOT
HETATM    1  C1  UNL     1      65.150 -31.268  45.079  1.00  0.00     0.013 C 
HETATM    2  C2  UNL     1      65.065 -32.174  44.282  1.00  0.00    -0.100 C 
HETATM    3  C3  UNL     1      64.969 -33.283  43.275  1.00  0.00     0.080 C 
HETATM    4  C5  UNL     1      65.311 -32.713  41.977  1.00  0.00     0.030 C 
HETATM    5  C6  UNL     1      64.905 -33.291  40.707  1.00  0.00     0.002 C 
HETATM    6  C7  UNL     1      65.178 -34.714  40.404  1.00  0.00     0.000 C 
HETATM    7  C8  UNL     1      66.646 -34.955  40.009  1.00  0.00     0.000 C 
HETATM    8  C9  UNL     1      66.976 -36.355  40.383  1.00  0.00     0.000 C 
HETATM    9  C10 UNL     1      68.378 -36.650  40.746  1.00  0.00     0.000 C 
HETATM   10  C11 UNL     1      69.093 -35.651  41.583  1.00  0.00     0.000 C 
HETATM   11  C12 UNL     1      68.593 -35.594  43.032  1.00  0.00     0.000 C 
HETATM   12  C13 UNL     1      68.399 -34.184  43.464  1.00  0.00     0.000 C 
HETATM   13  C14 UNL     1      67.206 -33.905  44.321  1.00  0.00     0.002 C 
HETATM   14  C15 UNL     1      65.891 -34.352  43.820  1.00  0.00     0.030 C 
ENDROOT
BRANCH   3  15
HETATM   15  C4  UNL     1      63.590 -33.777  43.429  1.00  0.00     0.133 C 
HETATM   16  N1  UNL     1      63.378 -34.751  44.447  1.00  0.00    -0.084 NA
HETATM   17  N2  UNL     1      62.573 -33.427  42.749  1.00  0.00    -0.258 N 
ATOM     18  H2  UNL     1      62.706 -32.731  42.015  1.00  0.00     0.195 HD
BRANCH  17  19
HETATM   19  O1  UNL     1      61.313 -33.924  42.939  1.00  0.00    -0.289 OA
ATOM     20  H1  UNL     1      60.702 -33.597  43.588  1.00  0.00     0.244 HD
ENDBRANCH  17  19
ENDBRANCH   3  15
TORSDOF 2
ENDMDL
MODEL 5
REMARK VINA RESULT: -5.299593915     10.505     12.237
REMARK  2 active torsions:
REMARK  status: ('A' for Active; 'I' for Inactive)
REMARK    1  A    between atoms: C3_3  and  C4_4 
REMARK    2  A    between atoms: N2_6  and  O1_8 
ROOT
HETATM    1  C1  UNL     1      62.347 -33.967  42.369  1.00  0.00     0.013 C 
HETATM    2  C2  UNL     1      63.503 -33.679  42.586  1.00  0.00    -0.100 C 
HETATM    3  C3  UNL     1      64.938 -33.346  42.867  1.00  0.00     0.080 C 
HETATM    4  C5  UNL     1      65.482 -34.433  43.672  1.00  0.00     0.030 C 
HETATM    5  C6  UNL     1      66.647 -34.301  44.530  1.00  0.00     0.002 C 
HETATM    6  C7  UNL     1      67.919 -33.762  43.996  1.00  0.00     0.000 C 
HETATM    7  C8  UNL     1      68.688 -34.802  43.162  1.00  0.00     0.000 C 
HETATM    8  C9  UNL     1      69.504 -34.053  42.171  1.00  0.00     0.000 C 
HETATM    9  C10 UNL     1      69.790 -34.718  40.883  1.00  0.00     0.000 C 
HETATM   10  C11 UNL     1      68.687 -35.487  40.250  1.00  0.00     0.000 C 
HETATM   11  C12 UNL     1      67.563 -34.603  39.694  1.00  0.00     0.000 C 
HETATM   12  C13 UNL     1      66.232 -35.139  40.087  1.00  0.00     0.000 C 
HETATM   13  C14 UNL     1      65.189 -34.133  40.458  1.00  0.00     0.002 C 
HETATM   14  C15 UNL     1      65.541 -33.141  41.493  1.00  0.00     0.030 C 
ENDROOT
BRANCH   3  15
HETATM   15  C4  UNL     1      64.871 -32.024  43.513  1.00  0.00     0.133 C 
HETATM   16  N1  UNL     1      64.535 -32.014  44.898  1.00  0.00    -0.084 NA
HETATM   17  N2  UNL     1      65.078 -30.895  42.965  1.00  0.00    -0.258 N 
ATOM     18  H2  UNL     1      65.318 -30.883  41.973  1.00  0.00     0.195 HD
BRANCH  17  19
HETATM   19  O1  UNL     1      64.999 -29.696  43.619  1.00  0.00    -0.289 OA
ATOM     20  H1  UNL     1      65.528 -29.463  44.373  1.00  0.00     0.244 HD
ENDBRANCH  17  19
ENDBRANCH   3  15
TORSDOF 2
ENDMDL
