MODEL 1
REMARK VINA RESULT: -6.316488430      0.000      0.000
REMARK  2 active torsions:
REMARK  status: ('A' for Active; 'I' for Inactive)
REMARK    1  A    between atoms: C3_3  and  C4_4 
REMARK    2  A    between atoms: C4_4  and  O1_5 
ROOT
HETATM    1  C4  UNL     1      64.490 -33.183  43.816  1.00  0.00     0.084 C 
HETATM    2  C5  UNL     1      63.914 -32.730  42.504  1.00  0.00     0.062 C 
HETATM    3  C6  UNL     1      63.769 -33.790  41.483  1.00  0.00     0.100 C 
HETATM    4  C7  UNL     1      63.438 -33.157  40.202  1.00  0.00     0.064 C 
HETATM    5  N1  UNL     1      63.156 -32.661  39.181  1.00  0.00    -0.197 NA
HETATM    6  C8  UNL     1      64.905 -34.731  41.324  1.00  0.00     0.004 C 
HETATM    7  C9  UNL     1      65.939 -34.330  40.328  1.00  0.00     0.006 C 
HETATM    8  C10 UNL     1      66.963 -33.344  40.745  1.00  0.00     0.000 C 
HETATM    9  C11 UNL     1      68.136 -33.925  41.458  1.00  0.00     0.000 C 
HETATM   10  C12 UNL     1      68.040 -34.065  42.928  1.00  0.00     0.001 C 
HETATM   11  C13 UNL     1      66.919 -33.397  43.614  1.00  0.00     0.012 C 
HETATM   12  C14 UNL     1      65.632 -34.151  43.681  1.00  0.00    -0.009 C 
HETATM   13  C15 UNL     1      65.653 -34.955  45.001  1.00  0.00     0.018 C 
HETATM   14  C16 UNL     1      65.411 -35.177  42.641  1.00  0.00     0.018 C 
ENDROOT
BRANCH   1  15
HETATM   15  C3  UNL     1      64.880 -31.936  44.539  1.00  0.00     0.007 C 
HETATM   16  C2  UNL     1      64.884 -30.737  43.995  1.00  0.00    -0.032 C 
HETATM   17  C1  UNL     1      65.268 -29.509  44.710  1.00  0.00     0.036 C 
ENDBRANCH   1  15
BRANCH   1  18
HETATM   18  O1  UNL     1      63.464 -33.845  44.507  1.00  0.00    -0.385 OA
ATOM     19  H1  UNL     1      62.625 -33.672  44.094  1.00  0.00     0.211 HD
ENDBRANCH   1  18
TORSDOF 2
ENDMDL
MODEL 2
REMARK VINA RESULT: -6.212536343      9.137     11.825
REMARK  2 active torsions:
REMARK  status: ('A' for Active; 'I' for Inactive)
REMARK    1  A    between atoms: C3_3  and  C4_4 
REMARK    2  A    between atoms: C4_4  and  O1_5 
ROOT
HETATM    1  C4  UNL     1      59.135 -28.892  32.888  1.00  0.00     0.084 C 
HETATM    2  C5  UNL     1      58.616 -29.897  33.876  1.00  0.00     0.062 C 
HETATM    3  C6  UNL     1      58.956 -29.621  35.289  1.00  0.00     0.100 C 
HETATM    4  C7  UNL     1      58.605 -30.800  36.088  1.00  0.00     0.064 C 
HETATM    5  N1  UNL     1      58.311 -31.728  36.736  1.00  0.00    -0.197 NA
HETATM    6  C8  UNL     1      60.348 -29.191  35.573  1.00  0.00     0.004 C 
HETATM    7  C9  UNL     1      61.314 -30.287  35.868  1.00  0.00     0.006 C 
HETATM    8  C10 UNL     1      61.898 -31.026  34.725  1.00  0.00     0.000 C 
HETATM    9  C11 UNL     1      63.095 -30.382  34.111  1.00  0.00     0.000 C 
HETATM   10  C12 UNL     1      62.861 -29.402  33.028  1.00  0.00     0.001 C 
HETATM   11  C13 UNL     1      61.506 -29.313  32.455  1.00  0.00     0.012 C 
HETATM   12  C14 UNL     1      60.537 -28.427  33.165  1.00  0.00    -0.009 C 
HETATM   13  C15 UNL     1      60.648 -27.030  32.512  1.00  0.00     0.018 C 
HETATM   14  C16 UNL     1      60.797 -28.174  34.598  1.00  0.00     0.018 C 
ENDROOT
BRANCH   1  15
HETATM   15  C3  UNL     1      59.001 -29.536  31.547  1.00  0.00     0.007 C 
HETATM   16  C2  UNL     1      58.753 -28.879  30.433  1.00  0.00    -0.032 C 
HETATM   17  C1  UNL     1      58.622 -29.514  29.112  1.00  0.00     0.036 C 
ENDBRANCH   1  15
BRANCH   1  18
HETATM   18  O1  UNL     1      58.299 -27.768  32.972  1.00  0.00    -0.385 OA
ATOM     19  H1  UNL     1      58.657 -27.137  33.586  1.00  0.00     0.211 HD
ENDBRANCH   1  18
TORSDOF 2
ENDMDL
MODEL 3
REMARK VINA RESULT: -6.070978325      2.494      4.020
REMARK  2 active torsions:
REMARK  status: ('A' for Active; 'I' for Inactive)
REMARK    1  A    between atoms: C3_3  and  C4_4 
REMARK    2  A    between atoms: C4_4  and  O1_5 
ROOT
HETATM    1  C4  UNL     1      63.928 -32.844  41.352  1.00  0.00     0.084 C 
HETATM    2  C5  UNL     1      63.200 -33.840  42.209  1.00  0.00     0.062 C 
HETATM    3  C6  UNL     1      63.854 -34.157  43.497  1.00  0.00     0.100 C 
HETATM    4  C7  UNL     1      63.169 -35.308  44.094  1.00  0.00     0.064 C 
HETATM    5  N1  UNL     1      62.617 -36.214  44.586  1.00  0.00    -0.197 NA
HETATM    6  C8  UNL     1      65.322 -34.377  43.469  1.00  0.00     0.004 C 
HETATM    7  C9  UNL     1      65.757 -35.784  43.245  1.00  0.00     0.006 C 
HETATM    8  C10 UNL     1      65.770 -36.296  41.855  1.00  0.00     0.000 C 
HETATM    9  C11 UNL     1      67.007 -35.982  41.084  1.00  0.00     0.000 C 
HETATM   10  C12 UNL     1      67.041 -34.703  40.342  1.00  0.00     0.001 C 
HETATM   11  C13 UNL     1      65.780 -33.952  40.200  1.00  0.00     0.012 C 
HETATM   12  C14 UNL     1      65.418 -33.035  41.322  1.00  0.00    -0.009 C 
HETATM   13  C15 UNL     1      66.008 -31.650  40.975  1.00  0.00     0.018 C 
HETATM   14  C16 UNL     1      65.995 -33.349  42.646  1.00  0.00     0.018 C 
ENDROOT
BRANCH   1  15
HETATM   15  C3  UNL     1      63.311 -32.948  39.997  1.00  0.00     0.007 C 
HETATM   16  C2  UNL     1      62.644 -31.975  39.412  1.00  0.00    -0.032 C 
HETATM   17  C1  UNL     1      62.037 -32.078  38.075  1.00  0.00     0.036 C 
ENDBRANCH   1  15
BRANCH   1  18
HETATM   18  O1  UNL     1      63.683 -31.576  41.901  1.00  0.00    -0.385 OA
ATOM     19  H1  UNL     1      63.924 -31.563  42.820  1.00  0.00     0.211 HD
ENDBRANCH   1  18
TORSDOF 2
ENDMDL
MODEL 4
REMARK VINA RESULT: -5.659343172      2.139      3.741
REMARK  2 active torsions:
REMARK  status: ('A' for Active; 'I' for Inactive)
REMARK    1  A    between atoms: C3_3  and  C4_4 
REMARK    2  A    between atoms: C4_4  and  O1_5 
ROOT
HETATM    1  C4  UNL     1      64.041 -33.002  42.148  1.00  0.00     0.084 C 
HETATM    2  C5  UNL     1      63.589 -34.389  42.508  1.00  0.00     0.062 C 
HETATM    3  C6  UNL     1      64.100 -34.901  43.797  1.00  0.00     0.100 C 
HETATM    4  C7  UNL     1      63.783 -36.330  43.886  1.00  0.00     0.064 C 
HETATM    5  N1  UNL     1      63.518 -37.466  43.972  1.00  0.00    -0.197 NA
HETATM    6  C8  UNL     1      65.535 -34.663  44.094  1.00  0.00     0.004 C 
HETATM    7  C9  UNL     1      66.471 -35.730  43.641  1.00  0.00     0.006 C 
HETATM    8  C10 UNL     1      66.885 -35.736  42.219  1.00  0.00     0.000 C 
HETATM    9  C11 UNL     1      68.035 -34.843  41.898  1.00  0.00     0.000 C 
HETATM   10  C12 UNL     1      67.729 -33.441  41.539  1.00  0.00     0.001 C 
HETATM   11  C13 UNL     1      66.324 -33.085  41.272  1.00  0.00     0.012 C 
HETATM   12  C14 UNL     1      65.487 -32.731  42.456  1.00  0.00    -0.009 C 
HETATM   13  C15 UNL     1      65.594 -31.199  42.636  1.00  0.00     0.018 C 
HETATM   14  C16 UNL     1      65.921 -33.275  43.760  1.00  0.00     0.018 C 
ENDROOT
BRANCH   1  15
HETATM   15  C3  UNL     1      63.725 -32.835  40.698  1.00  0.00     0.007 C 
HETATM   16  C2  UNL     1      62.510 -32.901  40.196  1.00  0.00    -0.032 C 
HETATM   17  C1  UNL     1      62.198 -32.736  38.766  1.00  0.00     0.036 C 
ENDBRANCH   1  15
BRANCH   1  18
HETATM   18  O1  UNL     1      63.278 -32.110  42.918  1.00  0.00    -0.385 OA
ATOM     19  H1  UNL     1      62.368 -32.380  42.926  1.00  0.00     0.211 HD
ENDBRANCH   1  18
TORSDOF 2
ENDMDL
MODEL 5
REMARK VINA RESULT: -5.569306810      1.799      3.465
REMARK  2 active torsions:
REMARK  status: ('A' for Active; 'I' for Inactive)
REMARK    1  A    between atoms: C3_3  and  C4_4 
REMARK    2  A    between atoms: C4_4  and  O1_5 
ROOT
HETATM    1  C4  UNL     1      64.588 -34.869  42.780  1.00  0.00     0.084 C 
HETATM    2  C5  UNL     1      63.690 -34.197  41.781  1.00  0.00     0.062 C 
HETATM    3  C6  UNL     1      64.385 -33.386  40.758  1.00  0.00     0.100 C 
HETATM    4  C7  UNL     1      63.383 -32.607  40.025  1.00  0.00     0.064 C 
HETATM    5  N1  UNL     1      62.588 -31.995  39.423  1.00  0.00    -0.197 NA
HETATM    6  C8  UNL     1      65.487 -32.511  41.230  1.00  0.00     0.004 C 
HETATM    7  C9  UNL     1      65.090 -31.130  41.623  1.00  0.00     0.006 C 
HETATM    8  C10 UNL     1      64.508 -30.929  42.970  1.00  0.00     0.000 C 
HETATM    9  C11 UNL     1      65.508 -30.757  44.063  1.00  0.00     0.000 C 
HETATM   10  C12 UNL     1      65.998 -31.980  44.736  1.00  0.00     0.001 C 
HETATM   11  C13 UNL     1      65.294 -33.246  44.470  1.00  0.00     0.012 C 
HETATM   12  C14 UNL     1      65.723 -34.008  43.260  1.00  0.00    -0.009 C 
HETATM   13  C15 UNL     1      66.825 -34.991  43.718  1.00  0.00     0.018 C 
HETATM   14  C16 UNL     1      66.364 -33.230  42.180  1.00  0.00     0.018 C 
ENDROOT
BRANCH   1  15
HETATM   15  C3  UNL     1      63.696 -35.311  43.893  1.00  0.00     0.007 C 
HETATM   16  C2  UNL     1      63.541 -36.565  44.262  1.00  0.00    -0.032 C 
HETATM   17  C1  UNL     1      62.662 -37.000  45.360  1.00  0.00     0.036 C 
ENDBRANCH   1  15
BRANCH   1  18
HETATM   18  O1  UNL     1      65.152 -35.982  42.140  1.00  0.00    -0.385 OA
ATOM     19  H1  UNL     1      66.045 -35.792  41.875  1.00  0.00     0.211 HD
ENDBRANCH   1  18
TORSDOF 2
ENDMDL
