MODEL 1
REMARK VINA RESULT: -9.098678844      0.000      0.000
REMARK  7 active torsions:
REMARK  status: ('A' for Active; 'I' for Inactive)
REMARK    1  A    between atoms: C4_4  and  C5_6 
REMARK       I    between atoms: C5_6  and  N1_8 
REMARK    2  A    between atoms: N1_8  and  C6_10 
REMARK    3  A    between atoms: C12_17  and  C13_18 
REMARK       I    between atoms: C13_18  and  N2_20 
REMARK    4  A    between atoms: N2_20  and  C14_22 
REMARK    5  A    between atoms: C14_22  and  C16_24 
REMARK       I    between atoms: C16_24  and  N3_26 
REMARK    6  A    between atoms: C22_32  and  N4_33 
REMARK    7  A    between atoms: N4_33  and  S1_35 
ROOT
HETATM    1  C13 UNL     1      12.288 -16.351  16.945  1.00  0.00     0.254 C 
HETATM    2  O2  UNL     1      13.145 -17.105  16.461  1.00  0.00    -0.268 OA
HETATM    3  N2  UNL     1      12.650 -15.023  17.237  1.00  0.00    -0.344 N 
ATOM      4  H2  UNL     1      11.965 -14.392  17.651  1.00  0.00     0.163 HD
ENDROOT
BRANCH   3   5
HETATM    5  C14 UNL     1      13.999 -14.541  16.951  1.00  0.00     0.173 C 
HETATM    6  C15 UNL     1      14.057 -13.152  17.613  1.00  0.00     0.042 C 
BRANCH   5   7
HETATM    7  C16 UNL     1      14.268 -14.414  15.521  1.00  0.00     0.242 C 
HETATM    8  O3  UNL     1      13.298 -13.995  14.787  1.00  0.00    -0.271 OA
HETATM    9  N3  UNL     1      15.476 -14.691  14.844  1.00  0.00    -0.350 N 
HETATM   10  C17 UNL     1      15.472 -14.318  13.446  1.00  0.00     0.130 C 
HETATM   11  C27 UNL     1      16.513 -15.303  15.606  1.00  0.00     0.130 C 
HETATM   12  C18 UNL     1      15.469 -15.474  12.487  1.00  0.00     0.059 C 
HETATM   13  C19 UNL     1      16.827 -16.069  12.538  1.00  0.00    -0.050 A 
HETATM   14  C20 UNL     1      17.410 -16.093  11.298  1.00  0.00     0.010 A 
HETATM   15  C25 UNL     1      17.460 -16.558  13.656  1.00  0.00    -0.048 A 
HETATM   16  C21 UNL     1      18.690 -16.631  11.145  1.00  0.00     0.030 A 
HETATM   17  C22 UNL     1      19.349 -17.129  12.240  1.00  0.00     0.042 A 
HETATM   18  C24 UNL     1      18.719 -17.084  13.489  1.00  0.00     0.037 A 
HETATM   19  C26 UNL     1      17.018 -16.615  15.038  1.00  0.00     0.059 C 
BRANCH  17  20
HETATM   20  N4  UNL     1      20.654 -17.712  12.165  1.00  0.00    -0.285 N 
ATOM     21  H4  UNL     1      21.460 -17.086  12.187  1.00  0.00     0.178 HD
BRANCH  20  22
HETATM   22  S1  UNL     1      20.948 -19.398  12.040  1.00  0.00     0.227 S 
HETATM   23  C23 UNL     1      22.594 -19.857  12.513  1.00  0.00     0.186 C 
HETATM   24  O4  UNL     1      20.680 -19.803  10.602  1.00  0.00    -0.206 OA
HETATM   25  O5  UNL     1      19.964 -20.161  12.924  1.00  0.00    -0.206 OA
ENDBRANCH  20  22
ENDBRANCH  17  20
ENDBRANCH   5   7
ENDBRANCH   3   5
BRANCH   1  26
HETATM   26  C12 UNL     1      10.942 -16.813  17.222  1.00  0.00     0.060 A 
HETATM   27  C6  UNL     1       9.942 -16.750  16.243  1.00  0.00     0.057 A 
HETATM   28  C7  UNL     1       8.636 -17.105  16.459  1.00  0.00    -0.033 A 
HETATM   29  C8  UNL     1       7.633 -16.997  15.365  1.00  0.00     0.050 C 
HETATM   30  C9  UNL     1       8.305 -17.548  17.728  1.00  0.00     0.033 A 
HETATM   31  C10 UNL     1       9.247 -17.631  18.726  1.00  0.00     0.035 A 
HETATM   32 CL2  UNL     1       8.797 -18.195  20.332  1.00  0.00    -0.084 Cl
HETATM   33  C11 UNL     1      10.554 -17.268  18.478  1.00  0.00     0.043 A 
BRANCH  27  34
HETATM   34  N1  UNL     1      10.293 -16.359  14.897  1.00  0.00    -0.321 N 
HETATM   35  C5  UNL     1      10.263 -14.998  14.577  1.00  0.00     0.268 C 
HETATM   36  O1  UNL     1       9.900 -14.228  15.551  1.00  0.00    -0.266 OA
ATOM     37  H1  UNL     1      10.555 -17.056  14.200  1.00  0.00     0.169 HD
BRANCH  35  38
HETATM   38  C4  UNL     1      10.560 -14.313  13.353  1.00  0.00     0.103 C 
HETATM   39  C2  UNL     1      10.064 -13.218  12.864  1.00  0.00    -0.060 C 
HETATM   40  C1  UNL     1      10.596 -12.686  11.560  1.00  0.00     0.045 C 
HETATM   41  C3  UNL     1       8.988 -12.443  13.483  1.00  0.00     0.045 C 
HETATM   42 CL1  UNL     1      11.862 -15.028  12.312  1.00  0.00    -0.078 Cl
ENDBRANCH  35  38
ENDBRANCH  27  34
ENDBRANCH   1  26
TORSDOF 7
ENDMDL
MODEL 2
REMARK VINA RESULT: -8.508521337      1.894      4.253
REMARK  7 active torsions:
REMARK  status: ('A' for Active; 'I' for Inactive)
REMARK    1  A    between atoms: C4_4  and  C5_6 
REMARK       I    between atoms: C5_6  and  N1_8 
REMARK    2  A    between atoms: N1_8  and  C6_10 
REMARK    3  A    between atoms: C12_17  and  C13_18 
REMARK       I    between atoms: C13_18  and  N2_20 
REMARK    4  A    between atoms: N2_20  and  C14_22 
REMARK    5  A    between atoms: C14_22  and  C16_24 
REMARK       I    between atoms: C16_24  and  N3_26 
REMARK    6  A    between atoms: C22_32  and  N4_33 
REMARK    7  A    between atoms: N4_33  and  S1_35 
ROOT
HETATM    1  C13 UNL     1      12.710 -15.013  14.032  1.00  0.00     0.254 C 
HETATM    2  O2  UNL     1      13.120 -16.117  13.646  1.00  0.00    -0.268 OA
HETATM    3  N2  UNL     1      13.548 -14.234  14.851  1.00  0.00    -0.344 N 
ATOM      4  H2  UNL     1      13.223 -13.330  15.193  1.00  0.00     0.163 HD
ENDROOT
BRANCH   3   5
HETATM    5  C14 UNL     1      14.881 -14.710  15.216  1.00  0.00     0.173 C 
HETATM    6  C15 UNL     1      15.295 -13.815  16.399  1.00  0.00     0.042 C 
BRANCH   5   7
HETATM    7  C16 UNL     1      15.851 -14.572  14.133  1.00  0.00     0.242 C 
HETATM    8  O3  UNL     1      15.628 -13.641  13.274  1.00  0.00    -0.271 OA
HETATM    9  N3  UNL     1      17.018 -15.337  13.919  1.00  0.00    -0.350 N 
HETATM   10  C17 UNL     1      17.857 -14.855  12.844  1.00  0.00     0.130 C 
HETATM   11  C27 UNL     1      17.205 -16.470  14.764  1.00  0.00     0.130 C 
HETATM   12  C18 UNL     1      17.885 -15.735  11.626  1.00  0.00     0.059 C 
HETATM   13  C19 UNL     1      18.682 -16.932  11.988  1.00  0.00    -0.050 A 
HETATM   14  C20 UNL     1      19.743 -17.103  11.138  1.00  0.00     0.010 A 
HETATM   15  C25 UNL     1      18.425 -17.798  13.025  1.00  0.00    -0.048 A 
HETATM   16  C21 UNL     1      20.603 -18.189  11.314  1.00  0.00     0.030 A 
HETATM   17  C22 UNL     1      20.375 -19.073  12.337  1.00  0.00     0.042 A 
HETATM   18  C24 UNL     1      19.282 -18.862  13.184  1.00  0.00     0.037 A 
HETATM   19  C26 UNL     1      17.372 -17.783  14.024  1.00  0.00     0.059 C 
BRANCH  17  20
HETATM   20  N4  UNL     1      21.199 -20.219  12.575  1.00  0.00    -0.285 N 
ATOM     21  H4  UNL     1      20.992 -20.796  13.391  1.00  0.00     0.178 HD
BRANCH  20  22
HETATM   22  S1  UNL     1      22.513 -20.683  11.574  1.00  0.00     0.227 S 
HETATM   23  C23 UNL     1      22.152 -20.554   9.843  1.00  0.00     0.186 C 
HETATM   24  O4  UNL     1      22.878 -22.113  11.931  1.00  0.00    -0.206 OA
HETATM   25  O5  UNL     1      23.728 -19.809  11.878  1.00  0.00    -0.206 OA
ENDBRANCH  20  22
ENDBRANCH  17  20
ENDBRANCH   5   7
ENDBRANCH   3   5
BRANCH   1  26
HETATM   26  C12 UNL     1      11.395 -14.523  13.666  1.00  0.00     0.060 A 
HETATM   27  C6  UNL     1      10.236 -15.187  14.084  1.00  0.00     0.057 A 
HETATM   28  C7  UNL     1       8.968 -14.817  13.718  1.00  0.00    -0.033 A 
HETATM   29  C8  UNL     1       7.787 -15.585  14.200  1.00  0.00     0.050 C 
HETATM   30  C9  UNL     1       8.848 -13.720  12.882  1.00  0.00     0.033 A 
HETATM   31  C10 UNL     1       9.953 -13.032  12.442  1.00  0.00     0.035 A 
HETATM   32 CL2  UNL     1       9.771 -11.641  11.376  1.00  0.00    -0.084 Cl
HETATM   33  C11 UNL     1      11.216 -13.427  12.829  1.00  0.00     0.043 A 
BRANCH  27  34
HETATM   34  N1  UNL     1      10.346 -16.286  15.015  1.00  0.00    -0.321 N 
HETATM   35  C5  UNL     1      10.311 -15.996  16.384  1.00  0.00     0.268 C 
HETATM   36  O1  UNL     1      10.193 -14.739  16.661  1.00  0.00    -0.266 OA
ATOM     37  H1  UNL     1      10.447 -17.246  14.685  1.00  0.00     0.169 HD
BRANCH  35  38
HETATM   38  C4  UNL     1      10.388 -16.855  17.529  1.00  0.00     0.103 C 
HETATM   39  C2  UNL     1       9.455 -17.275  18.326  1.00  0.00    -0.060 C 
HETATM   40  C1  UNL     1       9.807 -18.222  19.442  1.00  0.00     0.045 C 
HETATM   41  C3  UNL     1       8.048 -16.881  18.239  1.00  0.00     0.045 C 
HETATM   42 CL1  UNL     1      12.024 -17.523  17.940  1.00  0.00    -0.078 Cl
ENDBRANCH  35  38
ENDBRANCH  27  34
ENDBRANCH   1  26
TORSDOF 7
ENDMDL
MODEL 3
REMARK VINA RESULT: -8.111063702      4.134      9.892
REMARK  7 active torsions:
REMARK  status: ('A' for Active; 'I' for Inactive)
REMARK    1  A    between atoms: C4_4  and  C5_6 
REMARK       I    between atoms: C5_6  and  N1_8 
REMARK    2  A    between atoms: N1_8  and  C6_10 
REMARK    3  A    between atoms: C12_17  and  C13_18 
REMARK       I    between atoms: C13_18  and  N2_20 
REMARK    4  A    between atoms: N2_20  and  C14_22 
REMARK    5  A    between atoms: C14_22  and  C16_24 
REMARK       I    between atoms: C16_24  and  N3_26 
REMARK    6  A    between atoms: C22_32  and  N4_33 
REMARK    7  A    between atoms: N4_33  and  S1_35 
ROOT
HETATM    1  C13 UNL     1      14.630 -14.918  13.695  1.00  0.00     0.254 C 
HETATM    2  O2  UNL     1      14.824 -13.765  13.285  1.00  0.00    -0.268 OA
HETATM    3  N2  UNL     1      13.967 -15.091  14.924  1.00  0.00    -0.344 N 
ATOM      4  H2  UNL     1      13.812 -16.031  15.287  1.00  0.00     0.163 HD
ENDROOT
BRANCH   3   5
HETATM    5  C14 UNL     1      13.498 -13.934  15.684  1.00  0.00     0.173 C 
HETATM    6  C15 UNL     1      14.785 -13.305  16.252  1.00  0.00     0.042 C 
BRANCH   5   7
HETATM    7  C16 UNL     1      12.604 -14.297  16.780  1.00  0.00     0.242 C 
HETATM    8  O3  UNL     1      13.032 -14.068  17.972  1.00  0.00    -0.271 OA
HETATM    9  N3  UNL     1      11.315 -14.864  16.689  1.00  0.00    -0.350 N 
HETATM   10  C17 UNL     1      10.618 -14.964  17.953  1.00  0.00     0.130 C 
HETATM   11  C27 UNL     1      10.883 -15.269  15.392  1.00  0.00     0.130 C 
HETATM   12  C18 UNL     1      10.449 -16.365  18.468  1.00  0.00     0.059 C 
HETATM   13  C19 UNL     1       9.420 -17.007  17.614  1.00  0.00    -0.050 A 
HETATM   14  C20 UNL     1       8.369 -17.473  18.361  1.00  0.00     0.010 A 
HETATM   15  C25 UNL     1       9.470 -17.153  16.248  1.00  0.00    -0.048 A 
HETATM   16  C21 UNL     1       7.305 -18.122  17.730  1.00  0.00     0.030 A 
HETATM   17  C22 UNL     1       7.325 -18.286  16.369  1.00  0.00     0.042 A 
HETATM   18  C24 UNL     1       8.416 -17.794  15.642  1.00  0.00     0.037 A 
HETATM   19  C26 UNL     1      10.479 -16.727  15.293  1.00  0.00     0.059 C 
BRANCH  17  20
HETATM   20  N4  UNL     1       6.284 -18.954  15.648  1.00  0.00    -0.285 N 
ATOM     21  H4  UNL     1       6.538 -19.758  15.075  1.00  0.00     0.178 HD
BRANCH  20  22
HETATM   22  S1  UNL     1       4.634 -18.483  15.688  1.00  0.00     0.227 S 
HETATM   23  C23 UNL     1       3.725 -19.233  17.012  1.00  0.00     0.186 C 
HETATM   24  O4  UNL     1       4.020 -18.856  14.350  1.00  0.00    -0.206 OA
HETATM   25  O5  UNL     1       4.532 -16.967  15.834  1.00  0.00    -0.206 OA
ENDBRANCH  20  22
ENDBRANCH  17  20
ENDBRANCH   5   7
ENDBRANCH   3   5
BRANCH   1  26
HETATM   26  C12 UNL     1      15.078 -16.075  12.944  1.00  0.00     0.060 A 
HETATM   27  C6  UNL     1      16.251 -16.754  13.296  1.00  0.00     0.057 A 
HETATM   28  C7  UNL     1      16.765 -17.810  12.590  1.00  0.00    -0.033 A 
HETATM   29  C8  UNL     1      18.024 -18.471  13.027  1.00  0.00     0.050 C 
HETATM   30  C9  UNL     1      16.070 -18.212  11.462  1.00  0.00     0.033 A 
HETATM   31  C10 UNL     1      14.913 -17.580  11.071  1.00  0.00     0.035 A 
HETATM   32 CL2  UNL     1      14.051 -18.111   9.629  1.00  0.00    -0.084 Cl
HETATM   33  C11 UNL     1      14.419 -16.522  11.803  1.00  0.00     0.043 A 
BRANCH  27  34
HETATM   34  N1  UNL     1      16.942 -16.391  14.511  1.00  0.00    -0.321 N 
HETATM   35  C5  UNL     1      17.994 -15.473  14.421  1.00  0.00     0.268 C 
HETATM   36  O1  UNL     1      18.238 -15.056  13.222  1.00  0.00    -0.266 OA
ATOM     37  H1  UNL     1      16.671 -16.792  15.409  1.00  0.00     0.169 HD
BRANCH  35  38
HETATM   38  C4  UNL     1      18.849 -14.920  15.431  1.00  0.00     0.103 C 
HETATM   39  C2  UNL     1      20.138 -14.784  15.453  1.00  0.00    -0.060 C 
HETATM   40  C1  UNL     1      20.789 -14.118  16.637  1.00  0.00     0.045 C 
HETATM   41  C3  UNL     1      21.043 -15.251  14.402  1.00  0.00     0.045 C 
HETATM   42 CL1  UNL     1      18.039 -14.252  16.910  1.00  0.00    -0.078 Cl
ENDBRANCH  35  38
ENDBRANCH  27  34
ENDBRANCH   1  26
TORSDOF 7
ENDMDL
MODEL 4
REMARK VINA RESULT: -7.848341770      1.664      2.363
REMARK  7 active torsions:
REMARK  status: ('A' for Active; 'I' for Inactive)
REMARK    1  A    between atoms: C4_4  and  C5_6 
REMARK       I    between atoms: C5_6  and  N1_8 
REMARK    2  A    between atoms: N1_8  and  C6_10 
REMARK    3  A    between atoms: C12_17  and  C13_18 
REMARK       I    between atoms: C13_18  and  N2_20 
REMARK    4  A    between atoms: N2_20  and  C14_22 
REMARK    5  A    between atoms: C14_22  and  C16_24 
REMARK       I    between atoms: C16_24  and  N3_26 
REMARK    6  A    between atoms: C22_32  and  N4_33 
REMARK    7  A    between atoms: N4_33  and  S1_35 
ROOT
HETATM    1  C13 UNL     1      12.309 -14.876  16.269  1.00  0.00     0.254 C 
HETATM    2  O2  UNL     1      12.498 -13.760  16.772  1.00  0.00    -0.268 OA
HETATM    3  N2  UNL     1      13.150 -15.292  15.220  1.00  0.00    -0.344 N 
ATOM      4  H2  UNL     1      13.001 -16.200  14.782  1.00  0.00     0.163 HD
ENDROOT
BRANCH   3   5
HETATM    5  C14 UNL     1      14.236 -14.432  14.755  1.00  0.00     0.173 C 
HETATM    6  C15 UNL     1      14.344 -14.735  13.249  1.00  0.00     0.042 C 
BRANCH   5   7
HETATM    7  C16 UNL     1      15.511 -14.721  15.406  1.00  0.00     0.242 C 
HETATM    8  O3  UNL     1      15.909 -13.880  16.295  1.00  0.00    -0.271 OA
HETATM    9  N3  UNL     1      16.362 -15.825  15.182  1.00  0.00    -0.350 N 
HETATM   10  C17 UNL     1      17.480 -15.910  16.096  1.00  0.00     0.130 C 
HETATM   11  C27 UNL     1      16.024 -16.685  14.097  1.00  0.00     0.130 C 
HETATM   12  C18 UNL     1      18.820 -15.626  15.478  1.00  0.00     0.059 C 
HETATM   13  C19 UNL     1      19.154 -16.800  14.636  1.00  0.00    -0.050 A 
HETATM   14  C20 UNL     1      20.349 -17.359  15.006  1.00  0.00     0.010 A 
HETATM   15  C25 UNL     1      18.401 -17.299  13.598  1.00  0.00    -0.048 A 
HETATM   16  C21 UNL     1      20.837 -18.471  14.315  1.00  0.00     0.030 A 
HETATM   17  C22 UNL     1      20.112 -18.992  13.274  1.00  0.00     0.042 A 
HETATM   18  C24 UNL     1      18.895 -18.393  12.930  1.00  0.00     0.037 A 
HETATM   19  C26 UNL     1      17.123 -16.858  13.067  1.00  0.00     0.059 C 
BRANCH  17  20
HETATM   20  N4  UNL     1      20.549 -20.118  12.506  1.00  0.00    -0.285 N 
ATOM     21  H4  UNL     1      20.009 -20.981  12.572  1.00  0.00     0.178 HD
BRANCH  20  22
HETATM   22  S1  UNL     1      21.927 -20.107  11.484  1.00  0.00     0.227 S 
HETATM   23  C23 UNL     1      21.521 -19.935   9.766  1.00  0.00     0.186 C 
HETATM   24  O4  UNL     1      22.683 -21.402  11.720  1.00  0.00    -0.206 OA
HETATM   25  O5  UNL     1      22.852 -18.957  11.876  1.00  0.00    -0.206 OA
ENDBRANCH  20  22
ENDBRANCH  17  20
ENDBRANCH   5   7
ENDBRANCH   3   5
BRANCH   1  26
HETATM   26  C12 UNL     1      11.243 -15.745  16.730  1.00  0.00     0.060 A 
HETATM   27  C6  UNL     1      10.163 -16.066  15.899  1.00  0.00     0.057 A 
HETATM   28  C7  UNL     1       9.091 -16.823  16.295  1.00  0.00    -0.033 A 
HETATM   29  C8  UNL     1       7.978 -17.110  15.350  1.00  0.00     0.050 C 
HETATM   30  C9  UNL     1       9.095 -17.288  17.599  1.00  0.00     0.033 A 
HETATM   31  C10 UNL     1      10.130 -17.003  18.457  1.00  0.00     0.035 A 
HETATM   32 CL2  UNL     1      10.107 -17.604  20.113  1.00  0.00    -0.084 Cl
HETATM   33  C11 UNL     1      11.196 -16.239  18.030  1.00  0.00     0.043 A 
BRANCH  27  34
HETATM   34  N1  UNL     1      10.185 -15.649  14.516  1.00  0.00    -0.321 N 
HETATM   35  C5  UNL     1       9.839 -14.325  14.222  1.00  0.00     0.268 C 
HETATM   36  O1  UNL     1       9.518 -13.615  15.253  1.00  0.00    -0.266 OA
ATOM     37  H1  UNL     1      10.445 -16.300  13.776  1.00  0.00     0.169 HD
BRANCH  35  38
HETATM   38  C4  UNL     1       9.775 -13.626  12.972  1.00  0.00     0.103 C 
HETATM   39  C2  UNL     1       9.781 -12.353  12.723  1.00  0.00    -0.060 C 
HETATM   40  C1  UNL     1       9.751 -11.881  11.294  1.00  0.00     0.045 C 
HETATM   41  C3  UNL     1       9.798 -11.306  13.745  1.00  0.00     0.045 C 
HETATM   42 CL1  UNL     1       9.724 -14.642  11.469  1.00  0.00    -0.078 Cl
ENDBRANCH  35  38
ENDBRANCH  27  34
ENDBRANCH   1  26
TORSDOF 7
ENDMDL
MODEL 5
REMARK VINA RESULT: -7.784929905      2.929      4.138
REMARK  7 active torsions:
REMARK  status: ('A' for Active; 'I' for Inactive)
REMARK    1  A    between atoms: C4_4  and  C5_6 
REMARK       I    between atoms: C5_6  and  N1_8 
REMARK    2  A    between atoms: N1_8  and  C6_10 
REMARK    3  A    between atoms: C12_17  and  C13_18 
REMARK       I    between atoms: C13_18  and  N2_20 
REMARK    4  A    between atoms: N2_20  and  C14_22 
REMARK    5  A    between atoms: C14_22  and  C16_24 
REMARK       I    between atoms: C16_24  and  N3_26 
REMARK    6  A    between atoms: C22_32  and  N4_33 
REMARK    7  A    between atoms: N4_33  and  S1_35 
ROOT
HETATM    1  C13 UNL     1      12.665 -14.462  15.844  1.00  0.00     0.254 C 
HETATM    2  O2  UNL     1      12.418 -15.337  16.686  1.00  0.00    -0.268 OA
HETATM    3  N2  UNL     1      13.969 -13.937  15.785  1.00  0.00    -0.344 N 
ATOM      4  H2  UNL     1      14.189 -13.205  15.110  1.00  0.00     0.163 HD
ENDROOT
BRANCH   3   5
HETATM    5  C14 UNL     1      15.011 -14.432  16.682  1.00  0.00     0.173 C 
HETATM    6  C15 UNL     1      14.796 -13.643  17.987  1.00  0.00     0.042 C 
BRANCH   5   7
HETATM    7  C16 UNL     1      16.360 -14.190  16.178  1.00  0.00     0.242 C 
HETATM    8  O3  UNL     1      16.689 -12.962  15.979  1.00  0.00    -0.271 OA
HETATM    9  N3  UNL     1      17.357 -15.147  15.890  1.00  0.00    -0.350 N 
HETATM   10  C17 UNL     1      18.645 -14.581  15.552  1.00  0.00     0.130 C 
HETATM   11  C27 UNL     1      16.967 -16.516  15.953  1.00  0.00     0.130 C 
HETATM   12  C18 UNL     1      19.043 -14.742  14.112  1.00  0.00     0.059 C 
HETATM   13  C19 UNL     1      19.391 -16.171  13.927  1.00  0.00    -0.050 A 
HETATM   14  C20 UNL     1      20.669 -16.318  13.454  1.00  0.00     0.010 A 
HETATM   15  C25 UNL     1      18.572 -17.248  14.173  1.00  0.00    -0.048 A 
HETATM   16  C21 UNL     1      21.172 -17.597  13.204  1.00  0.00     0.030 A 
HETATM   17  C22 UNL     1      20.380 -18.692  13.437  1.00  0.00     0.042 A 
HETATM   18  C24 UNL     1      19.082 -18.499  13.923  1.00  0.00     0.037 A 
HETATM   19  C26 UNL     1      17.210 -17.297  14.677  1.00  0.00     0.059 C 
BRANCH  17  20
HETATM   20  N4  UNL     1      20.814 -20.034  13.191  1.00  0.00    -0.285 N 
ATOM     21  H4  UNL     1      20.484 -20.766  13.821  1.00  0.00     0.178 HD
BRANCH  20  22
HETATM   22  S1  UNL     1      21.855 -20.488  11.905  1.00  0.00     0.227 S 
HETATM   23  C23 UNL     1      23.325 -19.501  11.815  1.00  0.00     0.186 C 
HETATM   24  O4  UNL     1      21.063 -20.372  10.614  1.00  0.00    -0.206 OA
HETATM   25  O5  UNL     1      22.266 -21.950  12.063  1.00  0.00    -0.206 OA
ENDBRANCH  20  22
ENDBRANCH  17  20
ENDBRANCH   5   7
ENDBRANCH   3   5
BRANCH   1  26
HETATM   26  C12 UNL     1      11.644 -13.971  14.938  1.00  0.00     0.060 A 
HETATM   27  C6  UNL     1      11.675 -14.291  13.576  1.00  0.00     0.057 A 
HETATM   28  C7  UNL     1      10.782 -13.806  12.656  1.00  0.00    -0.033 A 
HETATM   29  C8  UNL     1      10.891 -14.187  11.222  1.00  0.00     0.050 C 
HETATM   30  C9  UNL     1       9.800 -12.948  13.122  1.00  0.00     0.033 A 
HETATM   31  C10 UNL     1       9.724 -12.602  14.450  1.00  0.00     0.035 A 
HETATM   32 CL2  UNL     1       8.466 -11.506  15.015  1.00  0.00    -0.084 Cl
HETATM   33  C11 UNL     1      10.635 -13.107  15.352  1.00  0.00     0.043 A 
BRANCH  27  34
HETATM   34  N1  UNL     1      12.649 -15.242  13.093  1.00  0.00    -0.321 N 
HETATM   35  C5  UNL     1      13.899 -14.758  12.693  1.00  0.00     0.268 C 
HETATM   36  O1  UNL     1      14.034 -13.477  12.794  1.00  0.00    -0.266 OA
ATOM     37  H1  UNL     1      12.431 -16.237  13.045  1.00  0.00     0.169 HD
BRANCH  35  38
HETATM   38  C4  UNL     1      15.053 -15.442  12.186  1.00  0.00     0.103 C 
HETATM   39  C2  UNL     1      15.171 -16.637  11.697  1.00  0.00    -0.060 C 
HETATM   40  C1  UNL     1      16.510 -17.097  11.186  1.00  0.00     0.045 C 
HETATM   41  C3  UNL     1      14.083 -17.612  11.611  1.00  0.00     0.045 C 
HETATM   42 CL1  UNL     1      16.610 -14.510  12.164  1.00  0.00    -0.078 Cl
ENDBRANCH  35  38
ENDBRANCH  27  34
ENDBRANCH   1  26
TORSDOF 7
ENDMDL
