MODEL 1
REMARK VINA RESULT: -7.510180354      0.000      0.000
REMARK  10 active torsions:
REMARK  status: ('A' for Active; 'I' for Inactive)
REMARK    1  A    between atoms: C2_2  and  C3_3 
REMARK    2  A    between atoms: C3_3  and  C4_4 
REMARK    3  A    between atoms: C4_4  and  O1_5 
REMARK    4  A    between atoms: C4_4  and  C5_7 
REMARK    5  A    between atoms: C5_7  and  O2_8 
REMARK    6  A    between atoms: C5_7  and  C6_10 
REMARK    7  A    between atoms: C7_11  and  N1_12 
REMARK       I    between atoms: N1_12  and  C8_14 
REMARK    8  A    between atoms: C8_14  and  C9_16 
REMARK    9  A    between atoms: N2_33  and  C24_34 
REMARK   10  A    between atoms: C24_34  and  O4_36 
ROOT
HETATM    1  C6  UNL     1      12.990 -14.728  14.060  1.00  0.00     0.140 C 
HETATM    2  C7  UNL     1      13.707 -14.059  15.131  1.00  0.00     0.110 C 
HETATM    3  C15 UNL     1      13.308 -14.250  16.569  1.00  0.00     0.027 C 
HETATM    4  C16 UNL     1      12.163 -15.134  16.731  1.00  0.00     0.002 C 
HETATM    5  C17 UNL     1      11.883 -15.804  18.018  1.00  0.00     0.000 C 
HETATM    6  C18 UNL     1      11.107 -17.087  17.677  1.00  0.00     0.000 C 
HETATM    7  C19 UNL     1       9.661 -16.957  17.591  1.00  0.00     0.000 C 
HETATM    8  C20 UNL     1       8.992 -16.324  16.456  1.00  0.00     0.000 C 
HETATM    9  C21 UNL     1       9.371 -16.709  15.070  1.00  0.00     0.002 C 
HETATM   10  C22 UNL     1       9.432 -15.460  14.152  1.00  0.00     0.020 C 
HETATM   11  C23 UNL     1      10.697 -15.477  13.299  1.00  0.00     0.125 C 
HETATM   12  N2  UNL     1      11.640 -14.384  13.708  1.00  0.00    -0.356 N 
ENDROOT
BRANCH   2  13
HETATM   13  N1  UNL     1      15.118 -14.452  15.075  1.00  0.00    -0.350 N 
HETATM   14  C8  UNL     1      15.597 -15.765  15.222  1.00  0.00     0.252 C 
HETATM   15  O3  UNL     1      14.887 -16.793  15.415  1.00  0.00    -0.268 OA
ATOM     16  H1  UNL     1      15.806 -13.715  14.916  1.00  0.00     0.163 HD
BRANCH  14  17
HETATM   17  C9  UNL     1      17.041 -16.035  15.157  1.00  0.00     0.034 A 
HETATM   18  C10 UNL     1      17.926 -15.145  15.691  1.00  0.00     0.036 A 
HETATM   19  C11 UNL     1      19.311 -15.368  15.638  1.00  0.00     0.013 A 
HETATM   20 BR1  UNL     1      20.552 -14.128  16.383  1.00  0.00    -0.051 Br
HETATM   21  C12 UNL     1      19.789 -16.512  15.033  1.00  0.00     0.038 A 
HETATM   22  C13 UNL     1      18.906 -17.423  14.487  1.00  0.00     0.013 A 
HETATM   23 BR2  UNL     1      19.541 -19.002  13.650  1.00  0.00    -0.051 Br
HETATM   24  C14 UNL     1      17.550 -17.176  14.554  1.00  0.00     0.036 A 
ENDBRANCH  14  17
ENDBRANCH   2  13
BRANCH   1  25
HETATM   25  C5  UNL     1      13.835 -14.606  12.769  1.00  0.00     0.171 C 
BRANCH  25  26
HETATM   26  C4  UNL     1      14.005 -15.910  12.051  1.00  0.00     0.149 C 
BRANCH  26  27
HETATM   27  C3  UNL     1      15.461 -16.146  11.681  1.00  0.00     0.034 C 
BRANCH  27  28
HETATM   28  C2  UNL     1      15.747 -17.552  11.242  1.00  0.00    -0.002 C 
HETATM   29  C1  UNL     1      14.744 -17.871  10.133  1.00  0.00     0.005 C 
ENDBRANCH  27  28
ENDBRANCH  26  27
BRANCH  26  30
HETATM   30  O1  UNL     1      13.623 -17.026  12.791  1.00  0.00    -0.393 OA
ATOM     31  H1  UNL     1      12.689 -16.927  12.935  1.00  0.00     0.210 HD
ENDBRANCH  26  30
ENDBRANCH  25  26
BRANCH  25  32
HETATM   32  O2  UNL     1      13.406 -13.614  11.937  1.00  0.00    -0.391 OA
ATOM     33  H2  UNL     1      12.496 -13.387  12.092  1.00  0.00     0.210 HD
ENDBRANCH  25  32
ENDBRANCH   1  25
BRANCH  12  34
HETATM   34  C24 UNL     1      11.009 -13.128  13.712  1.00  0.00     0.109 C 
HETATM   35  C25 UNL     1      10.568 -12.303  14.849  1.00  0.00     0.097 C 
BRANCH  34  36
HETATM   36  O4  UNL     1      10.741 -12.550  12.576  1.00  0.00    -0.350 OA
ATOM     37  H4  UNL     1       9.927 -12.069  12.482  1.00  0.00     0.219 HD
ENDBRANCH  34  36
ENDBRANCH  12  34
TORSDOF 10
ENDMDL
MODEL 2
REMARK VINA RESULT: -7.500738888      0.029      1.624
REMARK  10 active torsions:
REMARK  status: ('A' for Active; 'I' for Inactive)
REMARK    1  A    between atoms: C2_2  and  C3_3 
REMARK    2  A    between atoms: C3_3  and  C4_4 
REMARK    3  A    between atoms: C4_4  and  O1_5 
REMARK    4  A    between atoms: C4_4  and  C5_7 
REMARK    5  A    between atoms: C5_7  and  O2_8 
REMARK    6  A    between atoms: C5_7  and  C6_10 
REMARK    7  A    between atoms: C7_11  and  N1_12 
REMARK       I    between atoms: N1_12  and  C8_14 
REMARK    8  A    between atoms: C8_14  and  C9_16 
REMARK    9  A    between atoms: N2_33  and  C24_34 
REMARK   10  A    between atoms: C24_34  and  O4_36 
ROOT
HETATM    1  C6  UNL     1      13.000 -14.725  14.060  1.00  0.00     0.140 C 
HETATM    2  C7  UNL     1      13.717 -14.052  15.129  1.00  0.00     0.110 C 
HETATM    3  C15 UNL     1      13.324 -14.244  16.568  1.00  0.00     0.027 C 
HETATM    4  C16 UNL     1      12.184 -15.134  16.735  1.00  0.00     0.002 C 
HETATM    5  C17 UNL     1      11.912 -15.805  18.023  1.00  0.00     0.000 C 
HETATM    6  C18 UNL     1      11.141 -17.092  17.685  1.00  0.00     0.000 C 
HETATM    7  C19 UNL     1       9.694 -16.970  17.604  1.00  0.00     0.000 C 
HETATM    8  C20 UNL     1       9.019 -16.340  16.471  1.00  0.00     0.000 C 
HETATM    9  C21 UNL     1       9.395 -16.724  15.084  1.00  0.00     0.002 C 
HETATM   10  C22 UNL     1       9.446 -15.475  14.166  1.00  0.00     0.020 C 
HETATM   11  C23 UNL     1      10.708 -15.486  13.308  1.00  0.00     0.125 C 
HETATM   12  N2  UNL     1      11.647 -14.388  13.714  1.00  0.00    -0.356 N 
ENDROOT
BRANCH   2  13
HETATM   13  N1  UNL     1      15.130 -14.437  15.068  1.00  0.00    -0.350 N 
HETATM   14  C8  UNL     1      15.615 -15.749  15.205  1.00  0.00     0.252 C 
HETATM   15  O3  UNL     1      14.910 -16.782  15.391  1.00  0.00    -0.268 OA
ATOM     16  H1  UNL     1      15.815 -13.696  14.914  1.00  0.00     0.163 HD
BRANCH  14  17
HETATM   17  C9  UNL     1      17.060 -16.012  15.136  1.00  0.00     0.034 A 
HETATM   18  C10 UNL     1      17.520 -17.147  14.535  1.00  0.00     0.036 A 
HETATM   19  C11 UNL     1      18.892 -17.431  14.459  1.00  0.00     0.013 A 
HETATM   20 BR1  UNL     1      19.539 -19.016  13.621  1.00  0.00    -0.051 Br
HETATM   21  C12 UNL     1      19.798 -16.544  15.003  1.00  0.00     0.038 A 
HETATM   22  C13 UNL     1      19.349 -15.390  15.615  1.00  0.00     0.013 A 
HETATM   23 BR2  UNL     1      20.576 -14.157  16.369  1.00  0.00    -0.051 Br
HETATM   24  C14 UNL     1      17.994 -15.138  15.674  1.00  0.00     0.036 A 
ENDBRANCH  14  17
ENDBRANCH   2  13
BRANCH   1  25
HETATM   25  C5  UNL     1      13.841 -14.599  12.767  1.00  0.00     0.171 C 
BRANCH  25  26
HETATM   26  C4  UNL     1      14.005 -15.901  12.043  1.00  0.00     0.149 C 
BRANCH  26  27
HETATM   27  C3  UNL     1      15.460 -16.138  11.669  1.00  0.00     0.034 C 
BRANCH  27  28
HETATM   28  C2  UNL     1      15.746 -17.550  11.244  1.00  0.00    -0.002 C 
HETATM   29  C1  UNL     1      14.739 -17.881  10.141  1.00  0.00     0.005 C 
ENDBRANCH  27  28
ENDBRANCH  26  27
BRANCH  26  30
HETATM   30  O1  UNL     1      13.622 -17.018  12.779  1.00  0.00    -0.393 OA
ATOM     31  H1  UNL     1      14.062 -16.934  13.617  1.00  0.00     0.210 HD
ENDBRANCH  26  30
ENDBRANCH  25  26
BRANCH  25  32
HETATM   32  O2  UNL     1      13.409 -13.603  11.940  1.00  0.00    -0.391 OA
ATOM     33  H2  UNL     1      13.381 -12.761  12.380  1.00  0.00     0.210 HD
ENDBRANCH  25  32
ENDBRANCH   1  25
BRANCH  12  34
HETATM   34  C24 UNL     1      11.010 -13.135  13.719  1.00  0.00     0.109 C 
HETATM   35  C25 UNL     1      10.568 -12.312  14.857  1.00  0.00     0.097 C 
BRANCH  34  36
HETATM   36  O4  UNL     1      10.736 -12.559  12.583  1.00  0.00    -0.350 OA
ATOM     37  H4  UNL     1      10.082 -11.870  12.560  1.00  0.00     0.219 HD
ENDBRANCH  34  36
ENDBRANCH  12  34
TORSDOF 10
ENDMDL
MODEL 3
REMARK VINA RESULT: -7.253390297      3.347      7.537
REMARK  10 active torsions:
REMARK  status: ('A' for Active; 'I' for Inactive)
REMARK    1  A    between atoms: C2_2  and  C3_3 
REMARK    2  A    between atoms: C3_3  and  C4_4 
REMARK    3  A    between atoms: C4_4  and  O1_5 
REMARK    4  A    between atoms: C4_4  and  C5_7 
REMARK    5  A    between atoms: C5_7  and  O2_8 
REMARK    6  A    between atoms: C5_7  and  C6_10 
REMARK    7  A    between atoms: C7_11  and  N1_12 
REMARK       I    between atoms: N1_12  and  C8_14 
REMARK    8  A    between atoms: C8_14  and  C9_16 
REMARK    9  A    between atoms: N2_33  and  C24_34 
REMARK   10  A    between atoms: C24_34  and  O4_36 
ROOT
HETATM    1  C6  UNL     1      16.660 -15.756  13.628  1.00  0.00     0.140 C 
HETATM    2  C7  UNL     1      16.334 -16.649  14.727  1.00  0.00     0.110 C 
HETATM    3  C15 UNL     1      17.298 -16.869  15.860  1.00  0.00     0.027 C 
HETATM    4  C16 UNL     1      18.537 -16.119  15.709  1.00  0.00     0.002 C 
HETATM    5  C17 UNL     1      19.409 -15.831  16.868  1.00  0.00     0.000 C 
HETATM    6  C18 UNL     1      20.176 -14.543  16.520  1.00  0.00     0.000 C 
HETATM    7  C19 UNL     1      21.428 -14.719  15.800  1.00  0.00     0.000 C 
HETATM    8  C20 UNL     1      21.479 -15.060  14.380  1.00  0.00     0.000 C 
HETATM    9  C21 UNL     1      20.644 -14.302  13.410  1.00  0.00     0.002 C 
HETATM   10  C22 UNL     1      20.027 -15.256  12.355  1.00  0.00     0.020 C 
HETATM   11  C23 UNL     1      18.546 -14.948  12.149  1.00  0.00     0.125 C 
HETATM   12  N2  UNL     1      17.685 -16.062  12.669  1.00  0.00    -0.356 N 
ENDROOT
BRANCH   2  13
HETATM   13  N1  UNL     1      15.099 -16.185  15.365  1.00  0.00    -0.350 N 
HETATM   14  C8  UNL     1      13.813 -16.681  15.091  1.00  0.00     0.252 C 
HETATM   15  O3  UNL     1      13.536 -17.599  14.267  1.00  0.00    -0.268 OA
ATOM     16  H1  UNL     1      15.179 -15.444  16.062  1.00  0.00     0.163 HD
BRANCH  14  17
HETATM   17  C9  UNL     1      12.645 -16.127  15.790  1.00  0.00     0.034 A 
HETATM   18  C10 UNL     1      12.021 -16.854  16.761  1.00  0.00     0.036 A 
HETATM   19  C11 UNL     1      10.899 -16.358  17.442  1.00  0.00     0.013 A 
HETATM   20 BR1  UNL     1      10.026 -17.371  18.800  1.00  0.00    -0.051 Br
HETATM   21  C12 UNL     1      10.414 -15.106  17.124  1.00  0.00     0.038 A 
HETATM   22  C13 UNL     1      11.033 -14.356  16.143  1.00  0.00     0.013 A 
HETATM   23 BR2  UNL     1      10.384 -12.634  15.689  1.00  0.00    -0.051 Br
HETATM   24  C14 UNL     1      12.134 -14.872  15.491  1.00  0.00     0.036 A 
ENDBRANCH  14  17
ENDBRANCH   2  13
BRANCH   1  25
HETATM   25  C5  UNL     1      15.362 -15.488  12.829  1.00  0.00     0.171 C 
BRANCH  25  26
HETATM   26  C4  UNL     1      15.237 -14.066  12.371  1.00  0.00     0.149 C 
BRANCH  26  27
HETATM   27  C3  UNL     1      13.852 -13.795  11.803  1.00  0.00     0.034 C 
BRANCH  27  28
HETATM   28  C2  UNL     1      12.841 -13.415  12.845  1.00  0.00    -0.002 C 
HETATM   29  C1  UNL     1      11.481 -13.407  12.145  1.00  0.00     0.005 C 
ENDBRANCH  27  28
ENDBRANCH  26  27
BRANCH  26  30
HETATM   30  O1  UNL     1      15.418 -13.122  13.378  1.00  0.00    -0.393 OA
ATOM     31  H1  UNL     1      15.797 -12.364  12.950  1.00  0.00     0.210 HD
ENDBRANCH  26  30
ENDBRANCH  25  26
BRANCH  25  32
HETATM   32  O2  UNL     1      15.165 -16.374  11.811  1.00  0.00    -0.391 OA
ATOM     33  H2  UNL     1      14.802 -17.196  12.118  1.00  0.00     0.210 HD
ENDBRANCH  25  32
ENDBRANCH   1  25
BRANCH  12  34
HETATM   34  C24 UNL     1      18.059 -17.305  12.127  1.00  0.00     0.109 C 
HETATM   35  C25 UNL     1      18.733 -18.444  12.770  1.00  0.00     0.097 C 
BRANCH  34  36
HETATM   36  O4  UNL     1      17.803 -17.551  10.874  1.00  0.00    -0.350 OA
ATOM     37  H4  UNL     1      18.011 -16.892  10.221  1.00  0.00     0.219 HD
ENDBRANCH  34  36
ENDBRANCH  12  34
TORSDOF 10
ENDMDL
MODEL 4
REMARK VINA RESULT: -7.226864743      3.343      7.452
REMARK  10 active torsions:
REMARK  status: ('A' for Active; 'I' for Inactive)
REMARK    1  A    between atoms: C2_2  and  C3_3 
REMARK    2  A    between atoms: C3_3  and  C4_4 
REMARK    3  A    between atoms: C4_4  and  O1_5 
REMARK    4  A    between atoms: C4_4  and  C5_7 
REMARK    5  A    between atoms: C5_7  and  O2_8 
REMARK    6  A    between atoms: C5_7  and  C6_10 
REMARK    7  A    between atoms: C7_11  and  N1_12 
REMARK       I    between atoms: N1_12  and  C8_14 
REMARK    8  A    between atoms: C8_14  and  C9_16 
REMARK    9  A    between atoms: N2_33  and  C24_34 
REMARK   10  A    between atoms: C24_34  and  O4_36 
ROOT
HETATM    1  C6  UNL     1      16.662 -15.766  13.628  1.00  0.00     0.140 C 
HETATM    2  C7  UNL     1      16.341 -16.665  14.723  1.00  0.00     0.110 C 
HETATM    3  C15 UNL     1      17.307 -16.885  15.855  1.00  0.00     0.027 C 
HETATM    4  C16 UNL     1      18.542 -16.129  15.706  1.00  0.00     0.002 C 
HETATM    5  C17 UNL     1      19.414 -15.841  16.865  1.00  0.00     0.000 C 
HETATM    6  C18 UNL     1      20.175 -14.549  16.521  1.00  0.00     0.000 C 
HETATM    7  C19 UNL     1      21.427 -14.716  15.799  1.00  0.00     0.000 C 
HETATM    8  C20 UNL     1      21.478 -15.052  14.378  1.00  0.00     0.000 C 
HETATM    9  C21 UNL     1      20.639 -14.293  13.412  1.00  0.00     0.002 C 
HETATM   10  C22 UNL     1      20.024 -15.246  12.354  1.00  0.00     0.020 C 
HETATM   11  C23 UNL     1      18.543 -14.944  12.150  1.00  0.00     0.125 C 
HETATM   12  N2  UNL     1      17.687 -16.064  12.667  1.00  0.00    -0.356 N 
ENDROOT
BRANCH   2  13
HETATM   13  N1  UNL     1      15.104 -16.209  15.365  1.00  0.00    -0.350 N 
HETATM   14  C8  UNL     1      13.820 -16.708  15.088  1.00  0.00     0.252 C 
HETATM   15  O3  UNL     1      13.546 -17.622  14.259  1.00  0.00    -0.268 OA
ATOM     16  H1  UNL     1      15.181 -15.472  16.066  1.00  0.00     0.163 HD
BRANCH  14  17
HETATM   17  C9  UNL     1      12.650 -16.162  15.791  1.00  0.00     0.034 A 
HETATM   18  C10 UNL     1      12.183 -14.919  15.476  1.00  0.00     0.036 A 
HETATM   19  C11 UNL     1      11.074 -14.364  16.133  1.00  0.00     0.013 A 
HETATM   20 BR1  UNL     1      10.419 -12.629  15.697  1.00  0.00    -0.051 Br
HETATM   21  C12 UNL     1      10.439 -15.091  17.119  1.00  0.00     0.038 A 
HETATM   22  C13 UNL     1      10.899 -16.351  17.450  1.00  0.00     0.013 A 
HETATM   23 BR2  UNL     1      10.042 -17.368  18.802  1.00  0.00    -0.051 Br
HETATM   24  C14 UNL     1      11.992 -16.869  16.786  1.00  0.00     0.036 A 
ENDBRANCH  14  17
ENDBRANCH   2  13
BRANCH   1  25
HETATM   25  C5  UNL     1      15.362 -15.501  12.831  1.00  0.00     0.171 C 
BRANCH  25  26
HETATM   26  C4  UNL     1      15.226 -14.076  12.386  1.00  0.00     0.149 C 
BRANCH  26  27
HETATM   27  C3  UNL     1      13.843 -13.813  11.811  1.00  0.00     0.034 C 
BRANCH  27  28
HETATM   28  C2  UNL     1      12.834 -13.399  12.844  1.00  0.00    -0.002 C 
HETATM   29  C1  UNL     1      11.475 -13.393  12.142  1.00  0.00     0.005 C 
ENDBRANCH  27  28
ENDBRANCH  26  27
BRANCH  26  30
HETATM   30  O1  UNL     1      15.392 -13.140  13.402  1.00  0.00    -0.393 OA
ATOM     31  H1  UNL     1      15.315 -13.628  14.213  1.00  0.00     0.210 HD
ENDBRANCH  26  30
ENDBRANCH  25  26
BRANCH  25  32
HETATM   32  O2  UNL     1      15.170 -16.380  11.806  1.00  0.00    -0.391 OA
ATOM     33  H2  UNL     1      14.249 -16.551  11.650  1.00  0.00     0.210 HD
ENDBRANCH  25  32
ENDBRANCH   1  25
BRANCH  12  34
HETATM   34  C24 UNL     1      18.065 -17.303  12.119  1.00  0.00     0.109 C 
HETATM   35  C25 UNL     1      18.751 -18.439  12.755  1.00  0.00     0.097 C 
BRANCH  34  36
HETATM   36  O4  UNL     1      17.803 -17.548  10.867  1.00  0.00    -0.350 OA
ATOM     37  H4  UNL     1      18.385 -17.205  10.198  1.00  0.00     0.219 HD
ENDBRANCH  34  36
ENDBRANCH  12  34
TORSDOF 10
ENDMDL
MODEL 5
REMARK VINA RESULT: -6.406453677      1.566      2.004
REMARK  10 active torsions:
REMARK  status: ('A' for Active; 'I' for Inactive)
REMARK    1  A    between atoms: C2_2  and  C3_3 
REMARK    2  A    between atoms: C3_3  and  C4_4 
REMARK    3  A    between atoms: C4_4  and  O1_5 
REMARK    4  A    between atoms: C4_4  and  C5_7 
REMARK    5  A    between atoms: C5_7  and  O2_8 
REMARK    6  A    between atoms: C5_7  and  C6_10 
REMARK    7  A    between atoms: C7_11  and  N1_12 
REMARK       I    between atoms: N1_12  and  C8_14 
REMARK    8  A    between atoms: C8_14  and  C9_16 
REMARK    9  A    between atoms: N2_33  and  C24_34 
REMARK   10  A    between atoms: C24_34  and  O4_36 
ROOT
HETATM    1  C6  UNL     1      11.873 -15.488  14.657  1.00  0.00     0.140 C 
HETATM    2  C7  UNL     1      12.752 -14.856  15.626  1.00  0.00     0.110 C 
HETATM    3  C15 UNL     1      12.550 -15.056  17.103  1.00  0.00     0.027 C 
HETATM    4  C16 UNL     1      11.412 -15.909  17.413  1.00  0.00     0.002 C 
HETATM    5  C17 UNL     1      11.294 -16.590  18.719  1.00  0.00     0.000 C 
HETATM    6  C18 UNL     1      10.439 -17.846  18.475  1.00  0.00     0.000 C 
HETATM    7  C19 UNL     1       8.999 -17.673  18.592  1.00  0.00     0.000 C 
HETATM    8  C20 UNL     1       8.200 -17.004  17.568  1.00  0.00     0.000 C 
HETATM    9  C21 UNL     1       8.371 -17.379  16.139  1.00  0.00     0.002 C 
HETATM   10  C22 UNL     1       8.342 -16.119  15.235  1.00  0.00     0.020 C 
HETATM   11  C23 UNL     1       9.475 -16.159  14.214  1.00  0.00     0.125 C 
HETATM   12  N2  UNL     1      10.499 -15.100  14.500  1.00  0.00    -0.356 N 
ENDROOT
BRANCH   2  13
HETATM   13  N1  UNL     1      14.129 -15.288  15.370  1.00  0.00    -0.350 N 
HETATM   14  C8  UNL     1      15.278 -14.685  15.911  1.00  0.00     0.252 C 
HETATM   15  O3  UNL     1      15.292 -13.697  16.698  1.00  0.00    -0.268 OA
ATOM     16  H1  UNL     1      14.264 -16.087  14.751  1.00  0.00     0.163 HD
BRANCH  14  17
HETATM   17  C9  UNL     1      16.611 -15.204  15.571  1.00  0.00     0.034 A 
HETATM   18  C10 UNL     1      17.727 -14.593  16.064  1.00  0.00     0.036 A 
HETATM   19  C11 UNL     1      19.014 -15.057  15.753  1.00  0.00     0.013 A 
HETATM   20 BR1  UNL     1      20.576 -14.208  16.441  1.00  0.00    -0.051 Br
HETATM   21  C12 UNL     1      19.157 -16.156  14.931  1.00  0.00     0.038 A 
HETATM   22  C13 UNL     1      18.037 -16.785  14.422  1.00  0.00     0.013 A 
HETATM   23 BR2  UNL     1      18.209 -18.296  13.290  1.00  0.00    -0.051 Br
HETATM   24  C14 UNL     1      16.785 -16.305  14.746  1.00  0.00     0.036 A 
ENDBRANCH  14  17
ENDBRANCH   2  13
BRANCH   1  25
HETATM   25  C5  UNL     1      12.535 -15.370  13.263  1.00  0.00     0.171 C 
BRANCH  25  26
HETATM   26  C4  UNL     1      12.986 -13.977  12.942  1.00  0.00     0.149 C 
BRANCH  26  27
HETATM   27  C3  UNL     1      14.139 -13.991  11.950  1.00  0.00     0.034 C 
BRANCH  27  28
HETATM   28  C2  UNL     1      15.434 -13.502  12.531  1.00  0.00    -0.002 C 
HETATM   29  C1  UNL     1      16.525 -14.432  11.998  1.00  0.00     0.005 C 
ENDBRANCH  27  28
ENDBRANCH  26  27
BRANCH  26  30
HETATM   30  O1  UNL     1      12.006 -13.177  12.363  1.00  0.00    -0.393 OA
ATOM     31  H1  UNL     1      12.449 -12.377  12.107  1.00  0.00     0.210 HD
ENDBRANCH  26  30
ENDBRANCH  25  26
BRANCH  25  32
HETATM   32  O2  UNL     1      13.522 -16.289  13.057  1.00  0.00    -0.391 OA
ATOM     33  H2  UNL     1      13.719 -16.401  12.134  1.00  0.00     0.210 HD
ENDBRANCH  25  32
ENDBRANCH   1  25
BRANCH  12  34
HETATM   34  C24 UNL     1       9.913 -13.826  14.606  1.00  0.00     0.109 C 
HETATM   35  C25 UNL     1       9.950 -12.865  15.720  1.00  0.00     0.097 C 
BRANCH  34  36
HETATM   36  O4  UNL     1       9.216 -13.365  13.606  1.00  0.00    -0.350 OA
ATOM     37  H4  UNL     1       8.903 -12.468  13.635  1.00  0.00     0.219 HD
ENDBRANCH  34  36
ENDBRANCH  12  34
TORSDOF 10
ENDMDL
