MODEL 1
REMARK VINA RESULT: -4.987569120      0.000      0.000
REMARK  2 active torsions:
REMARK  status: ('A' for Active; 'I' for Inactive)
REMARK    1  A    between atoms: N1_2  and  C2_5 
REMARK    2  A    between atoms: C5_8  and  N2_9 
ROOT
HETATM    1  C2  UNL     1      18.819  -8.441 100.297  1.00  0.00     0.185 C 
HETATM    2  C3  UNL     1      19.291  -8.254  98.877  1.00  0.00     0.035 C 
HETATM    3  C4  UNL     1      19.712  -9.622  98.385  1.00  0.00     0.034 C 
HETATM    4  C5  UNL     1      18.509 -10.517  98.391  1.00  0.00     0.183 C 
HETATM    5  C6  UNL     1      17.931 -10.624  99.788  1.00  0.00     0.034 C 
HETATM    6  C7  UNL     1      17.536  -9.232 100.297  1.00  0.00     0.035 C 
ENDROOT
BRANCH   1   7
HETATM    7  N1  UNL     1      18.782  -7.210 100.981  1.00  0.00    -0.075 N 
HETATM    8  C1  UNL     1      18.798  -6.115 100.078  1.00  0.00     0.267 C 
ATOM      9  H12 UNL     1      19.534  -7.140 101.667  1.00  0.00     0.277 HD
ATOM     10  H11 UNL     1      17.985  -7.159 101.615  1.00  0.00     0.277 HD
ENDBRANCH   1   7
BRANCH   4  11
HETATM   11  N2  UNL     1      17.513 -10.167  97.418  1.00  0.00    -0.075 N 
ATOM     12  H23 UNL     1      17.622 -10.732  96.576  1.00  0.00     0.274 HD
ATOM     13  H22 UNL     1      16.591 -10.485  97.721  1.00  0.00     0.274 HD
ATOM     14  H21 UNL     1      17.490  -9.175  97.184  1.00  0.00     0.274 HD
ENDBRANCH   4  11
TORSDOF 2
ENDMDL
MODEL 2
REMARK VINA RESULT: -4.942416122      1.344      1.783
REMARK  2 active torsions:
REMARK  status: ('A' for Active; 'I' for Inactive)
REMARK    1  A    between atoms: N1_2  and  C2_5 
REMARK    2  A    between atoms: C5_8  and  N2_9 
ROOT
HETATM    1  C2  UNL     1      18.874  -7.031  99.809  1.00  0.00     0.185 C 
HETATM    2  C3  UNL     1      18.975  -6.496  98.402  1.00  0.00     0.035 C 
HETATM    3  C4  UNL     1      20.049  -7.312  97.714  1.00  0.00     0.034 C 
HETATM    4  C5  UNL     1      19.601  -8.741  97.666  1.00  0.00     0.183 C 
HETATM    5  C6  UNL     1      19.364  -9.272  99.066  1.00  0.00     0.034 C 
HETATM    6  C7  UNL     1      18.299  -8.425  99.773  1.00  0.00     0.035 C 
ENDROOT
BRANCH   1   7
HETATM    7  N1  UNL     1      18.211  -6.115 100.648  1.00  0.00    -0.075 N 
HETATM    8  C1  UNL     1      18.546  -4.775 100.320  1.00  0.00     0.267 C 
ATOM      9  H12 UNL     1      18.388  -6.314 101.632  1.00  0.00     0.277 HD
ATOM     10  H11 UNL     1      17.202  -6.261 100.637  1.00  0.00     0.277 HD
ENDBRANCH   1   7
BRANCH   4  11
HETATM   11  N2  UNL     1      18.479  -8.976  96.802  1.00  0.00    -0.075 N 
ATOM     12  H23 UNL     1      18.120  -9.922  96.932  1.00  0.00     0.274 HD
ATOM     13  H22 UNL     1      17.669  -8.439  97.115  1.00  0.00     0.274 HD
ATOM     14  H21 UNL     1      18.668  -8.797  95.816  1.00  0.00     0.274 HD
ENDBRANCH   4  11
TORSDOF 2
ENDMDL
MODEL 3
REMARK VINA RESULT: -4.920840190      1.404      2.182
REMARK  2 active torsions:
REMARK  status: ('A' for Active; 'I' for Inactive)
REMARK    1  A    between atoms: N1_2  and  C2_5 
REMARK    2  A    between atoms: C5_8  and  N2_9 
ROOT
HETATM    1  C2  UNL     1      18.515  -7.221  99.773  1.00  0.00     0.185 C 
HETATM    2  C3  UNL     1      18.795  -8.559 100.409  1.00  0.00     0.035 C 
HETATM    3  C4  UNL     1      18.194  -9.601  99.490  1.00  0.00     0.034 C 
HETATM    4  C5  UNL     1      18.897  -9.528  98.168  1.00  0.00     0.183 C 
HETATM    5  C6  UNL     1      18.744  -8.148  97.559  1.00  0.00     0.034 C 
HETATM    6  C7  UNL     1      19.325  -7.091  98.507  1.00  0.00     0.035 C 
ENDROOT
BRANCH   1   7
HETATM    7  N1  UNL     1      18.667  -6.178 100.707  1.00  0.00    -0.075 N 
HETATM    8  C1  UNL     1      18.734  -4.913 100.067  1.00  0.00     0.267 C 
ATOM      9  H12 UNL     1      19.472  -6.334 101.314  1.00  0.00     0.277 HD
ATOM     10  H11 UNL     1      17.931  -6.200 101.414  1.00  0.00     0.277 HD
ENDBRANCH   1   7
BRANCH   4  11
HETATM   11  N2  UNL     1      20.268  -9.952  98.209  1.00  0.00    -0.075 N 
ATOM     12  H23 UNL     1      20.334 -10.916  98.536  1.00  0.00     0.274 HD
ATOM     13  H22 UNL     1      20.636 -10.064  97.264  1.00  0.00     0.274 HD
ATOM     14  H21 UNL     1      20.875  -9.345  98.760  1.00  0.00     0.274 HD
ENDBRANCH   4  11
TORSDOF 2
ENDMDL
MODEL 4
REMARK VINA RESULT: -4.706031954      1.687      2.793
REMARK  2 active torsions:
REMARK  status: ('A' for Active; 'I' for Inactive)
REMARK    1  A    between atoms: N1_2  and  C2_5 
REMARK    2  A    between atoms: C5_8  and  N2_9 
ROOT
HETATM    1  C2  UNL     1      17.424  -9.362 100.355  1.00  0.00     0.185 C 
HETATM    2  C3  UNL     1      17.664 -10.660  99.625  1.00  0.00     0.035 C 
HETATM    3  C4  UNL     1      17.789 -10.306  98.158  1.00  0.00     0.034 C 
HETATM    4  C5  UNL     1      18.983  -9.416  97.986  1.00  0.00     0.183 C 
HETATM    5  C6  UNL     1      18.831  -8.155  98.814  1.00  0.00     0.034 C 
HETATM    6  C7  UNL     1      18.672  -8.517 100.295  1.00  0.00     0.035 C 
ENDROOT
BRANCH   1   7
HETATM    7  N1  UNL     1      16.904  -9.599 101.642  1.00  0.00    -0.075 N 
HETATM    8  C1  UNL     1      15.485  -9.543 101.646  1.00  0.00     0.267 C 
ATOM      9  H12 UNL     1      17.305  -8.961 102.330  1.00  0.00     0.277 HD
ATOM     10  H11 UNL     1      17.245 -10.480 102.026  1.00  0.00     0.277 HD
ENDBRANCH   1   7
BRANCH   4  11
HETATM   11  N2  UNL     1      20.240 -10.068  98.222  1.00  0.00    -0.075 N 
ATOM     12  H23 UNL     1      20.408 -10.168  99.223  1.00  0.00     0.274 HD
ATOM     13  H22 UNL     1      20.187 -11.052  97.956  1.00  0.00     0.274 HD
ATOM     14  H21 UNL     1      21.035  -9.617  97.769  1.00  0.00     0.274 HD
ENDBRANCH   4  11
TORSDOF 2
ENDMDL
MODEL 5
REMARK VINA RESULT: -4.641737467      1.341      1.353
REMARK  2 active torsions:
REMARK  status: ('A' for Active; 'I' for Inactive)
REMARK    1  A    between atoms: N1_2  and  C2_5 
REMARK    2  A    between atoms: C5_8  and  N2_9 
ROOT
HETATM    1  C2  UNL     1      18.073  -7.833 100.714  1.00  0.00     0.185 C 
HETATM    2  C3  UNL     1      18.641  -7.750  99.319  1.00  0.00     0.035 C 
HETATM    3  C4  UNL     1      19.445  -9.017  99.112  1.00  0.00     0.034 C 
HETATM    4  C5  UNL     1      18.513 -10.188  99.196  1.00  0.00     0.183 C 
HETATM    5  C6  UNL     1      17.824 -10.225 100.546  1.00  0.00     0.034 C 
HETATM    6  C7  UNL     1      17.037  -8.928 100.767  1.00  0.00     0.035 C 
ENDROOT
BRANCH   1   7
HETATM    7  N1  UNL     1      17.651  -6.566 101.160  1.00  0.00    -0.075 N 
HETATM    8  C1  UNL     1      16.678  -6.676 102.188  1.00  0.00     0.267 C 
ATOM      9  H12 UNL     1      17.315  -5.990 100.388  1.00  0.00     0.277 HD
ATOM     10  H11 UNL     1      18.440  -5.991 101.453  1.00  0.00     0.277 HD
ENDBRANCH   1   7
BRANCH   4  11
HETATM   11  N2  UNL     1      17.578 -10.272  98.110  1.00  0.00    -0.075 N 
ATOM     12  H23 UNL     1      17.059  -9.399  98.017  1.00  0.00     0.274 HD
ATOM     13  H22 UNL     1      18.068 -10.278  97.215  1.00  0.00     0.274 HD
ATOM     14  H21 UNL     1      16.937 -11.063  98.172  1.00  0.00     0.274 HD
ENDBRANCH   4  11
TORSDOF 2
ENDMDL
