MODEL 1
REMARK VINA RESULT: -10.538177886      0.000      0.000
REMARK  3 active torsions:
REMARK  status: ('A' for Active; 'I' for Inactive)
REMARK    1  A    between atoms: O1_2  and  C2_3 
REMARK    2  A    between atoms: C9_12  and  C10_13 
REMARK    3  A    between atoms: C11_14  and  C12_15 
ROOT
HETATM    1  C2  UNL     1     -20.400  18.226 -19.758  1.00  0.00     0.103 A 
HETATM    2  C3  UNL     1     -20.154  19.303 -20.583  1.00  0.00     0.064 A 
HETATM    3  C4  UNL     1     -18.906  19.431 -21.145  1.00  0.00     0.043 A 
HETATM    4 CL1  UNL     1     -18.603  20.821 -22.204  1.00  0.00    -0.084 Cl
HETATM    5  C5  UNL     1     -17.939  18.507 -20.886  1.00  0.00    -0.031 A 
HETATM    6  C6  UNL     1     -16.612  18.738 -21.555  1.00  0.00     0.050 C 
HETATM    7  C7  UNL     1     -18.126  17.389 -20.056  1.00  0.00    -0.013 A 
HETATM    8  C8  UNL     1     -19.392  17.299 -19.513  1.00  0.00     0.111 A 
HETATM    9  O2  UNL     1     -19.952  16.331 -18.644  1.00  0.00    -0.327 OA
HETATM   10  C9  UNL     1     -19.187  15.406 -17.782  1.00  0.00     0.218 C 
HETATM   11  C19 UNL     1     -17.865  15.441 -18.277  1.00  0.00    -0.147 C 
HETATM   12  C20 UNL     1     -16.634  15.654 -18.917  1.00  0.00     0.087 C 
HETATM   13  C21 UNL     1     -16.865  16.671 -20.047  1.00  0.00     0.053 C 
ENDROOT
BRANCH  10  14
HETATM   14  C10 UNL     1     -19.447  15.899 -16.402  1.00  0.00     0.018 C 
HETATM   15  C11 UNL     1     -20.541  16.578 -16.127  1.00  0.00     0.038 C 
BRANCH  15  16
HETATM   16  C12 UNL     1     -20.808  17.075 -14.745  1.00  0.00     0.356 C 
HETATM   17  O3  UNL     1     -21.142  15.972 -13.964  1.00  0.00    -0.198 OA
HETATM   18  O4  UNL     1     -22.237  15.445 -14.469  1.00  0.00    -0.195 OA
HETATM   19  C13 UNL     1     -23.260  16.367 -14.239  1.00  0.00     0.229 C 
HETATM   20  C14 UNL     1     -23.185  16.772 -12.789  1.00  0.00     0.074 C 
HETATM   21  C18 UNL     1     -24.620  15.800 -14.495  1.00  0.00     0.074 C 
HETATM   22  O5  UNL     1     -22.984  17.461 -15.079  1.00  0.00    -0.195 OA
HETATM   23  C15 UNL     1     -24.471  16.532 -12.049  1.00  0.00     0.006 C 
HETATM   24  C16 UNL     1     -25.676  17.103 -12.722  1.00  0.00     0.000 C 
HETATM   25  C17 UNL     1     -25.638  16.877 -14.198  1.00  0.00     0.006 C 
HETATM   26  O6  UNL     1     -21.849  18.018 -14.791  1.00  0.00    -0.198 OA
ENDBRANCH  15  16
ENDBRANCH  10  14
BRANCH   1  27
HETATM   27  O1  UNL     1     -21.650  18.093 -19.193  1.00  0.00    -0.353 OA
HETATM   28  C1  UNL     1     -22.222  19.082 -18.393  1.00  0.00     0.210 C 
ENDBRANCH   1  27
TORSDOF 3
ENDMDL
MODEL 2
REMARK VINA RESULT: -10.024715446      0.931      1.017
REMARK  3 active torsions:
REMARK  status: ('A' for Active; 'I' for Inactive)
REMARK    1  A    between atoms: O1_2  and  C2_3 
REMARK    2  A    between atoms: C9_12  and  C10_13 
REMARK    3  A    between atoms: C11_14  and  C12_15 
ROOT
HETATM    1  C2  UNL     1     -21.158  18.761 -20.033  1.00  0.00     0.103 A 
HETATM    2  C3  UNL     1     -20.863  19.870 -20.798  1.00  0.00     0.064 A 
HETATM    3  C4  UNL     1     -19.606  19.980 -21.342  1.00  0.00     0.043 A 
HETATM    4 CL1  UNL     1     -19.240  21.412 -22.323  1.00  0.00    -0.084 Cl
HETATM    5  C5  UNL     1     -18.676  19.008 -21.124  1.00  0.00    -0.031 A 
HETATM    6  C6  UNL     1     -17.334  19.224 -21.768  1.00  0.00     0.050 C 
HETATM    7  C7  UNL     1     -18.913  17.856 -20.355  1.00  0.00    -0.013 A 
HETATM    8  C8  UNL     1     -20.187  17.786 -19.829  1.00  0.00     0.111 A 
HETATM    9  O2  UNL     1     -20.792  16.795 -19.016  1.00  0.00    -0.327 OA
HETATM   10  C9  UNL     1     -20.071  15.798 -18.198  1.00  0.00     0.218 C 
HETATM   11  C19 UNL     1     -18.743  15.809 -18.679  1.00  0.00    -0.147 C 
HETATM   12  C20 UNL     1     -17.498  16.009 -19.296  1.00  0.00     0.087 C 
HETATM   13  C21 UNL     1     -17.680  17.092 -20.374  1.00  0.00     0.053 C 
ENDROOT
BRANCH  10  14
HETATM   14  C10 UNL     1     -20.327  16.227 -16.796  1.00  0.00     0.018 C 
HETATM   15  C11 UNL     1     -21.444  16.845 -16.477  1.00  0.00     0.038 C 
BRANCH  15  16
HETATM   16  C12 UNL     1     -21.708  17.279 -15.073  1.00  0.00     0.356 C 
HETATM   17  O3  UNL     1     -22.132  16.158 -14.365  1.00  0.00    -0.198 OA
HETATM   18  O4  UNL     1     -23.248  15.737 -14.920  1.00  0.00    -0.195 OA
HETATM   19  C13 UNL     1     -24.212  16.712 -14.654  1.00  0.00     0.229 C 
HETATM   20  C14 UNL     1     -24.142  17.026 -13.181  1.00  0.00     0.074 C 
HETATM   21  C18 UNL     1     -25.602  16.255 -14.967  1.00  0.00     0.074 C 
HETATM   22  O5  UNL     1     -23.845  17.831 -15.423  1.00  0.00    -0.195 OA
HETATM   23  C15 UNL     1     -25.457  16.832 -12.480  1.00  0.00     0.006 C 
HETATM   24  C16 UNL     1     -26.606  17.522 -13.139  1.00  0.00     0.000 C 
HETATM   25  C17 UNL     1     -26.551  17.380 -14.625  1.00  0.00     0.006 C 
HETATM   26  O6  UNL     1     -22.682  18.292 -15.082  1.00  0.00    -0.198 OA
ENDBRANCH  15  16
ENDBRANCH  10  14
BRANCH   1  27
HETATM   27  O1  UNL     1     -22.417  18.646 -19.487  1.00  0.00    -0.353 OA
HETATM   28  C1  UNL     1     -22.999  19.656 -18.721  1.00  0.00     0.210 C 
ENDBRANCH   1  27
TORSDOF 3
ENDMDL
MODEL 3
REMARK VINA RESULT: -9.600562837      1.436      1.884
REMARK  3 active torsions:
REMARK  status: ('A' for Active; 'I' for Inactive)
REMARK    1  A    between atoms: O1_2  and  C2_3 
REMARK    2  A    between atoms: C9_12  and  C10_13 
REMARK    3  A    between atoms: C11_14  and  C12_15 
ROOT
HETATM    1  C2  UNL     1     -21.890  19.762 -20.050  1.00  0.00     0.103 A 
HETATM    2  C3  UNL     1     -21.454  20.732 -20.927  1.00  0.00     0.064 A 
HETATM    3  C4  UNL     1     -20.210  20.597 -21.497  1.00  0.00     0.043 A 
HETATM    4 CL1  UNL     1     -19.662  21.852 -22.623  1.00  0.00    -0.084 Cl
HETATM    5  C5  UNL     1     -19.431  19.521 -21.193  1.00  0.00    -0.031 A 
HETATM    6  C6  UNL     1     -18.091  19.465 -21.874  1.00  0.00     0.050 C 
HETATM    7  C7  UNL     1     -19.816  18.499 -20.307  1.00  0.00    -0.013 A 
HETATM    8  C8  UNL     1     -21.070  18.676 -19.760  1.00  0.00     0.111 A 
HETATM    9  O2  UNL     1     -21.793  17.874 -18.842  1.00  0.00    -0.327 OA
HETATM   10  C9  UNL     1     -21.207  16.865 -17.936  1.00  0.00     0.218 C 
HETATM   11  C19 UNL     1     -19.907  16.626 -18.434  1.00  0.00    -0.147 C 
HETATM   12  C20 UNL     1     -18.664  16.573 -19.085  1.00  0.00     0.087 C 
HETATM   13  C21 UNL     1     -18.712  17.559 -20.264  1.00  0.00     0.053 C 
ENDROOT
BRANCH  10  14
HETATM   14  C10 UNL     1     -21.355  17.464 -16.582  1.00  0.00     0.018 C 
HETATM   15  C11 UNL     1     -21.737  16.726 -15.561  1.00  0.00     0.038 C 
BRANCH  15  16
HETATM   16  C12 UNL     1     -21.887  17.320 -14.200  1.00  0.00     0.356 C 
HETATM   17  O3  UNL     1     -21.817  16.277 -13.281  1.00  0.00    -0.198 OA
HETATM   18  O4  UNL     1     -22.820  15.462 -13.527  1.00  0.00    -0.195 OA
HETATM   19  C13 UNL     1     -23.983  16.157 -13.188  1.00  0.00     0.229 C 
HETATM   20  C14 UNL     1     -23.773  16.745 -11.816  1.00  0.00     0.074 C 
HETATM   21  C18 UNL     1     -25.191  15.276 -13.137  1.00  0.00     0.074 C 
HETATM   22  O5  UNL     1     -24.117  17.171 -14.153  1.00  0.00    -0.195 OA
HETATM   23  C15 UNL     1     -24.827  16.321 -10.831  1.00  0.00     0.006 C 
HETATM   24  C16 UNL     1     -26.226  16.524 -11.313  1.00  0.00     0.000 C 
HETATM   25  C17 UNL     1     -26.375  16.129 -12.746  1.00  0.00     0.006 C 
HETATM   26  O6  UNL     1     -23.118  17.997 -14.129  1.00  0.00    -0.198 OA
ENDBRANCH  15  16
ENDBRANCH  10  14
BRANCH   1  27
HETATM   27  O1  UNL     1     -23.136  19.895 -19.478  1.00  0.00    -0.353 OA
HETATM   28  C1  UNL     1     -24.220  20.450 -20.157  1.00  0.00     0.210 C 
ENDBRANCH   1  27
TORSDOF 3
ENDMDL
MODEL 4
REMARK VINA RESULT: -9.436095347      2.502      3.446
REMARK  3 active torsions:
REMARK  status: ('A' for Active; 'I' for Inactive)
REMARK    1  A    between atoms: O1_2  and  C2_3 
REMARK    2  A    between atoms: C9_12  and  C10_13 
REMARK    3  A    between atoms: C11_14  and  C12_15 
ROOT
HETATM    1  C2  UNL     1     -22.352  19.949 -20.468  1.00  0.00     0.103 A 
HETATM    2  C3  UNL     1     -21.729  20.867 -21.288  1.00  0.00     0.064 A 
HETATM    3  C4  UNL     1     -20.401  20.686 -21.592  1.00  0.00     0.043 A 
HETATM    4 CL1  UNL     1     -19.613  21.873 -22.647  1.00  0.00    -0.084 Cl
HETATM    5  C5  UNL     1     -19.722  19.618 -21.087  1.00  0.00    -0.031 A 
HETATM    6  C6  UNL     1     -18.275  19.510 -21.485  1.00  0.00     0.050 C 
HETATM    7  C7  UNL     1     -20.297  18.649 -20.247  1.00  0.00    -0.013 A 
HETATM    8  C8  UNL     1     -21.631  18.870 -19.969  1.00  0.00     0.111 A 
HETATM    9  O2  UNL     1     -22.538  18.125 -19.175  1.00  0.00    -0.327 OA
HETATM   10  C9  UNL     1     -22.165  17.158 -18.122  1.00  0.00     0.218 C 
HETATM   11  C19 UNL     1     -20.798  16.878 -18.340  1.00  0.00    -0.147 C 
HETATM   12  C20 UNL     1     -19.453  16.775 -18.728  1.00  0.00     0.087 C 
HETATM   13  C21 UNL     1     -19.245  17.698 -19.940  1.00  0.00     0.053 C 
ENDROOT
BRANCH  10  14
HETATM   14  C10 UNL     1     -22.564  17.829 -16.856  1.00  0.00     0.018 C 
HETATM   15  C11 UNL     1     -23.632  18.598 -16.812  1.00  0.00     0.038 C 
BRANCH  15  16
HETATM   16  C12 UNL     1     -24.038  19.275 -15.545  1.00  0.00     0.356 C 
HETATM   17  O3  UNL     1     -24.465  18.285 -14.664  1.00  0.00    -0.198 OA
HETATM   18  O4  UNL     1     -25.506  17.691 -15.208  1.00  0.00    -0.195 OA
HETATM   19  C13 UNL     1     -26.538  18.632 -15.213  1.00  0.00     0.229 C 
HETATM   20  C14 UNL     1     -26.612  19.227 -13.830  1.00  0.00     0.074 C 
HETATM   21  C18 UNL     1     -27.869  18.032 -15.534  1.00  0.00     0.074 C 
HETATM   22  O5  UNL     1     -26.163  19.605 -16.157  1.00  0.00    -0.195 OA
HETATM   23  C15 UNL     1     -27.973  19.084 -13.205  1.00  0.00     0.006 C 
HETATM   24  C16 UNL     1     -29.093  19.556 -14.073  1.00  0.00     0.000 C 
HETATM   25  C17 UNL     1     -28.901  19.134 -15.493  1.00  0.00     0.006 C 
HETATM   26  O6  UNL     1     -25.059  20.200 -15.827  1.00  0.00    -0.198 OA
ENDBRANCH  15  16
ENDBRANCH  10  14
BRANCH   1  27
HETATM   27  O1  UNL     1     -23.683  20.127 -20.162  1.00  0.00    -0.353 OA
HETATM   28  C1  UNL     1     -24.571  20.775 -21.019  1.00  0.00     0.210 C 
ENDBRANCH   1  27
TORSDOF 3
ENDMDL
MODEL 5
REMARK VINA RESULT: -9.384730098      3.257      8.038
REMARK  3 active torsions:
REMARK  status: ('A' for Active; 'I' for Inactive)
REMARK    1  A    between atoms: O1_2  and  C2_3 
REMARK    2  A    between atoms: C9_12  and  C10_13 
REMARK    3  A    between atoms: C11_14  and  C12_15 
ROOT
HETATM    1  C2  UNL     1     -23.657  16.782 -17.657  1.00  0.00     0.103 A 
HETATM    2  C3  UNL     1     -24.119  16.324 -16.441  1.00  0.00     0.064 A 
HETATM    3  C4  UNL     1     -25.037  17.082 -15.755  1.00  0.00     0.043 A 
HETATM    4 CL1  UNL     1     -25.622  16.480 -14.193  1.00  0.00    -0.084 Cl
HETATM    5  C5  UNL     1     -25.476  18.262 -16.275  1.00  0.00    -0.031 A 
HETATM    6  C6  UNL     1     -26.485  19.012 -15.447  1.00  0.00     0.050 C 
HETATM    7  C7  UNL     1     -25.046  18.785 -17.506  1.00  0.00    -0.013 A 
HETATM    8  C8  UNL     1     -24.125  17.992 -18.160  1.00  0.00     0.111 A 
HETATM    9  O2  UNL     1     -23.471  18.179 -19.403  1.00  0.00    -0.327 OA
HETATM   10  C9  UNL     1     -23.310  19.469 -20.104  1.00  0.00     0.218 C 
HETATM   11  C19 UNL     1     -24.229  20.346 -19.487  1.00  0.00    -0.147 C 
HETATM   12  C20 UNL     1     -25.181  21.032 -18.716  1.00  0.00     0.087 C 
HETATM   13  C21 UNL     1     -25.746  20.043 -17.684  1.00  0.00     0.053 C 
ENDROOT
BRANCH  10  14
HETATM   14  C10 UNL     1     -21.856  19.763 -19.994  1.00  0.00     0.018 C 
HETATM   15  C11 UNL     1     -21.031  19.444 -20.969  1.00  0.00     0.038 C 
BRANCH  15  16
HETATM   16  C12 UNL     1     -19.571  19.737 -20.865  1.00  0.00     0.356 C 
HETATM   17  O3  UNL     1     -18.927  18.991 -21.847  1.00  0.00    -0.198 OA
HETATM   18  O4  UNL     1     -19.148  17.719 -21.590  1.00  0.00    -0.195 OA
HETATM   19  C13 UNL     1     -18.455  17.430 -20.412  1.00  0.00     0.229 C 
HETATM   20  C14 UNL     1     -17.054  17.963 -20.571  1.00  0.00     0.074 C 
HETATM   21  C18 UNL     1     -18.367  15.963 -20.136  1.00  0.00     0.074 C 
HETATM   22  O5  UNL     1     -19.138  18.114 -19.390  1.00  0.00    -0.195 OA
HETATM   23  C15 UNL     1     -16.002  16.907 -20.375  1.00  0.00     0.006 C 
HETATM   24  C16 UNL     1     -16.157  16.122 -19.113  1.00  0.00     0.000 C 
HETATM   25  C17 UNL     1     -17.587  15.775 -18.856  1.00  0.00     0.006 C 
HETATM   26  O6  UNL     1     -19.127  19.397 -19.575  1.00  0.00    -0.198 OA
ENDBRANCH  15  16
ENDBRANCH  10  14
BRANCH   1  27
HETATM   27  O1  UNL     1     -22.737  16.025 -18.348  1.00  0.00    -0.353 OA
HETATM   28  C1  UNL     1     -21.527  15.616 -17.787  1.00  0.00     0.210 C 
ENDBRANCH   1  27
TORSDOF 3
ENDMDL
