MODEL 1
REMARK VINA RESULT: -4.987519608      0.000      0.000
REMARK  4 active torsions:
REMARK  status: ('A' for Active; 'I' for Inactive)
REMARK    1  A    between atoms: C3_3  and  O1_4 
REMARK    2  A    between atoms: N1_7  and  N2_8 
REMARK    3  A    between atoms: N3_10  and  N4_12 
REMARK    4  A    between atoms: N4_12  and  N5_14 
ROOT
HETATM    1  C1  UNL     1      24.830  -3.556   0.160  1.00  0.00     0.016 C 
HETATM    2  C2  UNL     1      23.867  -2.991  -0.303  1.00  0.00    -0.058 C 
HETATM    3  C3  UNL     1      22.695  -2.306  -0.860  1.00  0.00     0.231 C 
HETATM    4  C4  UNL     1      22.286  -2.985  -2.141  1.00  0.00     0.228 C 
HETATM    5  N1  UNL     1      21.128  -2.316  -2.661  1.00  0.00    -0.221 N 
HETATM    6  C6  UNL     1      20.227  -1.700  -1.765  1.00  0.00     0.354 C 
HETATM    7  O2  UNL     1      19.129  -1.204  -2.145  1.00  0.00    -0.244 OA
HETATM    8  N6  UNL     1      20.526  -1.612  -0.361  1.00  0.00    -0.250 N 
ATOM      9  H6  UNL     1      19.936  -1.062   0.264  1.00  0.00     0.187 HD
HETATM   10  N7  UNL     1      21.640  -2.295   0.128  1.00  0.00    -0.083 NA
ENDROOT
BRANCH   3  11
HETATM   11  O1  UNL     1      22.987  -0.974  -1.183  1.00  0.00    -0.361 OA
ATOM     12  H1  UNL     1      22.703  -0.760  -2.064  1.00  0.00     0.213 HD
ENDBRANCH   3  11
BRANCH   5  13
HETATM   13  N2  UNL     1      20.876  -2.261  -4.013  1.00  0.00    -0.221 N 
HETATM   14  N3  UNL     1      20.917  -1.174  -4.694  1.00  0.00    -0.212 N 
ATOM     15  H3  UNL     1      21.142  -0.275  -4.269  1.00  0.00     0.211 HD
ATOM     16  H2  UNL     1      20.644  -3.128  -4.499  1.00  0.00     0.210 HD
BRANCH  14  17
HETATM   17  N4  UNL     1      20.635  -1.303  -6.052  1.00  0.00    -0.230 N 
HETATM   18  C5  UNL     1      20.514  -2.628  -6.612  1.00  0.00     0.201 C 
BRANCH  17  19
HETATM   19  N5  UNL     1      20.478  -0.166  -6.825  1.00  0.00    -0.328 N 
ATOM     20  H52 UNL     1      19.664   0.441  -6.732  1.00  0.00     0.178 HD
ATOM     21  H51 UNL     1      21.195   0.078  -7.508  1.00  0.00     0.178 HD
ENDBRANCH  17  19
ENDBRANCH  14  17
ENDBRANCH   5  13
TORSDOF 4
ENDMDL
MODEL 2
REMARK VINA RESULT: -4.728130083      2.641      5.278
REMARK  4 active torsions:
REMARK  status: ('A' for Active; 'I' for Inactive)
REMARK    1  A    between atoms: C3_3  and  O1_4 
REMARK    2  A    between atoms: N1_7  and  N2_8 
REMARK    3  A    between atoms: N3_10  and  N4_12 
REMARK    4  A    between atoms: N4_12  and  N5_14 
ROOT
HETATM    1  C1  UNL     1      22.036  -6.693  -6.256  1.00  0.00     0.016 C 
HETATM    2  C2  UNL     1      21.568  -5.707  -5.735  1.00  0.00    -0.058 C 
HETATM    3  C3  UNL     1      20.999  -4.510  -5.108  1.00  0.00     0.231 C 
HETATM    4  C4  UNL     1      21.927  -4.030  -4.022  1.00  0.00     0.228 C 
HETATM    5  N1  UNL     1      21.366  -2.848  -3.434  1.00  0.00    -0.221 N 
HETATM    6  C6  UNL     1      20.562  -1.998  -4.226  1.00  0.00     0.354 C 
HETATM    7  O2  UNL     1      20.142  -0.883  -3.807  1.00  0.00    -0.244 OA
HETATM    8  N6  UNL     1      20.185  -2.372  -5.562  1.00  0.00    -0.250 N 
ATOM      9  H6  UNL     1      19.507  -1.818  -6.087  1.00  0.00     0.187 HD
HETATM   10  N7  UNL     1      20.766  -3.510  -6.125  1.00  0.00    -0.083 NA
ENDROOT
BRANCH   3  11
HETATM   11  O1  UNL     1      19.769  -4.787  -4.497  1.00  0.00    -0.361 OA
ATOM     12  H1  UNL     1      19.174  -4.050  -4.565  1.00  0.00     0.213 HD
ENDBRANCH   3  11
BRANCH   5  13
HETATM   13  N2  UNL     1      21.593  -2.523  -2.115  1.00  0.00    -0.221 N 
HETATM   14  N3  UNL     1      20.672  -2.108  -1.323  1.00  0.00    -0.212 N 
ATOM     15  H3  UNL     1      19.705  -1.992  -1.627  1.00  0.00     0.211 HD
ATOM     16  H2  UNL     1      22.540  -2.618  -1.749  1.00  0.00     0.210 HD
BRANCH  14  17
HETATM   17  N4  UNL     1      21.080  -1.826  -0.021  1.00  0.00    -0.230 N 
HETATM   18  C5  UNL     1      20.101  -1.346   0.923  1.00  0.00     0.201 C 
BRANCH  17  19
HETATM   19  N5  UNL     1      22.405  -2.014   0.330  1.00  0.00    -0.328 N 
ATOM     20  H52 UNL     1      23.169  -1.616  -0.216  1.00  0.00     0.178 HD
ATOM     21  H51 UNL     1      22.630  -2.565   1.159  1.00  0.00     0.178 HD
ENDBRANCH  17  19
ENDBRANCH  14  17
ENDBRANCH   5  13
TORSDOF 4
ENDMDL
MODEL 3
REMARK VINA RESULT: -4.664542022      1.039      1.062
REMARK  4 active torsions:
REMARK  status: ('A' for Active; 'I' for Inactive)
REMARK    1  A    between atoms: C3_3  and  O1_4 
REMARK    2  A    between atoms: N1_7  and  N2_8 
REMARK    3  A    between atoms: N3_10  and  N4_12 
REMARK    4  A    between atoms: N4_12  and  N5_14 
ROOT
HETATM    1  C1  UNL     1      24.238  -3.904   0.659  1.00  0.00     0.016 C 
HETATM    2  C2  UNL     1      23.503  -3.106   0.123  1.00  0.00    -0.058 C 
HETATM    3  C3  UNL     1      22.609  -2.139  -0.522  1.00  0.00     0.231 C 
HETATM    4  C4  UNL     1      22.567  -2.415  -2.003  1.00  0.00     0.228 C 
HETATM    5  N1  UNL     1      21.673  -1.474  -2.615  1.00  0.00    -0.221 N 
HETATM    6  C6  UNL     1      20.585  -0.970  -1.869  1.00  0.00     0.354 C 
HETATM    7  O2  UNL     1      19.694  -0.239  -2.384  1.00  0.00    -0.244 OA
HETATM    8  N6  UNL     1      20.444  -1.274  -0.470  1.00  0.00    -0.250 N 
ATOM      9  H6  UNL     1      19.730  -0.813   0.094  1.00  0.00     0.187 HD
HETATM   10  N7  UNL     1      21.306  -2.214   0.097  1.00  0.00    -0.083 NA
ENDROOT
BRANCH   3  11
HETATM   11  O1  UNL     1      23.076  -0.827  -0.367  1.00  0.00    -0.361 OA
ATOM     12  H1  UNL     1      23.025  -0.342  -1.182  1.00  0.00     0.213 HD
ENDBRANCH   3  11
BRANCH   5  13
HETATM   13  N2  UNL     1      21.852  -1.052  -3.913  1.00  0.00    -0.221 N 
HETATM   14  N3  UNL     1      21.005  -1.279  -4.851  1.00  0.00    -0.212 N 
ATOM     15  H3  UNL     1      20.139  -1.793  -4.688  1.00  0.00     0.211 HD
ATOM     16  H2  UNL     1      22.700  -0.532  -4.142  1.00  0.00     0.210 HD
BRANCH  14  17
HETATM   17  N4  UNL     1      21.347  -0.778  -6.105  1.00  0.00    -0.230 N 
HETATM   18  C5  UNL     1      22.726  -0.843  -6.525  1.00  0.00     0.201 C 
BRANCH  17  19
HETATM   19  N5  UNL     1      20.362  -0.234  -6.911  1.00  0.00    -0.328 N 
ATOM     20  H52 UNL     1      19.899  -0.779  -7.638  1.00  0.00     0.178 HD
ATOM     21  H51 UNL     1      20.087   0.739  -6.778  1.00  0.00     0.178 HD
ENDBRANCH  17  19
ENDBRANCH  14  17
ENDBRANCH   5  13
TORSDOF 4
ENDMDL
MODEL 4
REMARK VINA RESULT: -4.626691543      2.200      5.419
REMARK  4 active torsions:
REMARK  status: ('A' for Active; 'I' for Inactive)
REMARK    1  A    between atoms: C3_3  and  O1_4 
REMARK    2  A    between atoms: N1_7  and  N2_8 
REMARK    3  A    between atoms: N3_10  and  N4_12 
REMARK    4  A    between atoms: N4_12  and  N5_14 
ROOT
HETATM    1  C1  UNL     1      20.741  -1.309  -6.222  1.00  0.00     0.016 C 
HETATM    2  C2  UNL     1      20.699  -1.633  -5.057  1.00  0.00    -0.058 C 
HETATM    3  C3  UNL     1      20.646  -2.022  -3.644  1.00  0.00     0.231 C 
HETATM    4  C4  UNL     1      22.041  -2.020  -3.076  1.00  0.00     0.228 C 
HETATM    5  N1  UNL     1      21.968  -2.382  -1.690  1.00  0.00    -0.221 N 
HETATM    6  C6  UNL     1      20.809  -2.057  -0.951  1.00  0.00     0.354 C 
HETATM    7  O2  UNL     1      20.731  -2.235   0.296  1.00  0.00    -0.244 OA
HETATM    8  N6  UNL     1      19.653  -1.499  -1.600  1.00  0.00    -0.250 N 
ATOM      9  H6  UNL     1      18.777  -1.378  -1.091  1.00  0.00     0.187 HD
HETATM   10  N7  UNL     1      19.755  -1.126  -2.941  1.00  0.00    -0.083 NA
ENDROOT
BRANCH   3  11
HETATM   11  O1  UNL     1      20.147  -3.322  -3.490  1.00  0.00    -0.361 OA
ATOM     12  H1  UNL     1      19.625  -3.402  -2.700  1.00  0.00     0.213 HD
ENDBRANCH   3  11
BRANCH   5  13
HETATM   13  N2  UNL     1      23.002  -3.040  -1.063  1.00  0.00    -0.221 N 
HETATM   14  N3  UNL     1      23.556  -2.617   0.015  1.00  0.00    -0.212 N 
ATOM     15  H3  UNL     1      23.259  -1.757   0.477  1.00  0.00     0.211 HD
ATOM     16  H2  UNL     1      23.346  -3.908  -1.475  1.00  0.00     0.210 HD
BRANCH  14  17
HETATM   17  N4  UNL     1      24.589  -3.409   0.513  1.00  0.00    -0.230 N 
HETATM   18  C5  UNL     1      25.847  -3.429  -0.192  1.00  0.00     0.201 C 
BRANCH  17  19
HETATM   19  N5  UNL     1      24.382  -4.151   1.663  1.00  0.00    -0.328 N 
ATOM     20  H52 UNL     1      23.553  -4.024   2.244  1.00  0.00     0.178 HD
ATOM     21  H51 UNL     1      25.074  -4.846   1.941  1.00  0.00     0.178 HD
ENDBRANCH  17  19
ENDBRANCH  14  17
ENDBRANCH   5  13
TORSDOF 4
ENDMDL
MODEL 5
REMARK VINA RESULT: -4.606581836      3.004      3.981
REMARK  4 active torsions:
REMARK  status: ('A' for Active; 'I' for Inactive)
REMARK    1  A    between atoms: C3_3  and  O1_4 
REMARK    2  A    between atoms: N1_7  and  N2_8 
REMARK    3  A    between atoms: N3_10  and  N4_12 
REMARK    4  A    between atoms: N4_12  and  N5_14 
ROOT
HETATM    1  C1  UNL     1      20.120  -1.452   0.529  1.00  0.00     0.016 C 
HETATM    2  C2  UNL     1      20.252  -1.423  -0.672  1.00  0.00    -0.058 C 
HETATM    3  C3  UNL     1      20.411  -1.393  -2.130  1.00  0.00     0.231 C 
HETATM    4  C4  UNL     1      21.824  -0.991  -2.467  1.00  0.00     0.228 C 
HETATM    5  N1  UNL     1      21.968  -0.987  -3.894  1.00  0.00    -0.221 N 
HETATM    6  C6  UNL     1      21.187  -1.873  -4.669  1.00  0.00     0.354 C 
HETATM    7  O2  UNL     1      21.353  -2.007  -5.914  1.00  0.00    -0.244 OA
HETATM    8  N6  UNL     1      20.156  -2.672  -4.063  1.00  0.00    -0.250 N 
ATOM      9  H6  UNL     1      19.514  -3.218  -4.638  1.00  0.00     0.187 HD
HETATM   10  N7  UNL     1      20.054  -2.684  -2.671  1.00  0.00    -0.083 NA
ENDROOT
BRANCH   3  11
HETATM   11  O1  UNL     1      19.568  -0.440  -2.717  1.00  0.00    -0.361 OA
ATOM     12  H1  UNL     1      19.732   0.429  -2.370  1.00  0.00     0.213 HD
ENDBRANCH   3  11
BRANCH   5  13
HETATM   13  N2  UNL     1      22.849  -0.138  -4.525  1.00  0.00    -0.221 N 
HETATM   14  N3  UNL     1      23.656   0.637  -3.895  1.00  0.00    -0.212 N 
ATOM     15  H3  UNL     1      23.692   0.671  -2.876  1.00  0.00     0.211 HD
ATOM     16  H2  UNL     1      22.863  -0.125  -5.545  1.00  0.00     0.210 HD
BRANCH  14  17
HETATM   17  N4  UNL     1      24.479   1.427  -4.694  1.00  0.00    -0.230 N 
HETATM   18  C5  UNL     1      25.765   0.909  -5.091  1.00  0.00     0.201 C 
BRANCH  17  19
HETATM   19  N5  UNL     1      24.043   2.682  -5.084  1.00  0.00    -0.328 N 
ATOM     20  H52 UNL     1      23.055   2.934  -5.083  1.00  0.00     0.178 HD
ATOM     21  H51 UNL     1      24.727   3.378  -5.382  1.00  0.00     0.178 HD
ENDBRANCH  17  19
ENDBRANCH  14  17
ENDBRANCH   5  13
TORSDOF 4
ENDMDL
