MODEL 1
REMARK VINA RESULT: -4.813742404      0.000      0.000
REMARK  5 active torsions:
REMARK  status: ('A' for Active; 'I' for Inactive)
REMARK    1  A    between atoms: N1_1  and  C1_5 
REMARK    2  A    between atoms: C1_5  and  S1_6 
REMARK    3  A    between atoms: S1_6  and  N2_9 
REMARK    4  A    between atoms: N2_9  and  C2_11 
REMARK    5  A    between atoms: N4_17  and  N5_19 
ROOT
HETATM    1  C2  UNL     1      21.661  -1.147  -3.026  1.00  0.00     0.689 C 
HETATM    2  N3  UNL     1      22.843  -1.219  -2.576  1.00  0.00    -0.225 N 
ATOM      3  H3  UNL     1      23.588  -1.097  -3.261  1.00  0.00     0.177 HD
HETATM    4  C3  UNL     1      23.264  -1.450  -1.234  1.00  0.00     0.145 C 
HETATM    5  C4  UNL     1      22.195  -1.820  -0.264  1.00  0.00     0.098 C 
HETATM    6  C5  UNL     1      20.835  -1.551  -0.718  1.00  0.00     0.113 C 
HETATM    7  N4  UNL     1      19.860  -1.527   0.122  1.00  0.00    -0.295 N 
ATOM      8  H4  UNL     1      18.922  -1.336  -0.229  1.00  0.00     0.187 HD
HETATM    9  N6  UNL     1      20.582  -1.310  -2.108  1.00  0.00    -0.179 N 
ATOM     10  H6  UNL     1      19.620  -1.256  -2.444  1.00  0.00     0.185 HD
ENDROOT
BRANCH   1  11
HETATM   11  N2  UNL     1      21.316  -0.909  -4.402  1.00  0.00    -0.115 N 
ATOM     12  H2  UNL     1      21.441   0.030  -4.780  1.00  0.00     0.197 HD
BRANCH  11  13
HETATM   13  S1  UNL     1      20.709  -2.123  -5.425  1.00  0.00     0.268 S 
HETATM   14  O1  UNL     1      19.549  -2.798  -4.756  1.00  0.00    -0.203 OA
HETATM   15  O2  UNL     1      21.733  -3.200  -5.708  1.00  0.00    -0.203 OA
BRANCH  13  16
HETATM   16  C1  UNL     1      20.153  -1.495  -6.986  1.00  0.00     0.392 C 
BRANCH  16  17
HETATM   17  N1  UNL     1      20.420  -0.057  -6.991  1.00  0.00    -0.065 N 
ATOM     18  H13 UNL     1      20.383   0.360  -6.061  1.00  0.00     0.275 HD
ATOM     19  H12 UNL     1      21.393   0.169  -7.196  1.00  0.00     0.275 HD
ATOM     20  H11 UNL     1      19.764   0.368  -7.647  1.00  0.00     0.275 HD
ENDBRANCH  16  17
ENDBRANCH  13  16
ENDBRANCH  11  13
ENDBRANCH   1  11
BRANCH   7  21
HETATM   21  N5  UNL     1      20.018  -1.747   1.471  1.00  0.00    -0.344 N 
ATOM     22  H52 UNL     1      20.927  -2.087   1.786  1.00  0.00     0.176 HD
ATOM     23  H51 UNL     1      19.280  -1.586   2.156  1.00  0.00     0.176 HD
ENDBRANCH   7  21
TORSDOF 5
ENDMDL
MODEL 2
REMARK VINA RESULT: -4.726602537      1.421      1.894
REMARK  5 active torsions:
REMARK  status: ('A' for Active; 'I' for Inactive)
REMARK    1  A    between atoms: N1_1  and  C1_5 
REMARK    2  A    between atoms: C1_5  and  S1_6 
REMARK    3  A    between atoms: S1_6  and  N2_9 
REMARK    4  A    between atoms: N2_9  and  C2_11 
REMARK    5  A    between atoms: N4_17  and  N5_19 
ROOT
HETATM    1  C2  UNL     1      21.762  -1.310  -2.959  1.00  0.00     0.689 C 
HETATM    2  N3  UNL     1      22.934  -1.296  -2.479  1.00  0.00    -0.225 N 
ATOM      3  H3  UNL     1      23.689  -1.173  -3.153  1.00  0.00     0.177 HD
HETATM    4  C3  UNL     1      23.333  -1.431  -1.117  1.00  0.00     0.145 C 
HETATM    5  C4  UNL     1      22.260  -1.803  -0.152  1.00  0.00     0.098 C 
HETATM    6  C5  UNL     1      20.899  -1.630  -0.651  1.00  0.00     0.113 C 
HETATM    7  N4  UNL     1      19.904  -1.611   0.165  1.00  0.00    -0.295 N 
ATOM      8  H4  UNL     1      18.967  -1.489  -0.218  1.00  0.00     0.187 HD
HETATM    9  N6  UNL     1      20.670  -1.480  -2.058  1.00  0.00    -0.179 N 
ATOM     10  H6  UNL     1      19.715  -1.494  -2.418  1.00  0.00     0.185 HD
ENDROOT
BRANCH   1  11
HETATM   11  N2  UNL     1      21.440  -1.167  -4.353  1.00  0.00    -0.115 N 
ATOM     12  H2  UNL     1      21.732  -0.317  -4.835  1.00  0.00     0.197 HD
BRANCH  11  13
HETATM   13  S1  UNL     1      20.595  -2.351  -5.233  1.00  0.00     0.268 S 
HETATM   14  O1  UNL     1      20.131  -1.763  -6.533  1.00  0.00    -0.203 OA
HETATM   15  O2  UNL     1      19.357  -2.830  -4.508  1.00  0.00    -0.203 OA
BRANCH  13  16
HETATM   16  C1  UNL     1      21.583  -3.776  -5.597  1.00  0.00     0.392 C 
BRANCH  16  17
HETATM   17  N1  UNL     1      21.518  -4.654  -4.429  1.00  0.00    -0.065 N 
ATOM     18  H13 UNL     1      22.430  -5.017  -4.151  1.00  0.00     0.275 HD
ATOM     19  H12 UNL     1      21.307  -4.156  -3.565  1.00  0.00     0.275 HD
ATOM     20  H11 UNL     1      20.843  -5.388  -4.643  1.00  0.00     0.275 HD
ENDBRANCH  16  17
ENDBRANCH  13  16
ENDBRANCH  11  13
ENDBRANCH   1  11
BRANCH   7  21
HETATM   21  N5  UNL     1      20.039  -1.748   1.527  1.00  0.00    -0.344 N 
ATOM     22  H52 UNL     1      20.801  -1.239   1.975  1.00  0.00     0.176 HD
ATOM     23  H51 UNL     1      19.421  -2.326   2.096  1.00  0.00     0.176 HD
ENDBRANCH   7  21
TORSDOF 5
ENDMDL
MODEL 3
REMARK VINA RESULT: -4.719349914      2.606      5.649
REMARK  5 active torsions:
REMARK  status: ('A' for Active; 'I' for Inactive)
REMARK    1  A    between atoms: N1_1  and  C1_5 
REMARK    2  A    between atoms: C1_5  and  S1_6 
REMARK    3  A    between atoms: S1_6  and  N2_9 
REMARK    4  A    between atoms: N2_9  and  C2_11 
REMARK    5  A    between atoms: N4_17  and  N5_19 
ROOT
HETATM    1  C2  UNL     1      21.026  -3.241  -3.814  1.00  0.00     0.689 C 
HETATM    2  N3  UNL     1      21.184  -4.421  -4.247  1.00  0.00    -0.225 N 
ATOM      3  H3  UNL     1      21.435  -5.121  -3.550  1.00  0.00     0.177 HD
HETATM    4  C3  UNL     1      21.056  -4.895  -5.586  1.00  0.00     0.145 C 
HETATM    5  C4  UNL     1      20.880  -3.854  -6.637  1.00  0.00     0.098 C 
HETATM    6  C5  UNL     1      20.506  -2.535  -6.139  1.00  0.00     0.113 C 
HETATM    7  N4  UNL     1      20.025  -1.649  -6.938  1.00  0.00    -0.295 N 
ATOM      8  H4  UNL     1      19.773  -0.737  -6.556  1.00  0.00     0.187 HD
HETATM    9  N6  UNL     1      20.674  -2.224  -4.750  1.00  0.00    -0.179 N 
ATOM     10  H6  UNL     1      20.540  -1.266  -4.427  1.00  0.00     0.185 HD
ENDROOT
BRANCH   1  11
HETATM   11  N2  UNL     1      21.174  -2.840  -2.441  1.00  0.00    -0.115 N 
ATOM     12  H2  UNL     1      21.794  -3.383  -1.840  1.00  0.00     0.197 HD
BRANCH  11  13
HETATM   13  S1  UNL     1      20.362  -1.504  -1.776  1.00  0.00     0.268 S 
HETATM   14  O1  UNL     1      18.925  -1.534  -2.205  1.00  0.00    -0.203 OA
HETATM   15  O2  UNL     1      20.931  -0.188  -2.259  1.00  0.00    -0.203 OA
BRANCH  13  16
HETATM   16  C1  UNL     1      20.405  -1.483  -0.004  1.00  0.00     0.392 C 
BRANCH  16  17
HETATM   17  N1  UNL     1      21.755  -1.874   0.399  1.00  0.00    -0.065 N 
ATOM     18  H13 UNL     1      22.134  -2.638  -0.161  1.00  0.00     0.275 HD
ATOM     19  H12 UNL     1      22.461  -1.176   0.163  1.00  0.00     0.275 HD
ATOM     20  H11 UNL     1      21.721  -2.087   1.396  1.00  0.00     0.275 HD
ENDBRANCH  16  17
ENDBRANCH  13  16
ENDBRANCH  11  13
ENDBRANCH   1  11
BRANCH   7  21
HETATM   21  N5  UNL     1      19.832  -1.868  -8.283  1.00  0.00    -0.344 N 
ATOM     22  H52 UNL     1      19.563  -2.809  -8.570  1.00  0.00     0.176 HD
ATOM     23  H51 UNL     1      19.944  -1.142  -8.991  1.00  0.00     0.176 HD
ENDBRANCH   7  21
TORSDOF 5
ENDMDL
MODEL 4
REMARK VINA RESULT: -4.635461959      2.275      5.701
REMARK  5 active torsions:
REMARK  status: ('A' for Active; 'I' for Inactive)
REMARK    1  A    between atoms: N1_1  and  C1_5 
REMARK    2  A    between atoms: C1_5  and  S1_6 
REMARK    3  A    between atoms: S1_6  and  N2_9 
REMARK    4  A    between atoms: N2_9  and  C2_11 
REMARK    5  A    between atoms: N4_17  and  N5_19 
ROOT
HETATM    1  C2  UNL     1      20.591  -2.498  -4.257  1.00  0.00     0.689 C 
HETATM    2  N3  UNL     1      20.743  -3.524  -4.983  1.00  0.00    -0.225 N 
ATOM      3  H3  UNL     1      20.769  -4.418  -4.492  1.00  0.00     0.177 HD
HETATM    4  C3  UNL     1      20.883  -3.591  -6.400  1.00  0.00     0.145 C 
HETATM    5  C4  UNL     1      21.041  -2.288  -7.106  1.00  0.00     0.098 C 
HETATM    6  C5  UNL     1      20.675  -1.115  -6.319  1.00  0.00     0.113 C 
HETATM    7  N4  UNL     1      20.466   0.017  -6.894  1.00  0.00    -0.295 N 
ATOM      8  H4  UNL     1      20.212   0.816  -6.314  1.00  0.00     0.187 HD
HETATM    9  N6  UNL     1      20.548  -1.224  -4.895  1.00  0.00    -0.179 N 
ATOM     10  H6  UNL     1      20.426  -0.381  -4.333  1.00  0.00     0.185 HD
ENDROOT
BRANCH   1  11
HETATM   11  N2  UNL     1      20.456  -2.514  -2.825  1.00  0.00    -0.115 N 
ATOM     12  H2  UNL     1      20.053  -3.340  -2.383  1.00  0.00     0.197 HD
BRANCH  11  13
HETATM   13  S1  UNL     1      20.939  -1.218  -1.837  1.00  0.00     0.268 S 
HETATM   14  O1  UNL     1      19.923  -0.119  -1.932  1.00  0.00    -0.203 OA
HETATM   15  O2  UNL     1      22.261  -0.626  -2.272  1.00  0.00    -0.203 OA
BRANCH  13  16
HETATM   16  C1  UNL     1      21.095  -1.673  -0.131  1.00  0.00     0.392 C 
BRANCH  16  17
HETATM   17  N1  UNL     1      19.742  -1.761   0.417  1.00  0.00    -0.065 N 
ATOM     18  H13 UNL     1      19.324  -0.848   0.600  1.00  0.00     0.275 HD
ATOM     19  H12 UNL     1      19.054  -2.084  -0.264  1.00  0.00     0.275 HD
ATOM     20  H11 UNL     1      19.792  -2.352   1.247  1.00  0.00     0.275 HD
ENDBRANCH  16  17
ENDBRANCH  13  16
ENDBRANCH  11  13
ENDBRANCH   1  11
BRANCH   7  21
HETATM   21  N5  UNL     1      20.567   0.205  -8.253  1.00  0.00    -0.344 N 
ATOM     22  H52 UNL     1      19.816  -0.170  -8.834  1.00  0.00     0.176 HD
ATOM     23  H51 UNL     1      21.344   0.695  -8.696  1.00  0.00     0.176 HD
ENDBRANCH   7  21
TORSDOF 5
ENDMDL
MODEL 5
REMARK VINA RESULT: -4.533622545      1.539      2.131
REMARK  5 active torsions:
REMARK  status: ('A' for Active; 'I' for Inactive)
REMARK    1  A    between atoms: N1_1  and  C1_5 
REMARK    2  A    between atoms: C1_5  and  S1_6 
REMARK    3  A    between atoms: S1_6  and  N2_9 
REMARK    4  A    between atoms: N2_9  and  C2_11 
REMARK    5  A    between atoms: N4_17  and  N5_19 
ROOT
HETATM    1  C2  UNL     1      20.781  -1.108  -2.441  1.00  0.00     0.689 C 
HETATM    2  N3  UNL     1      19.863  -1.070  -1.570  1.00  0.00    -0.225 N 
ATOM      3  H3  UNL     1      18.968  -0.694  -1.882  1.00  0.00     0.177 HD
HETATM    4  C3  UNL     1      19.921  -1.487  -0.208  1.00  0.00     0.145 C 
HETATM    5  C4  UNL     1      21.268  -1.855   0.310  1.00  0.00     0.098 C 
HETATM    6  C5  UNL     1      22.278  -2.088  -0.717  1.00  0.00     0.113 C 
HETATM    7  N4  UNL     1      23.370  -2.706  -0.430  1.00  0.00    -0.295 N 
ATOM      8  H4  UNL     1      24.054  -2.851  -1.173  1.00  0.00     0.187 HD
HETATM    9  N6  UNL     1      22.053  -1.626  -2.055  1.00  0.00    -0.179 N 
ATOM     10  H6  UNL     1      22.809  -1.667  -2.738  1.00  0.00     0.185 HD
ENDROOT
BRANCH   1  11
HETATM   11  N2  UNL     1      20.644  -0.666  -3.803  1.00  0.00    -0.115 N 
ATOM     12  H2  UNL     1      20.486   0.326  -3.980  1.00  0.00     0.197 HD
BRANCH  11  13
HETATM   13  S1  UNL     1      20.733  -1.723  -5.131  1.00  0.00     0.268 S 
HETATM   14  O1  UNL     1      19.648  -2.753  -5.017  1.00  0.00    -0.203 OA
HETATM   15  O2  UNL     1      22.044  -2.478  -5.176  1.00  0.00    -0.203 OA
BRANCH  13  16
HETATM   16  C1  UNL     1      20.543  -0.895  -6.686  1.00  0.00     0.392 C 
BRANCH  16  17
HETATM   17  N1  UNL     1      21.819  -0.249  -6.989  1.00  0.00    -0.065 N 
ATOM     18  H13 UNL     1      22.621  -0.864  -6.850  1.00  0.00     0.275 HD
ATOM     19  H12 UNL     1      21.956  -0.081  -7.986  1.00  0.00     0.275 HD
ATOM     20  H11 UNL     1      21.865   0.603  -6.430  1.00  0.00     0.275 HD
ENDBRANCH  16  17
ENDBRANCH  13  16
ENDBRANCH  11  13
ENDBRANCH   1  11
BRANCH   7  21
HETATM   21  N5  UNL     1      23.662  -3.180   0.827  1.00  0.00    -0.344 N 
ATOM     22  H52 UNL     1      23.534  -2.540   1.611  1.00  0.00     0.176 HD
ATOM     23  H51 UNL     1      23.995  -4.128   1.005  1.00  0.00     0.176 HD
ENDBRANCH   7  21
TORSDOF 5
ENDMDL
