MODEL 1
REMARK VINA RESULT: -5.786634998      0.000      0.000
REMARK  3 active torsions:
REMARK  status: ('A' for Active; 'I' for Inactive)
REMARK    1  A    between atoms: N1_1  and  C1_4 
REMARK    2  A    between atoms: N4_11  and  C3_12 
REMARK    3  A    between atoms: C3_12  and  C4_13 
ROOT
HETATM    1  C1  UNL     1      20.841  -1.732   0.118  1.00  0.00     0.183 A 
HETATM    2  N2  UNL     1      22.010  -2.031   0.711  1.00  0.00    -0.277 N 
ATOM      3  H2  UNL     1      22.052  -2.356   1.677  1.00  0.00     0.189 HD
HETATM    4  N3  UNL     1      23.101  -1.886  -0.017  1.00  0.00    -0.249 N 
ATOM      5  H3  UNL     1      24.012  -2.101   0.392  1.00  0.00     0.192 HD
HETATM    6  C2  UNL     1      23.027  -1.454  -1.301  1.00  0.00     0.344 A 
HETATM    7  O1  UNL     1      24.116  -1.340  -1.936  1.00  0.00    -0.245 OA
HETATM    8  N4  UNL     1      21.860  -1.156  -1.891  1.00  0.00    -0.258 N 
HETATM    9  C6  UNL     1      20.738  -1.291  -1.185  1.00  0.00     0.296 A 
HETATM   10  O3  UNL     1      19.588  -1.032  -1.665  1.00  0.00    -0.264 OA
ENDROOT
BRANCH   8  11
HETATM   11  C3  UNL     1      21.842  -0.704  -3.241  1.00  0.00     0.184 C 
BRANCH  11  12
HETATM   12  C4  UNL     1      21.682  -1.750  -4.289  1.00  0.00     0.208 C 
HETATM   13  N5  UNL     1      21.309  -1.104  -5.552  1.00  0.00    -0.320 N 
HETATM   14  C5  UNL     1      20.305  -2.086  -5.748  1.00  0.00     0.319 C 
ATOM     15  H5  UNL     1      21.634  -0.288  -6.071  1.00  0.00     0.166 HD
HETATM   16  O2  UNL     1      19.589  -2.503  -6.717  1.00  0.00    -0.247 OA
HETATM   17  N6  UNL     1      20.420  -2.434  -4.378  1.00  0.00    -0.320 N 
ATOM     18  H6  UNL     1      19.841  -2.959  -3.722  1.00  0.00     0.166 HD
ENDBRANCH  11  12
ENDBRANCH   8  11
BRANCH   1  19
HETATM   19  N1  UNL     1      19.767  -1.877   0.841  1.00  0.00    -0.380 N 
ATOM     20  H12 UNL     1      19.805  -1.709   1.846  1.00  0.00     0.158 HD
ATOM     21  H11 UNL     1      18.919  -2.159   0.348  1.00  0.00     0.158 HD
ENDBRANCH   1  19
TORSDOF 3
ENDMDL
MODEL 2
REMARK VINA RESULT: -5.591967080      0.799      2.249
REMARK  3 active torsions:
REMARK  status: ('A' for Active; 'I' for Inactive)
REMARK    1  A    between atoms: N1_1  and  C1_4 
REMARK    2  A    between atoms: N4_11  and  C3_12 
REMARK    3  A    between atoms: C3_12  and  C4_13 
ROOT
HETATM    1  C1  UNL     1      22.221  -2.011  -0.148  1.00  0.00     0.183 A 
HETATM    2  N2  UNL     1      20.996  -1.768   0.350  1.00  0.00    -0.277 N 
ATOM      3  H2  UNL     1      20.748  -2.026   1.306  1.00  0.00     0.189 HD
HETATM    4  N3  UNL     1      20.131  -1.181  -0.454  1.00  0.00    -0.249 N 
ATOM      5  H3  UNL     1      19.188  -0.978  -0.119  1.00  0.00     0.192 HD
HETATM    6  C2  UNL     1      20.478  -0.844  -1.722  1.00  0.00     0.344 A 
HETATM    7  O1  UNL     1      19.596  -0.284  -2.434  1.00  0.00    -0.245 OA
HETATM    8  N4  UNL     1      21.701  -1.086  -2.218  1.00  0.00    -0.258 N 
HETATM    9  C6  UNL     1      22.600  -1.678  -1.432  1.00  0.00     0.296 A 
HETATM   10  O3  UNL     1      23.783  -1.945  -1.820  1.00  0.00    -0.264 OA
ENDROOT
BRANCH   8  11
HETATM   11  C3  UNL     1      22.010  -0.714  -3.557  1.00  0.00     0.184 C 
BRANCH  11  12
HETATM   12  C4  UNL     1      21.771  -1.747  -4.604  1.00  0.00     0.208 C 
HETATM   13  N5  UNL     1      21.334  -1.080  -5.836  1.00  0.00    -0.320 N 
HETATM   14  C5  UNL     1      20.304  -2.045  -5.982  1.00  0.00     0.319 C 
ATOM     15  H5  UNL     1      21.642  -0.265  -6.366  1.00  0.00     0.166 HD
HETATM   16  O2  UNL     1      19.525  -2.439  -6.910  1.00  0.00    -0.247 OA
HETATM   17  N6  UNL     1      20.494  -2.409  -4.625  1.00  0.00    -0.320 N 
ATOM     18  H6  UNL     1      19.947  -2.931  -3.940  1.00  0.00     0.166 HD
ENDBRANCH  11  12
ENDBRANCH   8  11
BRANCH   1  19
HETATM   19  N1  UNL     1      23.071  -2.590   0.649  1.00  0.00    -0.380 N 
ATOM     20  H12 UNL     1      23.028  -2.414   1.653  1.00  0.00     0.158 HD
ATOM     21  H11 UNL     1      23.756  -3.210   0.216  1.00  0.00     0.158 HD
ENDBRANCH   1  19
TORSDOF 3
ENDMDL
MODEL 3
REMARK VINA RESULT: -5.567386984      1.042      1.134
REMARK  3 active torsions:
REMARK  status: ('A' for Active; 'I' for Inactive)
REMARK    1  A    between atoms: N1_1  and  C1_4 
REMARK    2  A    between atoms: N4_11  and  C3_12 
REMARK    3  A    between atoms: C3_12  and  C4_13 
ROOT
HETATM    1  C1  UNL     1      20.724  -1.719   0.117  1.00  0.00     0.183 A 
HETATM    2  N2  UNL     1      21.855  -2.047   0.767  1.00  0.00    -0.277 N 
ATOM      3  H2  UNL     1      21.844  -2.342   1.743  1.00  0.00     0.189 HD
HETATM    4  N3  UNL     1      22.980  -1.969   0.082  1.00  0.00    -0.249 N 
ATOM      5  H3  UNL     1      23.863  -2.208   0.534  1.00  0.00     0.192 HD
HETATM    6  C2  UNL     1      22.977  -1.576  -1.217  1.00  0.00     0.344 A 
HETATM    7  O1  UNL     1      24.093  -1.527  -1.809  1.00  0.00    -0.245 OA
HETATM    8  N4  UNL     1      21.848  -1.249  -1.864  1.00  0.00    -0.258 N 
HETATM    9  C6  UNL     1      20.693  -1.317  -1.202  1.00  0.00     0.296 A 
HETATM   10  O3  UNL     1      19.576  -1.026  -1.737  1.00  0.00    -0.264 OA
ENDROOT
BRANCH   8  11
HETATM   11  C3  UNL     1      21.903  -0.840  -3.226  1.00  0.00     0.184 C 
BRANCH  11  12
HETATM   12  C4  UNL     1      21.807  -1.920  -4.248  1.00  0.00     0.208 C 
HETATM   13  N5  UNL     1      20.392  -2.192  -4.520  1.00  0.00    -0.320 N 
HETATM   14  C5  UNL     1      20.652  -3.584  -4.438  1.00  0.00     0.319 C 
ATOM     15  H5  UNL     1      19.566  -1.620  -4.694  1.00  0.00     0.166 HD
HETATM   16  O2  UNL     1      20.062  -4.662  -4.776  1.00  0.00    -0.247 OA
HETATM   17  N6  UNL     1      21.884  -3.286  -3.802  1.00  0.00    -0.320 N 
ATOM     18  H6  UNL     1      22.554  -3.823  -3.251  1.00  0.00     0.166 HD
ENDBRANCH  11  12
ENDBRANCH   8  11
BRANCH   1  19
HETATM   19  N1  UNL     1      19.617  -1.797   0.798  1.00  0.00    -0.380 N 
ATOM     20  H12 UNL     1      19.307  -1.001   1.356  1.00  0.00     0.158 HD
ATOM     21  H11 UNL     1      19.103  -2.676   0.735  1.00  0.00     0.158 HD
ENDBRANCH   1  19
TORSDOF 3
ENDMDL
MODEL 4
REMARK VINA RESULT: -5.209437530      1.874      3.082
REMARK  3 active torsions:
REMARK  status: ('A' for Active; 'I' for Inactive)
REMARK    1  A    between atoms: N1_1  and  C1_4 
REMARK    2  A    between atoms: N4_11  and  C3_12 
REMARK    3  A    between atoms: C3_12  and  C4_13 
ROOT
HETATM    1  C1  UNL     1      22.216  -2.273  -0.133  1.00  0.00     0.183 A 
HETATM    2  N2  UNL     1      21.208  -1.665   0.514  1.00  0.00    -0.277 N 
ATOM      3  H2  UNL     1      21.271  -1.436   1.507  1.00  0.00     0.189 HD
HETATM    4  N3  UNL     1      20.132  -1.376  -0.193  1.00  0.00    -0.249 N 
ATOM      5  H3  UNL     1      19.341  -0.915   0.256  1.00  0.00     0.192 HD
HETATM    6  C2  UNL     1      20.066  -1.687  -1.513  1.00  0.00     0.344 A 
HETATM    7  O1  UNL     1      19.003  -1.379  -2.126  1.00  0.00    -0.245 OA
HETATM    8  N4  UNL     1      21.073  -2.294  -2.158  1.00  0.00    -0.258 N 
HETATM    9  C6  UNL     1      22.174  -2.599  -1.473  1.00  0.00     0.296 A 
HETATM   10  O3  UNL     1      23.178  -3.175  -2.004  1.00  0.00    -0.264 OA
ENDROOT
BRANCH   8  11
HETATM   11  C3  UNL     1      20.948  -2.600  -3.543  1.00  0.00     0.184 C 
BRANCH  11  12
HETATM   12  C4  UNL     1      21.547  -1.622  -4.495  1.00  0.00     0.208 C 
HETATM   13  N5  UNL     1      22.806  -2.172  -5.009  1.00  0.00    -0.320 N 
HETATM   14  C5  UNL     1      23.432  -0.918  -4.793  1.00  0.00     0.319 C 
ATOM     15  H5  UNL     1      23.107  -3.077  -5.370  1.00  0.00     0.166 HD
HETATM   16  O2  UNL     1      24.503  -0.336  -5.167  1.00  0.00    -0.247 OA
HETATM   17  N6  UNL     1      22.345  -0.553  -3.957  1.00  0.00    -0.320 N 
ATOM     18  H6  UNL     1      22.192   0.173  -3.258  1.00  0.00     0.166 HD
ENDBRANCH  11  12
ENDBRANCH   8  11
BRANCH   1  19
HETATM   19  N1  UNL     1      23.275  -2.556   0.571  1.00  0.00    -0.380 N 
ATOM     20  H12 UNL     1      23.220  -2.568   1.589  1.00  0.00     0.158 HD
ATOM     21  H11 UNL     1      24.130  -2.756   0.051  1.00  0.00     0.158 HD
ENDBRANCH   1  19
TORSDOF 3
ENDMDL
MODEL 5
REMARK VINA RESULT: -5.119131417      1.467      1.582
REMARK  3 active torsions:
REMARK  status: ('A' for Active; 'I' for Inactive)
REMARK    1  A    between atoms: N1_1  and  C1_4 
REMARK    2  A    between atoms: N4_11  and  C3_12 
REMARK    3  A    between atoms: C3_12  and  C4_13 
ROOT
HETATM    1  C1  UNL     1      20.910  -1.695   0.029  1.00  0.00     0.183 A 
HETATM    2  N2  UNL     1      22.157  -2.085   0.348  1.00  0.00    -0.277 N 
ATOM      3  H2  UNL     1      22.534  -1.951   1.287  1.00  0.00     0.189 HD
HETATM    4  N3  UNL     1      22.869  -2.648  -0.608  1.00  0.00    -0.249 N 
ATOM      5  H3  UNL     1      23.821  -2.960  -0.412  1.00  0.00     0.192 HD
HETATM    6  C2  UNL     1      22.351  -2.819  -1.851  1.00  0.00     0.344 A 
HETATM    7  O1  UNL     1      23.093  -3.368  -2.716  1.00  0.00    -0.245 OA
HETATM    8  N4  UNL     1      21.107  -2.430  -2.169  1.00  0.00    -0.258 N 
HETATM    9  C6  UNL     1      20.360  -1.857  -1.226  1.00  0.00     0.296 A 
HETATM   10  O3  UNL     1      19.170  -1.459  -1.439  1.00  0.00    -0.264 OA
ENDROOT
BRANCH   8  11
HETATM   11  C3  UNL     1      20.616  -2.631  -3.490  1.00  0.00     0.184 C 
BRANCH  11  12
HETATM   12  C4  UNL     1      20.723  -1.473  -4.421  1.00  0.00     0.208 C 
HETATM   13  N5  UNL     1      20.430  -1.930  -5.783  1.00  0.00    -0.320 N 
HETATM   14  C5  UNL     1      21.557  -1.212  -6.257  1.00  0.00     0.319 C 
ATOM     15  H5  UNL     1      19.716  -2.519  -6.211  1.00  0.00     0.166 HD
HETATM   16  O2  UNL     1      21.994  -0.805  -7.384  1.00  0.00    -0.247 OA
HETATM   17  N6  UNL     1      22.025  -1.123  -4.921  1.00  0.00    -0.320 N 
ATOM     18  H6  UNL     1      22.922  -0.900  -4.491  1.00  0.00     0.166 HD
ENDBRANCH  11  12
ENDBRANCH   8  11
BRANCH   1  19
HETATM   19  N1  UNL     1      20.212  -1.139   0.977  1.00  0.00    -0.380 N 
ATOM     20  H12 UNL     1      20.507  -1.237   1.948  1.00  0.00     0.158 HD
ATOM     21  H11 UNL     1      19.383  -0.619   0.689  1.00  0.00     0.158 HD
ENDBRANCH   1  19
TORSDOF 3
ENDMDL
