MODEL 1
REMARK VINA RESULT: -5.919314607      0.000      0.000
REMARK  4 active torsions:
REMARK  status: ('A' for Active; 'I' for Inactive)
REMARK    1  A    between atoms: C2_2  and  C5_5 
REMARK    2  A    between atoms: C5_5  and  N1_8 
REMARK    3  A    between atoms: N1_8  and  C8_10 
REMARK    4  A    between atoms: C8_10  and  C9_11 
ROOT
HETATM    1  N1  UNL     1     -65.372 -33.225 -30.979  1.00  0.00    -0.410 N 
ATOM      2  H1  UNL     1     -64.428 -33.221 -31.364  1.00  0.00     0.154 HD
ENDROOT
BRANCH   1   3
HETATM    3  C5  UNL     1     -65.655 -34.294 -30.146  1.00  0.00     0.025 C 
HETATM    4  C6  UNL     1     -66.426 -33.752 -28.898  1.00  0.00     0.038 C 
HETATM    5  C7  UNL     1     -66.607 -35.336 -30.705  1.00  0.00     0.038 C 
BRANCH   3   6
HETATM    6  C2  UNL     1     -64.433 -34.983 -29.672  1.00  0.00    -0.027 C 
HETATM    7  C1  UNL     1     -64.534 -36.462 -29.727  1.00  0.00     0.017 C 
HETATM    8  C3  UNL     1     -64.012 -34.580 -28.273  1.00  0.00     0.017 C 
HETATM    9  C4  UNL     1     -63.209 -34.622 -30.551  1.00  0.00     0.017 C 
ENDBRANCH   3   6
ENDBRANCH   1   3
BRANCH   1  10
HETATM   10  C8  UNL     1     -66.152 -32.179 -31.365  1.00  0.00     0.146 C 
BRANCH  10  11
HETATM   11  C9  UNL     1     -65.846 -31.875 -32.857  1.00  0.00     0.138 C 
HETATM   12  C10 UNL     1     -64.659 -32.682 -33.312  1.00  0.00     0.035 C 
HETATM   13  C11 UNL     1     -65.201 -33.353 -34.553  1.00  0.00     0.029 C 
HETATM   14  C12 UNL     1     -66.687 -33.445 -34.186  1.00  0.00     0.168 C 
HETATM   15  O1  UNL     1     -66.910 -32.209 -33.639  1.00  0.00    -0.384 OA
ENDBRANCH  10  11
ENDBRANCH   1  10
TORSDOF 4
ENDMDL
MODEL 2
REMARK VINA RESULT: -5.903062193      0.922      1.664
REMARK  4 active torsions:
REMARK  status: ('A' for Active; 'I' for Inactive)
REMARK    1  A    between atoms: C2_2  and  C5_5 
REMARK    2  A    between atoms: C5_5  and  N1_8 
REMARK    3  A    between atoms: N1_8  and  C8_10 
REMARK    4  A    between atoms: C8_10  and  C9_11 
ROOT
HETATM    1  N1  UNL     1     -65.456 -33.056 -30.678  1.00  0.00    -0.410 N 
ATOM      2  H1  UNL     1     -64.659 -32.466 -30.440  1.00  0.00     0.154 HD
ENDROOT
BRANCH   1   3
HETATM    3  C5  UNL     1     -65.617 -34.168 -29.870  1.00  0.00     0.025 C 
HETATM    4  C6  UNL     1     -66.217 -33.700 -28.504  1.00  0.00     0.038 C 
HETATM    5  C7  UNL     1     -66.628 -35.195 -30.348  1.00  0.00     0.038 C 
BRANCH   3   6
HETATM    6  C2  UNL     1     -64.337 -34.863 -29.600  1.00  0.00    -0.027 C 
HETATM    7  C1  UNL     1     -63.822 -34.634 -28.227  1.00  0.00     0.017 C 
HETATM    8  C3  UNL     1     -63.240 -34.520 -30.588  1.00  0.00     0.017 C 
HETATM    9  C4  UNL     1     -64.493 -36.399 -29.728  1.00  0.00     0.017 C 
ENDBRANCH   3   6
ENDBRANCH   1   3
BRANCH   1  10
HETATM   10  C8  UNL     1     -66.191 -32.623 -31.738  1.00  0.00     0.146 C 
BRANCH  10  11
HETATM   11  C9  UNL     1     -65.732 -33.411 -32.996  1.00  0.00     0.138 C 
HETATM   12  C10 UNL     1     -66.809 -33.372 -34.046  1.00  0.00     0.035 C 
HETATM   13  C11 UNL     1     -66.043 -32.880 -35.254  1.00  0.00     0.029 C 
HETATM   14  C12 UNL     1     -64.961 -32.041 -34.565  1.00  0.00     0.168 C 
HETATM   15  O1  UNL     1     -64.606 -32.854 -33.521  1.00  0.00    -0.384 OA
ENDBRANCH  10  11
ENDBRANCH   1  10
TORSDOF 4
ENDMDL
MODEL 3
REMARK VINA RESULT: -5.892069744      0.964      1.662
REMARK  4 active torsions:
REMARK  status: ('A' for Active; 'I' for Inactive)
REMARK    1  A    between atoms: C2_2  and  C5_5 
REMARK    2  A    between atoms: C5_5  and  N1_8 
REMARK    3  A    between atoms: N1_8  and  C8_10 
REMARK    4  A    between atoms: C8_10  and  C9_11 
ROOT
HETATM    1  N1  UNL     1     -65.941 -34.163 -31.641  1.00  0.00    -0.410 N 
ATOM      2  H1  UNL     1     -65.141 -33.547 -31.786  1.00  0.00     0.154 HD
ENDROOT
BRANCH   1   3
HETATM    3  C5  UNL     1     -65.915 -34.881 -30.458  1.00  0.00     0.025 C 
HETATM    4  C6  UNL     1     -66.859 -34.172 -29.433  1.00  0.00     0.038 C 
HETATM    5  C7  UNL     1     -66.484 -36.288 -30.524  1.00  0.00     0.038 C 
BRANCH   3   6
HETATM    6  C2  UNL     1     -64.559 -34.953 -29.868  1.00  0.00    -0.027 C 
HETATM    7  C1  UNL     1     -63.531 -34.245 -30.670  1.00  0.00     0.017 C 
HETATM    8  C3  UNL     1     -64.081 -36.368 -29.614  1.00  0.00     0.017 C 
HETATM    9  C4  UNL     1     -64.519 -34.286 -28.470  1.00  0.00     0.017 C 
ENDBRANCH   3   6
ENDBRANCH   1   3
BRANCH   1  10
HETATM   10  C8  UNL     1     -66.863 -34.147 -32.642  1.00  0.00     0.146 C 
BRANCH  10  11
HETATM   11  C9  UNL     1     -66.771 -32.773 -33.360  1.00  0.00     0.138 C 
HETATM   12  C10 UNL     1     -65.540 -32.036 -32.902  1.00  0.00     0.035 C 
HETATM   13  C11 UNL     1     -64.882 -31.688 -34.218  1.00  0.00     0.029 C 
HETATM   14  C12 UNL     1     -65.370 -32.856 -35.082  1.00  0.00     0.168 C 
HETATM   15  O1  UNL     1     -66.685 -32.944 -34.708  1.00  0.00    -0.384 OA
ENDBRANCH  10  11
ENDBRANCH   1  10
TORSDOF 4
ENDMDL
MODEL 4
REMARK VINA RESULT: -5.647876684      2.191      4.784
REMARK  4 active torsions:
REMARK  status: ('A' for Active; 'I' for Inactive)
REMARK    1  A    between atoms: C2_2  and  C5_5 
REMARK    2  A    between atoms: C5_5  and  N1_8 
REMARK    3  A    between atoms: N1_8  and  C8_10 
REMARK    4  A    between atoms: C8_10  and  C9_11 
ROOT
HETATM    1  N1  UNL     1     -65.755 -34.355 -31.773  1.00  0.00    -0.410 N 
ATOM      2  H1  UNL     1     -66.015 -35.242 -32.204  1.00  0.00     0.154 HD
ENDROOT
BRANCH   1   3
HETATM    3  C5  UNL     1     -66.257 -33.232 -32.407  1.00  0.00     0.025 C 
HETATM    4  C6  UNL     1     -67.582 -33.631 -33.135  1.00  0.00     0.038 C 
HETATM    5  C7  UNL     1     -66.699 -32.100 -31.498  1.00  0.00     0.038 C 
BRANCH   3   6
HETATM    6  C2  UNL     1     -65.320 -32.684 -33.415  1.00  0.00    -0.027 C 
HETATM    7  C1  UNL     1     -65.085 -33.600 -34.558  1.00  0.00     0.017 C 
HETATM    8  C3  UNL     1     -63.978 -32.279 -32.839  1.00  0.00     0.017 C 
HETATM    9  C4  UNL     1     -65.870 -31.378 -34.042  1.00  0.00     0.017 C 
ENDBRANCH   3   6
ENDBRANCH   1   3
BRANCH   1  10
HETATM   10  C8  UNL     1     -64.971 -34.466 -30.666  1.00  0.00     0.146 C 
BRANCH  10  11
HETATM   11  C9  UNL     1     -65.510 -35.644 -29.810  1.00  0.00     0.138 C 
HETATM   12  C10 UNL     1     -66.411 -36.514 -30.644  1.00  0.00     0.035 C 
HETATM   13  C11 UNL     1     -65.812 -37.884 -30.418  1.00  0.00     0.029 C 
HETATM   14  C12 UNL     1     -64.347 -37.502 -30.173  1.00  0.00     0.168 C 
HETATM   15  O1  UNL     1     -64.482 -36.411 -29.354  1.00  0.00    -0.384 OA
ENDBRANCH  10  11
ENDBRANCH   1  10
TORSDOF 4
ENDMDL
MODEL 5
REMARK VINA RESULT: -5.595761315      2.263      3.142
REMARK  4 active torsions:
REMARK  status: ('A' for Active; 'I' for Inactive)
REMARK    1  A    between atoms: C2_2  and  C5_5 
REMARK    2  A    between atoms: C5_5  and  N1_8 
REMARK    3  A    between atoms: N1_8  and  C8_10 
REMARK    4  A    between atoms: C8_10  and  C9_11 
ROOT
HETATM    1  N1  UNL     1     -67.318 -34.242 -30.279  1.00  0.00    -0.410 N 
ATOM      2  H1  UNL     1     -67.532 -35.227 -30.122  1.00  0.00     0.154 HD
ENDROOT
BRANCH   1   3
HETATM    3  C5  UNL     1     -66.157 -33.796 -29.672  1.00  0.00     0.025 C 
HETATM    4  C6  UNL     1     -65.896 -32.325 -30.135  1.00  0.00     0.038 C 
HETATM    5  C7  UNL     1     -66.206 -33.670 -28.160  1.00  0.00     0.038 C 
BRANCH   3   6
HETATM    6  C2  UNL     1     -64.977 -34.613 -30.036  1.00  0.00    -0.027 C 
HETATM    7  C1  UNL     1     -64.250 -34.101 -31.223  1.00  0.00     0.017 C 
HETATM    8  C3  UNL     1     -65.299 -36.077 -30.263  1.00  0.00     0.017 C 
HETATM    9  C4  UNL     1     -63.932 -34.632 -28.892  1.00  0.00     0.017 C 
ENDBRANCH   3   6
ENDBRANCH   1   3
BRANCH   1  10
HETATM   10  C8  UNL     1     -68.220 -33.578 -31.051  1.00  0.00     0.146 C 
BRANCH  10  11
HETATM   11  C9  UNL     1     -68.303 -34.299 -32.424  1.00  0.00     0.138 C 
HETATM   12  C10 UNL     1     -68.319 -35.791 -32.220  1.00  0.00     0.035 C 
HETATM   13  C11 UNL     1     -69.540 -36.197 -33.013  1.00  0.00     0.029 C 
HETATM   14  C12 UNL     1     -70.385 -34.924 -32.881  1.00  0.00     0.168 C 
HETATM   15  O1  UNL     1     -69.444 -33.948 -33.079  1.00  0.00    -0.384 OA
ENDBRANCH  10  11
ENDBRANCH   1  10
TORSDOF 4
ENDMDL
