MODEL 1
REMARK VINA RESULT: -6.957624241      0.000      0.000
REMARK  2 active torsions:
REMARK  status: ('A' for Active; 'I' for Inactive)
REMARK    1  A    between atoms: C2_2  and  C3_3 
REMARK    2  A    between atoms: C5_5  and  C6_6 
ROOT
HETATM    1  C3  UNL     1     -66.049 -33.932 -29.178  1.00  0.00     0.017 C 
HETATM    2  C4  UNL     1     -65.321 -33.641 -30.493  1.00  0.00     0.045 C 
HETATM    3  C5  UNL     1     -66.430 -32.755 -31.082  1.00  0.00     0.068 C 
HETATM    4  C11 UNL     1     -66.516 -31.703 -29.991  1.00  0.00     0.071 C 
HETATM    5  C12 UNL     1     -67.105 -32.885 -29.301  1.00  0.00     0.129 C 
HETATM    6  O1  UNL     1     -67.620 -33.231 -30.585  1.00  0.00    -0.374 OA
ENDROOT
BRANCH   3   7
HETATM    7  C6  UNL     1     -66.298 -32.322 -32.456  1.00  0.00     0.023 C 
HETATM    8  C7  UNL     1     -64.869 -32.164 -32.860  1.00  0.00     0.035 C 
HETATM    9  C8  UNL     1     -64.848 -31.714 -34.313  1.00  0.00     0.232 C 
HETATM   10  N1  UNL     1     -65.564 -32.595 -35.182  1.00  0.00    -0.075 N 
HETATM   11  C9  UNL     1     -66.151 -33.729 -34.491  1.00  0.00     0.232 C 
ATOM     12  H12 UNL     1     -66.272 -32.086 -35.712  1.00  0.00     0.277 HD
ATOM     13  H11 UNL     1     -64.971 -32.907 -35.952  1.00  0.00     0.277 HD
HETATM   14  C10 UNL     1     -67.044 -33.282 -33.358  1.00  0.00     0.035 C 
ENDBRANCH   3   7
BRANCH   1  15
HETATM   15  C2  UNL     1     -65.207 -33.932 -27.980  1.00  0.00     0.002 C 
HETATM   16  C1  UNL     1     -63.822 -34.448 -28.123  1.00  0.00     0.005 C 
ENDBRANCH   1  15
TORSDOF 2
ENDMDL
MODEL 2
REMARK VINA RESULT: -6.750823008      2.856      4.159
REMARK  2 active torsions:
REMARK  status: ('A' for Active; 'I' for Inactive)
REMARK    1  A    between atoms: C2_2  and  C3_3 
REMARK    2  A    between atoms: C5_5  and  C6_6 
ROOT
HETATM    1  C3  UNL     1     -64.865 -36.267 -29.524  1.00  0.00     0.017 C 
HETATM    2  C4  UNL     1     -66.150 -35.737 -30.164  1.00  0.00     0.045 C 
HETATM    3  C5  UNL     1     -65.852 -34.255 -29.889  1.00  0.00     0.068 C 
HETATM    4  C11 UNL     1     -64.517 -34.132 -30.604  1.00  0.00     0.071 C 
HETATM    5  C12 UNL     1     -64.141 -34.965 -29.428  1.00  0.00     0.129 C 
HETATM    6  O1  UNL     1     -65.124 -34.209 -28.724  1.00  0.00    -0.374 OA
ENDROOT
BRANCH   3   7
HETATM    7  C6  UNL     1     -66.887 -33.286 -30.179  1.00  0.00     0.023 C 
HETATM    8  C7  UNL     1     -67.840 -33.126 -29.042  1.00  0.00     0.035 C 
HETATM    9  C8  UNL     1     -68.874 -32.088 -29.450  1.00  0.00     0.232 C 
HETATM   10  N1  UNL     1     -68.292 -30.844 -29.850  1.00  0.00    -0.075 N 
HETATM   11  C9  UNL     1     -66.843 -30.841 -29.775  1.00  0.00     0.232 C 
ATOM     12  H12 UNL     1     -68.608 -30.579 -30.783  1.00  0.00     0.277 HD
ATOM     13  H11 UNL     1     -68.685 -30.070 -29.314  1.00  0.00     0.277 HD
HETATM   14  C10 UNL     1     -66.246 -31.973 -30.577  1.00  0.00     0.035 C 
ENDBRANCH   3   7
BRANCH   1  15
HETATM   15  C2  UNL     1     -64.218 -37.372 -30.233  1.00  0.00     0.002 C 
HETATM   16  C1  UNL     1     -64.844 -38.713 -30.118  1.00  0.00     0.005 C 
ENDBRANCH   1  15
TORSDOF 2
ENDMDL
MODEL 3
REMARK VINA RESULT: -6.653168983      0.661      1.444
REMARK  2 active torsions:
REMARK  status: ('A' for Active; 'I' for Inactive)
REMARK    1  A    between atoms: C2_2  and  C3_3 
REMARK    2  A    between atoms: C5_5  and  C6_6 
ROOT
HETATM    1  C3  UNL     1     -66.106 -33.950 -29.156  1.00  0.00     0.017 C 
HETATM    2  C4  UNL     1     -65.283 -34.347 -30.384  1.00  0.00     0.045 C 
HETATM    3  C5  UNL     1     -65.960 -33.354 -31.342  1.00  0.00     0.068 C 
HETATM    4  C11 UNL     1     -65.677 -32.059 -30.601  1.00  0.00     0.071 C 
HETATM    5  C12 UNL     1     -66.688 -32.691 -29.707  1.00  0.00     0.129 C 
HETATM    6  O1  UNL     1     -67.256 -33.208 -30.908  1.00  0.00    -0.374 OA
ENDROOT
BRANCH   3   7
HETATM    7  C6  UNL     1     -65.632 -33.434 -32.750  1.00  0.00     0.023 C 
HETATM    8  C7  UNL     1     -66.811 -33.139 -33.618  1.00  0.00     0.035 C 
HETATM    9  C8  UNL     1     -66.355 -33.245 -35.065  1.00  0.00     0.232 C 
HETATM   10  N1  UNL     1     -65.237 -32.405 -35.363  1.00  0.00    -0.075 N 
HETATM   11  C9  UNL     1     -64.783 -31.630 -34.223  1.00  0.00     0.232 C 
ATOM     12  H12 UNL     1     -64.471 -32.948 -35.761  1.00  0.00     0.277 HD
ATOM     13  H11 UNL     1     -65.441 -31.797 -36.157  1.00  0.00     0.277 HD
HETATM   14  C10 UNL     1     -64.462 -32.519 -33.044  1.00  0.00     0.035 C 
ENDBRANCH   3   7
BRANCH   1  15
HETATM   15  C2  UNL     1     -65.363 -33.880 -27.897  1.00  0.00     0.002 C 
HETATM   16  C1  UNL     1     -63.946 -34.320 -27.919  1.00  0.00     0.005 C 
ENDBRANCH   1  15
TORSDOF 2
ENDMDL
MODEL 4
REMARK VINA RESULT: -6.635571410      3.048      4.982
REMARK  2 active torsions:
REMARK  status: ('A' for Active; 'I' for Inactive)
REMARK    1  A    between atoms: C2_2  and  C3_3 
REMARK    2  A    between atoms: C5_5  and  C6_6 
ROOT
HETATM    1  C3  UNL     1     -65.050 -32.621 -31.681  1.00  0.00     0.017 C 
HETATM    2  C4  UNL     1     -64.491 -33.967 -31.212  1.00  0.00     0.045 C 
HETATM    3  C5  UNL     1     -65.851 -34.558 -30.808  1.00  0.00     0.068 C 
HETATM    4  C11 UNL     1     -66.580 -34.438 -32.135  1.00  0.00     0.071 C 
HETATM    5  C12 UNL     1     -66.490 -33.009 -31.721  1.00  0.00     0.129 C 
HETATM    6  O1  UNL     1     -66.631 -33.505 -30.392  1.00  0.00    -0.374 OA
ENDROOT
BRANCH   3   7
HETATM    7  C6  UNL     1     -65.863 -35.832 -30.122  1.00  0.00     0.023 C 
HETATM    8  C7  UNL     1     -66.413 -36.925 -30.978  1.00  0.00     0.035 C 
HETATM    9  C8  UNL     1     -66.374 -38.210 -30.165  1.00  0.00     0.232 C 
HETATM   10  N1  UNL     1     -65.069 -38.517 -29.665  1.00  0.00    -0.075 N 
HETATM   11  C9  UNL     1     -64.067 -37.539 -30.044  1.00  0.00     0.232 C 
ATOM     12  H12 UNL     1     -65.090 -38.643 -28.653  1.00  0.00     0.277 HD
ATOM     13  H11 UNL     1     -64.785 -39.456 -29.944  1.00  0.00     0.277 HD
HETATM   14  C10 UNL     1     -64.468 -36.145 -29.623  1.00  0.00     0.035 C 
ENDBRANCH   3   7
BRANCH   1  15
HETATM   15  C2  UNL     1     -64.442 -32.077 -32.896  1.00  0.00     0.002 C 
HETATM   16  C1  UNL     1     -65.353 -31.725 -34.013  1.00  0.00     0.005 C 
ENDBRANCH   1  15
TORSDOF 2
ENDMDL
MODEL 5
REMARK VINA RESULT: -6.574941965      3.156      5.215
REMARK  2 active torsions:
REMARK  status: ('A' for Active; 'I' for Inactive)
REMARK    1  A    between atoms: C2_2  and  C3_3 
REMARK    2  A    between atoms: C5_5  and  C6_6 
ROOT
HETATM    1  C3  UNL     1     -67.225 -33.370 -32.651  1.00  0.00     0.017 C 
HETATM    2  C4  UNL     1     -66.114 -34.284 -32.130  1.00  0.00     0.045 C 
HETATM    3  C5  UNL     1     -67.026 -35.121 -31.219  1.00  0.00     0.068 C 
HETATM    4  C11 UNL     1     -68.023 -35.617 -32.252  1.00  0.00     0.071 C 
HETATM    5  C12 UNL     1     -68.385 -34.174 -32.168  1.00  0.00     0.129 C 
HETATM    6  O1  UNL     1     -68.030 -34.284 -30.792  1.00  0.00    -0.374 OA
ENDROOT
BRANCH   3   7
HETATM    7  C6  UNL     1     -66.408 -36.083 -30.333  1.00  0.00     0.023 C 
HETATM    8  C7  UNL     1     -66.276 -37.427 -30.968  1.00  0.00     0.035 C 
HETATM    9  C8  UNL     1     -65.613 -38.351 -29.957  1.00  0.00     0.232 C 
HETATM   10  N1  UNL     1     -64.361 -37.851 -29.478  1.00  0.00    -0.075 N 
HETATM   11  C9  UNL     1     -63.994 -36.575 -30.063  1.00  0.00     0.232 C 
ATOM     12  H12 UNL     1     -64.358 -37.799 -28.459  1.00  0.00     0.277 HD
ATOM     13  H11 UNL     1     -63.620 -38.539 -29.612  1.00  0.00     0.277 HD
HETATM   14  C10 UNL     1     -65.076 -35.541 -29.858  1.00  0.00     0.035 C 
ENDBRANCH   3   7
BRANCH   1  15
HETATM   15  C2  UNL     1     -67.152 -33.040 -34.075  1.00  0.00     0.002 C 
HETATM   16  C1  UNL     1     -65.824 -33.146 -34.730  1.00  0.00     0.005 C 
ENDBRANCH   1  15
TORSDOF 2
ENDMDL
