MODEL 1
REMARK VINA RESULT: -8.662792125      0.000      0.000
REMARK  12 active torsions:
REMARK  status: ('A' for Active; 'I' for Inactive)
REMARK    1  A    between atoms: N1_4  and  C4_5 
REMARK    2  A    between atoms: C4_5  and  C5_6 
REMARK    3  A    between atoms: C5_6  and  C6_7 
REMARK    4  A    between atoms: C6_7  and  C7_8 
REMARK    5  A    between atoms: C7_8  and  C8_9 
REMARK    6  A    between atoms: C8_9  and  C9_10 
REMARK    7  A    between atoms: C9_10  and  C10_11 
REMARK    8  A    between atoms: C10_11  and  C11_12 
REMARK    9  A    between atoms: C11_12  and  O1_13 
REMARK   10  A    between atoms: O1_13  and  C12_14 
REMARK   11  A    between atoms: C12_14  and  C13_16 
REMARK   12  A    between atoms: C20_23  and  O3_24 
ROOT
HETATM    1  C10 UNL     1       7.203  -1.020  47.505  1.00  0.00     0.027 C 
ENDROOT
BRANCH   1   2
HETATM    2  C9  UNL     1       5.878  -1.728  47.348  1.00  0.00     0.002 C 
BRANCH   2   3
HETATM    3  C8  UNL     1       4.799  -0.768  47.014  1.00  0.00     0.000 C 
BRANCH   3   4
HETATM    4  C7  UNL     1       3.548  -1.558  46.616  1.00  0.00     0.000 C 
BRANCH   4   5
HETATM    5  C6  UNL     1       2.317  -1.081  47.315  1.00  0.00     0.002 C 
BRANCH   5   6
HETATM    6  C5  UNL     1       1.072  -1.840  47.013  1.00  0.00     0.020 C 
BRANCH   6   7
HETATM    7  C4  UNL     1       0.587  -2.762  48.078  1.00  0.00     0.122 C 
BRANCH   7   8
HETATM    8  N1  UNL     1       1.506  -3.740  48.513  1.00  0.00    -0.392 N 
HETATM    9  C3  UNL     1       1.850  -4.784  47.626  1.00  0.00     0.126 C 
HETATM   10  C2  UNL     1       2.940  -5.626  48.267  1.00  0.00     0.000 C 
HETATM   11  C1  UNL     1       3.632  -6.508  47.282  1.00  0.00     0.011 C 
HETATM   12  C27 UNL     1       3.932  -4.647  48.859  1.00  0.00     0.020 C 
HETATM   13  C24 UNL     1       3.329  -3.959  50.045  1.00  0.00    -0.015 C 
HETATM   14  C23 UNL     1       1.832  -3.853  49.871  1.00  0.00     0.067 C 
HETATM   15  C25 UNL     1       3.993  -2.597  50.185  1.00  0.00     0.020 C 
HETATM   16  C26 UNL     1       3.598  -4.823  51.260  1.00  0.00     0.020 C 
ENDBRANCH   7   8
ENDBRANCH   6   7
ENDBRANCH   5   6
ENDBRANCH   4   5
ENDBRANCH   3   4
ENDBRANCH   2   3
ENDBRANCH   1   2
BRANCH   1  17
HETATM   17  C11 UNL     1       7.136   0.355  46.909  1.00  0.00     0.178 C 
BRANCH  17  18
HETATM   18  O1  UNL     1       8.407   0.816  46.536  1.00  0.00    -0.321 OA
BRANCH  18  19
HETATM   19  C12 UNL     1       9.260   0.056  45.786  1.00  0.00     0.268 C 
HETATM   20  O2  UNL     1       8.980  -0.412  44.657  1.00  0.00    -0.264 OA
BRANCH  19  21
HETATM   21  C13 UNL     1      10.632  -0.271  46.289  1.00  0.00     0.055 C 
HETATM   22  C14 UNL     1      11.042  -1.680  45.855  1.00  0.00     0.025 C 
HETATM   23  C15 UNL     1      12.510  -1.812  46.153  1.00  0.00    -0.010 C 
HETATM   24  C16 UNL     1      13.257  -1.011  45.092  1.00  0.00     0.005 C 
HETATM   25  C21 UNL     1      12.896  -1.412  47.540  1.00  0.00     0.042 C 
HETATM   26  C17 UNL     1      12.530   0.269  44.754  1.00  0.00     0.006 C 
HETATM   27  C18 UNL     1      11.651   0.746  45.892  1.00  0.00     0.007 C 
HETATM   28  C19 UNL     1      12.562   0.967  47.082  1.00  0.00     0.043 C 
HETATM   29  C20 UNL     1      12.209  -0.151  48.013  1.00  0.00     0.060 C 
HETATM   30  C22 UNL     1      10.693  -0.255  47.802  1.00  0.00     0.058 C 
BRANCH  29  31
HETATM   31  O3  UNL     1      12.537   0.092  49.326  1.00  0.00    -0.390 OA
ATOM     32  H3  UNL     1      11.787   0.195  49.899  1.00  0.00     0.210 HD
ENDBRANCH  29  31
ENDBRANCH  19  21
ENDBRANCH  18  19
ENDBRANCH  17  18
ENDBRANCH   1  17
TORSDOF 12
ENDMDL
MODEL 2
REMARK VINA RESULT: -8.479154201      1.439      2.546
REMARK  12 active torsions:
REMARK  status: ('A' for Active; 'I' for Inactive)
REMARK    1  A    between atoms: N1_4  and  C4_5 
REMARK    2  A    between atoms: C4_5  and  C5_6 
REMARK    3  A    between atoms: C5_6  and  C6_7 
REMARK    4  A    between atoms: C6_7  and  C7_8 
REMARK    5  A    between atoms: C7_8  and  C8_9 
REMARK    6  A    between atoms: C8_9  and  C9_10 
REMARK    7  A    between atoms: C9_10  and  C10_11 
REMARK    8  A    between atoms: C10_11  and  C11_12 
REMARK    9  A    between atoms: C11_12  and  O1_13 
REMARK   10  A    between atoms: O1_13  and  C12_14 
REMARK   11  A    between atoms: C12_14  and  C13_16 
REMARK   12  A    between atoms: C20_23  and  O3_24 
ROOT
HETATM    1  C10 UNL     1       7.178  -1.179  47.208  1.00  0.00     0.027 C 
ENDROOT
BRANCH   1   2
HETATM    2  C9  UNL     1       5.789  -1.731  47.422  1.00  0.00     0.002 C 
BRANCH   2   3
HETATM    3  C8  UNL     1       4.791  -0.987  46.617  1.00  0.00     0.000 C 
BRANCH   3   4
HETATM    4  C7  UNL     1       3.420  -1.129  47.286  1.00  0.00     0.000 C 
BRANCH   4   5
HETATM    5  C6  UNL     1       2.886  -2.522  47.219  1.00  0.00     0.002 C 
BRANCH   5   6
HETATM    6  C5  UNL     1       2.569  -3.152  48.531  1.00  0.00     0.020 C 
BRANCH   6   7
HETATM    7  C4  UNL     1       3.706  -3.804  49.240  1.00  0.00     0.122 C 
BRANCH   7   8
HETATM    8  N1  UNL     1       3.952  -3.354  50.554  1.00  0.00    -0.392 N 
HETATM    9  C3  UNL     1       3.593  -4.191  51.633  1.00  0.00     0.126 C 
HETATM   10  C2  UNL     1       4.072  -3.550  52.924  1.00  0.00     0.000 C 
HETATM   11  C1  UNL     1       4.084  -4.511  54.067  1.00  0.00     0.011 C 
HETATM   12  C27 UNL     1       5.480  -3.063  52.654  1.00  0.00     0.020 C 
HETATM   13  C24 UNL     1       5.448  -1.894  51.718  1.00  0.00    -0.015 C 
HETATM   14  C23 UNL     1       4.255  -2.007  50.797  1.00  0.00     0.067 C 
HETATM   15  C25 UNL     1       6.766  -1.867  50.957  1.00  0.00     0.020 C 
HETATM   16  C26 UNL     1       5.275  -0.643  52.554  1.00  0.00     0.020 C 
ENDBRANCH   7   8
ENDBRANCH   6   7
ENDBRANCH   5   6
ENDBRANCH   4   5
ENDBRANCH   3   4
ENDBRANCH   2   3
ENDBRANCH   1   2
BRANCH   1  17
HETATM   17  C11 UNL     1       7.120   0.297  46.943  1.00  0.00     0.178 C 
BRANCH  17  18
HETATM   18  O1  UNL     1       8.375   0.803  46.575  1.00  0.00    -0.321 OA
BRANCH  18  19
HETATM   19  C12 UNL     1       9.244   0.088  45.801  1.00  0.00     0.268 C 
HETATM   20  O2  UNL     1       8.983  -0.325  44.645  1.00  0.00    -0.264 OA
BRANCH  19  21
HETATM   21  C13 UNL     1      10.611  -0.257  46.306  1.00  0.00     0.055 C 
HETATM   22  C14 UNL     1      11.016  -1.660  45.851  1.00  0.00     0.025 C 
HETATM   23  C15 UNL     1      12.480  -1.806  46.156  1.00  0.00    -0.010 C 
HETATM   24  C16 UNL     1      13.239  -0.991  45.115  1.00  0.00     0.005 C 
HETATM   25  C21 UNL     1      12.859  -1.432  47.552  1.00  0.00     0.042 C 
HETATM   26  C17 UNL     1      12.522   0.299  44.793  1.00  0.00     0.006 C 
HETATM   27  C18 UNL     1      11.638   0.761  45.934  1.00  0.00     0.007 C 
HETATM   28  C19 UNL     1      12.542   0.956  47.134  1.00  0.00     0.043 C 
HETATM   29  C20 UNL     1      12.176  -0.175  48.043  1.00  0.00     0.060 C 
HETATM   30  C22 UNL     1      10.662  -0.267  47.820  1.00  0.00     0.058 C 
BRANCH  29  31
HETATM   31  O3  UNL     1      12.497   0.042  49.362  1.00  0.00    -0.390 OA
ATOM     32  H3  UNL     1      12.839  -0.724  49.807  1.00  0.00     0.210 HD
ENDBRANCH  29  31
ENDBRANCH  19  21
ENDBRANCH  18  19
ENDBRANCH  17  18
ENDBRANCH   1  17
TORSDOF 12
ENDMDL
MODEL 3
REMARK VINA RESULT: -8.381613277      3.259      9.558
REMARK  12 active torsions:
REMARK  status: ('A' for Active; 'I' for Inactive)
REMARK    1  A    between atoms: N1_4  and  C4_5 
REMARK    2  A    between atoms: C4_5  and  C5_6 
REMARK    3  A    between atoms: C5_6  and  C6_7 
REMARK    4  A    between atoms: C6_7  and  C7_8 
REMARK    5  A    between atoms: C7_8  and  C8_9 
REMARK    6  A    between atoms: C8_9  and  C9_10 
REMARK    7  A    between atoms: C9_10  and  C10_11 
REMARK    8  A    between atoms: C10_11  and  C11_12 
REMARK    9  A    between atoms: C11_12  and  O1_13 
REMARK   10  A    between atoms: O1_13  and  C12_14 
REMARK   11  A    between atoms: C12_14  and  C13_16 
REMARK   12  A    between atoms: C20_23  and  O3_24 
ROOT
HETATM    1  C10 UNL     1       6.306  -1.344  46.894  1.00  0.00     0.027 C 
ENDROOT
BRANCH   1   2
HETATM    2  C9  UNL     1       7.683  -1.315  47.512  1.00  0.00     0.002 C 
BRANCH   2   3
HETATM    3  C8  UNL     1       8.538  -0.297  46.858  1.00  0.00     0.000 C 
BRANCH   3   4
HETATM    4  C7  UNL     1       8.833  -0.753  45.426  1.00  0.00     0.000 C 
BRANCH   4   5
HETATM    5  C6  UNL     1      10.295  -0.807  45.126  1.00  0.00     0.002 C 
BRANCH   5   6
HETATM    6  C5  UNL     1      11.104  -1.674  46.027  1.00  0.00     0.020 C 
BRANCH   6   7
HETATM    7  C4  UNL     1      12.477  -1.191  46.348  1.00  0.00     0.122 C 
BRANCH   7   8
HETATM    8  N1  UNL     1      12.584  -0.334  47.463  1.00  0.00    -0.392 N 
HETATM    9  C3  UNL     1      12.754   1.049  47.237  1.00  0.00     0.126 C 
HETATM   10  C2  UNL     1      12.712   1.768  48.574  1.00  0.00     0.000 C 
HETATM   11  C1  UNL     1      12.503   3.238  48.424  1.00  0.00     0.011 C 
HETATM   12  C27 UNL     1      11.553   1.165  49.339  1.00  0.00     0.020 C 
HETATM   13  C24 UNL     1      11.883  -0.238  49.748  1.00  0.00    -0.015 C 
HETATM   14  C23 UNL     1      12.823  -0.859  48.740  1.00  0.00     0.067 C 
HETATM   15  C25 UNL     1      10.577  -1.009  49.873  1.00  0.00     0.020 C 
HETATM   16  C26 UNL     1      12.604  -0.169  51.078  1.00  0.00     0.020 C 
ENDBRANCH   7   8
ENDBRANCH   6   7
ENDBRANCH   5   6
ENDBRANCH   4   5
ENDBRANCH   3   4
ENDBRANCH   2   3
ENDBRANCH   1   2
BRANCH   1  17
HETATM   17  C11 UNL     1       5.468  -0.219  47.428  1.00  0.00     0.178 C 
BRANCH  17  18
HETATM   18  O1  UNL     1       4.238  -0.681  47.916  1.00  0.00    -0.321 OA
BRANCH  18  19
HETATM   19  C12 UNL     1       4.159  -1.607  48.918  1.00  0.00     0.268 C 
HETATM   20  O2  UNL     1       4.686  -1.470  50.048  1.00  0.00    -0.264 OA
BRANCH  19  21
HETATM   21  C13 UNL     1       3.409  -2.887  48.716  1.00  0.00     0.055 C 
HETATM   22  C14 UNL     1       4.378  -4.051  48.503  1.00  0.00     0.025 C 
HETATM   23  C15 UNL     1       3.563  -5.311  48.592  1.00  0.00    -0.010 C 
HETATM   24  C16 UNL     1       3.245  -5.536  50.066  1.00  0.00     0.005 C 
HETATM   25  C21 UNL     1       2.335  -5.314  47.742  1.00  0.00     0.042 C 
HETATM   26  C17 UNL     1       2.948  -4.234  50.772  1.00  0.00     0.006 C 
HETATM   27  C18 UNL     1       2.442  -3.170  49.819  1.00  0.00     0.007 C 
HETATM   28  C19 UNL     1       1.178  -3.717  49.188  1.00  0.00     0.043 C 
HETATM   29  C20 UNL     1       1.581  -4.003  47.775  1.00  0.00     0.060 C 
HETATM   30  C22 UNL     1       2.528  -2.833  47.486  1.00  0.00     0.058 C 
BRANCH  29  31
HETATM   31  O3  UNL     1       0.527  -4.052  46.894  1.00  0.00    -0.390 OA
ATOM     32  H3  UNL     1       0.390  -3.246  46.411  1.00  0.00     0.210 HD
ENDBRANCH  29  31
ENDBRANCH  19  21
ENDBRANCH  18  19
ENDBRANCH  17  18
ENDBRANCH   1  17
TORSDOF 12
ENDMDL
MODEL 4
REMARK VINA RESULT: -8.291170580      1.295      3.006
REMARK  12 active torsions:
REMARK  status: ('A' for Active; 'I' for Inactive)
REMARK    1  A    between atoms: N1_4  and  C4_5 
REMARK    2  A    between atoms: C4_5  and  C5_6 
REMARK    3  A    between atoms: C5_6  and  C6_7 
REMARK    4  A    between atoms: C6_7  and  C7_8 
REMARK    5  A    between atoms: C7_8  and  C8_9 
REMARK    6  A    between atoms: C8_9  and  C9_10 
REMARK    7  A    between atoms: C9_10  and  C10_11 
REMARK    8  A    between atoms: C10_11  and  C11_12 
REMARK    9  A    between atoms: C11_12  and  O1_13 
REMARK   10  A    between atoms: O1_13  and  C12_14 
REMARK   11  A    between atoms: C12_14  and  C13_16 
REMARK   12  A    between atoms: C20_23  and  O3_24 
ROOT
HETATM    1  C10 UNL     1       6.919  -0.879  48.023  1.00  0.00     0.027 C 
ENDROOT
BRANCH   1   2
HETATM    2  C9  UNL     1       7.010  -2.095  48.915  1.00  0.00     0.002 C 
BRANCH   2   3
HETATM    3  C8  UNL     1       7.626  -1.753  50.218  1.00  0.00     0.000 C 
BRANCH   3   4
HETATM    4  C7  UNL     1       6.515  -1.367  51.198  1.00  0.00     0.000 C 
BRANCH   4   5
HETATM    5  C6  UNL     1       5.870  -2.553  51.837  1.00  0.00     0.002 C 
BRANCH   5   6
HETATM    6  C5  UNL     1       4.389  -2.630  51.702  1.00  0.00     0.020 C 
BRANCH   6   7
HETATM    7  C4  UNL     1       3.866  -3.650  50.750  1.00  0.00     0.122 C 
BRANCH   7   8
HETATM    8  N1  UNL     1       3.142  -3.150  49.647  1.00  0.00    -0.392 N 
HETATM    9  C3  UNL     1       3.532  -1.915  49.088  1.00  0.00     0.126 C 
HETATM   10  C2  UNL     1       2.694  -1.657  47.847  1.00  0.00     0.000 C 
HETATM   11  C1  UNL     1       3.272  -0.588  46.981  1.00  0.00     0.011 C 
HETATM   12  C27 UNL     1       2.658  -2.966  47.086  1.00  0.00     0.020 C 
HETATM   13  C24 UNL     1       1.825  -3.967  47.825  1.00  0.00    -0.015 C 
HETATM   14  C23 UNL     1       1.896  -3.698  49.310  1.00  0.00     0.067 C 
HETATM   15  C25 UNL     1       2.331  -5.356  47.464  1.00  0.00     0.020 C 
HETATM   16  C26 UNL     1       0.388  -3.779  47.385  1.00  0.00     0.020 C 
ENDBRANCH   7   8
ENDBRANCH   6   7
ENDBRANCH   5   6
ENDBRANCH   4   5
ENDBRANCH   3   4
ENDBRANCH   2   3
ENDBRANCH   1   2
BRANCH   1  17
HETATM   17  C11 UNL     1       6.860  -1.291  46.581  1.00  0.00     0.178 C 
BRANCH  17  18
HETATM   18  O1  UNL     1       8.143  -1.483  46.049  1.00  0.00    -0.321 OA
BRANCH  18  19
HETATM   19  C12 UNL     1       9.010  -0.444  45.859  1.00  0.00     0.268 C 
HETATM   20  O2  UNL     1       8.699   0.643  45.318  1.00  0.00    -0.264 OA
BRANCH  19  21
HETATM   21  C13 UNL     1      10.436  -0.549  46.307  1.00  0.00     0.055 C 
HETATM   22  C14 UNL     1      11.037  -1.889  45.880  1.00  0.00     0.025 C 
HETATM   23  C15 UNL     1      12.518  -1.791  46.115  1.00  0.00    -0.010 C 
HETATM   24  C16 UNL     1      13.091  -0.912  45.009  1.00  0.00     0.005 C 
HETATM   25  C21 UNL     1      12.896  -1.304  47.476  1.00  0.00     0.042 C 
HETATM   26  C17 UNL     1      12.165   0.235  44.680  1.00  0.00     0.006 C 
HETATM   27  C18 UNL     1      11.271   0.601  45.848  1.00  0.00     0.007 C 
HETATM   28  C19 UNL     1      12.186   0.986  46.992  1.00  0.00     0.043 C 
HETATM   29  C20 UNL     1      12.045  -0.150  47.958  1.00  0.00     0.060 C 
HETATM   30  C22 UNL     1      10.555  -0.487  47.815  1.00  0.00     0.058 C 
BRANCH  29  31
HETATM   31  O3  UNL     1      12.386   0.171  49.250  1.00  0.00    -0.390 OA
ATOM     32  H3  UNL     1      12.816   1.014  49.338  1.00  0.00     0.210 HD
ENDBRANCH  29  31
ENDBRANCH  19  21
ENDBRANCH  18  19
ENDBRANCH  17  18
ENDBRANCH   1  17
TORSDOF 12
ENDMDL
MODEL 5
REMARK VINA RESULT: -8.288686053      1.342      3.267
REMARK  12 active torsions:
REMARK  status: ('A' for Active; 'I' for Inactive)
REMARK    1  A    between atoms: N1_4  and  C4_5 
REMARK    2  A    between atoms: C4_5  and  C5_6 
REMARK    3  A    between atoms: C5_6  and  C6_7 
REMARK    4  A    between atoms: C6_7  and  C7_8 
REMARK    5  A    between atoms: C7_8  and  C8_9 
REMARK    6  A    between atoms: C8_9  and  C9_10 
REMARK    7  A    between atoms: C9_10  and  C10_11 
REMARK    8  A    between atoms: C10_11  and  C11_12 
REMARK    9  A    between atoms: C11_12  and  O1_13 
REMARK   10  A    between atoms: O1_13  and  C12_14 
REMARK   11  A    between atoms: C12_14  and  C13_16 
REMARK   12  A    between atoms: C20_23  and  O3_24 
ROOT
HETATM    1  C10 UNL     1       7.120  -1.376  47.311  1.00  0.00     0.027 C 
ENDROOT
BRANCH   1   2
HETATM    2  C9  UNL     1       6.203  -1.664  48.476  1.00  0.00     0.002 C 
BRANCH   2   3
HETATM    3  C8  UNL     1       4.935  -2.275  48.016  1.00  0.00     0.000 C 
BRANCH   3   4
HETATM    4  C7  UNL     1       4.323  -3.065  49.177  1.00  0.00     0.000 C 
BRANCH   4   5
HETATM    5  C6  UNL     1       3.434  -4.174  48.716  1.00  0.00     0.002 C 
BRANCH   5   6
HETATM    6  C5  UNL     1       2.430  -3.804  47.680  1.00  0.00     0.020 C 
BRANCH   6   7
HETATM    7  C4  UNL     1       1.035  -3.592  48.159  1.00  0.00     0.122 C 
BRANCH   7   8
HETATM    8  N1  UNL     1       0.472  -2.330  47.879  1.00  0.00    -0.392 N 
HETATM    9  C3  UNL     1      -0.840  -2.063  48.325  1.00  0.00     0.126 C 
HETATM   10  C2  UNL     1      -1.170  -0.611  48.020  1.00  0.00     0.000 C 
HETATM   11  C1  UNL     1      -2.363  -0.128  48.777  1.00  0.00     0.011 C 
HETATM   12  C27 UNL     1       0.049   0.190  48.425  1.00  0.00     0.020 C 
HETATM   13  C24 UNL     1       1.177  -0.080  47.478  1.00  0.00    -0.015 C 
HETATM   14  C23 UNL     1       1.064  -1.484  46.931  1.00  0.00     0.067 C 
HETATM   15  C25 UNL     1       2.482   0.145  48.229  1.00  0.00     0.020 C 
HETATM   16  C26 UNL     1       1.043   0.885  46.319  1.00  0.00     0.020 C 
ENDBRANCH   7   8
ENDBRANCH   6   7
ENDBRANCH   5   6
ENDBRANCH   4   5
ENDBRANCH   3   4
ENDBRANCH   2   3
ENDBRANCH   1   2
BRANCH   1  17
HETATM   17  C11 UNL     1       7.027   0.069  46.918  1.00  0.00     0.178 C 
BRANCH  17  18
HETATM   18  O1  UNL     1       8.297   0.629  46.713  1.00  0.00    -0.321 OA
BRANCH  18  19
HETATM   19  C12 UNL     1       9.202   0.072  45.853  1.00  0.00     0.268 C 
HETATM   20  O2  UNL     1       8.965  -0.183  44.648  1.00  0.00    -0.264 OA
BRANCH  19  21
HETATM   21  C13 UNL     1      10.582  -0.277  46.318  1.00  0.00     0.055 C 
HETATM   22  C14 UNL     1      10.992  -1.657  45.800  1.00  0.00     0.025 C 
HETATM   23  C15 UNL     1      12.463  -1.798  46.071  1.00  0.00    -0.010 C 
HETATM   24  C16 UNL     1      13.193  -0.935  45.049  1.00  0.00     0.005 C 
HETATM   25  C21 UNL     1      12.866  -1.476  47.473  1.00  0.00     0.042 C 
HETATM   26  C17 UNL     1      12.457   0.359  44.793  1.00  0.00     0.006 C 
HETATM   27  C18 UNL     1      11.591   0.766  45.967  1.00  0.00     0.007 C 
HETATM   28  C19 UNL     1      12.517   0.923  47.156  1.00  0.00     0.043 C 
HETATM   29  C20 UNL     1      12.180  -0.247  48.027  1.00  0.00     0.060 C 
HETATM   30  C22 UNL     1      10.662  -0.346  47.829  1.00  0.00     0.058 C 
BRANCH  29  31
HETATM   31  O3  UNL     1      12.525  -0.078  49.347  1.00  0.00    -0.390 OA
ATOM     32  H3  UNL     1      12.829   0.797  49.557  1.00  0.00     0.210 HD
ENDBRANCH  29  31
ENDBRANCH  19  21
ENDBRANCH  18  19
ENDBRANCH  17  18
ENDBRANCH   1  17
TORSDOF 12
ENDMDL
