MODEL 1
REMARK VINA RESULT: -9.959235329      0.000      0.000
REMARK  10 active torsions:
REMARK  status: ('A' for Active; 'I' for Inactive)
REMARK    1  A    between atoms: C2_2  and  C4_4 
REMARK    2  A    between atoms: C4_4  and  C5_5 
REMARK    3  A    between atoms: C9_10  and  C10_11 
REMARK    4  A    between atoms: C10_11  and  C11_12 
REMARK    5  A    between atoms: C11_12  and  N1_13 
REMARK       I    between atoms: N1_13  and  C12_15 
REMARK    6  A    between atoms: C12_15  and  C13_17 
REMARK    7  A    between atoms: C13_17  and  C14_18 
REMARK    8  A    between atoms: C14_18  and  C16_20 
REMARK    9  A    between atoms: C16_20  and  C18_22 
REMARK   10  A    between atoms: C19_23  and  C20_24 
ROOT
HETATM    1  N1  UNL     1       3.133  -3.406  47.893  1.00  0.00    -0.361 N 
ATOM      2  H1  UNL     1       2.835  -4.158  48.515  1.00  0.00     0.162 HD
HETATM    3  C12 UNL     1       4.283  -2.646  48.211  1.00  0.00     0.218 C 
HETATM    4  O2  UNL     1       4.634  -1.725  47.438  1.00  0.00    -0.274 OA
ENDROOT
BRANCH   1   5
HETATM    5  C11 UNL     1       2.376  -3.124  46.694  1.00  0.00     0.125 C 
BRANCH   5   6
HETATM    6  C10 UNL     1       0.894  -3.077  46.943  1.00  0.00     0.052 C 
BRANCH   6   7
HETATM    7  C9  UNL     1       0.509  -2.443  48.240  1.00  0.00     0.133 C 
HETATM    8  C8  UNL     1      -0.937  -2.234  48.445  1.00  0.00     0.040 C 
HETATM    9  C7  UNL     1      -1.545  -1.126  47.603  1.00  0.00     0.081 C 
HETATM   10  C6  UNL     1      -1.190   0.208  48.144  1.00  0.00     0.140 C 
HETATM   11  C5  UNL     1       0.085   0.929  48.012  1.00  0.00     0.155 C 
HETATM   12  O1  UNL     1      -2.066   0.753  48.769  1.00  0.00    -0.297 OA
HETATM   13  C26 UNL     1       1.272   0.016  48.067  1.00  0.00     0.270 C 
HETATM   14  O3  UNL     1       1.290  -1.300  48.443  1.00  0.00    -0.315 OA
HETATM   15  O4  UNL     1       2.383   0.493  47.735  1.00  0.00    -0.264 OA
BRANCH  11  16
HETATM   16  C4  UNL     1       0.240   1.766  46.791  1.00  0.00     0.026 C 
BRANCH  16  17
HETATM   17  C2  UNL     1       0.235   3.240  46.979  1.00  0.00    -0.021 C 
HETATM   18  C1  UNL     1       0.297   3.624  48.447  1.00  0.00     0.009 C 
HETATM   19  C3  UNL     1      -0.789   4.006  46.203  1.00  0.00     0.009 C 
ENDBRANCH  16  17
ENDBRANCH  11  16
ENDBRANCH   6   7
ENDBRANCH   5   6
ENDBRANCH   1   5
BRANCH   3  20
HETATM   20  C13 UNL     1       5.098  -2.911  49.444  1.00  0.00     0.111 C 
BRANCH  20  21
HETATM   21  C14 UNL     1       4.302  -2.712  50.682  1.00  0.00     0.019 C 
HETATM   22  C15 UNL     1       3.717  -4.016  51.202  1.00  0.00     0.015 C 
BRANCH  21  23
HETATM   23  C16 UNL     1       4.903  -1.969  51.794  1.00  0.00    -0.080 C 
HETATM   24  C17 UNL     1       6.376  -1.645  51.572  1.00  0.00     0.044 C 
BRANCH  23  25
HETATM   25  C18 UNL     1       4.581  -2.375  53.167  1.00  0.00    -0.001 C 
HETATM   26  C19 UNL     1       4.362  -1.650  54.228  1.00  0.00    -0.022 C 
BRANCH  26  27
HETATM   27  C20 UNL     1       4.045  -2.250  55.542  1.00  0.00     0.008 C 
HETATM   28  C21 UNL     1       5.274  -2.332  56.428  1.00  0.00     0.008 C 
HETATM   29  C22 UNL     1       4.778  -2.490  57.854  1.00  0.00     0.001 C 
HETATM   30  C23 UNL     1       3.381  -3.051  57.873  1.00  0.00     0.000 C 
HETATM   31  C24 UNL     1       3.170  -4.122  56.830  1.00  0.00     0.001 C 
HETATM   32  C25 UNL     1       3.436  -3.602  55.420  1.00  0.00     0.008 C 
ENDBRANCH  26  27
ENDBRANCH  23  25
ENDBRANCH  21  23
ENDBRANCH  20  21
ENDBRANCH   3  20
TORSDOF 10
ENDMDL
MODEL 2
REMARK VINA RESULT: -9.678266204      1.159      1.544
REMARK  10 active torsions:
REMARK  status: ('A' for Active; 'I' for Inactive)
REMARK    1  A    between atoms: C2_2  and  C4_4 
REMARK    2  A    between atoms: C4_4  and  C5_5 
REMARK    3  A    between atoms: C9_10  and  C10_11 
REMARK    4  A    between atoms: C10_11  and  C11_12 
REMARK    5  A    between atoms: C11_12  and  N1_13 
REMARK       I    between atoms: N1_13  and  C12_15 
REMARK    6  A    between atoms: C12_15  and  C13_17 
REMARK    7  A    between atoms: C13_17  and  C14_18 
REMARK    8  A    between atoms: C14_18  and  C16_20 
REMARK    9  A    between atoms: C16_20  and  C18_22 
REMARK   10  A    between atoms: C19_23  and  C20_24 
ROOT
HETATM    1  N1  UNL     1       2.964  -3.542  48.106  1.00  0.00    -0.361 N 
ATOM      2  H1  UNL     1       3.201  -2.667  48.574  1.00  0.00     0.162 HD
HETATM    3  C12 UNL     1       3.239  -4.775  48.743  1.00  0.00     0.218 C 
HETATM    4  O2  UNL     1       2.945  -5.841  48.154  1.00  0.00    -0.274 OA
ENDROOT
BRANCH   1   5
HETATM    5  C11 UNL     1       2.350  -3.513  46.798  1.00  0.00     0.125 C 
BRANCH   5   6
HETATM    6  C10 UNL     1       0.912  -3.075  46.843  1.00  0.00     0.052 C 
BRANCH   6   7
HETATM    7  C9  UNL     1       0.497  -2.463  48.141  1.00  0.00     0.133 C 
HETATM    8  C8  UNL     1      -0.952  -2.249  48.313  1.00  0.00     0.040 C 
HETATM    9  C7  UNL     1      -1.532  -1.122  47.476  1.00  0.00     0.081 C 
HETATM   10  C6  UNL     1      -1.184   0.200  48.051  1.00  0.00     0.140 C 
HETATM   11  C5  UNL     1       0.099   0.915  47.965  1.00  0.00     0.155 C 
HETATM   12  O1  UNL     1      -2.073   0.739  48.662  1.00  0.00    -0.297 OA
HETATM   13  C26 UNL     1       1.279  -0.005  48.034  1.00  0.00     0.270 C 
HETATM   14  O3  UNL     1       1.279  -1.328  48.386  1.00  0.00    -0.315 OA
HETATM   15  O4  UNL     1       2.400   0.471  47.740  1.00  0.00    -0.264 OA
BRANCH  11  16
HETATM   16  C4  UNL     1       0.290   1.773  46.763  1.00  0.00     0.026 C 
BRANCH  16  17
HETATM   17  C2  UNL     1       0.237   3.244  46.971  1.00  0.00    -0.021 C 
HETATM   18  C1  UNL     1       0.310   3.612  48.442  1.00  0.00     0.009 C 
HETATM   19  C3  UNL     1      -0.824   3.984  46.221  1.00  0.00     0.009 C 
ENDBRANCH  16  17
ENDBRANCH  11  16
ENDBRANCH   6   7
ENDBRANCH   5   6
ENDBRANCH   1   5
BRANCH   3  20
HETATM   20  C13 UNL     1       3.871  -4.847  50.103  1.00  0.00     0.111 C 
BRANCH  20  21
HETATM   21  C14 UNL     1       3.233  -3.902  51.057  1.00  0.00     0.019 C 
HETATM   22  C15 UNL     1       2.206  -4.590  51.942  1.00  0.00     0.015 C 
BRANCH  21  23
HETATM   23  C16 UNL     1       4.091  -3.046  51.881  1.00  0.00    -0.080 C 
HETATM   24  C17 UNL     1       5.521  -2.951  51.361  1.00  0.00     0.044 C 
BRANCH  23  25
HETATM   25  C18 UNL     1       3.992  -3.146  53.341  1.00  0.00    -0.001 C 
HETATM   26  C19 UNL     1       4.927  -3.251  54.242  1.00  0.00    -0.022 C 
BRANCH  26  27
HETATM   27  C20 UNL     1       4.625  -3.340  55.687  1.00  0.00     0.008 C 
HETATM   28  C21 UNL     1       3.158  -3.642  55.932  1.00  0.00     0.008 C 
HETATM   29  C22 UNL     1       3.050  -4.179  57.347  1.00  0.00     0.001 C 
HETATM   30  C23 UNL     1       4.225  -3.734  58.178  1.00  0.00     0.000 C 
HETATM   31  C24 UNL     1       4.631  -2.308  57.892  1.00  0.00     0.001 C 
HETATM   32  C25 UNL     1       5.003  -2.106  56.426  1.00  0.00     0.008 C 
ENDBRANCH  26  27
ENDBRANCH  23  25
ENDBRANCH  21  23
ENDBRANCH  20  21
ENDBRANCH   3  20
TORSDOF 10
ENDMDL
MODEL 3
REMARK VINA RESULT: -9.401270680      1.166      1.712
REMARK  10 active torsions:
REMARK  status: ('A' for Active; 'I' for Inactive)
REMARK    1  A    between atoms: C2_2  and  C4_4 
REMARK    2  A    between atoms: C4_4  and  C5_5 
REMARK    3  A    between atoms: C9_10  and  C10_11 
REMARK    4  A    between atoms: C10_11  and  C11_12 
REMARK    5  A    between atoms: C11_12  and  N1_13 
REMARK       I    between atoms: N1_13  and  C12_15 
REMARK    6  A    between atoms: C12_15  and  C13_17 
REMARK    7  A    between atoms: C13_17  and  C14_18 
REMARK    8  A    between atoms: C14_18  and  C16_20 
REMARK    9  A    between atoms: C16_20  and  C18_22 
REMARK   10  A    between atoms: C19_23  and  C20_24 
ROOT
HETATM    1  N1  UNL     1       3.456  -2.134  47.392  1.00  0.00    -0.361 N 
ATOM      2  H1  UNL     1       3.426  -1.183  47.023  1.00  0.00     0.162 HD
HETATM    3  C12 UNL     1       4.285  -2.433  48.498  1.00  0.00     0.218 C 
HETATM    4  O2  UNL     1       4.312  -3.606  48.937  1.00  0.00    -0.274 OA
ENDROOT
BRANCH   1   5
HETATM    5  C11 UNL     1       2.650  -3.166  46.780  1.00  0.00     0.125 C 
BRANCH   5   6
HETATM    6  C10 UNL     1       1.189  -2.813  46.741  1.00  0.00     0.052 C 
BRANCH   6   7
HETATM    7  C9  UNL     1       0.619  -2.409  48.062  1.00  0.00     0.133 C 
HETATM    8  C8  UNL     1      -0.852  -2.452  48.165  1.00  0.00     0.040 C 
HETATM    9  C7  UNL     1      -1.575  -1.358  47.401  1.00  0.00     0.081 C 
HETATM   10  C6  UNL     1      -1.480  -0.060  48.113  1.00  0.00     0.140 C 
HETATM   11  C5  UNL     1      -0.333   0.859  48.170  1.00  0.00     0.155 C 
HETATM   12  O1  UNL     1      -2.472   0.263  48.716  1.00  0.00    -0.297 OA
HETATM   13  C26 UNL     1       0.981   0.142  48.225  1.00  0.00     0.270 C 
HETATM   14  O3  UNL     1       1.188  -1.192  48.455  1.00  0.00    -0.315 OA
HETATM   15  O4  UNL     1       2.018   0.821  48.043  1.00  0.00    -0.264 OA
BRANCH  11  16
HETATM   16  C4  UNL     1      -0.236   1.852  47.064  1.00  0.00     0.026 C 
BRANCH  16  17
HETATM   17  C2  UNL     1      -0.939   3.147  47.259  1.00  0.00    -0.021 C 
HETATM   18  C1  UNL     1      -0.276   4.274  46.486  1.00  0.00     0.009 C 
HETATM   19  C3  UNL     1      -1.286   3.512  48.667  1.00  0.00     0.009 C 
ENDBRANCH  16  17
ENDBRANCH  11  16
ENDBRANCH   6   7
ENDBRANCH   5   6
ENDBRANCH   1   5
BRANCH   3  20
HETATM   20  C13 UNL     1       5.133  -1.387  49.164  1.00  0.00     0.111 C 
BRANCH  20  21
HETATM   21  C14 UNL     1       6.439  -1.939  49.609  1.00  0.00     0.019 C 
HETATM   22  C15 UNL     1       7.534  -1.717  48.577  1.00  0.00     0.015 C 
BRANCH  21  23
HETATM   23  C16 UNL     1       6.940  -1.579  50.938  1.00  0.00    -0.080 C 
HETATM   24  C17 UNL     1       8.450  -1.744  51.075  1.00  0.00     0.044 C 
BRANCH  23  25
HETATM   25  C18 UNL     1       6.183  -2.012  52.117  1.00  0.00    -0.001 C 
HETATM   26  C19 UNL     1       5.465  -1.319  52.956  1.00  0.00    -0.022 C 
BRANCH  26  27
HETATM   27  C20 UNL     1       4.764  -1.944  54.099  1.00  0.00     0.008 C 
HETATM   28  C21 UNL     1       5.568  -1.819  55.380  1.00  0.00     0.008 C 
HETATM   29  C22 UNL     1       4.599  -2.033  56.529  1.00  0.00     0.001 C 
HETATM   30  C23 UNL     1       3.391  -2.808  56.070  1.00  0.00     0.000 C 
HETATM   31  C24 UNL     1       3.742  -3.912  55.103  1.00  0.00     0.001 C 
HETATM   32  C25 UNL     1       4.443  -3.376  53.858  1.00  0.00     0.008 C 
ENDBRANCH  26  27
ENDBRANCH  23  25
ENDBRANCH  21  23
ENDBRANCH  20  21
ENDBRANCH   3  20
TORSDOF 10
ENDMDL
MODEL 4
REMARK VINA RESULT: -9.395390989      2.655      7.958
REMARK  10 active torsions:
REMARK  status: ('A' for Active; 'I' for Inactive)
REMARK    1  A    between atoms: C2_2  and  C4_4 
REMARK    2  A    between atoms: C4_4  and  C5_5 
REMARK    3  A    between atoms: C9_10  and  C10_11 
REMARK    4  A    between atoms: C10_11  and  C11_12 
REMARK    5  A    between atoms: C11_12  and  N1_13 
REMARK       I    between atoms: N1_13  and  C12_15 
REMARK    6  A    between atoms: C12_15  and  C13_17 
REMARK    7  A    between atoms: C13_17  and  C14_18 
REMARK    8  A    between atoms: C14_18  and  C16_20 
REMARK    9  A    between atoms: C16_20  and  C18_22 
REMARK   10  A    between atoms: C19_23  and  C20_24 
ROOT
HETATM    1  N1  UNL     1       3.251   0.081  48.753  1.00  0.00    -0.361 N 
ATOM      2  H1  UNL     1       2.551   0.282  49.468  1.00  0.00     0.162 HD
HETATM    3  C12 UNL     1       2.872   0.048  47.390  1.00  0.00     0.218 C 
HETATM    4  O2  UNL     1       3.743  -0.202  46.526  1.00  0.00    -0.274 OA
ENDROOT
BRANCH   1   5
HETATM    5  C11 UNL     1       4.621  -0.167  49.141  1.00  0.00     0.125 C 
BRANCH   5   6
HETATM    6  C10 UNL     1       4.802  -0.214  50.633  1.00  0.00     0.052 C 
BRANCH   6   7
HETATM    7  C9  UNL     1       5.740  -1.277  51.105  1.00  0.00     0.133 C 
HETATM    8  C8  UNL     1       5.243  -2.662  50.998  1.00  0.00     0.040 C 
HETATM    9  C7  UNL     1       4.159  -3.027  51.997  1.00  0.00     0.081 C 
HETATM   10  C6  UNL     1       4.734  -3.248  53.347  1.00  0.00     0.140 C 
HETATM   11  C5  UNL     1       5.169  -2.237  54.322  1.00  0.00     0.155 C 
HETATM   12  O1  UNL     1       4.854  -4.405  53.665  1.00  0.00    -0.297 OA
HETATM   13  C26 UNL     1       5.813  -1.050  53.675  1.00  0.00     0.270 C 
HETATM   14  O3  UNL     1       6.222  -0.935  52.373  1.00  0.00    -0.315 OA
HETATM   15  O4  UNL     1       6.008  -0.038  54.388  1.00  0.00    -0.264 OA
BRANCH  11  16
HETATM   16  C4  UNL     1       4.116  -1.713  55.235  1.00  0.00     0.026 C 
BRANCH  16  17
HETATM   17  C2  UNL     1       3.997  -2.360  56.568  1.00  0.00    -0.021 C 
HETATM   18  C1  UNL     1       5.346  -2.502  57.251  1.00  0.00     0.009 C 
HETATM   19  C3  UNL     1       3.160  -3.597  56.635  1.00  0.00     0.009 C 
ENDBRANCH  16  17
ENDBRANCH  11  16
ENDBRANCH   6   7
ENDBRANCH   5   6
ENDBRANCH   1   5
BRANCH   3  20
HETATM   20  C13 UNL     1       1.461   0.305  46.948  1.00  0.00     0.111 C 
BRANCH  20  21
HETATM   21  C14 UNL     1       0.480  -0.050  48.006  1.00  0.00     0.019 C 
HETATM   22  C15 UNL     1      -0.703   0.907  48.035  1.00  0.00     0.015 C 
BRANCH  21  23
HETATM   23  C16 UNL     1      -0.008  -1.430  48.081  1.00  0.00    -0.080 C 
HETATM   24  C17 UNL     1      -1.320  -1.562  48.845  1.00  0.00     0.044 C 
BRANCH  23  25
HETATM   25  C18 UNL     1       0.954  -2.503  48.355  1.00  0.00    -0.001 C 
HETATM   26  C19 UNL     1       1.483  -3.383  47.553  1.00  0.00    -0.022 C 
BRANCH  26  27
HETATM   27  C20 UNL     1       2.451  -4.399  48.023  1.00  0.00     0.008 C 
HETATM   28  C21 UNL     1       2.256  -5.725  47.310  1.00  0.00     0.008 C 
HETATM   29  C22 UNL     1       3.542  -6.511  47.487  1.00  0.00     0.001 C 
HETATM   30  C23 UNL     1       4.307  -6.021  48.688  1.00  0.00     0.000 C 
HETATM   31  C24 UNL     1       3.406  -5.687  49.853  1.00  0.00     0.001 C 
HETATM   32  C25 UNL     1       2.382  -4.615  49.492  1.00  0.00     0.008 C 
ENDBRANCH  26  27
ENDBRANCH  23  25
ENDBRANCH  21  23
ENDBRANCH  20  21
ENDBRANCH   3  20
TORSDOF 10
ENDMDL
MODEL 5
REMARK VINA RESULT: -9.287364195      0.978      1.668
REMARK  10 active torsions:
REMARK  status: ('A' for Active; 'I' for Inactive)
REMARK    1  A    between atoms: C2_2  and  C4_4 
REMARK    2  A    between atoms: C4_4  and  C5_5 
REMARK    3  A    between atoms: C9_10  and  C10_11 
REMARK    4  A    between atoms: C10_11  and  C11_12 
REMARK    5  A    between atoms: C11_12  and  N1_13 
REMARK       I    between atoms: N1_13  and  C12_15 
REMARK    6  A    between atoms: C12_15  and  C13_17 
REMARK    7  A    between atoms: C13_17  and  C14_18 
REMARK    8  A    between atoms: C14_18  and  C16_20 
REMARK    9  A    between atoms: C16_20  and  C18_22 
REMARK   10  A    between atoms: C19_23  and  C20_24 
ROOT
HETATM    1  N1  UNL     1       2.307  -4.162  47.644  1.00  0.00    -0.361 N 
ATOM      2  H1  UNL     1       1.884  -5.009  48.023  1.00  0.00     0.162 HD
HETATM    3  C12 UNL     1       3.557  -3.719  48.139  1.00  0.00     0.218 C 
HETATM    4  O2  UNL     1       4.061  -2.674  47.665  1.00  0.00    -0.274 OA
ENDROOT
BRANCH   1   5
HETATM    5  C11 UNL     1       1.626  -3.422  46.606  1.00  0.00     0.125 C 
BRANCH   5   6
HETATM    6  C10 UNL     1       0.269  -2.938  47.036  1.00  0.00     0.052 C 
BRANCH   6   7
HETATM    7  C9  UNL     1       0.259  -2.223  48.349  1.00  0.00     0.133 C 
HETATM    8  C8  UNL     1      -1.066  -1.792  48.832  1.00  0.00     0.040 C 
HETATM    9  C7  UNL     1      -1.671  -0.624  48.073  1.00  0.00     0.081 C 
HETATM   10  C6  UNL     1      -1.022   0.653  48.458  1.00  0.00     0.140 C 
HETATM   11  C5  UNL     1       0.288   1.168  48.030  1.00  0.00     0.155 C 
HETATM   12  O1  UNL     1      -1.660   1.339  49.217  1.00  0.00    -0.297 OA
HETATM   13  C26 UNL     1       1.316   0.087  47.891  1.00  0.00     0.270 C 
HETATM   14  O3  UNL     1       1.221  -1.208  48.327  1.00  0.00    -0.315 OA
HETATM   15  O4  UNL     1       2.389   0.381  47.315  1.00  0.00    -0.264 OA
BRANCH  11  16
HETATM   16  C4  UNL     1       0.302   1.943  46.759  1.00  0.00     0.026 C 
BRANCH  16  17
HETATM   17  C2  UNL     1       0.231   3.423  46.872  1.00  0.00    -0.021 C 
HETATM   18  C1  UNL     1       0.486   3.896  48.292  1.00  0.00     0.009 C 
HETATM   19  C3  UNL     1      -0.944   4.084  46.224  1.00  0.00     0.009 C 
ENDBRANCH  16  17
ENDBRANCH  11  16
ENDBRANCH   6   7
ENDBRANCH   5   6
ENDBRANCH   1   5
BRANCH   3  20
HETATM   20  C13 UNL     1       4.298  -4.462  49.213  1.00  0.00     0.111 C 
BRANCH  20  21
HETATM   21  C14 UNL     1       4.285  -3.723  50.502  1.00  0.00     0.019 C 
HETATM   22  C15 UNL     1       3.800  -2.292  50.336  1.00  0.00     0.015 C 
BRANCH  21  23
HETATM   23  C16 UNL     1       3.619  -4.333  51.657  1.00  0.00    -0.080 C 
HETATM   24  C17 UNL     1       2.124  -4.546  51.443  1.00  0.00     0.044 C 
BRANCH  23  25
HETATM   25  C18 UNL     1       3.969  -3.862  53.001  1.00  0.00    -0.001 C 
HETATM   26  C19 UNL     1       3.687  -4.368  54.169  1.00  0.00    -0.022 C 
BRANCH  26  27
HETATM   27  C20 UNL     1       4.138  -3.741  55.430  1.00  0.00     0.008 C 
HETATM   28  C21 UNL     1       3.067  -3.818  56.504  1.00  0.00     0.008 C 
HETATM   29  C22 UNL     1       3.765  -3.608  57.835  1.00  0.00     0.001 C 
HETATM   30  C23 UNL     1       5.068  -2.877  57.645  1.00  0.00     0.000 C 
HETATM   31  C24 UNL     1       4.975  -1.783  56.609  1.00  0.00     0.001 C 
HETATM   32  C25 UNL     1       4.550  -2.324  55.248  1.00  0.00     0.008 C 
ENDBRANCH  26  27
ENDBRANCH  23  25
ENDBRANCH  21  23
ENDBRANCH  20  21
ENDBRANCH   3  20
TORSDOF 10
ENDMDL
