MODEL 1
REMARK VINA RESULT: -7.714140384      0.000      0.000
REMARK  4 active torsions:
REMARK  status: ('A' for Active; 'I' for Inactive)
REMARK    1  A    between atoms: N1_2  and  C2_5 
REMARK    2  A    between atoms: C2_5  and  C4_7 
REMARK       I    between atoms: C4_7  and  N2_9 
REMARK    3  A    between atoms: C11_17  and  C12_18 
REMARK    4  A    between atoms: C12_18  and  C13_19 
ROOT
HETATM    1  C13 UNL     1       0.256  -6.658  29.244  1.00  0.00     0.124 C 
HETATM    2  C14 UNL     1       0.050  -6.696  30.691  1.00  0.00     0.059 C 
HETATM    3  N3  UNL     1      -0.110  -6.744  31.835  1.00  0.00    -0.197 NA
ENDROOT
BRANCH   1   4
HETATM    4  C12 UNL     1       0.650  -8.012  28.748  1.00  0.00     0.024 C 
BRANCH   4   5
HETATM    5  C11 UNL     1       0.774  -8.103  27.243  1.00  0.00     0.032 C 
HETATM    6  C5  UNL     1       2.153  -8.525  26.937  1.00  0.00    -0.006 C 
HETATM    7  N2  UNL     1       2.269  -9.787  26.762  1.00  0.00    -0.332 N 
HETATM    8  C6  UNL     1       3.428  -7.795  26.781  1.00  0.00     0.053 C 
HETATM    9  C4  UNL     1       3.434 -10.500  26.453  1.00  0.00     0.252 C 
ATOM     10  H2  UNL     1       1.415 -10.337  26.859  1.00  0.00     0.168 HD
HETATM   11  O1  UNL     1       3.666 -10.684  25.211  1.00  0.00    -0.271 OA
HETATM   12  C7  UNL     1       3.263  -6.592  25.863  1.00  0.00     0.006 C 
HETATM   13  C8  UNL     1       2.170  -7.037  24.882  1.00  0.00     0.000 C 
HETATM   14  C9  UNL     1       0.892  -6.430  25.334  1.00  0.00     0.001 C 
HETATM   15  C10 UNL     1       0.419  -6.754  26.691  1.00  0.00     0.010 C 
BRANCH   9  16
HETATM   16  C2  UNL     1       4.391 -11.043  27.430  1.00  0.00     0.272 C 
HETATM   17  C3  UNL     1       3.800 -12.205  28.234  1.00  0.00     0.050 C 
BRANCH  16  18
HETATM   18  N1  UNL     1       5.587 -11.491  26.749  1.00  0.00    -0.067 N 
HETATM   19  C1  UNL     1       6.273 -12.518  27.523  1.00  0.00     0.267 C 
ATOM     20  H12 UNL     1       6.207 -10.712  26.524  1.00  0.00     0.277 HD
ATOM     21  H11 UNL     1       5.385 -11.806  25.801  1.00  0.00     0.277 HD
ENDBRANCH  16  18
ENDBRANCH   9  16
ENDBRANCH   4   5
ENDBRANCH   1   4
TORSDOF 4
ENDMDL
MODEL 2
REMARK VINA RESULT: -6.044939507      3.083      5.185
REMARK  4 active torsions:
REMARK  status: ('A' for Active; 'I' for Inactive)
REMARK    1  A    between atoms: N1_2  and  C2_5 
REMARK    2  A    between atoms: C2_5  and  C4_7 
REMARK       I    between atoms: C4_7  and  N2_9 
REMARK    3  A    between atoms: C11_17  and  C12_18 
REMARK    4  A    between atoms: C12_18  and  C13_19 
ROOT
HETATM    1  C13 UNL     1       3.049  -9.049  27.984  1.00  0.00     0.124 C 
HETATM    2  C14 UNL     1       1.707  -8.541  27.703  1.00  0.00     0.059 C 
HETATM    3  N3  UNL     1       0.639  -8.156  27.482  1.00  0.00    -0.197 NA
ENDROOT
BRANCH   1   4
HETATM    4  C12 UNL     1       2.976 -10.486  28.391  1.00  0.00     0.024 C 
BRANCH   4   5
HETATM    5  C11 UNL     1       3.526 -11.445  27.357  1.00  0.00     0.032 C 
HETATM    6  C5  UNL     1       4.342 -12.444  28.069  1.00  0.00    -0.006 C 
HETATM    7  N2  UNL     1       3.703 -13.517  28.345  1.00  0.00    -0.332 N 
HETATM    8  C6  UNL     1       5.748 -12.470  28.525  1.00  0.00     0.053 C 
HETATM    9  C4  UNL     1       4.189 -14.653  29.005  1.00  0.00     0.252 C 
ATOM     10  H2  UNL     1       2.726 -13.549  28.052  1.00  0.00     0.168 HD
HETATM   11  O1  UNL     1       4.666 -15.572  28.259  1.00  0.00    -0.271 OA
HETATM   12  C7  UNL     1       6.693 -12.036  27.412  1.00  0.00     0.006 C 
HETATM   13  C8  UNL     1       5.983 -12.506  26.135  1.00  0.00     0.000 C 
HETATM   14  C9  UNL     1       5.301 -11.326  25.544  1.00  0.00     0.001 C 
HETATM   15  C10 UNL     1       4.301 -10.626  26.367  1.00  0.00     0.010 C 
BRANCH   9  16
HETATM   16  C2  UNL     1       4.191 -14.863  30.461  1.00  0.00     0.272 C 
HETATM   17  C3  UNL     1       3.086 -15.824  30.908  1.00  0.00     0.050 C 
BRANCH  16  18
HETATM   18  N1  UNL     1       5.477 -15.381  30.880  1.00  0.00    -0.067 N 
HETATM   19  C1  UNL     1       5.377 -16.790  31.240  1.00  0.00     0.267 C 
ATOM     20  H12 UNL     1       5.878 -14.826  31.636  1.00  0.00     0.277 HD
ATOM     21  H11 UNL     1       6.195 -15.223  30.174  1.00  0.00     0.277 HD
ENDBRANCH  16  18
ENDBRANCH   9  16
ENDBRANCH   4   5
ENDBRANCH   1   4
TORSDOF 4
ENDMDL
MODEL 3
REMARK VINA RESULT: -5.749279646      5.372      8.060
REMARK  4 active torsions:
REMARK  status: ('A' for Active; 'I' for Inactive)
REMARK    1  A    between atoms: N1_2  and  C2_5 
REMARK    2  A    between atoms: C2_5  and  C4_7 
REMARK       I    between atoms: C4_7  and  N2_9 
REMARK    3  A    between atoms: C11_17  and  C12_18 
REMARK    4  A    between atoms: C12_18  and  C13_19 
ROOT
HETATM    1  C13 UNL     1       5.179 -11.751  28.130  1.00  0.00     0.124 C 
HETATM    2  C14 UNL     1       4.957 -11.507  26.705  1.00  0.00     0.059 C 
HETATM    3  N3  UNL     1       4.771 -11.330  25.577  1.00  0.00    -0.197 NA
ENDROOT
BRANCH   1   4
HETATM    4  C12 UNL     1       4.363 -12.920  28.580  1.00  0.00     0.024 C 
BRANCH   4   5
HETATM    5  C11 UNL     1       5.126 -13.909  29.435  1.00  0.00     0.032 C 
HETATM    6  C5  UNL     1       5.543 -15.021  28.562  1.00  0.00    -0.006 C 
HETATM    7  N2  UNL     1       6.732 -14.891  28.108  1.00  0.00    -0.332 N 
HETATM    8  C6  UNL     1       4.877 -16.259  28.106  1.00  0.00     0.053 C 
HETATM    9  C4  UNL     1       7.422 -15.769  27.264  1.00  0.00     0.252 C 
ATOM     10  H2  UNL     1       7.235 -14.050  28.393  1.00  0.00     0.168 HD
HETATM   11  O1  UNL     1       8.140 -16.654  27.841  1.00  0.00    -0.271 OA
HETATM   12  C7  UNL     1       4.247 -17.004  29.274  1.00  0.00     0.006 C 
HETATM   13  C8  UNL     1       5.169 -16.669  30.454  1.00  0.00     0.000 C 
HETATM   14  C9  UNL     1       4.515 -15.590  31.238  1.00  0.00     0.001 C 
HETATM   15  C10 UNL     1       4.211 -14.325  30.548  1.00  0.00     0.010 C 
BRANCH   9  16
HETATM   16  C2  UNL     1       7.386 -15.751  25.794  1.00  0.00     0.272 C 
HETATM   17  C3  UNL     1       6.924 -14.399  25.243  1.00  0.00     0.050 C 
BRANCH  16  18
HETATM   18  N1  UNL     1       8.698 -16.061  25.266  1.00  0.00    -0.067 N 
HETATM   19  C1  UNL     1       8.993 -15.250  24.092  1.00  0.00     0.267 C 
ATOM     20  H12 UNL     1       8.800 -17.057  25.070  1.00  0.00     0.277 HD
ATOM     21  H11 UNL     1       9.422 -15.970  25.978  1.00  0.00     0.277 HD
ENDBRANCH  16  18
ENDBRANCH   9  16
ENDBRANCH   4   5
ENDBRANCH   1   4
TORSDOF 4
ENDMDL
MODEL 4
REMARK VINA RESULT: -5.662854016      4.579      7.828
REMARK  4 active torsions:
REMARK  status: ('A' for Active; 'I' for Inactive)
REMARK    1  A    between atoms: N1_2  and  C2_5 
REMARK    2  A    between atoms: C2_5  and  C4_7 
REMARK       I    between atoms: C4_7  and  N2_9 
REMARK    3  A    between atoms: C11_17  and  C12_18 
REMARK    4  A    between atoms: C12_18  and  C13_19 
ROOT
HETATM    1  C13 UNL     1       3.990 -11.876  28.141  1.00  0.00     0.124 C 
HETATM    2  C14 UNL     1       3.474 -11.104  27.011  1.00  0.00     0.059 C 
HETATM    3  N3  UNL     1       3.081 -10.497  26.109  1.00  0.00    -0.197 NA
ENDROOT
BRANCH   1   4
HETATM    4  C12 UNL     1       5.288 -12.519  27.769  1.00  0.00     0.024 C 
BRANCH   4   5
HETATM    5  C11 UNL     1       5.810 -13.491  28.804  1.00  0.00     0.032 C 
HETATM    6  C5  UNL     1       6.159 -14.740  28.103  1.00  0.00    -0.006 C 
HETATM    7  N2  UNL     1       7.396 -14.815  27.786  1.00  0.00    -0.332 N 
HETATM    8  C6  UNL     1       5.379 -15.928  27.696  1.00  0.00     0.053 C 
HETATM    9  C4  UNL     1       8.043 -15.866  27.124  1.00  0.00     0.252 C 
ATOM     10  H2  UNL     1       7.978 -14.018  28.045  1.00  0.00     0.168 HD
HETATM   11  O1  UNL     1       8.564 -16.762  27.870  1.00  0.00    -0.271 OA
HETATM   12  C7  UNL     1       4.530 -16.447  28.847  1.00  0.00     0.006 C 
HETATM   13  C8  UNL     1       5.359 -16.099  30.091  1.00  0.00     0.000 C 
HETATM   14  C9  UNL     1       4.782 -14.862  30.679  1.00  0.00     0.001 C 
HETATM   15  C10 UNL     1       4.733 -13.657  29.834  1.00  0.00     0.010 C 
BRANCH   9  16
HETATM   16  C2  UNL     1       8.167 -16.013  25.666  1.00  0.00     0.272 C 
HETATM   17  C3  UNL     1       7.421 -14.911  24.908  1.00  0.00     0.050 C 
BRANCH  16  18
HETATM   18  N1  UNL     1       9.565 -15.993  25.287  1.00  0.00    -0.067 N 
HETATM   19  C1  UNL     1       9.761 -15.235  24.058  1.00  0.00     0.267 C 
ATOM     20  H12 UNL     1       9.948 -16.936  25.214  1.00  0.00     0.277 HD
ATOM     21  H11 UNL     1      10.155 -15.646  26.042  1.00  0.00     0.277 HD
ENDBRANCH  16  18
ENDBRANCH   9  16
ENDBRANCH   4   5
ENDBRANCH   1   4
TORSDOF 4
ENDMDL
MODEL 5
REMARK VINA RESULT: -5.655216741      4.268      8.932
REMARK  4 active torsions:
REMARK  status: ('A' for Active; 'I' for Inactive)
REMARK    1  A    between atoms: N1_2  and  C2_5 
REMARK    2  A    between atoms: C2_5  and  C4_7 
REMARK       I    between atoms: C4_7  and  N2_9 
REMARK    3  A    between atoms: C11_17  and  C12_18 
REMARK    4  A    between atoms: C12_18  and  C13_19 
ROOT
HETATM    1  C13 UNL     1       4.923 -17.929  27.230  1.00  0.00     0.124 C 
HETATM    2  C14 UNL     1       3.666 -17.695  26.520  1.00  0.00     0.059 C 
HETATM    3  N3  UNL     1       2.667 -17.498  25.972  1.00  0.00    -0.197 NA
ENDROOT
BRANCH   1   4
HETATM    4  C12 UNL     1       5.044 -16.982  28.380  1.00  0.00     0.024 C 
BRANCH   4   5
HETATM    5  C11 UNL     1       6.407 -16.335  28.502  1.00  0.00     0.032 C 
HETATM    6  C5  UNL     1       6.407 -15.135  27.647  1.00  0.00    -0.006 C 
HETATM    7  N2  UNL     1       6.128 -14.060  28.283  1.00  0.00    -0.332 N 
HETATM    8  C6  UNL     1       6.669 -14.911  26.210  1.00  0.00     0.053 C 
HETATM    9  C4  UNL     1       6.053 -12.761  27.767  1.00  0.00     0.252 C 
ATOM     10  H2  UNL     1       5.938 -14.162  29.280  1.00  0.00     0.168 HD
HETATM   11  O1  UNL     1       7.126 -12.072  27.823  1.00  0.00    -0.271 OA
HETATM   12  C7  UNL     1       7.954 -15.600  25.773  1.00  0.00     0.006 C 
HETATM   13  C8  UNL     1       8.832 -15.552  27.030  1.00  0.00     0.000 C 
HETATM   14  C9  UNL     1       8.748 -16.884  27.683  1.00  0.00     0.001 C 
HETATM   15  C10 UNL     1       7.420 -17.365  28.096  1.00  0.00     0.010 C 
BRANCH   9  16
HETATM   16  C2  UNL     1       4.856 -12.140  27.178  1.00  0.00     0.272 C 
HETATM   17  C3  UNL     1       3.854 -11.689  28.245  1.00  0.00     0.050 C 
BRANCH  16  18
HETATM   18  N1  UNL     1       5.240 -11.003  26.368  1.00  0.00    -0.067 N 
HETATM   19  C1  UNL     1       4.077 -10.199  26.015  1.00  0.00     0.267 C 
ATOM     20  H12 UNL     1       5.765 -11.289  25.542  1.00  0.00     0.277 HD
ATOM     21  H11 UNL     1       5.961 -10.443  26.823  1.00  0.00     0.277 HD
ENDBRANCH  16  18
ENDBRANCH   9  16
ENDBRANCH   4   5
ENDBRANCH   1   4
TORSDOF 4
ENDMDL
