MODEL 1
REMARK VINA RESULT: -8.256475436      0.000      0.000
REMARK  7 active torsions:
REMARK  status: ('A' for Active; 'I' for Inactive)
REMARK    1  A    between atoms: C2_2  and  O1_3 
REMARK    2  A    between atoms: C4_6  and  O2_7 
REMARK    3  A    between atoms: C5_9  and  N1_10 
REMARK    4  A    between atoms: N2_13  and  C8_14 
REMARK    5  A    between atoms: C11_17  and  C12_18 
REMARK    6  A    between atoms: C13_19  and  C14_20 
REMARK    7  A    between atoms: C24_31  and  O3_32 
ROOT
HETATM    1  N1  UNL     1      -7.452 -15.480  17.948  1.00  0.00     0.101 N 
HETATM    2  C6  UNL     1      -7.276 -14.383  18.871  1.00  0.00     0.293 C 
HETATM    3  C7  UNL     1      -7.708 -13.108  18.122  1.00  0.00     0.153 C 
HETATM    4  N2  UNL     1      -6.639 -12.851  17.196  1.00  0.00    -0.378 N 
HETATM    5  C22 UNL     1      -5.997 -13.994  16.604  1.00  0.00     0.153 C 
HETATM    6  C23 UNL     1      -6.876 -15.231  16.685  1.00  0.00     0.293 C 
ENDROOT
BRANCH   4   7
HETATM    7  C8  UNL     1      -6.221 -11.561  16.863  1.00  0.00     0.030 A 
HETATM    8  C9  UNL     1      -5.912 -10.643  17.839  1.00  0.00     0.030 A 
HETATM    9  C10 UNL     1      -5.493  -9.359  17.495  1.00  0.00     0.013 A 
HETATM   10  C11 UNL     1      -5.379  -8.978  16.186  1.00  0.00    -0.036 A 
HETATM   11  C20 UNL     1      -5.685  -9.887  15.210  1.00  0.00     0.013 A 
HETATM   12  C21 UNL     1      -6.108 -11.185  15.544  1.00  0.00     0.030 A 
BRANCH  10  13
HETATM   13  C12 UNL     1      -4.949  -7.647  15.831  1.00  0.00     0.012 C 
HETATM   14  C13 UNL     1      -3.879  -7.354  15.148  1.00  0.00     0.012 C 
BRANCH  14  15
HETATM   15  C14 UNL     1      -3.472  -5.998  14.806  1.00  0.00    -0.036 A 
HETATM   16  C15 UNL     1      -2.735  -5.228  15.702  1.00  0.00     0.014 A 
HETATM   17  C16 UNL     1      -2.317  -3.949  15.448  1.00  0.00     0.043 A 
HETATM   18  C17 UNL     1      -2.626  -3.357  14.247  1.00  0.00     0.116 A 
HETATM   19  F1  UNL     1      -2.216  -2.089  13.987  1.00  0.00    -0.206 F 
HETATM   20  C18 UNL     1      -3.355  -4.092  13.338  1.00  0.00     0.043 A 
HETATM   21  C19 UNL     1      -3.776  -5.394  13.606  1.00  0.00     0.014 A 
ENDBRANCH  14  15
ENDBRANCH  10  13
ENDBRANCH   4   7
BRANCH   1  22
HETATM   22  C5  UNL     1      -7.013 -16.677  18.610  1.00  0.00     0.283 C 
HETATM   23  C4  UNL     1      -6.994 -17.904  17.744  1.00  0.00     0.157 C 
HETATM   24  C3  UNL     1      -7.305 -19.067  18.691  1.00  0.00     0.074 C 
HETATM   25  C2  UNL     1      -7.721 -18.463  19.989  1.00  0.00     0.084 C 
HETATM   26  C1  UNL     1      -6.641 -18.417  21.031  1.00  0.00     0.049 C 
HETATM   27  C24 UNL     1      -8.074 -17.035  19.628  1.00  0.00     0.188 C 
BRANCH  23  28
HETATM   28  O2  UNL     1      -5.728 -18.184  17.211  1.00  0.00    -0.393 OA
ATOM     29  H2  UNL     1      -5.252 -18.624  17.906  1.00  0.00     0.210 HD
ENDBRANCH  23  28
BRANCH  25  30
HETATM   30  O1  UNL     1      -8.860 -19.052  20.529  1.00  0.00    -0.387 OA
ATOM     31  H1  UNL     1      -8.714 -19.984  20.635  1.00  0.00     0.210 HD
ENDBRANCH  25  30
BRANCH  27  32
HETATM   32  O3  UNL     1      -9.303 -17.048  18.950  1.00  0.00    -0.390 OA
ATOM     33  H3  UNL     1      -9.614 -16.153  18.886  1.00  0.00     0.210 HD
ENDBRANCH  27  32
ENDBRANCH   1  22
TORSDOF 7
ENDMDL
MODEL 2
REMARK VINA RESULT: -8.229844768      0.158      1.226
REMARK  7 active torsions:
REMARK  status: ('A' for Active; 'I' for Inactive)
REMARK    1  A    between atoms: C2_2  and  O1_3 
REMARK    2  A    between atoms: C4_6  and  O2_7 
REMARK    3  A    between atoms: C5_9  and  N1_10 
REMARK    4  A    between atoms: N2_13  and  C8_14 
REMARK    5  A    between atoms: C11_17  and  C12_18 
REMARK    6  A    between atoms: C13_19  and  C14_20 
REMARK    7  A    between atoms: C24_31  and  O3_32 
ROOT
HETATM    1  N1  UNL     1      -7.399 -15.369  17.948  1.00  0.00     0.101 N 
HETATM    2  C6  UNL     1      -7.223 -14.274  18.871  1.00  0.00     0.293 C 
HETATM    3  C7  UNL     1      -7.655 -12.998  18.123  1.00  0.00     0.153 C 
HETATM    4  N2  UNL     1      -6.586 -12.740  17.198  1.00  0.00    -0.378 N 
HETATM    5  C22 UNL     1      -5.943 -13.883  16.606  1.00  0.00     0.153 C 
HETATM    6  C23 UNL     1      -6.822 -15.120  16.685  1.00  0.00     0.293 C 
ENDROOT
BRANCH   4   7
HETATM    7  C8  UNL     1      -6.168 -11.450  16.865  1.00  0.00     0.030 A 
HETATM    8  C9  UNL     1      -6.027 -11.068  15.551  1.00  0.00     0.030 A 
HETATM    9  C10 UNL     1      -5.612  -9.777  15.231  1.00  0.00     0.013 A 
HETATM   10  C11 UNL     1      -5.335  -8.859  16.207  1.00  0.00    -0.036 A 
HETATM   11  C20 UNL     1      -5.474  -9.232  17.516  1.00  0.00     0.013 A 
HETATM   12  C21 UNL     1      -5.892 -10.532  17.852  1.00  0.00     0.030 A 
BRANCH  10  13
HETATM   13  C12 UNL     1      -4.902  -7.523  15.873  1.00  0.00     0.012 C 
HETATM   14  C13 UNL     1      -3.846  -7.223  15.171  1.00  0.00     0.012 C 
BRANCH  14  15
HETATM   15  C14 UNL     1      -3.436  -5.862  14.851  1.00  0.00    -0.036 A 
HETATM   16  C15 UNL     1      -3.733  -5.303  13.611  1.00  0.00     0.014 A 
HETATM   17  C16 UNL     1      -3.381  -4.031  13.242  1.00  0.00     0.043 A 
HETATM   18  C17 UNL     1      -2.693  -3.232  14.123  1.00  0.00     0.116 A 
HETATM   19  F1  UNL     1      -2.341  -1.971  13.766  1.00  0.00    -0.206 F 
HETATM   20  C18 UNL     1      -2.384  -3.757  15.359  1.00  0.00     0.043 A 
HETATM   21  C19 UNL     1      -2.746  -5.053  15.726  1.00  0.00     0.014 A 
ENDBRANCH  14  15
ENDBRANCH  10  13
ENDBRANCH   4   7
BRANCH   1  22
HETATM   22  C5  UNL     1      -6.960 -16.567  18.609  1.00  0.00     0.283 C 
HETATM   23  C4  UNL     1      -7.020 -17.809  17.767  1.00  0.00     0.157 C 
HETATM   24  C3  UNL     1      -7.314 -18.945  18.751  1.00  0.00     0.074 C 
HETATM   25  C2  UNL     1      -7.646 -18.307  20.057  1.00  0.00     0.084 C 
HETATM   26  C1  UNL     1      -6.512 -18.274  21.041  1.00  0.00     0.049 C 
HETATM   27  C24 UNL     1      -7.976 -16.876  19.687  1.00  0.00     0.188 C 
BRANCH  23  28
HETATM   28  O2  UNL     1      -5.793 -18.136  17.175  1.00  0.00    -0.393 OA
ATOM     29  H2  UNL     1      -5.131 -17.724  17.718  1.00  0.00     0.210 HD
ENDBRANCH  23  28
BRANCH  25  30
HETATM   30  O1  UNL     1      -8.771 -18.852  20.666  1.00  0.00    -0.387 OA
ATOM     31  H1  UNL     1      -9.091 -18.256  21.332  1.00  0.00     0.210 HD
ENDBRANCH  25  30
BRANCH  27  32
HETATM   32  O3  UNL     1      -9.238 -16.865  19.074  1.00  0.00    -0.390 OA
ATOM     33  H3  UNL     1      -9.285 -17.608  18.482  1.00  0.00     0.210 HD
ENDBRANCH  27  32
ENDBRANCH   1  22
TORSDOF 7
ENDMDL
MODEL 3
REMARK VINA RESULT: -7.632668662      1.084      2.254
REMARK  7 active torsions:
REMARK  status: ('A' for Active; 'I' for Inactive)
REMARK    1  A    between atoms: C2_2  and  O1_3 
REMARK    2  A    between atoms: C4_6  and  O2_7 
REMARK    3  A    between atoms: C5_9  and  N1_10 
REMARK    4  A    between atoms: N2_13  and  C8_14 
REMARK    5  A    between atoms: C11_17  and  C12_18 
REMARK    6  A    between atoms: C13_19  and  C14_20 
REMARK    7  A    between atoms: C24_31  and  O3_32 
ROOT
HETATM    1  N1  UNL     1      -6.592 -15.340  17.679  1.00  0.00     0.101 N 
HETATM    2  C6  UNL     1      -6.446 -14.846  16.330  1.00  0.00     0.293 C 
HETATM    3  C7  UNL     1      -5.322 -13.793  16.370  1.00  0.00     0.153 C 
HETATM    4  N2  UNL     1      -5.918 -12.651  17.008  1.00  0.00    -0.378 N 
HETATM    5  C22 UNL     1      -6.864 -12.909  18.061  1.00  0.00     0.153 C 
HETATM    6  C23 UNL     1      -6.693 -14.307  18.633  1.00  0.00     0.293 C 
ENDROOT
BRANCH   4   7
HETATM    7  C8  UNL     1      -5.611 -11.337  16.648  1.00  0.00     0.030 A 
HETATM    8  C9  UNL     1      -5.165 -11.037  15.381  1.00  0.00     0.030 A 
HETATM    9  C10 UNL     1      -4.865  -9.722  15.031  1.00  0.00     0.013 A 
HETATM   10  C11 UNL     1      -5.003  -8.700  15.930  1.00  0.00    -0.036 A 
HETATM   11  C20 UNL     1      -5.446  -8.992  17.192  1.00  0.00     0.013 A 
HETATM   12  C21 UNL     1      -5.753 -10.314  17.557  1.00  0.00     0.030 A 
BRANCH  10  13
HETATM   13  C12 UNL     1      -4.688  -7.339  15.567  1.00  0.00     0.012 C 
HETATM   14  C13 UNL     1      -3.594  -6.947  14.979  1.00  0.00     0.012 C 
BRANCH  14  15
HETATM   15  C14 UNL     1      -3.305  -5.563  14.626  1.00  0.00    -0.036 A 
HETATM   16  C15 UNL     1      -2.640  -4.725  15.516  1.00  0.00     0.014 A 
HETATM   17  C16 UNL     1      -2.334  -3.416  15.252  1.00  0.00     0.043 A 
HETATM   18  C17 UNL     1      -2.690  -2.864  14.046  1.00  0.00     0.116 A 
HETATM   19  F1  UNL     1      -2.392  -1.568  13.774  1.00  0.00    -0.206 F 
HETATM   20  C18 UNL     1      -3.351  -3.667  13.142  1.00  0.00     0.043 A 
HETATM   21  C19 UNL     1      -3.658  -4.999  13.420  1.00  0.00     0.014 A 
ENDBRANCH  14  15
ENDBRANCH  10  13
ENDBRANCH   4   7
BRANCH   1  22
HETATM   22  C5  UNL     1      -7.667 -16.294  17.676  1.00  0.00     0.283 C 
HETATM   23  C4  UNL     1      -8.055 -16.808  19.032  1.00  0.00     0.157 C 
HETATM   24  C3  UNL     1      -8.532 -18.244  18.794  1.00  0.00     0.074 C 
HETATM   25  C2  UNL     1      -8.184 -18.584  17.384  1.00  0.00     0.084 C 
HETATM   26  C1  UNL     1      -9.323 -18.460  16.413  1.00  0.00     0.049 C 
HETATM   27  C24 UNL     1      -7.145 -17.548  17.008  1.00  0.00     0.188 C 
BRANCH  23  28
HETATM   28  O2  UNL     1      -9.154 -16.137  19.585  1.00  0.00    -0.393 OA
ATOM     29  H2  UNL     1      -8.879 -15.874  20.456  1.00  0.00     0.210 HD
ENDBRANCH  23  28
BRANCH  25  30
HETATM   30  O1  UNL     1      -7.595 -19.836  17.249  1.00  0.00    -0.387 OA
ATOM     31  H1  UNL     1      -6.995 -19.983  17.971  1.00  0.00     0.210 HD
ENDBRANCH  25  30
BRANCH  27  32
HETATM   32  O3  UNL     1      -5.943 -17.883  17.653  1.00  0.00    -0.390 OA
ATOM     33  H3  UNL     1      -5.224 -17.585  17.108  1.00  0.00     0.210 HD
ENDBRANCH  27  32
ENDBRANCH   1  22
TORSDOF 7
ENDMDL
MODEL 4
REMARK VINA RESULT: -7.506612960      1.937      2.406
REMARK  7 active torsions:
REMARK  status: ('A' for Active; 'I' for Inactive)
REMARK    1  A    between atoms: C2_2  and  O1_3 
REMARK    2  A    between atoms: C4_6  and  O2_7 
REMARK    3  A    between atoms: C5_9  and  N1_10 
REMARK    4  A    between atoms: N2_13  and  C8_14 
REMARK    5  A    between atoms: C11_17  and  C12_18 
REMARK    6  A    between atoms: C13_19  and  C14_20 
REMARK    7  A    between atoms: C24_31  and  O3_32 
ROOT
HETATM    1  N1  UNL     1      -6.253 -15.490  15.997  1.00  0.00     0.101 N 
HETATM    2  C6  UNL     1      -7.214 -14.431  15.801  1.00  0.00     0.293 C 
HETATM    3  C7  UNL     1      -6.534 -13.385  14.896  1.00  0.00     0.153 C 
HETATM    4  N2  UNL     1      -5.584 -12.728  15.752  1.00  0.00    -0.378 N 
HETATM    5  C22 UNL     1      -4.924 -13.538  16.741  1.00  0.00     0.153 C 
HETATM    6  C23 UNL     1      -4.982 -15.013  16.382  1.00  0.00     0.293 C 
ENDROOT
BRANCH   4   7
HETATM    7  C8  UNL     1      -5.290 -11.367  15.650  1.00  0.00     0.030 A 
HETATM    8  C9  UNL     1      -3.989 -10.927  15.572  1.00  0.00     0.030 A 
HETATM    9  C10 UNL     1      -3.708  -9.566  15.468  1.00  0.00     0.013 A 
HETATM   10  C11 UNL     1      -4.710  -8.635  15.442  1.00  0.00    -0.036 A 
HETATM   11  C20 UNL     1      -6.007  -9.066  15.520  1.00  0.00     0.013 A 
HETATM   12  C21 UNL     1      -6.303 -10.436  15.624  1.00  0.00     0.030 A 
BRANCH  10  13
HETATM   13  C12 UNL     1      -4.417  -7.226  15.338  1.00  0.00     0.012 C 
HETATM   14  C13 UNL     1      -3.552  -6.690  14.525  1.00  0.00     0.012 C 
BRANCH  14  15
HETATM   15  C14 UNL     1      -3.280  -5.261  14.444  1.00  0.00    -0.036 A 
HETATM   16  C15 UNL     1      -3.606  -4.539  13.300  1.00  0.00     0.014 A 
HETATM   17  C16 UNL     1      -3.382  -3.195  13.154  1.00  0.00     0.043 A 
HETATM   18  C17 UNL     1      -2.802  -2.486  14.178  1.00  0.00     0.116 A 
HETATM   19  F1  UNL     1      -2.575  -1.155  14.042  1.00  0.00    -0.206 F 
HETATM   20  C18 UNL     1      -2.466  -3.173  15.324  1.00  0.00     0.043 A 
HETATM   21  C19 UNL     1      -2.698  -4.541  15.464  1.00  0.00     0.014 A 
ENDBRANCH  14  15
ENDBRANCH  10  13
ENDBRANCH   4   7
BRANCH   1  22
HETATM   22  C5  UNL     1      -6.849 -16.458  16.876  1.00  0.00     0.283 C 
HETATM   23  C4  UNL     1      -5.919 -17.539  17.345  1.00  0.00     0.157 C 
HETATM   24  C3  UNL     1      -6.803 -18.777  17.524  1.00  0.00     0.074 C 
HETATM   25  C2  UNL     1      -8.133 -18.444  16.936  1.00  0.00     0.084 C 
HETATM   26  C1  UNL     1      -9.174 -18.037  17.939  1.00  0.00     0.049 C 
HETATM   27  C24 UNL     1      -7.848 -17.244  16.056  1.00  0.00     0.188 C 
BRANCH  23  28
HETATM   28  O2  UNL     1      -5.369 -17.287  18.609  1.00  0.00    -0.393 OA
ATOM     29  H2  UNL     1      -4.428 -17.264  18.476  1.00  0.00     0.210 HD
ENDBRANCH  23  28
BRANCH  25  30
HETATM   30  O1  UNL     1      -8.642 -19.450  16.122  1.00  0.00    -0.387 OA
ATOM     31  H1  UNL     1      -8.735 -20.248  16.627  1.00  0.00     0.210 HD
ENDBRANCH  25  30
BRANCH  27  32
HETATM   32  O3  UNL     1      -7.172 -17.695  14.911  1.00  0.00    -0.390 OA
ATOM     33  H3  UNL     1      -6.465 -18.264  15.191  1.00  0.00     0.210 HD
ENDBRANCH  27  32
ENDBRANCH   1  22
TORSDOF 7
ENDMDL
MODEL 5
REMARK VINA RESULT: -7.425649304      0.968      1.362
REMARK  7 active torsions:
REMARK  status: ('A' for Active; 'I' for Inactive)
REMARK    1  A    between atoms: C2_2  and  O1_3 
REMARK    2  A    between atoms: C4_6  and  O2_7 
REMARK    3  A    between atoms: C5_9  and  N1_10 
REMARK    4  A    between atoms: N2_13  and  C8_14 
REMARK    5  A    between atoms: C11_17  and  C12_18 
REMARK    6  A    between atoms: C13_19  and  C14_20 
REMARK    7  A    between atoms: C24_31  and  O3_32 
ROOT
HETATM    1  N1  UNL     1      -7.301 -15.375  17.006  1.00  0.00     0.101 N 
HETATM    2  C6  UNL     1      -6.672 -14.506  17.973  1.00  0.00     0.293 C 
HETATM    3  C7  UNL     1      -7.193 -13.085  17.687  1.00  0.00     0.153 C 
HETATM    4  N2  UNL     1      -6.513 -12.684  16.486  1.00  0.00    -0.378 N 
HETATM    5  C22 UNL     1      -6.270 -13.702  15.499  1.00  0.00     0.153 C 
HETATM    6  C23 UNL     1      -7.200 -14.891  15.685  1.00  0.00     0.293 C 
ENDROOT
BRANCH   4   7
HETATM    7  C8  UNL     1      -6.096 -11.371  16.255  1.00  0.00     0.030 A 
HETATM    8  C9  UNL     1      -5.935 -10.487  17.297  1.00  0.00     0.030 A 
HETATM    9  C10 UNL     1      -5.515  -9.180  17.056  1.00  0.00     0.013 A 
HETATM   10  C11 UNL     1      -5.254  -8.742  15.786  1.00  0.00    -0.036 A 
HETATM   11  C20 UNL     1      -5.412  -9.617  14.746  1.00  0.00     0.013 A 
HETATM   12  C21 UNL     1      -5.834 -10.938  14.977  1.00  0.00     0.030 A 
BRANCH  10  13
HETATM   13  C12 UNL     1      -4.823  -7.387  15.538  1.00  0.00     0.012 C 
HETATM   14  C13 UNL     1      -3.662  -7.038  15.062  1.00  0.00     0.012 C 
BRANCH  14  15
HETATM   15  C14 UNL     1      -3.258  -5.659  14.822  1.00  0.00    -0.036 A 
HETATM   16  C15 UNL     1      -3.566  -5.026  13.620  1.00  0.00     0.014 A 
HETATM   17  C16 UNL     1      -3.220  -3.733  13.326  1.00  0.00     0.043 A 
HETATM   18  C17 UNL     1      -2.528  -2.987  14.248  1.00  0.00     0.116 A 
HETATM   19  F1  UNL     1      -2.181  -1.705  13.965  1.00  0.00    -0.206 F 
HETATM   20  C18 UNL     1      -2.207  -3.584  15.447  1.00  0.00     0.043 A 
HETATM   21  C19 UNL     1      -2.563  -4.901  15.738  1.00  0.00     0.014 A 
ENDBRANCH  14  15
ENDBRANCH  10  13
ENDBRANCH   4   7
BRANCH   1  22
HETATM   22  C5  UNL     1      -6.795 -16.703  17.224  1.00  0.00     0.283 C 
HETATM   23  C4  UNL     1      -7.250 -17.722  16.221  1.00  0.00     0.157 C 
HETATM   24  C3  UNL     1      -7.324 -19.041  16.995  1.00  0.00     0.074 C 
HETATM   25  C2  UNL     1      -7.149 -18.703  18.437  1.00  0.00     0.084 C 
HETATM   26  C1  UNL     1      -5.761 -18.923  18.965  1.00  0.00     0.049 C 
HETATM   27  C24 UNL     1      -7.434 -17.216  18.497  1.00  0.00     0.188 C 
BRANCH  23  28
HETATM   28  O2  UNL     1      -6.321 -17.943  15.195  1.00  0.00    -0.393 OA
ATOM     29  H2  UNL     1      -6.057 -18.852  15.284  1.00  0.00     0.210 HD
ENDBRANCH  23  28
BRANCH  25  30
HETATM   30  O1  UNL     1      -8.066 -19.338  19.267  1.00  0.00    -0.387 OA
ATOM     31  H1  UNL     1      -8.862 -18.822  19.313  1.00  0.00     0.210 HD
ENDBRANCH  25  30
BRANCH  27  32
HETATM   32  O3  UNL     1      -8.819 -17.033  18.361  1.00  0.00    -0.390 OA
ATOM     33  H3  UNL     1      -9.247 -17.858  18.559  1.00  0.00     0.210 HD
ENDBRANCH  27  32
ENDBRANCH   1  22
TORSDOF 7
ENDMDL
