MODEL 1
REMARK VINA RESULT: -6.114014011      0.000      0.000
REMARK  3 active torsions:
REMARK  status: ('A' for Active; 'I' for Inactive)
REMARK    1  A    between atoms: C9_11  and  N2_12 
REMARK    2  A    between atoms: C14_23  and  O2_24 
REMARK    3  A    between atoms: O2_24  and  C15_25 
ROOT
HETATM    1  C1  UNL     1       3.306   5.923  23.093  1.00  0.00     0.048 C 
HETATM    2  C2  UNL     1       1.803   5.867  22.945  1.00  0.00    -0.027 C 
HETATM    3  C3  UNL     1       1.256   5.650  21.772  1.00  0.00     0.061 C 
HETATM    4  C4  UNL     1       2.156   5.469  20.642  1.00  0.00     0.098 C 
HETATM    5  N1  UNL     1       2.861   5.310  19.738  1.00  0.00    -0.192 NA
HETATM    6  C5  UNL     1      -0.212   5.566  21.491  1.00  0.00     0.119 C 
HETATM    7  C6  UNL     1      -0.764   6.911  21.228  1.00  0.00     0.059 C 
HETATM    8  C7  UNL     1      -2.062   6.966  20.493  1.00  0.00     0.054 C 
HETATM    9  C8  UNL     1      -2.424   8.407  20.228  1.00  0.00     0.022 C 
HETATM   10  S1  UNL     1      -1.806   6.073  18.924  1.00  0.00    -0.090 SA
HETATM   11  C9  UNL     1      -0.983   4.566  19.397  1.00  0.00     0.139 C 
HETATM   12  N3  UNL     1      -0.376   4.565  20.507  1.00  0.00    -0.351 N 
ATOM     13  H3  UNL     1       0.078   3.680  20.733  1.00  0.00     0.163 HD
HETATM   14  C12 UNL     1      -0.876   5.050  22.739  1.00  0.00     0.119 C 
HETATM   15  N4  UNL     1      -2.055   4.562  22.660  1.00  0.00    -0.222 N 
ATOM     16  H4  UNL     1      -2.541   4.521  21.765  1.00  0.00     0.199 HD
HETATM   17  F1  UNL     1      -2.643   4.102  23.780  1.00  0.00    -0.101 F 
HETATM   18  C13 UNL     1      -0.188   5.105  24.018  1.00  0.00     0.210 C 
HETATM   19  O1  UNL     1      -0.528   4.376  24.972  1.00  0.00    -0.288 OA
HETATM   20  C14 UNL     1       0.931   6.064  24.131  1.00  0.00     0.239 C 
ENDROOT
BRANCH  20  21
HETATM   21  O2  UNL     1       1.643   5.920  25.338  1.00  0.00    -0.288 OA
BRANCH  21  22
HETATM   22  C15 UNL     1       1.572   6.896  26.319  1.00  0.00     0.373 C 
HETATM   23  N5  UNL     1       2.529   7.002  27.355  1.00  0.00    -0.032 NA
HETATM   24  O3  UNL     1       0.633   7.734  26.311  1.00  0.00    -0.242 OA
ENDBRANCH  21  22
ENDBRANCH  20  21
BRANCH  11  25
HETATM   25  N2  UNL     1      -1.033   3.435  18.530  1.00  0.00    -0.371 N 
HETATM   26  C10 UNL     1      -1.841   2.305  18.900  1.00  0.00     0.151 C 
HETATM   27  C11 UNL     1      -0.281   3.443  17.310  1.00  0.00     0.151 C 
ENDBRANCH  11  25
TORSDOF 3
ENDMDL
MODEL 2
REMARK VINA RESULT: -5.590423426      6.580      9.026
REMARK  3 active torsions:
REMARK  status: ('A' for Active; 'I' for Inactive)
REMARK    1  A    between atoms: C9_11  and  N2_12 
REMARK    2  A    between atoms: C14_23  and  O2_24 
REMARK    3  A    between atoms: O2_24  and  C15_25 
ROOT
HETATM    1  C1  UNL     1       7.907   3.310  20.950  1.00  0.00     0.048 C 
HETATM    2  C2  UNL     1       7.187   4.531  21.474  1.00  0.00    -0.027 C 
HETATM    3  C3  UNL     1       7.863   5.569  21.908  1.00  0.00     0.061 C 
HETATM    4  C4  UNL     1       9.315   5.482  21.861  1.00  0.00     0.098 C 
HETATM    5  N1  UNL     1      10.470   5.432  21.817  1.00  0.00    -0.192 NA
HETATM    6  C5  UNL     1       7.275   6.836  22.444  1.00  0.00     0.119 C 
HETATM    7  C6  UNL     1       7.008   6.709  23.892  1.00  0.00     0.059 C 
HETATM    8  C7  UNL     1       6.870   7.982  24.659  1.00  0.00     0.054 C 
HETATM    9  C8  UNL     1       6.701   7.666  26.124  1.00  0.00     0.022 C 
HETATM   10  S1  UNL     1       8.407   8.923  24.381  1.00  0.00    -0.090 SA
HETATM   11  C9  UNL     1       8.674   8.833  22.622  1.00  0.00     0.139 C 
HETATM   12  N3  UNL     1       8.111   7.886  22.002  1.00  0.00    -0.351 N 
ATOM     13  H3  UNL     1       8.293   7.878  20.998  1.00  0.00     0.163 HD
HETATM   14  C12 UNL     1       5.946   7.034  21.766  1.00  0.00     0.119 C 
HETATM   15  N4  UNL     1       5.407   8.193  21.779  1.00  0.00    -0.222 N 
ATOM     16  H4  UNL     1       5.869   8.975  22.242  1.00  0.00     0.199 HD
HETATM   17  F1  UNL     1       4.219   8.362  21.170  1.00  0.00    -0.101 F 
HETATM   18  C13 UNL     1       5.283   5.923  21.102  1.00  0.00     0.210 C 
HETATM   19  O1  UNL     1       4.405   6.112  20.237  1.00  0.00    -0.288 OA
HETATM   20  C14 UNL     1       5.702   4.564  21.504  1.00  0.00     0.239 C 
ENDROOT
BRANCH  20  21
HETATM   21  O2  UNL     1       5.137   3.564  20.688  1.00  0.00    -0.288 OA
BRANCH  21  22
HETATM   22  C15 UNL     1       5.122   2.241  21.100  1.00  0.00     0.373 C 
HETATM   23  N5  UNL     1       5.203   1.161  20.191  1.00  0.00    -0.032 NA
HETATM   24  O3  UNL     1       5.037   1.962  22.324  1.00  0.00    -0.242 OA
ENDBRANCH  21  22
ENDBRANCH  20  21
BRANCH  11  25
HETATM   25  N2  UNL     1       9.495   9.809  21.984  1.00  0.00    -0.371 N 
HETATM   26  C10 UNL     1      10.399  10.593  22.782  1.00  0.00     0.151 C 
HETATM   27  C11 UNL     1       9.408   9.991  20.565  1.00  0.00     0.151 C 
ENDBRANCH  11  25
TORSDOF 3
ENDMDL
MODEL 3
REMARK VINA RESULT: -5.266852953      5.397      7.471
REMARK  3 active torsions:
REMARK  status: ('A' for Active; 'I' for Inactive)
REMARK    1  A    between atoms: C9_11  and  N2_12 
REMARK    2  A    between atoms: C14_23  and  O2_24 
REMARK    3  A    between atoms: O2_24  and  C15_25 
ROOT
HETATM    1  C1  UNL     1       3.551   6.224  24.084  1.00  0.00     0.048 C 
HETATM    2  C2  UNL     1       3.357   6.592  25.537  1.00  0.00    -0.027 C 
HETATM    3  C3  UNL     1       2.181   6.467  26.106  1.00  0.00     0.061 C 
HETATM    4  C4  UNL     1       1.094   5.965  25.280  1.00  0.00     0.098 C 
HETATM    5  N1  UNL     1       0.223   5.555  24.637  1.00  0.00    -0.192 NA
HETATM    6  C5  UNL     1       1.859   6.790  27.531  1.00  0.00     0.119 C 
HETATM    7  C6  UNL     1       1.504   8.217  27.669  1.00  0.00     0.059 C 
HETATM    8  C7  UNL     1       0.724   8.596  28.885  1.00  0.00     0.054 C 
HETATM    9  C8  UNL     1       0.368  10.060  28.812  1.00  0.00     0.022 C 
HETATM   10  S1  UNL     1      -0.783   7.570  28.874  1.00  0.00    -0.090 SA
HETATM   11  C9  UNL     1      -0.199   5.923  28.527  1.00  0.00     0.139 C 
HETATM   12  N3  UNL     1       0.927   5.818  27.962  1.00  0.00    -0.351 N 
ATOM     13  H3  UNL     1       1.218   4.856  27.786  1.00  0.00     0.163 HD
HETATM   14  C12 UNL     1       3.111   6.566  28.334  1.00  0.00     0.119 C 
HETATM   15  N4  UNL     1       3.022   6.431  29.603  1.00  0.00    -0.222 N 
ATOM     16  H4  UNL     1       2.115   6.475  30.067  1.00  0.00     0.199 HD
HETATM   17  F1  UNL     1       4.146   6.231  30.315  1.00  0.00    -0.101 F 
HETATM   18  C13 UNL     1       4.408   6.501  27.679  1.00  0.00     0.210 C 
HETATM   19  O1  UNL     1       5.389   5.962  28.229  1.00  0.00    -0.288 OA
HETATM   20  C14 UNL     1       4.502   7.105  26.333  1.00  0.00     0.239 C 
ENDROOT
BRANCH  20  21
HETATM   21  O2  UNL     1       5.738   6.839  25.710  1.00  0.00    -0.288 OA
BRANCH  21  22
HETATM   22  C15 UNL     1       6.754   7.780  25.730  1.00  0.00     0.373 C 
HETATM   23  N5  UNL     1       7.461   8.160  24.565  1.00  0.00    -0.032 NA
HETATM   24  O3  UNL     1       7.081   8.336  26.811  1.00  0.00    -0.242 OA
ENDBRANCH  21  22
ENDBRANCH  20  21
BRANCH  11  25
HETATM   25  N2  UNL     1      -1.003   4.801  28.888  1.00  0.00    -0.371 N 
HETATM   26  C10 UNL     1      -1.019   3.647  28.031  1.00  0.00     0.151 C 
HETATM   27  C11 UNL     1      -1.778   4.842  30.093  1.00  0.00     0.151 C 
ENDBRANCH  11  25
TORSDOF 3
ENDMDL
MODEL 4
REMARK VINA RESULT: -5.003123910      4.826      7.043
REMARK  3 active torsions:
REMARK  status: ('A' for Active; 'I' for Inactive)
REMARK    1  A    between atoms: C9_11  and  N2_12 
REMARK    2  A    between atoms: C14_23  and  O2_24 
REMARK    3  A    between atoms: O2_24  and  C15_25 
ROOT
HETATM    1  C1  UNL     1       2.555   5.791  23.399  1.00  0.00     0.048 C 
HETATM    2  C2  UNL     1       2.561   6.247  24.841  1.00  0.00    -0.027 C 
HETATM    3  C3  UNL     1       1.463   6.205  25.558  1.00  0.00     0.061 C 
HETATM    4  C4  UNL     1       0.262   5.707  24.905  1.00  0.00     0.098 C 
HETATM    5  N1  UNL     1      -0.698   5.301  24.402  1.00  0.00    -0.192 NA
HETATM    6  C5  UNL     1       1.336   6.620  26.990  1.00  0.00     0.119 C 
HETATM    7  C6  UNL     1       1.054   8.067  27.086  1.00  0.00     0.059 C 
HETATM    8  C7  UNL     1       0.450   8.547  28.364  1.00  0.00     0.054 C 
HETATM    9  C8  UNL     1       0.142  10.019  28.248  1.00  0.00     0.022 C 
HETATM   10  S1  UNL     1      -1.083   7.589  28.602  1.00  0.00    -0.090 SA
HETATM   11  C9  UNL     1      -0.610   5.901  28.285  1.00  0.00     0.139 C 
HETATM   12  N3  UNL     1       0.432   5.716  27.592  1.00  0.00    -0.351 N 
ATOM     13  H3  UNL     1       0.661   4.734  27.439  1.00  0.00     0.163 HD
HETATM   14  C12 UNL     1       2.671   6.386  27.643  1.00  0.00     0.119 C 
HETATM   15  N4  UNL     1       2.739   6.325  28.918  1.00  0.00    -0.222 N 
ATOM     16  H4  UNL     1       1.901   6.435  29.489  1.00  0.00     0.199 HD
HETATM   17  F1  UNL     1       3.936   6.115  29.496  1.00  0.00    -0.101 F 
HETATM   18  C13 UNL     1       3.871   6.228  26.837  1.00  0.00     0.210 C 
HETATM   19  O1  UNL     1       4.893   5.677  27.291  1.00  0.00    -0.288 OA
HETATM   20  C14 UNL     1       3.816   6.752  25.456  1.00  0.00     0.239 C 
ENDROOT
BRANCH  20  21
HETATM   21  O2  UNL     1       4.952   6.398  24.701  1.00  0.00    -0.288 OA
BRANCH  21  22
HETATM   22  C15 UNL     1       5.939   7.332  24.433  1.00  0.00     0.373 C 
HETATM   23  N5  UNL     1       6.186   7.825  23.131  1.00  0.00    -0.032 NA
HETATM   24  O3  UNL     1       6.659   7.776  25.365  1.00  0.00    -0.242 OA
ENDBRANCH  21  22
ENDBRANCH  20  21
BRANCH  11  25
HETATM   25  N2  UNL     1      -1.402   4.838  28.810  1.00  0.00    -0.371 N 
HETATM   26  C10 UNL     1      -1.775   4.863  30.198  1.00  0.00     0.151 C 
HETATM   27  C11 UNL     1      -1.812   3.767  27.949  1.00  0.00     0.151 C 
ENDBRANCH  11  25
TORSDOF 3
ENDMDL
MODEL 5
REMARK VINA RESULT: -4.803090606      4.513      8.145
REMARK  3 active torsions:
REMARK  status: ('A' for Active; 'I' for Inactive)
REMARK    1  A    between atoms: C9_11  and  N2_12 
REMARK    2  A    between atoms: C14_23  and  O2_24 
REMARK    3  A    between atoms: O2_24  and  C15_25 
ROOT
HETATM    1  C1  UNL     1      -0.743   4.698  24.930  1.00  0.00     0.048 C 
HETATM    2  C2  UNL     1       0.061   5.685  25.745  1.00  0.00    -0.027 C 
HETATM    3  C3  UNL     1      -0.301   5.991  26.969  1.00  0.00     0.061 C 
HETATM    4  C4  UNL     1      -1.495   5.342  27.490  1.00  0.00     0.098 C 
HETATM    5  N1  UNL     1      -2.435   4.823  27.922  1.00  0.00    -0.192 NA
HETATM    6  C5  UNL     1       0.407   6.944  27.880  1.00  0.00     0.119 C 
HETATM    7  C6  UNL     1      -0.069   8.324  27.654  1.00  0.00     0.059 C 
HETATM    8  C7  UNL     1       0.171   9.302  28.756  1.00  0.00     0.054 C 
HETATM    9  C8  UNL     1      -0.463  10.623  28.398  1.00  0.00     0.022 C 
HETATM   10  S1  UNL     1      -0.609   8.601  30.248  1.00  0.00    -0.090 SA
HETATM   11  C9  UNL     1      -0.074   6.903  30.277  1.00  0.00     0.139 C 
HETATM   12  N3  UNL     1       0.312   6.402  29.181  1.00  0.00    -0.351 N 
ATOM     13  H3  UNL     1       0.609   5.428  29.250  1.00  0.00     0.163 HD
HETATM   14  C12 UNL     1       1.866   6.914  27.511  1.00  0.00     0.119 C 
HETATM   15  N4  UNL     1       2.728   7.359  28.344  1.00  0.00    -0.222 N 
ATOM     16  H4  UNL     1       2.434   7.730  29.247  1.00  0.00     0.199 HD
HETATM   17  F1  UNL     1       4.031   7.328  28.008  1.00  0.00    -0.101 F 
HETATM   18  C13 UNL     1       2.292   6.385  26.226  1.00  0.00     0.210 C 
HETATM   19  O1  UNL     1       3.464   6.003  26.035  1.00  0.00    -0.288 OA
HETATM   20  C14 UNL     1       1.269   6.322  25.161  1.00  0.00     0.239 C 
ENDROOT
BRANCH  20  21
HETATM   21  O2  UNL     1       1.725   5.638  24.017  1.00  0.00    -0.288 OA
BRANCH  21  22
HETATM   22  C15 UNL     1       1.800   6.281  22.793  1.00  0.00     0.373 C 
HETATM   23  N5  UNL     1       2.987   6.318  22.025  1.00  0.00    -0.032 NA
HETATM   24  O3  UNL     1       0.788   6.863  22.321  1.00  0.00    -0.242 OA
ENDBRANCH  21  22
ENDBRANCH  20  21
BRANCH  11  25
HETATM   25  N2  UNL     1      -0.098   6.178  31.505  1.00  0.00    -0.371 N 
HETATM   26  C10 UNL     1       0.679   4.975  31.623  1.00  0.00     0.151 C 
HETATM   27  C11 UNL     1      -0.891   6.660  32.597  1.00  0.00     0.151 C 
ENDBRANCH  11  25
TORSDOF 3
ENDMDL
