MODEL 1
REMARK VINA RESULT: -7.468901071      0.000      0.000
REMARK  9 active torsions:
REMARK  status: ('A' for Active; 'I' for Inactive)
REMARK    1  A    between atoms: N1_1  and  C1_4 
REMARK    2  A    between atoms: C2_7  and  N3_8 
REMARK       I    between atoms: N3_8  and  C3_10 
REMARK       I    between atoms: C3_10  and  N4_11 
REMARK       I    between atoms: C3_10  and  N5_15 
REMARK    3  A    between atoms: C4_24  and  C5_25 
REMARK    4  A    between atoms: C5_25  and  N9_26 
REMARK    5  A    between atoms: C5_25  and  N10_30 
REMARK    6  A    between atoms: N10_30  and  N11_32 
REMARK    7  A    between atoms: C6_34  and  C7_35 
REMARK    8  A    between atoms: C7_35  and  N12_36 
REMARK    9  A    between atoms: N12_36  and  O1_38 
ROOT
HETATM    1  C1  UNL     1     -30.327 -16.677  17.937  1.00  0.00     0.692 A 
HETATM    2  N2  UNL     1     -29.125 -17.050  18.399  1.00  0.00    -0.021 N 
ATOM      3  H2  UNL     1     -28.388 -17.259  17.726  1.00  0.00     0.203 HD
HETATM    4  C2  UNL     1     -28.852 -17.159  19.704  1.00  0.00     0.720 A 
HETATM    5  N6  UNL     1     -29.820 -16.883  20.589  1.00  0.00    -0.052 N 
HETATM    6  N7  UNL     1     -29.894 -16.876  21.911  1.00  0.00    -0.219 N 
ATOM      7  H7  UNL     1     -29.119 -17.120  22.527  1.00  0.00     0.209 HD
HETATM    8  N8  UNL     1     -31.077 -16.521  22.330  1.00  0.00    -0.282 N 
ATOM      9  H8  UNL     1     -31.366 -16.444  23.305  1.00  0.00     0.188 HD
HETATM   10  C4  UNL     1     -31.864 -16.269  21.240  1.00  0.00     0.125 A 
HETATM   11  C8  UNL     1     -31.052 -16.502  20.156  1.00  0.00     0.190 A 
HETATM   12  N13 UNL     1     -31.285 -16.405  18.853  1.00  0.00    -0.172 N 
ATOM     13  H13 UNL     1     -32.209 -16.117  18.533  1.00  0.00     0.186 HD
ENDROOT
BRANCH  10  14
HETATM   14  C5  UNL     1     -33.252 -15.881  21.352  1.00  0.00     0.352 C 
BRANCH  14  15
HETATM   15  N9  UNL     1     -34.014 -16.965  20.644  1.00  0.00    -0.051 N 
ATOM     16  H93 UNL     1     -33.451 -17.784  20.412  1.00  0.00     0.277 HD
ATOM     17  H92 UNL     1     -34.689 -17.451  21.235  1.00  0.00     0.277 HD
ATOM     18  H91 UNL     1     -34.429 -16.507  19.833  1.00  0.00     0.277 HD
ENDBRANCH  14  15
BRANCH  14  19
HETATM   19  N10 UNL     1     -33.651 -14.666  20.681  1.00  0.00    -0.301 N 
ATOM     20  H10 UNL     1     -34.296 -14.747  19.895  1.00  0.00     0.183 HD
BRANCH  19  21
HETATM   21  N11 UNL     1     -33.214 -13.389  21.035  1.00  0.00    -0.313 N 
HETATM   22  C6  UNL     1     -32.975 -12.451  20.219  1.00  0.00     0.125 C 
ATOM     23  H11 UNL     1     -33.077 -13.195  22.027  1.00  0.00     0.185 HD
BRANCH  22  24
HETATM   24  C7  UNL     1     -32.522 -11.161  20.717  1.00  0.00     0.132 C 
BRANCH  24  25
HETATM   25  N12 UNL     1     -31.337 -11.048  21.208  1.00  0.00    -0.279 N 
ATOM     26  H12 UNL     1     -30.652 -11.764  20.967  1.00  0.00     0.193 HD
BRANCH  25  27
HETATM   27  O1  UNL     1     -30.942 -10.043  22.021  1.00  0.00    -0.290 OA
ATOM     28  H1  UNL     1     -30.375 -10.156  22.774  1.00  0.00     0.244 HD
ENDBRANCH  25  27
ENDBRANCH  24  25
ENDBRANCH  22  24
ENDBRANCH  19  21
ENDBRANCH  14  19
ENDBRANCH  10  14
BRANCH   4  29
HETATM   29  N3  UNL     1     -27.717 -17.511  20.179  1.00  0.00    -0.171 N 
HETATM   30  C3  UNL     1     -26.773 -18.402  19.593  1.00  0.00     0.494 C 
HETATM   31  N4  UNL     1     -26.245 -17.947  18.321  1.00  0.00    -0.032 N 
HETATM   32  N5  UNL     1     -27.254 -19.750  19.413  1.00  0.00    -0.032 N 
ATOM     33  H43 UNL     1     -27.003 -17.749  17.668  1.00  0.00     0.278 HD
ATOM     34  H42 UNL     1     -25.847 -17.012  18.411  1.00  0.00     0.278 HD
ATOM     35  H41 UNL     1     -25.568 -18.585  17.902  1.00  0.00     0.278 HD
ATOM     36  H53 UNL     1     -27.597 -20.126  20.296  1.00  0.00     0.278 HD
ATOM     37  H52 UNL     1     -28.122 -19.748  18.876  1.00  0.00     0.278 HD
ATOM     38  H51 UNL     1     -26.578 -20.388  18.994  1.00  0.00     0.278 HD
ATOM     39  H3  UNL     1     -27.459 -17.108  21.079  1.00  0.00     0.181 HD
ENDBRANCH   4  29
BRANCH   1  40
HETATM   40  N1  UNL     1     -30.621 -16.562  16.690  1.00  0.00    -0.234 N 
ATOM     41  H12 UNL     1     -29.863 -16.591  16.007  1.00  0.00     0.174 HD
ATOM     42  H11 UNL     1     -31.569 -16.444  16.331  1.00  0.00     0.174 HD
ENDBRANCH   1  40
TORSDOF 9
ENDMDL
MODEL 2
REMARK VINA RESULT: -7.316265162      1.268      1.268
REMARK  9 active torsions:
REMARK  status: ('A' for Active; 'I' for Inactive)
REMARK    1  A    between atoms: N1_1  and  C1_4 
REMARK    2  A    between atoms: C2_7  and  N3_8 
REMARK       I    between atoms: N3_8  and  C3_10 
REMARK       I    between atoms: C3_10  and  N4_11 
REMARK       I    between atoms: C3_10  and  N5_15 
REMARK    3  A    between atoms: C4_24  and  C5_25 
REMARK    4  A    between atoms: C5_25  and  N9_26 
REMARK    5  A    between atoms: C5_25  and  N10_30 
REMARK    6  A    between atoms: N10_30  and  N11_32 
REMARK    7  A    between atoms: C6_34  and  C7_35 
REMARK    8  A    between atoms: C7_35  and  N12_36 
REMARK    9  A    between atoms: N12_36  and  O1_38 
ROOT
HETATM    1  C1  UNL     1     -30.279 -16.729  17.910  1.00  0.00     0.692 A 
HETATM    2  N2  UNL     1     -29.054 -17.071  18.333  1.00  0.00    -0.021 N 
ATOM      3  H2  UNL     1     -28.325 -17.233  17.639  1.00  0.00     0.203 HD
HETATM    4  C2  UNL     1     -28.748 -17.211  19.628  1.00  0.00     0.720 A 
HETATM    5  N6  UNL     1     -29.705 -16.999  20.542  1.00  0.00    -0.052 N 
HETATM    6  N7  UNL     1     -29.748 -17.036  21.865  1.00  0.00    -0.219 N 
ATOM      7  H7  UNL     1     -28.951 -17.270  22.456  1.00  0.00     0.209 HD
HETATM    8  N8  UNL     1     -30.934 -16.738  22.321  1.00  0.00    -0.282 N 
ATOM      9  H8  UNL     1     -31.204 -16.702  23.303  1.00  0.00     0.188 HD
HETATM   10  C4  UNL     1     -31.754 -16.481  21.257  1.00  0.00     0.125 A 
HETATM   11  C8  UNL     1     -30.959 -16.651  20.148  1.00  0.00     0.190 A 
HETATM   12  N13 UNL     1     -31.225 -16.521  18.854  1.00  0.00    -0.172 N 
ATOM     13  H13 UNL     1     -32.166 -16.258  18.564  1.00  0.00     0.186 HD
ENDROOT
BRANCH  10  14
HETATM   14  C5  UNL     1     -33.153 -16.149  21.410  1.00  0.00     0.352 C 
BRANCH  14  15
HETATM   15  N9  UNL     1     -33.872 -17.467  21.357  1.00  0.00    -0.051 N 
ATOM     16  H93 UNL     1     -34.889 -17.384  21.370  1.00  0.00     0.277 HD
ATOM     17  H92 UNL     1     -33.805 -17.938  20.455  1.00  0.00     0.277 HD
ATOM     18  H91 UNL     1     -33.491 -18.005  22.134  1.00  0.00     0.277 HD
ENDBRANCH  14  15
BRANCH  14  19
HETATM   19  N10 UNL     1     -33.761 -15.366  20.361  1.00  0.00    -0.301 N 
ATOM     20  H10 UNL     1     -34.141 -15.864  19.555  1.00  0.00     0.183 HD
BRANCH  19  21
HETATM   21  N11 UNL     1     -33.865 -13.974  20.372  1.00  0.00    -0.313 N 
HETATM   22  C6  UNL     1     -32.915 -13.177  20.622  1.00  0.00     0.125 C 
ATOM     23  H11 UNL     1     -34.777 -13.567  20.163  1.00  0.00     0.185 HD
BRANCH  22  24
HETATM   24  C7  UNL     1     -33.153 -11.742  20.604  1.00  0.00     0.132 C 
BRANCH  24  25
HETATM   25  N12 UNL     1     -33.222 -11.122  19.477  1.00  0.00    -0.279 N 
ATOM     26  H12 UNL     1     -32.669 -10.272  19.366  1.00  0.00     0.193 HD
BRANCH  25  27
HETATM   27  O1  UNL     1     -33.979 -11.524  18.432  1.00  0.00    -0.290 OA
ATOM     28  H1  UNL     1     -34.292 -10.949  17.745  1.00  0.00     0.244 HD
ENDBRANCH  25  27
ENDBRANCH  24  25
ENDBRANCH  22  24
ENDBRANCH  19  21
ENDBRANCH  14  19
ENDBRANCH  10  14
BRANCH   4  29
HETATM   29  N3  UNL     1     -27.590 -17.536  20.067  1.00  0.00    -0.171 N 
HETATM   30  C3  UNL     1     -26.651 -18.418  19.460  1.00  0.00     0.494 C 
HETATM   31  N4  UNL     1     -26.178 -17.974  18.163  1.00  0.00    -0.032 N 
HETATM   32  N5  UNL     1     -27.114 -19.777  19.317  1.00  0.00    -0.032 N 
ATOM     33  H43 UNL     1     -26.962 -17.799  17.535  1.00  0.00     0.278 HD
ATOM     34  H42 UNL     1     -25.794 -17.031  18.225  1.00  0.00     0.278 HD
ATOM     35  H41 UNL     1     -25.505 -18.606  17.730  1.00  0.00     0.278 HD
ATOM     36  H53 UNL     1     -27.418 -20.146  20.218  1.00  0.00     0.278 HD
ATOM     37  H52 UNL     1     -28.000 -19.799  18.812  1.00  0.00     0.278 HD
ATOM     38  H51 UNL     1     -26.442 -20.409  18.883  1.00  0.00     0.278 HD
ATOM     39  H3  UNL     1     -27.308 -17.114  20.951  1.00  0.00     0.181 HD
ENDBRANCH   4  29
BRANCH   1  40
HETATM   40  N1  UNL     1     -30.605 -16.586  16.673  1.00  0.00    -0.234 N 
ATOM     41  H12 UNL     1     -29.898 -16.767  15.960  1.00  0.00     0.174 HD
ATOM     42  H11 UNL     1     -31.532 -16.304  16.352  1.00  0.00     0.174 HD
ENDBRANCH   1  40
TORSDOF 9
ENDMDL
MODEL 3
REMARK VINA RESULT: -7.062101499      1.312      2.495
REMARK  9 active torsions:
REMARK  status: ('A' for Active; 'I' for Inactive)
REMARK    1  A    between atoms: N1_1  and  C1_4 
REMARK    2  A    between atoms: C2_7  and  N3_8 
REMARK       I    between atoms: N3_8  and  C3_10 
REMARK       I    between atoms: C3_10  and  N4_11 
REMARK       I    between atoms: C3_10  and  N5_15 
REMARK    3  A    between atoms: C4_24  and  C5_25 
REMARK    4  A    between atoms: C5_25  and  N9_26 
REMARK    5  A    between atoms: C5_25  and  N10_30 
REMARK    6  A    between atoms: N10_30  and  N11_32 
REMARK    7  A    between atoms: C6_34  and  C7_35 
REMARK    8  A    between atoms: C7_35  and  N12_36 
REMARK    9  A    between atoms: N12_36  and  O1_38 
ROOT
HETATM    1  C1  UNL     1     -29.725 -18.954  22.163  1.00  0.00     0.692 A 
HETATM    2  N2  UNL     1     -28.901 -18.996  21.107  1.00  0.00    -0.021 N 
ATOM      3  H2  UNL     1     -28.111 -19.640  21.129  1.00  0.00     0.203 HD
HETATM    4  C2  UNL     1     -29.072 -18.228  20.024  1.00  0.00     0.720 A 
HETATM    5  N6  UNL     1     -30.110 -17.382  19.993  1.00  0.00    -0.052 N 
HETATM    6  N7  UNL     1     -30.571 -16.512  19.107  1.00  0.00    -0.219 N 
ATOM      7  H7  UNL     1     -30.138 -16.334  18.202  1.00  0.00     0.209 HD
HETATM    8  N8  UNL     1     -31.647 -15.909  19.534  1.00  0.00    -0.282 N 
ATOM      9  H8  UNL     1     -32.176 -15.201  19.024  1.00  0.00     0.188 HD
HETATM   10  C4  UNL     1     -31.945 -16.386  20.779  1.00  0.00     0.125 A 
HETATM   11  C8  UNL     1     -30.966 -17.312  21.048  1.00  0.00     0.190 A 
HETATM   12  N13 UNL     1     -30.765 -18.091  22.104  1.00  0.00    -0.172 N 
ATOM     13  H13 UNL     1     -31.410 -18.037  22.891  1.00  0.00     0.186 HD
ENDROOT
BRANCH  10  14
HETATM   14  C5  UNL     1     -33.067 -15.903  21.554  1.00  0.00     0.352 C 
BRANCH  14  15
HETATM   15  N9  UNL     1     -34.100 -16.989  21.458  1.00  0.00    -0.051 N 
ATOM     16  H93 UNL     1     -34.940 -16.716  20.946  1.00  0.00     0.277 HD
ATOM     17  H92 UNL     1     -33.835 -17.759  20.844  1.00  0.00     0.277 HD
ATOM     18  H91 UNL     1     -34.276 -17.269  22.422  1.00  0.00     0.277 HD
ENDBRANCH  14  15
BRANCH  14  19
HETATM   19  N10 UNL     1     -33.741 -14.722  21.068  1.00  0.00    -0.301 N 
ATOM     20  H10 UNL     1     -34.628 -14.848  20.579  1.00  0.00     0.183 HD
BRANCH  19  21
HETATM   21  N11 UNL     1     -33.263 -13.420  21.222  1.00  0.00    -0.313 N 
HETATM   22  C6  UNL     1     -33.166 -12.568  20.292  1.00  0.00     0.125 C 
ATOM     23  H11 UNL     1     -32.970 -13.132  22.156  1.00  0.00     0.185 HD
BRANCH  22  24
HETATM   24  C7  UNL     1     -32.649 -11.238  20.583  1.00  0.00     0.132 C 
BRANCH  24  25
HETATM   25  N12 UNL     1     -31.463 -11.108  21.064  1.00  0.00    -0.279 N 
ATOM     26  H12 UNL     1     -30.752 -11.777  20.768  1.00  0.00     0.193 HD
BRANCH  25  27
HETATM   27  O1  UNL     1     -31.096 -10.142  21.936  1.00  0.00    -0.290 OA
ATOM     28  H1  UNL     1     -31.642  -9.404  22.177  1.00  0.00     0.244 HD
ENDBRANCH  25  27
ENDBRANCH  24  25
ENDBRANCH  22  24
ENDBRANCH  19  21
ENDBRANCH  14  19
ENDBRANCH  10  14
BRANCH   4  29
HETATM   29  N3  UNL     1     -28.306 -18.243  18.999  1.00  0.00    -0.171 N 
HETATM   30  C3  UNL     1     -26.931 -18.610  18.951  1.00  0.00     0.494 C 
HETATM   31  N4  UNL     1     -26.677 -19.990  19.321  1.00  0.00    -0.032 N 
HETATM   32  N5  UNL     1     -26.061 -17.775  19.743  1.00  0.00    -0.032 N 
ATOM     33  H43 UNL     1     -27.070 -20.193  20.240  1.00  0.00     0.278 HD
ATOM     34  H42 UNL     1     -27.237 -20.623  18.751  1.00  0.00     0.278 HD
ATOM     35  H41 UNL     1     -25.692 -20.252  19.287  1.00  0.00     0.278 HD
ATOM     36  H53 UNL     1     -26.176 -16.795  19.484  1.00  0.00     0.278 HD
ATOM     37  H52 UNL     1     -26.386 -17.739  20.709  1.00  0.00     0.278 HD
ATOM     38  H51 UNL     1     -25.076 -18.038  19.708  1.00  0.00     0.278 HD
ATOM     39  H3  UNL     1     -28.728 -17.959  18.115  1.00  0.00     0.181 HD
ENDBRANCH   4  29
BRANCH   1  40
HETATM   40  N1  UNL     1     -29.589 -19.679  23.217  1.00  0.00    -0.234 N 
ATOM     41  H12 UNL     1     -29.972 -20.625  23.209  1.00  0.00     0.174 HD
ATOM     42  H11 UNL     1     -29.120 -19.372  24.070  1.00  0.00     0.174 HD
ENDBRANCH   1  40
TORSDOF 9
ENDMDL
MODEL 4
REMARK VINA RESULT: -6.623007029      1.781      2.788
REMARK  9 active torsions:
REMARK  status: ('A' for Active; 'I' for Inactive)
REMARK    1  A    between atoms: N1_1  and  C1_4 
REMARK    2  A    between atoms: C2_7  and  N3_8 
REMARK       I    between atoms: N3_8  and  C3_10 
REMARK       I    between atoms: C3_10  and  N4_11 
REMARK       I    between atoms: C3_10  and  N5_15 
REMARK    3  A    between atoms: C4_24  and  C5_25 
REMARK    4  A    between atoms: C5_25  and  N9_26 
REMARK    5  A    between atoms: C5_25  and  N10_30 
REMARK    6  A    between atoms: N10_30  and  N11_32 
REMARK    7  A    between atoms: C6_34  and  C7_35 
REMARK    8  A    between atoms: C7_35  and  N12_36 
REMARK    9  A    between atoms: N12_36  and  O1_38 
ROOT
HETATM    1  C1  UNL     1     -29.637 -18.959  22.175  1.00  0.00     0.692 A 
HETATM    2  N2  UNL     1     -28.808 -19.025  21.124  1.00  0.00    -0.021 N 
ATOM      3  H2  UNL     1     -28.010 -19.657  21.170  1.00  0.00     0.203 HD
HETATM    4  C2  UNL     1     -28.985 -18.295  20.016  1.00  0.00     0.720 A 
HETATM    5  N6  UNL     1     -30.034 -17.464  19.954  1.00  0.00    -0.052 N 
HETATM    6  N7  UNL     1     -30.504 -16.630  19.038  1.00  0.00    -0.219 N 
ATOM      7  H7  UNL     1     -30.069 -16.477  18.129  1.00  0.00     0.209 HD
HETATM    8  N8  UNL     1     -31.589 -16.028  19.441  1.00  0.00    -0.282 N 
ATOM      9  H8  UNL     1     -32.125 -15.345  18.906  1.00  0.00     0.188 HD
HETATM   10  C4  UNL     1     -31.886 -16.468  20.700  1.00  0.00     0.125 A 
HETATM   11  C8  UNL     1     -30.895 -17.372  21.003  1.00  0.00     0.190 A 
HETATM   12  N13 UNL     1     -30.688 -18.112  22.084  1.00  0.00    -0.172 N 
ATOM     13  H13 UNL     1     -31.337 -18.041  22.867  1.00  0.00     0.186 HD
ENDROOT
BRANCH  10  14
HETATM   14  C5  UNL     1     -33.016 -15.975  21.455  1.00  0.00     0.352 C 
BRANCH  14  15
HETATM   15  N9  UNL     1     -33.825 -17.197  21.784  1.00  0.00    -0.051 N 
ATOM     16  H93 UNL     1     -33.360 -18.076  21.553  1.00  0.00     0.277 HD
ATOM     17  H92 UNL     1     -33.919 -17.374  22.784  1.00  0.00     0.277 HD
ATOM     18  H91 UNL     1     -34.713 -17.061  21.303  1.00  0.00     0.277 HD
ENDBRANCH  14  15
BRANCH  14  19
HETATM   19  N10 UNL     1     -33.941 -15.109  20.762  1.00  0.00    -0.301 N 
ATOM     20  H10 UNL     1     -34.691 -15.547  20.225  1.00  0.00     0.183 HD
BRANCH  19  21
HETATM   21  N11 UNL     1     -33.881 -13.715  20.776  1.00  0.00    -0.313 N 
HETATM   22  C6  UNL     1     -32.830 -13.032  20.598  1.00  0.00     0.125 C 
ATOM     23  H11 UNL     1     -34.749 -13.207  20.943  1.00  0.00     0.185 HD
BRANCH  22  24
HETATM   24  C7  UNL     1     -32.899 -11.579  20.638  1.00  0.00     0.132 C 
BRANCH  24  25
HETATM   25  N12 UNL     1     -33.325 -10.933  19.609  1.00  0.00    -0.279 N 
ATOM     26  H12 UNL     1     -33.189  -9.923  19.592  1.00  0.00     0.193 HD
BRANCH  25  27
HETATM   27  O1  UNL     1     -33.941 -11.507  18.551  1.00  0.00    -0.290 OA
ATOM     28  H1  UNL     1     -34.879 -11.500  18.409  1.00  0.00     0.244 HD
ENDBRANCH  25  27
ENDBRANCH  24  25
ENDBRANCH  22  24
ENDBRANCH  19  21
ENDBRANCH  14  19
ENDBRANCH  10  14
BRANCH   4  29
HETATM   29  N3  UNL     1     -28.215 -18.333  18.994  1.00  0.00    -0.171 N 
HETATM   30  C3  UNL     1     -26.833 -18.679  18.964  1.00  0.00     0.494 C 
HETATM   31  N4  UNL     1     -26.557 -20.039  19.384  1.00  0.00    -0.032 N 
HETATM   32  N5  UNL     1     -25.981 -17.801  19.728  1.00  0.00    -0.032 N 
ATOM     33  H43 UNL     1     -26.951 -20.216  20.309  1.00  0.00     0.278 HD
ATOM     34  H42 UNL     1     -27.104 -20.702  18.835  1.00  0.00     0.278 HD
ATOM     35  H41 UNL     1     -25.568 -20.286  19.363  1.00  0.00     0.278 HD
ATOM     36  H53 UNL     1     -26.112 -16.833  19.434  1.00  0.00     0.278 HD
ATOM     37  H52 UNL     1     -26.310 -17.736  20.692  1.00  0.00     0.278 HD
ATOM     38  H51 UNL     1     -24.992 -18.048  19.707  1.00  0.00     0.278 HD
ATOM     39  H3  UNL     1     -28.639 -18.089  18.100  1.00  0.00     0.181 HD
ENDBRANCH   4  29
BRANCH   1  40
HETATM   40  N1  UNL     1     -29.495 -19.647  23.253  1.00  0.00    -0.234 N 
ATOM     41  H12 UNL     1     -29.038 -20.558  23.193  1.00  0.00     0.174 HD
ATOM     42  H11 UNL     1     -29.810 -19.343  24.175  1.00  0.00     0.174 HD
ENDBRANCH   1  40
TORSDOF 9
ENDMDL
MODEL 5
REMARK VINA RESULT: -6.610791307      2.521      6.167
REMARK  9 active torsions:
REMARK  status: ('A' for Active; 'I' for Inactive)
REMARK    1  A    between atoms: N1_1  and  C1_4 
REMARK    2  A    between atoms: C2_7  and  N3_8 
REMARK       I    between atoms: N3_8  and  C3_10 
REMARK       I    between atoms: C3_10  and  N4_11 
REMARK       I    between atoms: C3_10  and  N5_15 
REMARK    3  A    between atoms: C4_24  and  C5_25 
REMARK    4  A    between atoms: C5_25  and  N9_26 
REMARK    5  A    between atoms: C5_25  and  N10_30 
REMARK    6  A    between atoms: N10_30  and  N11_32 
REMARK    7  A    between atoms: C6_34  and  C7_35 
REMARK    8  A    between atoms: C7_35  and  N12_36 
REMARK    9  A    between atoms: N12_36  and  O1_38 
ROOT
HETATM    1  C1  UNL     1     -34.570 -17.593  21.372  1.00  0.00     0.692 A 
HETATM    2  N2  UNL     1     -34.722 -16.271  21.528  1.00  0.00    -0.021 N 
ATOM      3  H2  UNL     1     -35.659 -15.875  21.454  1.00  0.00     0.203 HD
HETATM    4  C2  UNL     1     -33.696 -15.448  21.776  1.00  0.00     0.720 A 
HETATM    5  N6  UNL     1     -32.465 -15.967  21.874  1.00  0.00    -0.052 N 
HETATM    6  N7  UNL     1     -31.263 -15.464  22.114  1.00  0.00    -0.219 N 
ATOM      7  H7  UNL     1     -31.080 -14.474  22.275  1.00  0.00     0.209 HD
HETATM    8  N8  UNL     1     -30.342 -16.389  22.121  1.00  0.00    -0.282 N 
ATOM      9  H8  UNL     1     -29.347 -16.238  22.284  1.00  0.00     0.188 HD
HETATM   10  C4  UNL     1     -30.938 -17.594  21.871  1.00  0.00     0.125 A 
HETATM   11  C8  UNL     1     -32.274 -17.304  21.720  1.00  0.00     0.190 A 
HETATM   12  N13 UNL     1     -33.316 -18.089  21.476  1.00  0.00    -0.172 N 
ATOM     13  H13 UNL     1     -33.168 -19.091  21.363  1.00  0.00     0.186 HD
ENDROOT
BRANCH  10  14
HETATM   14  C5  UNL     1     -30.194 -18.829  21.778  1.00  0.00     0.352 C 
BRANCH  14  15
HETATM   15  N9  UNL     1     -29.551 -18.997  23.126  1.00  0.00    -0.051 N 
ATOM     16  H93 UNL     1     -28.567 -18.729  23.151  1.00  0.00     0.277 HD
ATOM     17  H92 UNL     1     -29.872 -18.326  23.823  1.00  0.00     0.277 HD
ATOM     18  H91 UNL     1     -29.722 -19.970  23.378  1.00  0.00     0.277 HD
ENDBRANCH  14  15
BRANCH  14  19
HETATM   19  N10 UNL     1     -29.089 -18.863  20.848  1.00  0.00    -0.301 N 
ATOM     20  H10 UNL     1     -28.229 -19.324  21.147  1.00  0.00     0.183 HD
BRANCH  19  21
HETATM   21  N11 UNL     1     -29.117 -18.307  19.568  1.00  0.00    -0.313 N 
HETATM   22  C6  UNL     1     -28.376 -17.362  19.171  1.00  0.00     0.125 C 
ATOM     23  H11 UNL     1     -29.786 -18.692  18.902  1.00  0.00     0.185 HD
BRANCH  22  24
HETATM   24  C7  UNL     1     -28.503 -16.870  17.807  1.00  0.00     0.132 C 
BRANCH  24  25
HETATM   25  N12 UNL     1     -29.636 -16.417  17.397  1.00  0.00    -0.279 N 
ATOM     26  H12 UNL     1     -29.807 -15.415  17.479  1.00  0.00     0.193 HD
BRANCH  25  27
HETATM   27  O1  UNL     1     -30.615 -17.183  16.864  1.00  0.00    -0.290 OA
ATOM     28  H1  UNL     1     -31.491 -16.873  16.671  1.00  0.00     0.244 HD
ENDBRANCH  25  27
ENDBRANCH  24  25
ENDBRANCH  22  24
ENDBRANCH  19  21
ENDBRANCH  14  19
ENDBRANCH  10  14
BRANCH   4  29
HETATM   29  N3  UNL     1     -33.806 -14.182  21.931  1.00  0.00    -0.171 N 
HETATM   30  C3  UNL     1     -33.658 -13.172  20.937  1.00  0.00     0.494 C 
HETATM   31  N4  UNL     1     -34.631 -13.255  19.864  1.00  0.00    -0.032 N 
HETATM   32  N5  UNL     1     -32.347 -13.110  20.339  1.00  0.00    -0.032 N 
ATOM     33  H43 UNL     1     -34.617 -14.182  19.438  1.00  0.00     0.278 HD
ATOM     34  H42 UNL     1     -35.579 -13.253  20.239  1.00  0.00     0.278 HD
ATOM     35  H41 UNL     1     -34.525 -12.532  19.153  1.00  0.00     0.278 HD
ATOM     36  H53 UNL     1     -31.632 -13.007  21.058  1.00  0.00     0.278 HD
ATOM     37  H52 UNL     1     -32.085 -14.021  19.962  1.00  0.00     0.278 HD
ATOM     38  H51 UNL     1     -32.241 -12.387  19.627  1.00  0.00     0.278 HD
ATOM     39  H3  UNL     1     -34.024 -13.859  22.873  1.00  0.00     0.181 HD
ENDBRANCH   4  29
BRANCH   1  40
HETATM   40  N1  UNL     1     -35.535 -18.410  21.133  1.00  0.00    -0.234 N 
ATOM     41  H12 UNL     1     -35.492 -18.978  20.286  1.00  0.00     0.174 HD
ATOM     42  H11 UNL     1     -36.347 -18.533  21.738  1.00  0.00     0.174 HD
ENDBRANCH   1  40
TORSDOF 9
ENDMDL
