MODEL 1
REMARK VINA RESULT: -6.994835542      0.000      0.000
REMARK  6 active torsions:
REMARK  status: ('A' for Active; 'I' for Inactive)
REMARK    1  A    between atoms: C2_2  and  C8_34 
REMARK    2  A    between atoms: N1_3  and  N2_5 
REMARK    3  A    between atoms: C3_7  and  N3_8 
REMARK    4  A    between atoms: C3_7  and  C5_19 
REMARK       I    between atoms: N3_8  and  C4_10 
REMARK       I    between atoms: C4_10  and  N4_11 
REMARK       I    between atoms: C4_10  and  N5_15 
REMARK    5  A    between atoms: C6_22  and  N7_23 
REMARK    6  A    between atoms: N7_23  and  N8_25 
ROOT
HETATM    1  N2  UNL     1     -29.855 -17.500  20.340  1.00  0.00    -0.282 N 
ATOM      2  H2  UNL     1     -28.931 -17.929  20.386  1.00  0.00     0.188 HD
HETATM    3  C3  UNL     1     -30.549 -17.485  21.413  1.00  0.00     0.164 C 
ENDROOT
BRANCH   3   4
HETATM    4  N3  UNL     1     -30.016 -18.053  22.592  1.00  0.00    -0.323 N 
HETATM    5  C4  UNL     1     -29.219 -19.245  22.625  1.00  0.00     0.481 C 
HETATM    6  N4  UNL     1     -29.991 -20.348  22.085  1.00  0.00    -0.033 N 
HETATM    7  N5  UNL     1     -28.858 -19.523  23.996  1.00  0.00    -0.033 N 
ATOM      8  H43 UNL     1     -30.885 -20.466  22.562  1.00  0.00     0.278 HD
ATOM      9  H42 UNL     1     -30.353 -20.148  21.152  1.00  0.00     0.278 HD
ATOM     10  H41 UNL     1     -29.425 -21.196  22.108  1.00  0.00     0.278 HD
ATOM     11  H53 UNL     1     -28.396 -18.732  24.446  1.00  0.00     0.278 HD
ATOM     12  H52 UNL     1     -29.670 -19.579  24.611  1.00  0.00     0.278 HD
ATOM     13  H51 UNL     1     -28.292 -20.371  24.020  1.00  0.00     0.278 HD
ATOM     14  H3  UNL     1     -30.210 -17.584  23.476  1.00  0.00     0.165 HD
ENDBRANCH   3   4
BRANCH   3  15
HETATM   15  C5  UNL     1     -31.875 -16.895  21.437  1.00  0.00     0.170 A 
HETATM   16  N6  UNL     1     -32.074 -15.563  21.385  1.00  0.00    -0.171 N 
HETATM   17  C6  UNL     1     -33.322 -15.061  21.410  1.00  0.00     0.702 A 
ATOM     18  H6  UNL     1     -31.275 -14.932  21.326  1.00  0.00     0.186 HD
HETATM   19  N9  UNL     1     -34.411 -15.847  21.489  1.00  0.00    -0.140 N 
HETATM   20  C7  UNL     1     -34.236 -17.174  21.543  1.00  0.00     0.340 A 
ATOM     21  H9  UNL     1     -35.347 -15.443  21.507  1.00  0.00     0.189 HD
HETATM   22  O1  UNL     1     -35.232 -17.933  21.616  1.00  0.00    -0.246 OA
HETATM   23  N10 UNL     1     -32.991 -17.670  21.517  1.00  0.00    -0.290 N 
ATOM     24  H10 UNL     1     -32.874 -18.682  21.558  1.00  0.00     0.172 HD
BRANCH  17  25
HETATM   25  N7  UNL     1     -33.431 -13.762  21.356  1.00  0.00    -0.138 N 
ATOM     26  H7  UNL     1     -34.227 -13.282  21.776  1.00  0.00     0.205 HD
BRANCH  25  27
HETATM   27  N8  UNL     1     -32.428 -13.059  20.709  1.00  0.00    -0.331 N 
ATOM     28  H82 UNL     1     -31.892 -13.500  19.961  1.00  0.00     0.177 HD
ATOM     29  H81 UNL     1     -32.254 -12.099  21.008  1.00  0.00     0.177 HD
ENDBRANCH  25  27
ENDBRANCH  17  25
ENDBRANCH   3  15
BRANCH   1  30
HETATM   30  N1  UNL     1     -30.255 -16.982  19.120  1.00  0.00    -0.300 N 
HETATM   31  C2  UNL     1     -29.410 -16.940  18.148  1.00  0.00     0.068 C 
HETATM   32  C1  UNL     1     -29.880 -16.379  16.865  1.00  0.00     0.074 C 
ATOM     33  H1  UNL     1     -31.206 -16.638  18.992  1.00  0.00     0.186 HD
BRANCH  31  34
HETATM   34  C8  UNL     1     -28.041 -17.429  18.308  1.00  0.00     0.158 A 
HETATM   35  N11 UNL     1     -26.988 -17.069  17.554  1.00  0.00    -0.265 N 
HETATM   36  N12 UNL     1     -25.933 -17.733  18.020  1.00  0.00    -0.005 NA
ATOM     37  H11 UNL     1     -26.996 -16.413  16.773  1.00  0.00     0.186 HD
HETATM   38  N13 UNL     1     -26.301 -18.500  19.049  1.00  0.00    -0.225 N 
HETATM   39  N14 UNL     1     -27.585 -18.307  19.216  1.00  0.00    -0.270 N 
ATOM     40  H13 UNL     1     -25.700 -19.116  19.597  1.00  0.00     0.205 HD
ATOM     41  H14 UNL     1     -28.156 -18.758  19.930  1.00  0.00     0.190 HD
ENDBRANCH  31  34
ENDBRANCH   1  30
TORSDOF 6
ENDMDL
MODEL 2
REMARK VINA RESULT: -6.423494957      1.849      5.826
REMARK  6 active torsions:
REMARK  status: ('A' for Active; 'I' for Inactive)
REMARK    1  A    between atoms: C2_2  and  C8_34 
REMARK    2  A    between atoms: N1_3  and  N2_5 
REMARK    3  A    between atoms: C3_7  and  N3_8 
REMARK    4  A    between atoms: C3_7  and  C5_19 
REMARK       I    between atoms: N3_8  and  C4_10 
REMARK       I    between atoms: C4_10  and  N4_11 
REMARK       I    between atoms: C4_10  and  N5_15 
REMARK    5  A    between atoms: C6_22  and  N7_23 
REMARK    6  A    between atoms: N7_23  and  N8_25 
ROOT
HETATM    1  N2  UNL     1     -31.118 -15.969  21.700  1.00  0.00    -0.282 N 
ATOM      2  H2  UNL     1     -31.459 -16.080  22.655  1.00  0.00     0.188 HD
HETATM    3  C3  UNL     1     -30.539 -16.973  21.163  1.00  0.00     0.164 C 
ENDROOT
BRANCH   3   4
HETATM    4  N3  UNL     1     -30.399 -18.169  21.900  1.00  0.00    -0.323 N 
HETATM    5  C4  UNL     1     -29.223 -18.991  21.889  1.00  0.00     0.481 C 
HETATM    6  N4  UNL     1     -28.972 -19.444  20.535  1.00  0.00    -0.033 N 
HETATM    7  N5  UNL     1     -29.444 -20.128  22.755  1.00  0.00    -0.033 N 
ATOM      8  H43 UNL     1     -29.778 -19.917  20.128  1.00  0.00     0.278 HD
ATOM      9  H42 UNL     1     -28.910 -18.670  19.873  1.00  0.00     0.278 HD
ATOM     10  H41 UNL     1     -28.136 -20.028  20.527  1.00  0.00     0.278 HD
ATOM     11  H53 UNL     1     -29.719 -19.853  23.698  1.00  0.00     0.278 HD
ATOM     12  H52 UNL     1     -30.287 -20.648  22.508  1.00  0.00     0.278 HD
ATOM     13  H51 UNL     1     -28.608 -20.712  22.746  1.00  0.00     0.278 HD
ATOM     14  H3  UNL     1     -31.184 -18.468  22.478  1.00  0.00     0.165 HD
ENDBRANCH   3   4
BRANCH   3  15
HETATM   15  C5  UNL     1     -30.023 -16.901  19.808  1.00  0.00     0.170 A 
HETATM   16  N6  UNL     1     -28.717 -17.074  19.522  1.00  0.00    -0.171 N 
HETATM   17  C6  UNL     1     -28.285 -16.999  18.250  1.00  0.00     0.702 A 
ATOM     18  H6  UNL     1     -28.053 -17.263  20.272  1.00  0.00     0.186 HD
HETATM   19  N9  UNL     1     -29.117 -16.751  17.222  1.00  0.00    -0.140 N 
HETATM   20  C7  UNL     1     -30.419 -16.575  17.484  1.00  0.00     0.340 A 
ATOM     21  H9  UNL     1     -28.765 -16.698  16.266  1.00  0.00     0.189 HD
HETATM   22  O1  UNL     1     -31.218 -16.343  16.546  1.00  0.00    -0.246 OA
HETATM   23  N10 UNL     1     -30.845 -16.652  18.752  1.00  0.00    -0.290 N 
ATOM     24  H10 UNL     1     -31.839 -16.516  18.936  1.00  0.00     0.172 HD
BRANCH  17  25
HETATM   25  N7  UNL     1     -27.008 -17.177  18.055  1.00  0.00    -0.138 N 
ATOM     26  H7  UNL     1     -26.463 -16.523  17.493  1.00  0.00     0.205 HD
BRANCH  25  27
HETATM   27  N8  UNL     1     -26.416 -18.285  18.639  1.00  0.00    -0.331 N 
ATOM     28  H82 UNL     1     -26.917 -18.820  19.350  1.00  0.00     0.177 HD
ATOM     29  H81 UNL     1     -25.477 -18.537  18.333  1.00  0.00     0.177 HD
ENDBRANCH  25  27
ENDBRANCH  17  25
ENDBRANCH   3  15
BRANCH   1  30
HETATM   30  N1  UNL     1     -31.321 -14.741  21.093  1.00  0.00    -0.300 N 
HETATM   31  C2  UNL     1     -32.525 -14.354  20.847  1.00  0.00     0.068 C 
HETATM   32  C1  UNL     1     -32.693 -13.037  20.197  1.00  0.00     0.074 C 
ATOM     33  H1  UNL     1     -30.528 -14.151  20.844  1.00  0.00     0.186 HD
BRANCH  31  34
HETATM   34  C8  UNL     1     -33.678 -15.183  21.195  1.00  0.00     0.158 A 
HETATM   35  N11 UNL     1     -34.606 -14.884  22.120  1.00  0.00    -0.265 N 
HETATM   36  N12 UNL     1     -35.479 -15.889  22.131  1.00  0.00    -0.005 NA
ATOM     37  H11 UNL     1     -34.636 -14.047  22.702  1.00  0.00     0.186 HD
HETATM   38  N13 UNL     1     -35.118 -16.810  21.235  1.00  0.00    -0.225 N 
HETATM   39  N14 UNL     1     -34.022 -16.370  20.671  1.00  0.00    -0.270 N 
ATOM     40  H13 UNL     1     -35.602 -17.684  21.030  1.00  0.00     0.205 HD
ATOM     41  H14 UNL     1     -33.504 -16.858  19.940  1.00  0.00     0.190 HD
ENDBRANCH  31  34
ENDBRANCH   1  30
TORSDOF 6
ENDMDL
MODEL 3
REMARK VINA RESULT: -6.393025571      2.404      5.751
REMARK  6 active torsions:
REMARK  status: ('A' for Active; 'I' for Inactive)
REMARK    1  A    between atoms: C2_2  and  C8_34 
REMARK    2  A    between atoms: N1_3  and  N2_5 
REMARK    3  A    between atoms: C3_7  and  N3_8 
REMARK    4  A    between atoms: C3_7  and  C5_19 
REMARK       I    between atoms: N3_8  and  C4_10 
REMARK       I    between atoms: C4_10  and  N4_11 
REMARK       I    between atoms: C4_10  and  N5_15 
REMARK    5  A    between atoms: C6_22  and  N7_23 
REMARK    6  A    between atoms: N7_23  and  N8_25 
ROOT
HETATM    1  N2  UNL     1     -31.106 -16.050  21.839  1.00  0.00    -0.282 N 
ATOM      2  H2  UNL     1     -31.502 -16.169  22.771  1.00  0.00     0.188 HD
HETATM    3  C3  UNL     1     -30.493 -17.048  21.329  1.00  0.00     0.164 C 
ENDROOT
BRANCH   3   4
HETATM    4  N3  UNL     1     -30.391 -18.249  22.065  1.00  0.00    -0.323 N 
HETATM    5  C4  UNL     1     -29.243 -19.109  22.052  1.00  0.00     0.481 C 
HETATM    6  N4  UNL     1     -29.008 -19.568  20.696  1.00  0.00    -0.033 N 
HETATM    7  N5  UNL     1     -29.501 -20.239  22.916  1.00  0.00    -0.033 N 
ATOM      8  H43 UNL     1     -29.830 -20.014  20.290  1.00  0.00     0.278 HD
ATOM      9  H42 UNL     1     -28.922 -18.797  20.035  1.00  0.00     0.278 HD
ATOM     10  H41 UNL     1     -28.192 -20.180  20.687  1.00  0.00     0.278 HD
ATOM     11  H53 UNL     1     -29.765 -19.956  23.860  1.00  0.00     0.278 HD
ATOM     12  H52 UNL     1     -30.360 -20.731  22.670  1.00  0.00     0.278 HD
ATOM     13  H51 UNL     1     -28.684 -20.850  22.906  1.00  0.00     0.278 HD
ATOM     14  H3  UNL     1     -31.186 -18.523  22.643  1.00  0.00     0.165 HD
ENDBRANCH   3   4
BRANCH   3  15
HETATM   15  C5  UNL     1     -29.900 -16.965  20.006  1.00  0.00     0.170 A 
HETATM   16  N6  UNL     1     -30.633 -16.727  18.900  1.00  0.00    -0.171 N 
HETATM   17  C6  UNL     1     -30.039 -16.659  17.694  1.00  0.00     0.702 A 
ATOM     18  H6  UNL     1     -31.642 -16.599  18.976  1.00  0.00     0.186 HD
HETATM   19  N9  UNL     1     -28.713 -16.822  17.536  1.00  0.00    -0.140 N 
HETATM   20  C7  UNL     1     -27.967 -17.059  18.623  1.00  0.00     0.340 A 
ATOM     21  H9  UNL     1     -28.287 -16.765  16.612  1.00  0.00     0.189 HD
HETATM   22  O1  UNL     1     -26.728 -17.215  18.507  1.00  0.00    -0.246 OA
HETATM   23  N10 UNL     1     -28.562 -17.126  19.821  1.00  0.00    -0.290 N 
ATOM     24  H10 UNL     1     -27.981 -17.308  20.639  1.00  0.00     0.172 HD
BRANCH  17  25
HETATM   25  N7  UNL     1     -30.816 -16.426  16.673  1.00  0.00    -0.138 N 
ATOM     26  H7  UNL     1     -31.797 -16.708  16.681  1.00  0.00     0.205 HD
BRANCH  25  27
HETATM   27  N8  UNL     1     -30.264 -15.783  15.578  1.00  0.00    -0.331 N 
ATOM     28  H82 UNL     1     -29.449 -15.180  15.693  1.00  0.00     0.177 HD
ATOM     29  H81 UNL     1     -30.701 -15.936  14.669  1.00  0.00     0.177 HD
ENDBRANCH  25  27
ENDBRANCH  17  25
ENDBRANCH   3  15
BRANCH   1  30
HETATM   30  N1  UNL     1     -31.278 -14.818  21.229  1.00  0.00    -0.300 N 
HETATM   31  C2  UNL     1     -32.466 -14.439  20.905  1.00  0.00     0.068 C 
HETATM   32  C1  UNL     1     -32.602 -13.118  20.257  1.00  0.00     0.074 C 
ATOM     33  H1  UNL     1     -30.475 -14.220  21.039  1.00  0.00     0.186 HD
BRANCH  31  34
HETATM   34  C8  UNL     1     -33.633 -15.280  21.168  1.00  0.00     0.158 A 
HETATM   35  N11 UNL     1     -34.576 -15.042  22.096  1.00  0.00    -0.265 N 
HETATM   36  N12 UNL     1     -35.458 -16.036  22.015  1.00  0.00    -0.005 NA
ATOM     37  H11 UNL     1     -34.610 -14.251  22.739  1.00  0.00     0.186 HD
HETATM   38  N13 UNL     1     -35.088 -16.890  21.058  1.00  0.00    -0.225 N 
HETATM   39  N14 UNL     1     -33.977 -16.420  20.550  1.00  0.00    -0.270 N 
ATOM     40  H13 UNL     1     -35.576 -17.742  20.779  1.00  0.00     0.205 HD
ATOM     41  H14 UNL     1     -33.449 -16.857  19.793  1.00  0.00     0.190 HD
ENDBRANCH  31  34
ENDBRANCH   1  30
TORSDOF 6
ENDMDL
MODEL 4
REMARK VINA RESULT: -6.323553591      1.278      2.132
REMARK  6 active torsions:
REMARK  status: ('A' for Active; 'I' for Inactive)
REMARK    1  A    between atoms: C2_2  and  C8_34 
REMARK    2  A    between atoms: N1_3  and  N2_5 
REMARK    3  A    between atoms: C3_7  and  N3_8 
REMARK    4  A    between atoms: C3_7  and  C5_19 
REMARK       I    between atoms: N3_8  and  C4_10 
REMARK       I    between atoms: C4_10  and  N4_11 
REMARK       I    between atoms: C4_10  and  N5_15 
REMARK    5  A    between atoms: C6_22  and  N7_23 
REMARK    6  A    between atoms: N7_23  and  N8_25 
ROOT
HETATM    1  N2  UNL     1     -29.833 -17.471  20.196  1.00  0.00    -0.282 N 
ATOM      2  H2  UNL     1     -28.956 -17.985  20.279  1.00  0.00     0.188 HD
HETATM    3  C3  UNL     1     -30.561 -17.379  21.243  1.00  0.00     0.164 C 
ENDROOT
BRANCH   3   4
HETATM    4  N3  UNL     1     -30.127 -17.981  22.445  1.00  0.00    -0.323 N 
HETATM    5  C4  UNL     1     -29.245 -19.111  22.509  1.00  0.00     0.481 C 
HETATM    6  N4  UNL     1     -29.854 -20.230  21.817  1.00  0.00    -0.033 N 
HETATM    7  N5  UNL     1     -29.027 -19.450  23.897  1.00  0.00    -0.033 N 
ATOM      8  H43 UNL     1     -30.785 -20.445  22.172  1.00  0.00     0.278 HD
ATOM      9  H42 UNL     1     -30.117 -19.997  20.859  1.00  0.00     0.278 HD
ATOM     10  H41 UNL     1     -29.227 -21.033  21.862  1.00  0.00     0.278 HD
ATOM     11  H53 UNL     1     -28.688 -18.659  24.444  1.00  0.00     0.278 HD
ATOM     12  H52 UNL     1     -29.900 -19.607  24.402  1.00  0.00     0.278 HD
ATOM     13  H51 UNL     1     -28.400 -20.253  23.942  1.00  0.00     0.278 HD
ATOM     14  H3  UNL     1     -30.462 -17.587  23.323  1.00  0.00     0.165 HD
ENDBRANCH   3   4
BRANCH   3  15
HETATM   15  C5  UNL     1     -31.824 -16.665  21.214  1.00  0.00     0.170 A 
HETATM   16  N6  UNL     1     -33.008 -17.284  21.400  1.00  0.00    -0.171 N 
HETATM   17  C6  UNL     1     -34.154 -16.581  21.364  1.00  0.00     0.702 A 
ATOM     18  H6  UNL     1     -33.035 -18.289  21.568  1.00  0.00     0.186 HD
HETATM   19  N9  UNL     1     -34.177 -15.254  21.145  1.00  0.00    -0.140 N 
HETATM   20  C7  UNL     1     -33.012 -14.619  20.958  1.00  0.00     0.340 A 
ATOM     21  H9  UNL     1     -35.059 -14.743  21.123  1.00  0.00     0.189 HD
HETATM   22  O1  UNL     1     -33.001 -13.382  20.752  1.00  0.00    -0.246 OA
HETATM   23  N10 UNL     1     -31.873 -15.323  20.994  1.00  0.00    -0.290 N 
ATOM     24  H10 UNL     1     -30.994 -14.826  20.850  1.00  0.00     0.172 HD
BRANCH  17  25
HETATM   25  N7  UNL     1     -35.257 -17.252  21.552  1.00  0.00    -0.138 N 
ATOM     26  H7  UNL     1     -36.113 -16.785  21.853  1.00  0.00     0.205 HD
BRANCH  25  27
HETATM   27  N8  UNL     1     -35.225 -18.618  21.329  1.00  0.00    -0.331 N 
ATOM     28  H82 UNL     1     -34.714 -18.996  20.531  1.00  0.00     0.177 HD
ATOM     29  H81 UNL     1     -35.726 -19.217  21.985  1.00  0.00     0.177 HD
ENDBRANCH  25  27
ENDBRANCH  17  25
ENDBRANCH   3  15
BRANCH   1  30
HETATM   30  N1  UNL     1     -30.138 -16.931  18.958  1.00  0.00    -0.300 N 
HETATM   31  C2  UNL     1     -29.232 -16.910  18.042  1.00  0.00     0.068 C 
HETATM   32  C1  UNL     1     -29.601 -16.324  16.737  1.00  0.00     0.074 C 
ATOM     33  H1  UNL     1     -31.067 -16.553  18.774  1.00  0.00     0.186 HD
BRANCH  31  34
HETATM   34  C8  UNL     1     -27.893 -17.446  18.283  1.00  0.00     0.158 A 
HETATM   35  N11 UNL     1     -26.793 -17.157  17.567  1.00  0.00    -0.265 N 
HETATM   36  N12 UNL     1     -25.788 -17.844  18.105  1.00  0.00    -0.005 NA
ATOM     37  H11 UNL     1     -26.739 -16.530  16.764  1.00  0.00     0.186 HD
HETATM   38  N13 UNL     1     -26.234 -18.557  19.142  1.00  0.00    -0.225 N 
HETATM   39  N14 UNL     1     -27.515 -18.307  19.242  1.00  0.00    -0.270 N 
ATOM     40  H13 UNL     1     -25.684 -19.175  19.739  1.00  0.00     0.205 HD
ATOM     41  H14 UNL     1     -28.136 -18.708  19.945  1.00  0.00     0.190 HD
ENDBRANCH  31  34
ENDBRANCH   1  30
TORSDOF 6
ENDMDL
MODEL 5
REMARK VINA RESULT: -6.061928966      2.768      7.050
REMARK  6 active torsions:
REMARK  status: ('A' for Active; 'I' for Inactive)
REMARK    1  A    between atoms: C2_2  and  C8_34 
REMARK    2  A    between atoms: N1_3  and  N2_5 
REMARK    3  A    between atoms: C3_7  and  N3_8 
REMARK    4  A    between atoms: C3_7  and  C5_19 
REMARK       I    between atoms: N3_8  and  C4_10 
REMARK       I    between atoms: C4_10  and  N4_11 
REMARK       I    between atoms: C4_10  and  N5_15 
REMARK    5  A    between atoms: C6_22  and  N7_23 
REMARK    6  A    between atoms: N7_23  and  N8_25 
ROOT
HETATM    1  N2  UNL     1     -31.089 -16.315  18.958  1.00  0.00    -0.282 N 
ATOM      2  H2  UNL     1     -31.920 -15.838  18.611  1.00  0.00     0.188 HD
HETATM    3  C3  UNL     1     -30.194 -16.632  18.102  1.00  0.00     0.164 C 
ENDROOT
BRANCH   3   4
HETATM    4  N3  UNL     1     -30.393 -16.313  16.741  1.00  0.00    -0.323 N 
HETATM    5  C4  UNL     1     -29.334 -16.164  15.783  1.00  0.00     0.481 C 
HETATM    6  N4  UNL     1     -28.451 -15.098  16.214  1.00  0.00    -0.033 N 
HETATM    7  N5  UNL     1     -29.913 -15.836  14.500  1.00  0.00    -0.033 N 
ATOM      8  H43 UNL     1     -28.950 -14.224  16.379  1.00  0.00     0.278 HD
ATOM      9  H42 UNL     1     -28.100 -15.243  17.161  1.00  0.00     0.278 HD
ATOM     10  H41 UNL     1     -27.698 -14.991  15.534  1.00  0.00     0.278 HD
ATOM     11  H53 UNL     1     -30.615 -16.514  14.203  1.00  0.00     0.278 HD
ATOM     12  H52 UNL     1     -30.519 -15.016  14.543  1.00  0.00     0.278 HD
ATOM     13  H51 UNL     1     -29.160 -15.729  13.820  1.00  0.00     0.278 HD
ATOM     14  H3  UNL     1     -31.351 -16.181  16.417  1.00  0.00     0.165 HD
ENDBRANCH   3   4
BRANCH   3  15
HETATM   15  C5  UNL     1     -28.978 -17.313  18.509  1.00  0.00     0.170 A 
HETATM   16  N6  UNL     1     -28.935 -18.140  19.573  1.00  0.00    -0.171 N 
HETATM   17  C6  UNL     1     -27.786 -18.750  19.913  1.00  0.00     0.702 A 
ATOM     18  H6  UNL     1     -29.778 -18.304  20.124  1.00  0.00     0.186 HD
HETATM   19  N9  UNL     1     -26.645 -18.569  19.223  1.00  0.00    -0.140 N 
HETATM   20  C7  UNL     1     -26.665 -17.751  18.162  1.00  0.00     0.340 A 
ATOM     21  H9  UNL     1     -25.786 -19.043  19.500  1.00  0.00     0.189 HD
HETATM   22  O1  UNL     1     -25.618 -17.563  17.499  1.00  0.00    -0.246 OA
HETATM   23  N10 UNL     1     -27.813 -17.146  17.827  1.00  0.00    -0.290 N 
ATOM     24  H10 UNL     1     -27.813 -16.526  17.017  1.00  0.00     0.172 HD
BRANCH  17  25
HETATM   25  N7  UNL     1     -27.826 -19.534  20.954  1.00  0.00    -0.138 N 
ATOM     26  H7  UNL     1     -27.006 -20.067  21.246  1.00  0.00     0.205 HD
BRANCH  25  27
HETATM   27  N8  UNL     1     -29.020 -19.618  21.651  1.00  0.00    -0.331 N 
ATOM     28  H82 UNL     1     -29.909 -19.593  21.151  1.00  0.00     0.177 HD
ATOM     29  H81 UNL     1     -28.971 -19.704  22.666  1.00  0.00     0.177 HD
ENDBRANCH  25  27
ENDBRANCH  17  25
ENDBRANCH   3  15
BRANCH   1  30
HETATM   30  N1  UNL     1     -31.022 -16.567  20.318  1.00  0.00    -0.300 N 
HETATM   31  C2  UNL     1     -31.766 -15.887  21.119  1.00  0.00     0.068 C 
HETATM   32  C1  UNL     1     -31.661 -16.189  22.562  1.00  0.00     0.074 C 
ATOM     33  H1  UNL     1     -30.391 -17.282  20.680  1.00  0.00     0.186 HD
BRANCH  31  34
HETATM   34  C8  UNL     1     -32.678 -14.857  20.623  1.00  0.00     0.158 A 
HETATM   35  N11 UNL     1     -33.915 -15.072  20.144  1.00  0.00    -0.265 N 
HETATM   36  N12 UNL     1     -34.409 -13.885  19.800  1.00  0.00    -0.005 NA
ATOM     37  H11 UNL     1     -34.386 -15.973  20.060  1.00  0.00     0.186 HD
HETATM   38  N13 UNL     1     -33.509 -12.932  20.052  1.00  0.00    -0.225 N 
HETATM   39  N14 UNL     1     -32.460 -13.534  20.554  1.00  0.00    -0.270 N 
ATOM     40  H13 UNL     1     -33.618 -11.931  19.887  1.00  0.00     0.205 HD
ATOM     41  H14 UNL     1     -31.603 -13.067  20.848  1.00  0.00     0.190 HD
ENDBRANCH  31  34
ENDBRANCH   1  30
TORSDOF 6
ENDMDL
