MODEL 1
REMARK VINA RESULT: -6.878688705      0.000      0.000
REMARK  8 active torsions:
REMARK  status: ('A' for Active; 'I' for Inactive)
REMARK    1  A    between atoms: N1_1  and  C1_4 
REMARK    2  A    between atoms: C2_7  and  C3_8 
REMARK    3  A    between atoms: C3_8  and  N3_9 
REMARK    4  A    between atoms: C3_8  and  N4_13 
REMARK    5  A    between atoms: N4_13  and  C4_16 
REMARK    6  A    between atoms: C4_16  and  C5_17 
REMARK    7  A    between atoms: N7_22  and  C6_23 
REMARK    8  A    between atoms: C8_36  and  N14_37 
ROOT
HETATM    1  N4  UNL     1      68.017  70.476 280.764  1.00  0.00    -0.034 N 
ATOM      2  H41 UNL     1      68.183  70.453 279.757  1.00  0.00     0.280 HD
ATOM      3  H42 UNL     1      68.636  71.255 280.988  1.00  0.00     0.280 HD
ENDROOT
BRANCH   1   4
HETATM    4  C3  UNL     1      68.402  69.259 281.415  1.00  0.00     0.432 C 
BRANCH   4   5
HETATM    5  C2  UNL     1      69.448  68.500 280.733  1.00  0.00     0.112 A 
HETATM    6  N2  UNL     1      70.643  68.210 281.272  1.00  0.00    -0.190 N 
HETATM    7  C1  UNL     1      71.557  67.502 280.572  1.00  0.00     0.677 A 
ATOM      8  H2  UNL     1      70.864  68.528 282.216  1.00  0.00     0.184 HD
HETATM    9  N15 UNL     1      71.331  67.055 279.327  1.00  0.00    -0.175 N 
HETATM   10  C8  UNL     1      70.157  67.317 278.745  1.00  0.00     0.141 A 
ATOM     11  H15 UNL     1      72.046  66.523 278.832  1.00  0.00     0.186 HD
HETATM   12  C7  UNL     1      69.212  68.044 279.455  1.00  0.00     0.117 A 
HETATM   13  N13 UNL     1      67.975  68.310 278.820  1.00  0.00    -0.096 NA
BRANCH   7  14
HETATM   14  N1  UNL     1      72.707  67.224 281.092  1.00  0.00    -0.234 N 
ATOM     15  H12 UNL     1      72.702  66.730 281.985  1.00  0.00     0.174 HD
ATOM     16  H11 UNL     1      73.567  67.496 280.616  1.00  0.00     0.174 HD
ENDBRANCH   7  14
BRANCH  10  17
HETATM   17  N14 UNL     1      69.894  66.907 277.547  1.00  0.00    -0.383 N 
ATOM     18 2H14 UNL     1      69.113  66.278 277.361  1.00  0.00     0.157 HD
ATOM     19 1H14 UNL     1      70.471  67.212 276.763  1.00  0.00     0.157 HD
ENDBRANCH  10  17
ENDBRANCH   4   5
BRANCH   4  20
HETATM   20  N3  UNL     1      68.801  69.612 282.780  1.00  0.00    -0.044 N 
ATOM     21  H33 UNL     1      69.204  68.813 283.270  1.00  0.00     0.277 HD
ATOM     22  H32 UNL     1      69.615  70.228 282.785  1.00  0.00     0.277 HD
ATOM     23  H31 UNL     1      68.024  70.017 283.302  1.00  0.00     0.277 HD
ENDBRANCH   4  20
ENDBRANCH   1   4
BRANCH   1  24
HETATM   24  C4  UNL     1      66.638  70.746 281.096  1.00  0.00     0.314 C 
BRANCH  24  25
HETATM   25  C5  UNL     1      65.874  71.085 279.867  1.00  0.00     0.140 A 
HETATM   26  N5  UNL     1      64.591  71.478 279.764  1.00  0.00    -0.270 N 
HETATM   27  N6  UNL     1      64.314  71.677 278.469  1.00  0.00    -0.205 N 
ATOM     28  H5  UNL     1      63.941  71.602 280.540  1.00  0.00     0.190 HD
HETATM   29  N7  UNL     1      65.384  71.422 277.751  1.00  0.00    -0.001 N 
ATOM     30  H6  UNL     1      63.413  71.980 278.099  1.00  0.00     0.211 HD
HETATM   31  N12 UNL     1      66.338  71.061 278.604  1.00  0.00    -0.249 N 
ATOM     32  H12 UNL     1      67.287  70.801 278.338  1.00  0.00     0.191 HD
BRANCH  29  33
HETATM   33  C6  UNL     1      65.555  71.500 276.325  1.00  0.00     0.751 A 
HETATM   34  N8  UNL     1      66.568  71.975 275.615  1.00  0.00    -0.112 N 
HETATM   35  N9  UNL     1      66.255  71.827 274.327  1.00  0.00    -0.213 N 
ATOM     36  H8  UNL     1      67.429  72.379 275.985  1.00  0.00     0.207 HD
HETATM   37  N10 UNL     1      65.070  71.271 274.203  1.00  0.00    -0.213 N 
ATOM     38  H9  UNL     1      66.851  72.106 273.548  1.00  0.00     0.210 HD
HETATM   39  N11 UNL     1      64.641  71.070 275.437  1.00  0.00    -0.112 N 
ATOM     40  H10 UNL     1      64.584  71.042 273.335  1.00  0.00     0.210 HD
ATOM     41  H11 UNL     1      63.744  70.648 275.681  1.00  0.00     0.207 HD
ENDBRANCH  29  33
ENDBRANCH  24  25
ENDBRANCH   1  24
TORSDOF 8
ENDMDL
MODEL 2
REMARK VINA RESULT: -6.544348890      2.151      6.339
REMARK  8 active torsions:
REMARK  status: ('A' for Active; 'I' for Inactive)
REMARK    1  A    between atoms: N1_1  and  C1_4 
REMARK    2  A    between atoms: C2_7  and  C3_8 
REMARK    3  A    between atoms: C3_8  and  N3_9 
REMARK    4  A    between atoms: C3_8  and  N4_13 
REMARK    5  A    between atoms: N4_13  and  C4_16 
REMARK    6  A    between atoms: C4_16  and  C5_17 
REMARK    7  A    between atoms: N7_22  and  C6_23 
REMARK    8  A    between atoms: C8_36  and  N14_37 
ROOT
HETATM    1  N4  UNL     1      68.740  69.684 279.942  1.00  0.00    -0.034 N 
ATOM      2  H41 UNL     1      69.744  69.772 280.099  1.00  0.00     0.280 HD
ATOM      3  H42 UNL     1      68.708  70.101 279.012  1.00  0.00     0.280 HD
ENDROOT
BRANCH   1   4
HETATM    4  C3  UNL     1      67.964  70.412 280.901  1.00  0.00     0.432 C 
BRANCH   4   5
HETATM    5  C2  UNL     1      66.538  70.503 280.599  1.00  0.00     0.112 A 
HETATM    6  N2  UNL     1      65.565  70.038 281.399  1.00  0.00    -0.190 N 
HETATM    7  C1  UNL     1      64.267  70.162 281.043  1.00  0.00     0.677 A 
ATOM      8  H2  UNL     1      65.807  69.586 282.281  1.00  0.00     0.184 HD
HETATM    9  N15 UNL     1      63.880  70.744 279.898  1.00  0.00    -0.175 N 
HETATM   10  C8  UNL     1      64.809  71.223 279.066  1.00  0.00     0.141 A 
ATOM     11  H15 UNL     1      62.890  70.820 279.666  1.00  0.00     0.186 HD
HETATM   12  C7  UNL     1      66.145  71.101 279.422  1.00  0.00     0.117 A 
HETATM   13  N13 UNL     1      67.113  71.616 278.526  1.00  0.00    -0.096 NA
BRANCH   7  14
HETATM   14  N1  UNL     1      63.332  69.713 281.815  1.00  0.00    -0.234 N 
ATOM     15  H12 UNL     1      62.640  69.096 281.390  1.00  0.00     0.174 HD
ATOM     16  H11 UNL     1      63.307  69.977 282.800  1.00  0.00     0.174 HD
ENDBRANCH   7  14
BRANCH  10  17
HETATM   17  N14 UNL     1      64.484  71.793 277.951  1.00  0.00    -0.383 N 
ATOM     18 2H14 UNL     1      63.668  72.401 277.883  1.00  0.00     0.157 HD
ATOM     19 1H14 UNL     1      65.048  71.640 277.115  1.00  0.00     0.157 HD
ENDBRANCH  10  17
ENDBRANCH   4   5
BRANCH   4  20
HETATM   20  N3  UNL     1      68.195  69.783 282.205  1.00  0.00    -0.044 N 
ATOM     21  H33 UNL     1      69.179  69.549 282.338  1.00  0.00     0.277 HD
ATOM     22  H32 UNL     1      68.087  70.452 282.967  1.00  0.00     0.277 HD
ATOM     23  H31 UNL     1      67.596  68.967 282.336  1.00  0.00     0.277 HD
ENDBRANCH   4  20
ENDBRANCH   1   4
BRANCH   1  24
HETATM   24  C4  UNL     1      68.292  68.310 279.952  1.00  0.00     0.314 C 
BRANCH  24  25
HETATM   25  C5  UNL     1      69.027  67.527 278.925  1.00  0.00     0.140 A 
HETATM   26  N5  UNL     1      70.350  67.509 278.678  1.00  0.00    -0.270 N 
HETATM   27  N6  UNL     1      70.578  66.664 277.666  1.00  0.00    -0.205 N 
ATOM     28  H5  UNL     1      71.058  68.048 279.177  1.00  0.00     0.190 HD
HETATM   29  N7  UNL     1      69.439  66.147 277.265  1.00  0.00    -0.001 N 
ATOM     30  H6  UNL     1      71.494  66.454 277.267  1.00  0.00     0.211 HD
HETATM   31  N12 UNL     1      68.491  66.673 278.034  1.00  0.00    -0.249 N 
ATOM     32  H12 UNL     1      67.496  66.460 277.959  1.00  0.00     0.191 HD
BRANCH  29  33
HETATM   33  C6  UNL     1      69.198  65.196 276.212  1.00  0.00     0.751 A 
HETATM   34  N8  UNL     1      69.806  64.049 275.948  1.00  0.00    -0.112 N 
HETATM   35  N9  UNL     1      69.221  63.530 274.867  1.00  0.00    -0.213 N 
ATOM     36  H8  UNL     1      70.577  63.637 276.474  1.00  0.00     0.207 HD
HETATM   37  N10 UNL     1      68.261  64.319 274.440  1.00  0.00    -0.213 N 
ATOM     38  H9  UNL     1      69.484  62.645 274.432  1.00  0.00     0.210 HD
HETATM   39  N11 UNL     1      68.248  65.346 275.272  1.00  0.00    -0.112 N 
ATOM     40  H10 UNL     1      67.653  64.170 273.634  1.00  0.00     0.210 HD
ATOM     41  H11 UNL     1      67.609  66.139 275.210  1.00  0.00     0.207 HD
ENDBRANCH  29  33
ENDBRANCH  24  25
ENDBRANCH   1  24
TORSDOF 8
ENDMDL
MODEL 3
REMARK VINA RESULT: -6.138946859      0.837      2.185
REMARK  8 active torsions:
REMARK  status: ('A' for Active; 'I' for Inactive)
REMARK    1  A    between atoms: N1_1  and  C1_4 
REMARK    2  A    between atoms: C2_7  and  C3_8 
REMARK    3  A    between atoms: C3_8  and  N3_9 
REMARK    4  A    between atoms: C3_8  and  N4_13 
REMARK    5  A    between atoms: N4_13  and  C4_16 
REMARK    6  A    between atoms: C4_16  and  C5_17 
REMARK    7  A    between atoms: N7_22  and  C6_23 
REMARK    8  A    between atoms: C8_36  and  N14_37 
ROOT
HETATM    1  N4  UNL     1      66.716  69.210 280.402  1.00  0.00    -0.034 N 
ATOM      2  H41 UNL     1      66.401  68.277 280.670  1.00  0.00     0.280 HD
ATOM      3  H42 UNL     1      66.765  69.055 279.395  1.00  0.00     0.280 HD
ENDROOT
BRANCH   1   4
HETATM    4  C3  UNL     1      67.986  69.548 280.972  1.00  0.00     0.432 C 
BRANCH   4   5
HETATM    5  C2  UNL     1      69.099  68.705 280.541  1.00  0.00     0.112 A 
HETATM    6  N2  UNL     1      69.255  68.241 279.291  1.00  0.00    -0.190 N 
HETATM    7  C1  UNL     1      70.315  67.464 278.976  1.00  0.00     0.677 A 
ATOM      8  H2  UNL     1      68.568  68.475 278.574  1.00  0.00     0.184 HD
HETATM    9  N15 UNL     1      71.254  67.119 279.869  1.00  0.00    -0.175 N 
HETATM   10  C8  UNL     1      71.145  67.555 281.128  1.00  0.00     0.141 A 
ATOM     11  H15 UNL     1      72.040  66.532 279.592  1.00  0.00     0.186 HD
HETATM   12  C7  UNL     1      70.061  68.353 281.462  1.00  0.00     0.117 A 
HETATM   13  N13 UNL     1      69.964  68.804 282.801  1.00  0.00    -0.096 NA
BRANCH   7  14
HETATM   14  N1  UNL     1      70.463  67.018 277.771  1.00  0.00    -0.234 N 
ATOM     15  H12 UNL     1      71.404  66.739 277.496  1.00  0.00     0.174 HD
ATOM     16  H11 UNL     1      69.661  66.957 277.143  1.00  0.00     0.174 HD
ENDBRANCH   7  14
BRANCH  10  17
HETATM   17  N14 UNL     1      72.026  67.248 282.024  1.00  0.00    -0.383 N 
ATOM     18 2H14 UNL     1      71.757  67.056 282.989  1.00  0.00     0.157 HD
ATOM     19 1H14 UNL     1      73.013  67.193 281.774  1.00  0.00     0.157 HD
ENDBRANCH  10  17
ENDBRANCH   4   5
BRANCH   4  20
HETATM   20  N3  UNL     1      68.233  70.960 280.660  1.00  0.00    -0.044 N 
ATOM     21  H33 UNL     1      68.658  71.447 281.448  1.00  0.00     0.277 HD
ATOM     22  H32 UNL     1      68.987  71.066 279.982  1.00  0.00     0.277 HD
ATOM     23  H31 UNL     1      67.381  71.426 280.348  1.00  0.00     0.277 HD
ENDBRANCH   4  20
ENDBRANCH   1   4
BRANCH   1  24
HETATM   24  C4  UNL     1      65.773  70.242 280.762  1.00  0.00     0.314 C 
BRANCH  24  25
HETATM   25  C5  UNL     1      65.248  70.903 279.539  1.00  0.00     0.140 A 
HETATM   26  N5  UNL     1      64.246  71.796 279.437  1.00  0.00    -0.270 N 
HETATM   27  N6  UNL     1      64.108  72.129 278.148  1.00  0.00    -0.205 N 
ATOM     28  H5  UNL     1      63.687  72.156 280.211  1.00  0.00     0.190 HD
HETATM   29  N7  UNL     1      64.993  71.474 277.432  1.00  0.00    -0.001 N 
ATOM     30  H6  UNL     1      63.423  72.789 277.780  1.00  0.00     0.211 HD
HETATM   31  N12 UNL     1      65.690  70.725 278.281  1.00  0.00    -0.249 N 
ATOM     32  H12 UNL     1      66.453  70.102 278.015  1.00  0.00     0.191 HD
BRANCH  29  33
HETATM   33  C6  UNL     1      65.215  71.515 276.011  1.00  0.00     0.751 A 
HETATM   34  N8  UNL     1      64.434  71.121 275.016  1.00  0.00    -0.112 N 
HETATM   35  N9  UNL     1      65.085  71.366 273.878  1.00  0.00    -0.213 N 
ATOM     36  H8  UNL     1      63.505  70.708 275.104  1.00  0.00     0.207 HD
HETATM   37  N10 UNL     1      66.259  71.903 274.127  1.00  0.00    -0.213 N 
ATOM     38  H9  UNL     1      64.723  71.164 272.946  1.00  0.00     0.210 HD
HETATM   39  N11 UNL     1      66.337  71.994 275.443  1.00  0.00    -0.112 N 
ATOM     40  H10 UNL     1      66.963  72.189 273.445  1.00  0.00     0.210 HD
ATOM     41  H11 UNL     1      67.133  72.374 275.955  1.00  0.00     0.207 HD
ENDBRANCH  29  33
ENDBRANCH  24  25
ENDBRANCH   1  24
TORSDOF 8
ENDMDL
MODEL 4
REMARK VINA RESULT: -6.059698419      0.595      1.953
REMARK  8 active torsions:
REMARK  status: ('A' for Active; 'I' for Inactive)
REMARK    1  A    between atoms: N1_1  and  C1_4 
REMARK    2  A    between atoms: C2_7  and  C3_8 
REMARK    3  A    between atoms: C3_8  and  N3_9 
REMARK    4  A    between atoms: C3_8  and  N4_13 
REMARK    5  A    between atoms: N4_13  and  C4_16 
REMARK    6  A    between atoms: C4_16  and  C5_17 
REMARK    7  A    between atoms: N7_22  and  C6_23 
REMARK    8  A    between atoms: C8_36  and  N14_37 
ROOT
HETATM    1  N4  UNL     1      68.292  70.218 280.478  1.00  0.00    -0.034 N 
ATOM      2  H41 UNL     1      68.387  70.312 279.466  1.00  0.00     0.280 HD
ATOM      3  H42 UNL     1      69.015  70.886 280.746  1.00  0.00     0.280 HD
ENDROOT
BRANCH   1   4
HETATM    4  C3  UNL     1      68.567  68.890 280.938  1.00  0.00     0.432 C 
BRANCH   4   5
HETATM    5  C2  UNL     1      69.541  68.151 280.139  1.00  0.00     0.112 A 
HETATM    6  N2  UNL     1      69.313  67.706 278.892  1.00  0.00    -0.190 N 
HETATM    7  C1  UNL     1      70.270  67.027 278.221  1.00  0.00     0.677 A 
ATOM      8  H2  UNL     1      68.411  67.880 278.449  1.00  0.00     0.184 HD
HETATM    9  N15 UNL     1      71.476  66.764 278.745  1.00  0.00    -0.175 N 
HETATM   10  C8  UNL     1      71.754  67.185 279.982  1.00  0.00     0.141 A 
ATOM     11  H15 UNL     1      72.173  66.250 278.206  1.00  0.00     0.186 HD
HETATM   12  C7  UNL     1      70.778  67.882 280.680  1.00  0.00     0.117 A 
HETATM   13  N13 UNL     1      71.093  68.319 281.990  1.00  0.00    -0.096 NA
BRANCH   7  14
HETATM   14  N1  UNL     1      70.048  66.600 277.021  1.00  0.00    -0.234 N 
ATOM     15  H12 UNL     1      69.085  66.354 276.791  1.00  0.00     0.174 HD
ATOM     16  H11 UNL     1      70.815  66.520 276.353  1.00  0.00     0.174 HD
ENDBRANCH   7  14
BRANCH  10  17
HETATM   17  N14 UNL     1      72.903  66.955 280.529  1.00  0.00    -0.383 N 
ATOM     18 2H14 UNL     1      73.132  67.315 281.456  1.00  0.00     0.157 HD
ATOM     19 1H14 UNL     1      73.604  66.403 280.034  1.00  0.00     0.157 HD
ENDBRANCH  10  17
ENDBRANCH   4   5
BRANCH   4  20
HETATM   20  N3  UNL     1      68.996  69.002 282.335  1.00  0.00    -0.044 N 
ATOM     21  H33 UNL     1      69.086  68.085 282.772  1.00  0.00     0.277 HD
ATOM     22  H32 UNL     1      69.967  69.307 282.405  1.00  0.00     0.277 HD
ATOM     23  H31 UNL     1      68.374  69.610 282.868  1.00  0.00     0.277 HD
ENDBRANCH   4  20
ENDBRANCH   1   4
BRANCH   1  24
HETATM   24  C4  UNL     1      66.981  70.596 280.952  1.00  0.00     0.314 C 
BRANCH  24  25
HETATM   25  C5  UNL     1      66.123  71.006 279.809  1.00  0.00     0.140 A 
HETATM   26  N5  UNL     1      64.871  71.497 279.841  1.00  0.00    -0.270 N 
HETATM   27  N6  UNL     1      64.479  71.731 278.582  1.00  0.00    -0.205 N 
ATOM     28  H5  UNL     1      64.315  71.662 280.680  1.00  0.00     0.190 HD
HETATM   29  N7  UNL     1      65.446  71.403 277.757  1.00  0.00    -0.001 N 
ATOM     30  H6  UNL     1      63.570  72.105 278.308  1.00  0.00     0.211 HD
HETATM   31  N12 UNL     1      66.452  70.960 278.505  1.00  0.00    -0.249 N 
ATOM     32  H12 UNL     1      67.346  70.631 278.142  1.00  0.00     0.191 HD
BRANCH  29  33
HETATM   33  C6  UNL     1      65.475  71.483 276.320  1.00  0.00     0.751 A 
HETATM   34  N8  UNL     1      66.383  72.018 275.518  1.00  0.00    -0.112 N 
HETATM   35  N9  UNL     1      65.959  71.842 274.265  1.00  0.00    -0.213 N 
ATOM     36  H8  UNL     1      67.247  72.479 275.804  1.00  0.00     0.207 HD
HETATM   37  N10 UNL     1      64.806  71.210 274.255  1.00  0.00    -0.213 N 
ATOM     38  H9  UNL     1      66.459  72.154 273.433  1.00  0.00     0.210 HD
HETATM   39  N11 UNL     1      64.510  70.989 275.524  1.00  0.00    -0.112 N 
ATOM     40  H10 UNL     1      64.255  70.946 273.437  1.00  0.00     0.210 HD
ATOM     41  H11 UNL     1      63.670  70.513 275.853  1.00  0.00     0.207 HD
ENDBRANCH  29  33
ENDBRANCH  24  25
ENDBRANCH   1  24
TORSDOF 8
ENDMDL
MODEL 5
REMARK VINA RESULT: -5.712558434      1.984      6.681
REMARK  8 active torsions:
REMARK  status: ('A' for Active; 'I' for Inactive)
REMARK    1  A    between atoms: N1_1  and  C1_4 
REMARK    2  A    between atoms: C2_7  and  C3_8 
REMARK    3  A    between atoms: C3_8  and  N3_9 
REMARK    4  A    between atoms: C3_8  and  N4_13 
REMARK    5  A    between atoms: N4_13  and  C4_16 
REMARK    6  A    between atoms: C4_16  and  C5_17 
REMARK    7  A    between atoms: N7_22  and  C6_23 
REMARK    8  A    between atoms: C8_36  and  N14_37 
ROOT
HETATM    1  N4  UNL     1      67.623  68.784 279.893  1.00  0.00    -0.034 N 
ATOM      2  H41 UNL     1      67.164  68.200 279.194  1.00  0.00     0.280 HD
ATOM      3  H42 UNL     1      66.944  68.657 280.645  1.00  0.00     0.280 HD
ENDROOT
BRANCH   1   4
HETATM    4  C3  UNL     1      67.741  70.150 279.481  1.00  0.00     0.432 C 
BRANCH   4   5
HETATM    5  C2  UNL     1      66.531  70.726 278.899  1.00  0.00     0.112 A 
HETATM    6  N2  UNL     1      66.447  71.199 277.645  1.00  0.00    -0.190 N 
HETATM    7  C1  UNL     1      65.287  71.717 277.184  1.00  0.00     0.677 A 
ATOM      8  H2  UNL     1      67.265  71.169 277.037  1.00  0.00     0.184 HD
HETATM    9  N15 UNL     1      64.176  71.787 277.932  1.00  0.00    -0.175 N 
HETATM   10  C8  UNL     1      64.206  71.330 279.186  1.00  0.00     0.141 A 
ATOM     11  H15 UNL     1      63.318  72.184 277.547  1.00  0.00     0.186 HD
HETATM   12  C7  UNL     1      65.392  70.796 279.670  1.00  0.00     0.117 A 
HETATM   13  N13 UNL     1      65.402  70.317 281.002  1.00  0.00    -0.096 NA
BRANCH   7  14
HETATM   14  N1  UNL     1      65.209  72.173 275.977  1.00  0.00    -0.234 N 
ATOM     15  H12 UNL     1      64.551  72.934 275.813  1.00  0.00     0.174 HD
ATOM     16  H11 UNL     1      65.789  71.774 275.238  1.00  0.00     0.174 HD
ENDBRANCH   7  14
BRANCH  10  17
HETATM   17  N14 UNL     1      63.159  71.376 279.945  1.00  0.00    -0.383 N 
ATOM     18 2H14 UNL     1      62.360  70.762 279.785  1.00  0.00     0.157 HD
ATOM     19 1H14 UNL     1      63.119  72.034 280.723  1.00  0.00     0.157 HD
ENDBRANCH  10  17
ENDBRANCH   4   5
BRANCH   4  20
HETATM   20  N3  UNL     1      68.188  70.913 280.650  1.00  0.00    -0.044 N 
ATOM     21  H33 UNL     1      69.168  70.729 280.864  1.00  0.00     0.277 HD
ATOM     22  H32 UNL     1      68.256  71.910 280.442  1.00  0.00     0.277 HD
ATOM     23  H31 UNL     1      67.590  70.740 281.458  1.00  0.00     0.277 HD
ENDBRANCH   4  20
ENDBRANCH   1   4
BRANCH   1  24
HETATM   24  C4  UNL     1      68.939  68.304 280.244  1.00  0.00     0.314 C 
BRANCH  24  25
HETATM   25  C5  UNL     1      69.519  67.534 279.112  1.00  0.00     0.140 A 
HETATM   26  N5  UNL     1      70.808  67.449 278.736  1.00  0.00    -0.270 N 
HETATM   27  N6  UNL     1      70.883  66.647 277.667  1.00  0.00    -0.205 N 
ATOM     28  H5  UNL     1      71.595  67.916 279.189  1.00  0.00     0.190 HD
HETATM   29  N7  UNL     1      69.679  66.224 277.356  1.00  0.00    -0.001 N 
ATOM     30  H6  UNL     1      71.740  66.404 277.171  1.00  0.00     0.211 HD
HETATM   31  N12 UNL     1      68.845  66.765 278.239  1.00  0.00    -0.249 N 
ATOM     32  H12 UNL     1      67.836  66.617 278.252  1.00  0.00     0.191 HD
BRANCH  29  33
HETATM   33  C6  UNL     1      69.276  65.348 276.288  1.00  0.00     0.751 A 
HETATM   34  N8  UNL     1      68.265  65.452 275.438  1.00  0.00    -0.112 N 
HETATM   35  N9  UNL     1      68.310  64.388 274.635  1.00  0.00    -0.213 N 
ATOM     36  H8  UNL     1      67.580  66.207 275.404  1.00  0.00     0.207 HD
HETATM   37  N10 UNL     1      69.322  63.613 274.954  1.00  0.00    -0.213 N 
ATOM     38  H9  UNL     1      67.650  64.203 273.879  1.00  0.00     0.210 HD
HETATM   39  N11 UNL     1      69.917  64.207 275.974  1.00  0.00    -0.112 N 
ATOM     40  H10 UNL     1      69.592  62.736 274.508  1.00  0.00     0.210 HD
ATOM     41  H11 UNL     1      70.744  63.852 276.454  1.00  0.00     0.207 HD
ENDBRANCH  29  33
ENDBRANCH  24  25
ENDBRANCH   1  24
TORSDOF 8
ENDMDL
