MODEL 1
REMARK VINA RESULT: -6.062222648      0.000      0.000
REMARK  13 active torsions:
REMARK  status: ('A' for Active; 'I' for Inactive)
REMARK    1  A    between atoms: N1_2  and  C3_4 
REMARK    2  A    between atoms: N1_2  and  C10_23 
REMARK    3  A    between atoms: C3_4  and  C4_5 
REMARK    4  A    between atoms: C4_5  and  C5_6 
REMARK    5  A    between atoms: C5_6  and  N2_7 
REMARK    6  A    between atoms: C8_15  and  N5_16 
REMARK    7  A    between atoms: C9_20  and  O2_21 
REMARK    8  A    between atoms: C10_23  and  C11_24 
REMARK    9  A    between atoms: C11_24  and  N6_25 
REMARK   10  A    between atoms: N6_25  and  C12_28 
REMARK   11  A    between atoms: C12_28  and  C13_29 
REMARK   12  A    between atoms: C13_29  and  C14_30 
REMARK   13  A    between atoms: C14_30  and  N7_31 
ROOT
HETATM    1  C4  UNL     1      10.637  22.853  19.560  1.00  0.00     0.058 C 
ENDROOT
BRANCH   1   2
HETATM    2  C3  UNL     1      11.637  21.872  19.084  1.00  0.00     0.238 C 
BRANCH   2   3
HETATM    3  N1  UNL     1      13.008  22.216  19.097  1.00  0.00    -0.073 N 
HETATM    4  C1  UNL     1      13.617  22.265  17.780  1.00  0.00     0.272 C 
HETATM    5  C2  UNL     1      13.105  23.598  19.619  1.00  0.00     0.272 C 
BRANCH   3   6
HETATM    6  C10 UNL     1      13.855  21.373  19.923  1.00  0.00     0.264 C 
BRANCH   6   7
HETATM    7  C11 UNL     1      13.156  20.463  20.859  1.00  0.00     0.260 C 
BRANCH   7   8
HETATM    8  N6  UNL     1      13.721  20.598  22.184  1.00  0.00    -0.073 N 
ATOM      9  H62 UNL     1      13.113  21.150  22.789  1.00  0.00     0.277 HD
ATOM     10  H61 UNL     1      13.692  19.712  22.688  1.00  0.00     0.277 HD
BRANCH   8  11
HETATM   11  C12 UNL     1      15.039  21.130  22.159  1.00  0.00     0.234 C 
BRANCH  11  12
HETATM   12  C13 UNL     1      15.400  21.862  23.441  1.00  0.00     0.055 C 
BRANCH  12  13
HETATM   13  C14 UNL     1      14.224  22.610  24.002  1.00  0.00     0.231 C 
BRANCH  13  14
HETATM   14  N7  UNL     1      14.461  24.048  23.825  1.00  0.00    -0.079 N 
ATOM     15  H73 UNL     1      15.040  24.444  24.566  1.00  0.00     0.274 HD
ATOM     16  H72 UNL     1      15.081  24.250  23.041  1.00  0.00     0.274 HD
ATOM     17  H71 UNL     1      13.559  24.516  23.741  1.00  0.00     0.274 HD
ENDBRANCH  13  14
ENDBRANCH  12  13
ENDBRANCH  11  12
ENDBRANCH   8  11
ENDBRANCH   7   8
ENDBRANCH   6   7
ENDBRANCH   3   6
ENDBRANCH   2   3
ENDBRANCH   1   2
BRANCH   1  18
HETATM   18  C5  UNL     1       9.472  23.083  18.634  1.00  0.00     0.273 C 
BRANCH  18  19
HETATM   19  N2  UNL     1       8.711  24.177  19.209  1.00  0.00     0.068 N 
HETATM   20  N3  UNL     1       7.681  23.762  20.032  1.00  0.00    -0.162 N 
HETATM   21  C6  UNL     1       6.499  23.641  19.223  1.00  0.00     0.342 C 
ATOM     22  H3  UNL     1       7.749  23.575  21.032  1.00  0.00     0.199 HD
HETATM   23  O1  UNL     1       5.502  22.893  19.407  1.00  0.00    -0.246 OA
HETATM   24  N4  UNL     1       6.689  24.563  18.145  1.00  0.00    -0.309 N 
HETATM   25  C7  UNL     1       8.045  25.033  18.248  1.00  0.00     0.356 C 
ATOM     26  H4  UNL     1       6.000  24.832  17.443  1.00  0.00     0.166 HD
HETATM   27  C8  UNL     1       8.245  26.167  19.253  1.00  0.00     0.295 C 
HETATM   28  C9  UNL     1       9.467  25.317  19.637  1.00  0.00     0.386 C 
BRANCH  27  29
HETATM   29  N5  UNL     1       8.547  27.441  18.691  1.00  0.00    -0.067 N 
ATOM     30  H53 UNL     1       9.403  27.810  19.104  1.00  0.00     0.275 HD
ATOM     31  H52 UNL     1       8.846  27.332  17.722  1.00  0.00     0.275 HD
ATOM     32  H51 UNL     1       7.803  28.136  18.750  1.00  0.00     0.275 HD
ENDBRANCH  27  29
BRANCH  28  33
HETATM   33  O2  UNL     1       9.783  25.350  20.978  1.00  0.00    -0.366 OA
ATOM     34  H2  UNL     1       9.400  26.068  21.470  1.00  0.00     0.212 HD
ENDBRANCH  28  33
ENDBRANCH  18  19
ENDBRANCH   1  18
TORSDOF 13
ENDMDL
MODEL 2
REMARK VINA RESULT: -5.953697534      1.622      2.017
REMARK  13 active torsions:
REMARK  status: ('A' for Active; 'I' for Inactive)
REMARK    1  A    between atoms: N1_2  and  C3_4 
REMARK    2  A    between atoms: N1_2  and  C10_23 
REMARK    3  A    between atoms: C3_4  and  C4_5 
REMARK    4  A    between atoms: C4_5  and  C5_6 
REMARK    5  A    between atoms: C5_6  and  N2_7 
REMARK    6  A    between atoms: C8_15  and  N5_16 
REMARK    7  A    between atoms: C9_20  and  O2_21 
REMARK    8  A    between atoms: C10_23  and  C11_24 
REMARK    9  A    between atoms: C11_24  and  N6_25 
REMARK   10  A    between atoms: N6_25  and  C12_28 
REMARK   11  A    between atoms: C12_28  and  C13_29 
REMARK   12  A    between atoms: C13_29  and  C14_30 
REMARK   13  A    between atoms: C14_30  and  N7_31 
ROOT
HETATM    1  C4  UNL     1      10.996  22.899  19.501  1.00  0.00     0.058 C 
ENDROOT
BRANCH   1   2
HETATM    2  C3  UNL     1      12.333  23.201  18.945  1.00  0.00     0.238 C 
BRANCH   2   3
HETATM    3  N1  UNL     1      13.206  22.137  18.619  1.00  0.00    -0.073 N 
HETATM    4  C1  UNL     1      12.527  20.924  18.201  1.00  0.00     0.272 C 
HETATM    5  C2  UNL     1      13.992  22.565  17.440  1.00  0.00     0.272 C 
BRANCH   3   6
HETATM    6  C10 UNL     1      14.145  21.760  19.661  1.00  0.00     0.264 C 
BRANCH   6   7
HETATM    7  C11 UNL     1      13.699  20.692  20.586  1.00  0.00     0.260 C 
BRANCH   7   8
HETATM    8  N6  UNL     1      14.722  20.451  21.581  1.00  0.00    -0.073 N 
ATOM      9  H62 UNL     1      15.082  19.499  21.513  1.00  0.00     0.277 HD
ATOM     10  H61 UNL     1      15.575  20.964  21.363  1.00  0.00     0.277 HD
BRANCH   8  11
HETATM   11  C12 UNL     1      14.274  20.737  22.899  1.00  0.00     0.234 C 
BRANCH  11  12
HETATM   12  C13 UNL     1      15.184  21.710  23.629  1.00  0.00     0.055 C 
BRANCH  12  13
HETATM   13  C14 UNL     1      14.733  23.132  23.448  1.00  0.00     0.231 C 
BRANCH  13  14
HETATM   14  N7  UNL     1      13.699  23.422  24.449  1.00  0.00    -0.079 N 
ATOM     15  H73 UNL     1      13.168  24.265  24.231  1.00  0.00     0.274 HD
ATOM     16  H72 UNL     1      12.925  22.758  24.418  1.00  0.00     0.274 HD
ATOM     17  H71 UNL     1      14.142  23.465  25.367  1.00  0.00     0.274 HD
ENDBRANCH  13  14
ENDBRANCH  12  13
ENDBRANCH  11  12
ENDBRANCH   8  11
ENDBRANCH   7   8
ENDBRANCH   6   7
ENDBRANCH   3   6
ENDBRANCH   2   3
ENDBRANCH   1   2
BRANCH   1  18
HETATM   18  C5  UNL     1       9.832  23.361  18.664  1.00  0.00     0.273 C 
BRANCH  18  19
HETATM   19  N2  UNL     1       9.215  24.450  19.399  1.00  0.00     0.068 N 
HETATM   20  N3  UNL     1       9.807  24.696  20.623  1.00  0.00    -0.162 N 
HETATM   21  C6  UNL     1       9.113  23.915  21.609  1.00  0.00     0.342 C 
ATOM     22  H3  UNL     1      10.595  25.321  20.794  1.00  0.00     0.199 HD
HETATM   23  O1  UNL     1       9.554  23.469  22.702  1.00  0.00    -0.246 OA
HETATM   24  N4  UNL     1       7.792  23.742  21.085  1.00  0.00    -0.309 N 
HETATM   25  C7  UNL     1       7.820  24.247  19.738  1.00  0.00     0.356 C 
ATOM     26  H4  UNL     1       6.990  23.341  21.571  1.00  0.00     0.166 HD
HETATM   27  C8  UNL     1       7.666  25.764  19.630  1.00  0.00     0.295 C 
HETATM   28  C9  UNL     1       8.817  25.589  18.626  1.00  0.00     0.386 C 
BRANCH  27  29
HETATM   29  N5  UNL     1       6.438  26.218  19.068  1.00  0.00    -0.067 N 
ATOM     30  H53 UNL     1       5.662  25.665  19.432  1.00  0.00     0.275 HD
ATOM     31  H52 UNL     1       6.200  27.135  19.446  1.00  0.00     0.275 HD
ATOM     32  H51 UNL     1       6.402  26.242  18.049  1.00  0.00     0.275 HD
ENDBRANCH  27  29
BRANCH  28  33
HETATM   33  O2  UNL     1       9.716  26.634  18.605  1.00  0.00    -0.366 OA
ATOM     34  H2  UNL     1       9.566  27.289  17.933  1.00  0.00     0.212 HD
ENDBRANCH  28  33
ENDBRANCH  18  19
ENDBRANCH   1  18
TORSDOF 13
ENDMDL
MODEL 3
REMARK VINA RESULT: -5.890464342      1.449      2.545
REMARK  13 active torsions:
REMARK  status: ('A' for Active; 'I' for Inactive)
REMARK    1  A    between atoms: N1_2  and  C3_4 
REMARK    2  A    between atoms: N1_2  and  C10_23 
REMARK    3  A    between atoms: C3_4  and  C4_5 
REMARK    4  A    between atoms: C4_5  and  C5_6 
REMARK    5  A    between atoms: C5_6  and  N2_7 
REMARK    6  A    between atoms: C8_15  and  N5_16 
REMARK    7  A    between atoms: C9_20  and  O2_21 
REMARK    8  A    between atoms: C10_23  and  C11_24 
REMARK    9  A    between atoms: C11_24  and  N6_25 
REMARK   10  A    between atoms: N6_25  and  C12_28 
REMARK   11  A    between atoms: C12_28  and  C13_29 
REMARK   12  A    between atoms: C13_29  and  C14_30 
REMARK   13  A    between atoms: C14_30  and  N7_31 
ROOT
HETATM    1  C4  UNL     1      10.861  23.068  19.173  1.00  0.00     0.058 C 
ENDROOT
BRANCH   1   2
HETATM    2  C3  UNL     1      12.335  23.174  19.227  1.00  0.00     0.238 C 
BRANCH   2   3
HETATM    3  N1  UNL     1      13.127  22.130  18.693  1.00  0.00    -0.073 N 
HETATM    4  C1  UNL     1      12.357  21.024  18.152  1.00  0.00     0.272 C 
HETATM    5  C2  UNL     1      13.864  22.689  17.539  1.00  0.00     0.272 C 
BRANCH   3   6
HETATM    6  C10 UNL     1      14.103  21.560  19.606  1.00  0.00     0.264 C 
BRANCH   6   7
HETATM    7  C11 UNL     1      13.563  20.724  20.702  1.00  0.00     0.260 C 
BRANCH   7   8
HETATM    8  N6  UNL     1      14.615  20.421  21.648  1.00  0.00    -0.073 N 
ATOM      9  H62 UNL     1      14.850  19.429  21.630  1.00  0.00     0.277 HD
ATOM     10  H61 UNL     1      15.507  20.806  21.341  1.00  0.00     0.277 HD
BRANCH   8  11
HETATM   11  C12 UNL     1      14.298  20.849  22.966  1.00  0.00     0.234 C 
BRANCH  11  12
HETATM   12  C13 UNL     1      15.281  21.875  23.501  1.00  0.00     0.055 C 
BRANCH  12  13
HETATM   13  C14 UNL     1      14.708  23.264  23.463  1.00  0.00     0.231 C 
BRANCH  13  14
HETATM   14  N7  UNL     1      13.640  23.353  24.466  1.00  0.00    -0.079 N 
ATOM     15  H73 UNL     1      12.931  24.046  24.224  1.00  0.00     0.274 HD
ATOM     16  H72 UNL     1      13.035  22.531  24.469  1.00  0.00     0.274 HD
ATOM     17  H71 UNL     1      14.065  23.529  25.376  1.00  0.00     0.274 HD
ENDBRANCH  13  14
ENDBRANCH  12  13
ENDBRANCH  11  12
ENDBRANCH   8  11
ENDBRANCH   7   8
ENDBRANCH   6   7
ENDBRANCH   3   6
ENDBRANCH   2   3
ENDBRANCH   1   2
BRANCH   1  18
HETATM   18  C5  UNL     1      10.114  24.056  20.030  1.00  0.00     0.273 C 
BRANCH  18  19
HETATM   19  N2  UNL     1       8.950  24.457  19.261  1.00  0.00     0.068 N 
HETATM   20  N3  UNL     1       9.241  25.341  18.239  1.00  0.00    -0.162 N 
HETATM   21  C6  UNL     1       9.095  26.673  18.761  1.00  0.00     0.342 C 
ATOM     22  H3  UNL     1       9.510  25.093  17.287  1.00  0.00     0.199 HD
HETATM   23  O1  UNL     1       9.671  27.727  18.380  1.00  0.00    -0.246 OA
HETATM   24  N4  UNL     1       8.143  26.555  19.823  1.00  0.00    -0.309 N 
HETATM   25  C7  UNL     1       7.923  25.146  20.016  1.00  0.00     0.356 C 
ATOM     26  H4  UNL     1       7.707  27.318  20.341  1.00  0.00     0.166 HD
HETATM   27  C8  UNL     1       6.919  24.525  19.046  1.00  0.00     0.295 C 
HETATM   28  C9  UNL     1       7.993  23.428  18.978  1.00  0.00     0.386 C 
BRANCH  27  29
HETATM   29  N5  UNL     1       5.678  24.122  19.619  1.00  0.00    -0.067 N 
ATOM     30  H53 UNL     1       5.765  23.186  20.015  1.00  0.00     0.275 HD
ATOM     31  H52 UNL     1       5.494  24.661  20.465  1.00  0.00     0.275 HD
ATOM     32  H51 UNL     1       4.871  24.164  18.997  1.00  0.00     0.275 HD
ENDBRANCH  27  29
BRANCH  28  33
HETATM   33  O2  UNL     1       8.115  22.827  17.744  1.00  0.00    -0.366 OA
ATOM     34  H2  UNL     1       9.005  22.687  17.443  1.00  0.00     0.212 HD
ENDBRANCH  28  33
ENDBRANCH  18  19
ENDBRANCH   1  18
TORSDOF 13
ENDMDL
MODEL 4
REMARK VINA RESULT: -5.838333744      3.566      7.506
REMARK  13 active torsions:
REMARK  status: ('A' for Active; 'I' for Inactive)
REMARK    1  A    between atoms: N1_2  and  C3_4 
REMARK    2  A    between atoms: N1_2  and  C10_23 
REMARK    3  A    between atoms: C3_4  and  C4_5 
REMARK    4  A    between atoms: C4_5  and  C5_6 
REMARK    5  A    between atoms: C5_6  and  N2_7 
REMARK    6  A    between atoms: C8_15  and  N5_16 
REMARK    7  A    between atoms: C9_20  and  O2_21 
REMARK    8  A    between atoms: C10_23  and  C11_24 
REMARK    9  A    between atoms: C11_24  and  N6_25 
REMARK   10  A    between atoms: N6_25  and  C12_28 
REMARK   11  A    between atoms: C12_28  and  C13_29 
REMARK   12  A    between atoms: C13_29  and  C14_30 
REMARK   13  A    between atoms: C14_30  and  N7_31 
ROOT
HETATM    1  C4  UNL     1       6.640  23.368  19.523  1.00  0.00     0.058 C 
ENDROOT
BRANCH   1   2
HETATM    2  C3  UNL     1       5.271  23.421  18.966  1.00  0.00     0.238 C 
BRANCH   2   3
HETATM    3  N1  UNL     1       5.094  23.499  17.565  1.00  0.00    -0.073 N 
HETATM    4  C1  UNL     1       6.249  23.067  16.799  1.00  0.00     0.272 C 
HETATM    5  C2  UNL     1       4.016  22.550  17.208  1.00  0.00     0.272 C 
BRANCH   3   6
HETATM    6  C10 UNL     1       4.714  24.807  17.057  1.00  0.00     0.264 C 
BRANCH   6   7
HETATM    7  C11 UNL     1       5.827  25.731  16.738  1.00  0.00     0.260 C 
BRANCH   7   8
HETATM    8  N6  UNL     1       5.795  26.862  17.640  1.00  0.00    -0.073 N 
ATOM      9  H62 UNL     1       6.538  26.797  18.336  1.00  0.00     0.277 HD
ATOM     10  H61 UNL     1       6.086  27.717  17.169  1.00  0.00     0.277 HD
BRANCH   8  11
HETATM   11  C12 UNL     1       4.525  27.025  18.259  1.00  0.00     0.234 C 
BRANCH  11  12
HETATM   12  C13 UNL     1       4.632  27.357  19.737  1.00  0.00     0.055 C 
BRANCH  12  13
HETATM   13  C14 UNL     1       3.751  26.468  20.570  1.00  0.00     0.231 C 
BRANCH  13  14
HETATM   14  N7  UNL     1       4.026  26.737  21.987  1.00  0.00    -0.079 N 
ATOM     15  H73 UNL     1       3.887  27.717  22.234  1.00  0.00     0.274 HD
ATOM     16  H72 UNL     1       3.322  26.336  22.606  1.00  0.00     0.274 HD
ATOM     17  H71 UNL     1       4.968  26.409  22.201  1.00  0.00     0.274 HD
ENDBRANCH  13  14
ENDBRANCH  12  13
ENDBRANCH  11  12
ENDBRANCH   8  11
ENDBRANCH   7   8
ENDBRANCH   6   7
ENDBRANCH   3   6
ENDBRANCH   2   3
ENDBRANCH   1   2
BRANCH   1  18
HETATM   18  C5  UNL     1       7.039  24.553  20.363  1.00  0.00     0.273 C 
BRANCH  18  19
HETATM   19  N2  UNL     1       8.479  24.674  20.231  1.00  0.00     0.068 N 
HETATM   20  N3  UNL     1       8.930  25.979  20.273  1.00  0.00    -0.162 N 
HETATM   21  C6  UNL     1       8.975  26.469  18.923  1.00  0.00     0.342 C 
ATOM     22  H3  UNL     1       9.184  26.501  21.112  1.00  0.00     0.199 HD
HETATM   23  O1  UNL     1       8.871  27.658  18.521  1.00  0.00    -0.246 OA
HETATM   24  N4  UNL     1       9.168  25.306  18.111  1.00  0.00    -0.309 N 
HETATM   25  C7  UNL     1       9.025  24.173  18.986  1.00  0.00     0.356 C 
ATOM     26  H4  UNL     1       9.367  25.285  17.111  1.00  0.00     0.166 HD
HETATM   27  C8  UNL     1      10.284  23.827  19.781  1.00  0.00     0.295 C 
HETATM   28  C9  UNL     1       9.261  23.692  20.922  1.00  0.00     0.386 C 
BRANCH  27  29
HETATM   29  N5  UNL     1      10.935  22.616  19.406  1.00  0.00    -0.067 N 
ATOM     30  H53 UNL     1      10.625  21.853  20.007  1.00  0.00     0.275 HD
ATOM     31  H52 UNL     1      10.580  22.294  18.506  1.00  0.00     0.275 HD
ATOM     32  H51 UNL     1      11.954  22.652  19.386  1.00  0.00     0.275 HD
ENDBRANCH  27  29
BRANCH  28  33
HETATM   33  O2  UNL     1       9.736  24.073  22.158  1.00  0.00    -0.366 OA
ATOM     34  H2  UNL     1       9.676  23.415  22.840  1.00  0.00     0.212 HD
ENDBRANCH  28  33
ENDBRANCH  18  19
ENDBRANCH   1  18
TORSDOF 13
ENDMDL
MODEL 5
REMARK VINA RESULT: -5.696833179      2.513      4.519
REMARK  13 active torsions:
REMARK  status: ('A' for Active; 'I' for Inactive)
REMARK    1  A    between atoms: N1_2  and  C3_4 
REMARK    2  A    between atoms: N1_2  and  C10_23 
REMARK    3  A    between atoms: C3_4  and  C4_5 
REMARK    4  A    between atoms: C4_5  and  C5_6 
REMARK    5  A    between atoms: C5_6  and  N2_7 
REMARK    6  A    between atoms: C8_15  and  N5_16 
REMARK    7  A    between atoms: C9_20  and  O2_21 
REMARK    8  A    between atoms: C10_23  and  C11_24 
REMARK    9  A    between atoms: C11_24  and  N6_25 
REMARK   10  A    between atoms: N6_25  and  C12_28 
REMARK   11  A    between atoms: C12_28  and  C13_29 
REMARK   12  A    between atoms: C13_29  and  C14_30 
REMARK   13  A    between atoms: C14_30  and  N7_31 
ROOT
HETATM    1  C4  UNL     1       6.770  23.915  19.780  1.00  0.00     0.058 C 
ENDROOT
BRANCH   1   2
HETATM    2  C3  UNL     1       8.173  23.755  19.339  1.00  0.00     0.238 C 
BRANCH   2   3
HETATM    3  N1  UNL     1       9.210  24.351  20.094  1.00  0.00    -0.073 N 
HETATM    4  C1  UNL     1       9.062  25.784  20.272  1.00  0.00     0.272 C 
HETATM    5  C2  UNL     1       9.138  23.783  21.458  1.00  0.00     0.272 C 
BRANCH   3   6
HETATM    6  C10 UNL     1      10.555  24.124  19.593  1.00  0.00     0.264 C 
BRANCH   6   7
HETATM    7  C11 UNL     1      10.856  22.750  19.130  1.00  0.00     0.260 C 
BRANCH   7   8
HETATM    8  N6  UNL     1      12.176  22.713  18.537  1.00  0.00    -0.073 N 
ATOM      9  H62 UNL     1      12.156  23.053  17.576  1.00  0.00     0.277 HD
ATOM     10  H61 UNL     1      12.783  23.421  18.948  1.00  0.00     0.277 HD
BRANCH   8  11
HETATM   11  C12 UNL     1      12.769  21.423  18.614  1.00  0.00     0.234 C 
BRANCH  11  12
HETATM   12  C13 UNL     1      13.873  21.347  19.653  1.00  0.00     0.055 C 
BRANCH  12  13
HETATM   13  C14 UNL     1      13.482  20.478  20.815  1.00  0.00     0.231 C 
BRANCH  13  14
HETATM   14  N7  UNL     1      14.578  20.487  21.792  1.00  0.00    -0.079 N 
ATOM     15  H73 UNL     1      15.125  21.348  21.760  1.00  0.00     0.274 HD
ATOM     16  H72 UNL     1      14.246  20.570  22.753  1.00  0.00     0.274 HD
ATOM     17  H71 UNL     1      15.148  19.654  21.646  1.00  0.00     0.274 HD
ENDBRANCH  13  14
ENDBRANCH  12  13
ENDBRANCH  11  12
ENDBRANCH   8  11
ENDBRANCH   7   8
ENDBRANCH   6   7
ENDBRANCH   3   6
ENDBRANCH   2   3
ENDBRANCH   1   2
BRANCH   1  18
HETATM   18  C5  UNL     1       5.765  24.097  18.673  1.00  0.00     0.273 C 
BRANCH  18  19
HETATM   19  N2  UNL     1       4.863  25.143  19.117  1.00  0.00     0.068 N 
HETATM   20  N3  UNL     1       4.180  25.759  18.085  1.00  0.00    -0.162 N 
HETATM   21  C6  UNL     1       4.955  26.894  17.666  1.00  0.00     0.342 C 
ATOM     22  H3  UNL     1       3.288  25.460  17.692  1.00  0.00     0.199 HD
HETATM   23  O1  UNL     1       4.983  27.444  16.532  1.00  0.00    -0.246 OA
HETATM   24  N4  UNL     1       5.704  27.282  18.823  1.00  0.00    -0.309 N 
HETATM   25  C7  UNL     1       5.497  26.250  19.804  1.00  0.00     0.356 C 
ATOM     26  H4  UNL     1       6.271  28.124  18.930  1.00  0.00     0.166 HD
HETATM   27  C8  UNL     1       4.198  26.386  20.598  1.00  0.00     0.295 C 
HETATM   28  C9  UNL     1       4.126  24.876  20.317  1.00  0.00     0.386 C 
BRANCH  27  29
HETATM   29  N5  UNL     1       4.350  26.738  21.970  1.00  0.00    -0.067 N 
ATOM     30  H53 UNL     1       4.308  25.902  22.552  1.00  0.00     0.275 HD
ATOM     31  H52 UNL     1       5.309  27.036  22.150  1.00  0.00     0.275 HD
ATOM     32  H51 UNL     1       3.697  27.439  22.320  1.00  0.00     0.275 HD
ENDBRANCH  27  29
BRANCH  28  33
HETATM   33  O2  UNL     1       2.848  24.393  20.133  1.00  0.00    -0.366 OA
ATOM     34  H2  UNL     1       2.351  24.240  20.928  1.00  0.00     0.212 HD
ENDBRANCH  28  33
ENDBRANCH  18  19
ENDBRANCH   1  18
TORSDOF 13
ENDMDL
