MODEL 1
REMARK VINA RESULT: -7.731964815      0.000      0.000
REMARK  12 active torsions:
REMARK  status: ('A' for Active; 'I' for Inactive)
REMARK    1  A    between atoms: N1_2  and  C2_3 
REMARK    2  A    between atoms: N1_2  and  C10_18 
REMARK    3  A    between atoms: C3_4  and  C4_5 
REMARK    4  A    between atoms: C4_5  and  N2_6 
REMARK       I    between atoms: N2_6  and  C5_8 
REMARK    5  A    between atoms: C5_8  and  C6_10 
REMARK    6  A    between atoms: C6_10  and  C7_11 
REMARK    7  A    between atoms: C7_11  and  C8_12 
REMARK    8  A    between atoms: C8_12  and  N3_13 
REMARK    9  A    between atoms: C10_18  and  C11_19 
REMARK   10  A    between atoms: C11_19  and  C12_20 
REMARK   11  A    between atoms: C12_20  and  C13_21 
REMARK   12  A    between atoms: C13_21  and  N6_22 
ROOT
HETATM    1  C2  UNL     1     103.928  21.327  50.167  1.00  0.00     0.009 C 
HETATM    2  C3  UNL     1     102.924  20.734  49.867  1.00  0.00    -0.064 C 
ENDROOT
BRANCH   2   3
HETATM    3  C4  UNL     1     101.714  19.997  49.485  1.00  0.00     0.219 C 
BRANCH   3   4
HETATM    4  N2  UNL     1     101.702  19.681  48.079  1.00  0.00    -0.351 N 
HETATM    5  C5  UNL     1     102.315  18.509  47.574  1.00  0.00     0.218 C 
HETATM    6  O1  UNL     1     102.877  17.752  48.438  1.00  0.00    -0.274 OA
ATOM      7  H2  UNL     1     101.240  20.318  47.431  1.00  0.00     0.163 HD
BRANCH   5   8
HETATM    8  C6  UNL     1     102.285  18.221  46.140  1.00  0.00     0.104 C 
BRANCH   8   9
HETATM    9  C7  UNL     1     103.627  17.879  45.610  1.00  0.00     0.029 C 
BRANCH   9  10
HETATM   10  C8  UNL     1     103.737  16.623  44.823  1.00  0.00     0.122 C 
BRANCH  10  11
HETATM   11  N3  UNL     1     103.162  15.478  45.512  1.00  0.00    -0.367 N 
HETATM   12  C9  UNL     1     102.156  14.817  45.066  1.00  0.00     0.196 C 
HETATM   13  N4  UNL     1     101.505  15.148  43.843  1.00  0.00    -0.067 NA
HETATM   14  N5  UNL     1     101.704  13.717  45.853  1.00  0.00    -0.067 NA
ATOM     15  H3  UNL     1     103.580  15.186  46.395  1.00  0.00     0.161 HD
ENDBRANCH  10  11
ENDBRANCH   9  10
ENDBRANCH   8   9
ENDBRANCH   5   8
ENDBRANCH   3   4
ENDBRANCH   2   3
BRANCH   1  16
HETATM   16  N1  UNL     1     105.140  22.024  50.506  1.00  0.00    -0.346 N 
HETATM   17  C1  UNL     1     105.181  23.453  50.434  1.00  0.00     0.160 C 
BRANCH  16  18
HETATM   18  C10 UNL     1     106.226  21.193  50.897  1.00  0.00     0.132 C 
BRANCH  18  19
HETATM   19  C11 UNL     1     105.898  20.002  51.698  1.00  0.00     0.022 C 
BRANCH  19  20
HETATM   20  C12 UNL     1     106.839  18.865  51.550  1.00  0.00     0.021 C 
BRANCH  20  21
HETATM   21  C13 UNL     1     106.131  17.745  50.781  1.00  0.00     0.122 C 
BRANCH  21  22
HETATM   22  N6  UNL     1     107.158  16.789  50.444  1.00  0.00    -0.367 N 
HETATM   23  C14 UNL     1     106.911  15.885  49.571  1.00  0.00     0.196 C 
HETATM   24  N7  UNL     1     107.933  14.957  49.256  1.00  0.00    -0.067 NA
HETATM   25  N8  UNL     1     105.639  15.841  48.956  1.00  0.00    -0.067 NA
ATOM     26  H6  UNL     1     108.070  16.832  50.897  1.00  0.00     0.161 HD
ENDBRANCH  21  22
ENDBRANCH  20  21
ENDBRANCH  19  20
ENDBRANCH  18  19
ENDBRANCH  16  18
ENDBRANCH   1  16
TORSDOF 12
ENDMDL
MODEL 2
REMARK VINA RESULT: -7.682804991      0.972      1.247
REMARK  12 active torsions:
REMARK  status: ('A' for Active; 'I' for Inactive)
REMARK    1  A    between atoms: N1_2  and  C2_3 
REMARK    2  A    between atoms: N1_2  and  C10_18 
REMARK    3  A    between atoms: C3_4  and  C4_5 
REMARK    4  A    between atoms: C4_5  and  N2_6 
REMARK       I    between atoms: N2_6  and  C5_8 
REMARK    5  A    between atoms: C5_8  and  C6_10 
REMARK    6  A    between atoms: C6_10  and  C7_11 
REMARK    7  A    between atoms: C7_11  and  C8_12 
REMARK    8  A    between atoms: C8_12  and  N3_13 
REMARK    9  A    between atoms: C10_18  and  C11_19 
REMARK   10  A    between atoms: C11_19  and  C12_20 
REMARK   11  A    between atoms: C12_20  and  C13_21 
REMARK   12  A    between atoms: C13_21  and  N6_22 
ROOT
HETATM    1  C2  UNL     1     103.804  20.617  50.295  1.00  0.00     0.009 C 
HETATM    2  C3  UNL     1     102.891  20.065  49.736  1.00  0.00    -0.064 C 
ENDROOT
BRANCH   2   3
HETATM    3  C4  UNL     1     101.796  19.386  49.035  1.00  0.00     0.219 C 
BRANCH   3   4
HETATM    4  N2  UNL     1     102.058  19.264  47.624  1.00  0.00    -0.351 N 
HETATM    5  C5  UNL     1     102.816  18.190  47.098  1.00  0.00     0.218 C 
HETATM    6  O1  UNL     1     103.251  17.339  47.949  1.00  0.00    -0.274 OA
ATOM      7  H2  UNL     1     101.688  19.968  46.987  1.00  0.00     0.163 HD
BRANCH   5   8
HETATM    8  C6  UNL     1     103.064  18.098  45.659  1.00  0.00     0.104 C 
BRANCH   8   9
HETATM    9  C7  UNL     1     101.829  17.793  44.897  1.00  0.00     0.029 C 
BRANCH   9  10
HETATM   10  C8  UNL     1     101.849  16.570  44.051  1.00  0.00     0.122 C 
BRANCH  10  11
HETATM   11  N3  UNL     1     101.288  15.412  44.727  1.00  0.00    -0.367 N 
HETATM   12  C9  UNL     1     101.984  14.603  45.440  1.00  0.00     0.196 C 
HETATM   13  N4  UNL     1     103.386  14.768  45.633  1.00  0.00    -0.067 NA
HETATM   14  N5  UNL     1     101.293  13.511  46.042  1.00  0.00    -0.067 NA
ATOM     15  H3  UNL     1     100.288  15.233  44.630  1.00  0.00     0.161 HD
ENDBRANCH  10  11
ENDBRANCH   9  10
ENDBRANCH   8   9
ENDBRANCH   5   8
ENDBRANCH   3   4
ENDBRANCH   2   3
BRANCH   1  16
HETATM   16  N1  UNL     1     104.908  21.276  50.940  1.00  0.00    -0.346 N 
HETATM   17  C1  UNL     1     105.140  22.669  50.704  1.00  0.00     0.160 C 
BRANCH  16  18
HETATM   18  C10 UNL     1     105.695  20.447  51.787  1.00  0.00     0.132 C 
BRANCH  18  19
HETATM   19  C11 UNL     1     106.735  19.631  51.140  1.00  0.00     0.022 C 
BRANCH  19  20
HETATM   20  C12 UNL     1     106.460  18.174  51.101  1.00  0.00     0.021 C 
BRANCH  20  21
HETATM   21  C13 UNL     1     107.431  17.522  50.113  1.00  0.00     0.122 C 
BRANCH  21  22
HETATM   22  N6  UNL     1     107.624  16.171  50.583  1.00  0.00    -0.367 N 
HETATM   23  C14 UNL     1     106.911  15.227  50.093  1.00  0.00     0.196 C 
HETATM   24  N7  UNL     1     107.119  13.910  50.569  1.00  0.00    -0.067 NA
HETATM   25  N8  UNL     1     105.948  15.527  49.102  1.00  0.00    -0.067 NA
ATOM     26  H6  UNL     1     108.322  15.971  51.300  1.00  0.00     0.161 HD
ENDBRANCH  21  22
ENDBRANCH  20  21
ENDBRANCH  19  20
ENDBRANCH  18  19
ENDBRANCH  16  18
ENDBRANCH   1  16
TORSDOF 12
ENDMDL
MODEL 3
REMARK VINA RESULT: -7.477017532      1.204      1.521
REMARK  12 active torsions:
REMARK  status: ('A' for Active; 'I' for Inactive)
REMARK    1  A    between atoms: N1_2  and  C2_3 
REMARK    2  A    between atoms: N1_2  and  C10_18 
REMARK    3  A    between atoms: C3_4  and  C4_5 
REMARK    4  A    between atoms: C4_5  and  N2_6 
REMARK       I    between atoms: N2_6  and  C5_8 
REMARK    5  A    between atoms: C5_8  and  C6_10 
REMARK    6  A    between atoms: C6_10  and  C7_11 
REMARK    7  A    between atoms: C7_11  and  C8_12 
REMARK    8  A    between atoms: C8_12  and  N3_13 
REMARK    9  A    between atoms: C10_18  and  C11_19 
REMARK   10  A    between atoms: C11_19  and  C12_20 
REMARK   11  A    between atoms: C12_20  and  C13_21 
REMARK   12  A    between atoms: C13_21  and  N6_22 
ROOT
HETATM    1  C2  UNL     1     103.764  20.929  50.098  1.00  0.00     0.009 C 
HETATM    2  C3  UNL     1     102.822  20.401  49.565  1.00  0.00    -0.064 C 
ENDROOT
BRANCH   2   3
HETATM    3  C4  UNL     1     101.684  19.735  48.922  1.00  0.00     0.219 C 
BRANCH   3   4
HETATM    4  N2  UNL     1     101.999  19.314  47.581  1.00  0.00    -0.351 N 
HETATM    5  C5  UNL     1     102.688  18.104  47.323  1.00  0.00     0.218 C 
HETATM    6  O1  UNL     1     103.011  17.412  48.349  1.00  0.00    -0.274 OA
ATOM      7  H2  UNL     1     101.719  19.902  46.797  1.00  0.00     0.163 HD
BRANCH   5   8
HETATM    8  C6  UNL     1     102.994  17.708  45.948  1.00  0.00     0.104 C 
BRANCH   8   9
HETATM    9  C7  UNL     1     102.157  16.571  45.495  1.00  0.00     0.029 C 
BRANCH   9  10
HETATM   10  C8  UNL     1     102.843  15.495  44.732  1.00  0.00     0.122 C 
BRANCH  10  11
HETATM   11  N3  UNL     1     101.959  14.824  43.792  1.00  0.00    -0.367 N 
HETATM   12  C9  UNL     1     101.914  15.103  42.541  1.00  0.00     0.196 C 
HETATM   13  N4  UNL     1     102.735  16.108  41.952  1.00  0.00    -0.067 NA
HETATM   14  N5  UNL     1     100.996  14.359  41.743  1.00  0.00    -0.067 NA
ATOM     15  H3  UNL     1     101.343  14.093  44.147  1.00  0.00     0.161 HD
ENDBRANCH  10  11
ENDBRANCH   9  10
ENDBRANCH   8   9
ENDBRANCH   5   8
ENDBRANCH   3   4
ENDBRANCH   2   3
BRANCH   1  16
HETATM   16  N1  UNL     1     104.901  21.535  50.737  1.00  0.00    -0.346 N 
HETATM   17  C1  UNL     1     105.223  22.903  50.463  1.00  0.00     0.160 C 
BRANCH  16  18
HETATM   18  C10 UNL     1     105.626  20.685  51.616  1.00  0.00     0.132 C 
BRANCH  18  19
HETATM   19  C11 UNL     1     106.690  19.861  51.018  1.00  0.00     0.022 C 
BRANCH  19  20
HETATM   20  C12 UNL     1     106.555  18.400  51.239  1.00  0.00     0.021 C 
BRANCH  20  21
HETATM   21  C13 UNL     1     107.345  17.668  50.150  1.00  0.00     0.122 C 
BRANCH  21  22
HETATM   22  N6  UNL     1     107.438  16.296  50.586  1.00  0.00    -0.367 N 
HETATM   23  C14 UNL     1     106.718  15.405  50.014  1.00  0.00     0.196 C 
HETATM   24  N7  UNL     1     106.827  14.065  50.457  1.00  0.00    -0.067 NA
HETATM   25  N8  UNL     1     105.847  15.783  48.967  1.00  0.00    -0.067 NA
ATOM     26  H6  UNL     1     108.071  16.038  51.344  1.00  0.00     0.161 HD
ENDBRANCH  21  22
ENDBRANCH  20  21
ENDBRANCH  19  20
ENDBRANCH  18  19
ENDBRANCH  16  18
ENDBRANCH   1  16
TORSDOF 12
ENDMDL
MODEL 4
REMARK VINA RESULT: -7.430300883      2.546      4.884
REMARK  12 active torsions:
REMARK  status: ('A' for Active; 'I' for Inactive)
REMARK    1  A    between atoms: N1_2  and  C2_3 
REMARK    2  A    between atoms: N1_2  and  C10_18 
REMARK    3  A    between atoms: C3_4  and  C4_5 
REMARK    4  A    between atoms: C4_5  and  N2_6 
REMARK       I    between atoms: N2_6  and  C5_8 
REMARK    5  A    between atoms: C5_8  and  C6_10 
REMARK    6  A    between atoms: C6_10  and  C7_11 
REMARK    7  A    between atoms: C7_11  and  C8_12 
REMARK    8  A    between atoms: C8_12  and  N3_13 
REMARK    9  A    between atoms: C10_18  and  C11_19 
REMARK   10  A    between atoms: C11_19  and  C12_20 
REMARK   11  A    between atoms: C12_20  and  C13_21 
REMARK   12  A    between atoms: C13_21  and  N6_22 
ROOT
HETATM    1  C2  UNL     1     107.176  18.131  50.310  1.00  0.00     0.009 C 
HETATM    2  C3  UNL     1     106.657  19.066  50.862  1.00  0.00    -0.064 C 
ENDROOT
BRANCH   2   3
HETATM    3  C4  UNL     1     106.013  20.213  51.513  1.00  0.00     0.219 C 
BRANCH   3   4
HETATM    4  N2  UNL     1     104.602  20.266  51.228  1.00  0.00    -0.351 N 
HETATM    5  C5  UNL     1     104.112  20.638  49.953  1.00  0.00     0.218 C 
HETATM    6  O1  UNL     1     104.996  20.921  49.072  1.00  0.00    -0.274 OA
ATOM      7  H2  UNL     1     103.938  20.030  51.965  1.00  0.00     0.163 HD
BRANCH   5   8
HETATM    8  C6  UNL     1     102.672  20.682  49.700  1.00  0.00     0.104 C 
BRANCH   8   9
HETATM    9  C7  UNL     1     102.153  19.388  49.195  1.00  0.00     0.029 C 
BRANCH   9  10
HETATM   10  C8  UNL     1     102.196  19.177  47.724  1.00  0.00     0.122 C 
BRANCH  10  11
HETATM   11  N3  UNL     1     102.486  17.798  47.364  1.00  0.00    -0.367 N 
HETATM   12  C9  UNL     1     103.532  17.443  46.710  1.00  0.00     0.196 C 
HETATM   13  N4  UNL     1     104.513  18.378  46.273  1.00  0.00    -0.067 NA
HETATM   14  N5  UNL     1     103.680  16.053  46.432  1.00  0.00    -0.067 NA
ATOM     15  H3  UNL     1     101.824  17.076  47.646  1.00  0.00     0.161 HD
ENDBRANCH  10  11
ENDBRANCH   9  10
ENDBRANCH   8   9
ENDBRANCH   5   8
ENDBRANCH   3   4
ENDBRANCH   2   3
BRANCH   1  16
HETATM   16  N1  UNL     1     107.790  17.024  49.628  1.00  0.00    -0.346 N 
HETATM   17  C1  UNL     1     108.310  17.205  48.306  1.00  0.00     0.160 C 
BRANCH  16  18
HETATM   18  C10 UNL     1     107.825  15.805  50.360  1.00  0.00     0.132 C 
BRANCH  18  19
HETATM   19  C11 UNL     1     108.038  14.570  49.588  1.00  0.00     0.022 C 
BRANCH  19  20
HETATM   20  C12 UNL     1     109.014  13.620  50.175  1.00  0.00     0.021 C 
BRANCH  20  21
HETATM   21  C13 UNL     1     108.852  12.264  49.480  1.00  0.00     0.122 C 
BRANCH  21  22
HETATM   22  N6  UNL     1     107.636  12.360  48.709  1.00  0.00    -0.367 N 
HETATM   23  C14 UNL     1     107.472  11.590  47.698  1.00  0.00     0.196 C 
HETATM   24  N7  UNL     1     106.271  11.700  46.957  1.00  0.00    -0.067 NA
HETATM   25  N8  UNL     1     108.485  10.663  47.359  1.00  0.00    -0.067 NA
ATOM     26  H6  UNL     1     106.915  13.034  48.965  1.00  0.00     0.161 HD
ENDBRANCH  21  22
ENDBRANCH  20  21
ENDBRANCH  19  20
ENDBRANCH  18  19
ENDBRANCH  16  18
ENDBRANCH   1  16
TORSDOF 12
ENDMDL
MODEL 5
REMARK VINA RESULT: -7.352213659      2.096      2.893
REMARK  12 active torsions:
REMARK  status: ('A' for Active; 'I' for Inactive)
REMARK    1  A    between atoms: N1_2  and  C2_3 
REMARK    2  A    between atoms: N1_2  and  C10_18 
REMARK    3  A    between atoms: C3_4  and  C4_5 
REMARK    4  A    between atoms: C4_5  and  N2_6 
REMARK       I    between atoms: N2_6  and  C5_8 
REMARK    5  A    between atoms: C5_8  and  C6_10 
REMARK    6  A    between atoms: C6_10  and  C7_11 
REMARK    7  A    between atoms: C7_11  and  C8_12 
REMARK    8  A    between atoms: C8_12  and  N3_13 
REMARK    9  A    between atoms: C10_18  and  C11_19 
REMARK   10  A    between atoms: C11_19  and  C12_20 
REMARK   11  A    between atoms: C12_20  and  C13_21 
REMARK   12  A    between atoms: C13_21  and  N6_22 
ROOT
HETATM    1  C2  UNL     1     103.965  21.237  50.019  1.00  0.00     0.009 C 
HETATM    2  C3  UNL     1     102.991  20.655  49.616  1.00  0.00    -0.064 C 
ENDROOT
BRANCH   2   3
HETATM    3  C4  UNL     1     101.797  19.968  49.111  1.00  0.00     0.219 C 
BRANCH   3   4
HETATM    4  N2  UNL     1     101.985  19.490  47.765  1.00  0.00    -0.351 N 
HETATM    5  C5  UNL     1     102.602  18.245  47.495  1.00  0.00     0.218 C 
HETATM    6  O1  UNL     1     102.980  17.573  48.516  1.00  0.00    -0.274 OA
ATOM      7  H2  UNL     1     101.664  20.064  46.985  1.00  0.00     0.163 HD
BRANCH   5   8
HETATM    8  C6  UNL     1     102.777  17.792  46.115  1.00  0.00     0.104 C 
BRANCH   8   9
HETATM    9  C7  UNL     1     104.138  17.257  45.872  1.00  0.00     0.029 C 
BRANCH   9  10
HETATM   10  C8  UNL     1     105.234  18.253  45.727  1.00  0.00     0.122 C 
BRANCH  10  11
HETATM   11  N3  UNL     1     106.346  17.996  46.628  1.00  0.00    -0.367 N 
HETATM   12  C9  UNL     1     107.575  18.162  46.299  1.00  0.00     0.196 C 
HETATM   13  N4  UNL     1     107.965  18.618  45.006  1.00  0.00    -0.067 NA
HETATM   14  N5  UNL     1     108.557  17.869  47.290  1.00  0.00    -0.067 NA
ATOM     15  H3  UNL     1     106.138  17.666  47.570  1.00  0.00     0.161 HD
ENDBRANCH  10  11
ENDBRANCH   9  10
ENDBRANCH   8   9
ENDBRANCH   5   8
ENDBRANCH   3   4
ENDBRANCH   2   3
BRANCH   1  16
HETATM   16  N1  UNL     1     105.118  21.954  50.494  1.00  0.00    -0.346 N 
HETATM   17  C1  UNL     1     105.139  23.384  50.433  1.00  0.00     0.160 C 
BRANCH  16  18
HETATM   18  C10 UNL     1     106.170  21.141  51.000  1.00  0.00     0.132 C 
BRANCH  18  19
HETATM   19  C11 UNL     1     105.781  19.889  51.670  1.00  0.00     0.022 C 
BRANCH  19  20
HETATM   20  C12 UNL     1     106.824  18.836  51.692  1.00  0.00     0.021 C 
BRANCH  20  21
HETATM   21  C13 UNL     1     106.725  18.025  50.397  1.00  0.00     0.122 C 
BRANCH  21  22
HETATM   22  N6  UNL     1     107.071  16.670  50.752  1.00  0.00    -0.367 N 
HETATM   23  C14 UNL     1     106.614  15.700  50.051  1.00  0.00     0.196 C 
HETATM   24  N7  UNL     1     106.967  14.379  50.418  1.00  0.00    -0.067 NA
HETATM   25  N8  UNL     1     105.780  15.977  48.943  1.00  0.00    -0.067 NA
ATOM     26  H6  UNL     1     107.673  16.485  51.555  1.00  0.00     0.161 HD
ENDBRANCH  21  22
ENDBRANCH  20  21
ENDBRANCH  19  20
ENDBRANCH  18  19
ENDBRANCH  16  18
ENDBRANCH   1  16
TORSDOF 12
ENDMDL
