MODEL 1
REMARK VINA RESULT: -5.644453006      0.000      0.000
REMARK  3 active torsions:
REMARK  status: ('A' for Active; 'I' for Inactive)
REMARK    1  A    between atoms: C2_2  and  O1_3 
REMARK    2  A    between atoms: O1_3  and  C3_4 
REMARK    3  A    between atoms: C11_13  and  O3_14 
REMARK       I    between atoms: N1_16  and  C12_17 
ROOT
HETATM    1  C3  UNL     1     -40.172 -55.828  66.306  1.00  0.00     0.172 C 
HETATM    2  C4  UNL     1     -39.344 -54.580  65.974  1.00  0.00     0.051 A 
HETATM    3  C5  UNL     1     -37.896 -54.564  66.061  1.00  0.00     0.017 A 
HETATM    4  C6  UNL     1     -38.605 -54.226  67.283  1.00  0.00     0.021 A 
HETATM    5  C7  UNL     1     -39.203 -55.135  68.256  1.00  0.00     0.127 C 
HETATM    6  C8  UNL     1     -38.572 -56.391  68.623  1.00  0.00     0.183 A 
HETATM    7  O2  UNL     1     -37.497 -56.948  67.957  1.00  0.00    -0.364 OA
HETATM    8  C9  UNL     1     -38.747 -57.439  67.660  1.00  0.00     0.116 A 
HETATM    9  C10 UNL     1     -38.950 -58.858  68.228  1.00  0.00     0.052 C 
HETATM   10  C11 UNL     1     -39.402 -57.092  66.370  1.00  0.00     0.211 C 
HETATM   11  N1  UNL     1     -40.545 -55.431  67.669  1.00  0.00    -0.310 N 
HETATM   12  C12 UNL     1     -41.761 -55.261  68.340  1.00  0.00     0.218 C 
HETATM   13  C13 UNL     1     -41.707 -54.881  69.790  1.00  0.00     0.117 C 
HETATM   14  O4  UNL     1     -42.883 -55.389  67.871  1.00  0.00    -0.274 OA
ENDROOT
BRANCH   1  15
HETATM   15  O1  UNL     1     -41.174 -55.823  65.390  1.00  0.00    -0.358 OA
BRANCH  15  16
HETATM   16  C2  UNL     1     -41.864 -56.890  65.029  1.00  0.00     0.166 C 
HETATM   17  C1  UNL     1     -42.924 -56.419  64.002  1.00  0.00     0.033 C 
ENDBRANCH  15  16
ENDBRANCH   1  15
BRANCH  10  18
HETATM   18  O3  UNL     1     -38.576 -57.314  65.240  1.00  0.00    -0.387 OA
ATOM     19  H3  UNL     1     -37.835 -57.882  65.415  1.00  0.00     0.210 HD
ENDBRANCH  10  18
TORSDOF 3
ENDMDL
MODEL 2
REMARK VINA RESULT: -5.437209304      1.547      3.786
REMARK  3 active torsions:
REMARK  status: ('A' for Active; 'I' for Inactive)
REMARK    1  A    between atoms: C2_2  and  O1_3 
REMARK    2  A    between atoms: O1_3  and  C3_4 
REMARK    3  A    between atoms: C11_13  and  O3_14 
REMARK       I    between atoms: N1_16  and  C12_17 
ROOT
HETATM    1  C3  UNL     1     -40.872 -56.012  67.042  1.00  0.00     0.172 C 
HETATM    2  C4  UNL     1     -40.921 -57.503  67.398  1.00  0.00     0.051 A 
HETATM    3  C5  UNL     1     -41.523 -57.988  68.626  1.00  0.00     0.017 A 
HETATM    4  C6  UNL     1     -40.118 -57.630  68.711  1.00  0.00     0.021 A 
HETATM    5  C7  UNL     1     -39.536 -56.301  68.873  1.00  0.00     0.127 C 
HETATM    6  C8  UNL     1     -40.146 -55.296  69.726  1.00  0.00     0.183 A 
HETATM    7  O2  UNL     1     -41.408 -55.401  70.279  1.00  0.00    -0.364 OA
HETATM    8  C9  UNL     1     -41.279 -54.639  69.141  1.00  0.00     0.116 A 
HETATM    9  C10 UNL     1     -41.425 -53.135  69.447  1.00  0.00     0.052 C 
HETATM   10  C11 UNL     1     -41.778 -55.148  67.836  1.00  0.00     0.211 C 
HETATM   11  N1  UNL     1     -39.491 -55.775  67.475  1.00  0.00    -0.310 N 
HETATM   12  C12 UNL     1     -38.341 -55.278  66.851  1.00  0.00     0.218 C 
HETATM   13  C13 UNL     1     -37.101 -55.144  67.684  1.00  0.00     0.117 C 
HETATM   14  O4  UNL     1     -38.229 -54.936  65.682  1.00  0.00    -0.274 OA
ENDROOT
BRANCH   1  15
HETATM   15  O1  UNL     1     -41.090 -55.976  65.702  1.00  0.00    -0.358 OA
BRANCH  15  16
HETATM   16  C2  UNL     1     -41.649 -56.952  65.007  1.00  0.00     0.166 C 
HETATM   17  C1  UNL     1     -42.788 -56.318  64.170  1.00  0.00     0.033 C 
ENDBRANCH  15  16
ENDBRANCH   1  15
BRANCH  10  18
HETATM   18  O3  UNL     1     -43.114 -55.617  67.886  1.00  0.00    -0.387 OA
ATOM     19  H3  UNL     1     -43.622 -55.407  67.112  1.00  0.00     0.210 HD
ENDBRANCH  10  18
TORSDOF 3
ENDMDL
MODEL 3
REMARK VINA RESULT: -5.197803436      1.686      1.900
REMARK  3 active torsions:
REMARK  status: ('A' for Active; 'I' for Inactive)
REMARK    1  A    between atoms: C2_2  and  O1_3 
REMARK    2  A    between atoms: O1_3  and  C3_4 
REMARK    3  A    between atoms: C11_13  and  O3_14 
REMARK       I    between atoms: N1_16  and  C12_17 
ROOT
HETATM    1  C3  UNL     1     -39.417 -57.188  66.152  1.00  0.00     0.172 C 
HETATM    2  C4  UNL     1     -38.996 -55.718  66.034  1.00  0.00     0.051 A 
HETATM    3  C5  UNL     1     -37.614 -55.320  65.844  1.00  0.00     0.017 A 
HETATM    4  C6  UNL     1     -38.041 -55.475  67.223  1.00  0.00     0.021 A 
HETATM    5  C7  UNL     1     -38.155 -56.708  67.996  1.00  0.00     0.127 C 
HETATM    6  C8  UNL     1     -37.191 -57.788  67.865  1.00  0.00     0.183 A 
HETATM    7  O2  UNL     1     -36.229 -57.860  66.876  1.00  0.00    -0.364 OA
HETATM    8  C9  UNL     1     -37.375 -58.600  66.697  1.00  0.00     0.116 A 
HETATM    9  C10 UNL     1     -37.109 -60.108  66.869  1.00  0.00     0.052 C 
HETATM   10  C11 UNL     1     -38.399 -58.169  65.707  1.00  0.00     0.211 C 
HETATM   11  N1  UNL     1     -39.504 -57.226  67.616  1.00  0.00    -0.310 N 
HETATM   12  C12 UNL     1     -40.513 -57.557  68.528  1.00  0.00     0.218 C 
HETATM   13  C13 UNL     1     -40.172 -57.512  69.988  1.00  0.00     0.117 C 
HETATM   14  O4  UNL     1     -41.662 -57.883  68.266  1.00  0.00    -0.274 OA
ENDROOT
BRANCH   1  15
HETATM   15  O1  UNL     1     -40.597 -57.257  65.484  1.00  0.00    -0.358 OA
BRANCH  15  16
HETATM   16  C2  UNL     1     -41.416 -56.237  65.301  1.00  0.00     0.166 C 
HETATM   17  C1  UNL     1     -42.516 -56.708  64.316  1.00  0.00     0.033 C 
ENDBRANCH  15  16
ENDBRANCH   1  15
BRANCH  10  18
HETATM   18  O3  UNL     1     -37.864 -57.893  64.425  1.00  0.00    -0.387 OA
ATOM     19  H3  UNL     1     -38.250 -58.413  63.730  1.00  0.00     0.210 HD
ENDBRANCH  10  18
TORSDOF 3
ENDMDL
MODEL 4
REMARK VINA RESULT: -5.173783326      1.662      2.992
REMARK  3 active torsions:
REMARK  status: ('A' for Active; 'I' for Inactive)
REMARK    1  A    between atoms: C2_2  and  O1_3 
REMARK    2  A    between atoms: O1_3  and  C3_4 
REMARK    3  A    between atoms: C11_13  and  O3_14 
REMARK       I    between atoms: N1_16  and  C12_17 
ROOT
HETATM    1  C3  UNL     1     -39.603 -56.611  66.563  1.00  0.00     0.172 C 
HETATM    2  C4  UNL     1     -39.209 -55.141  66.753  1.00  0.00     0.051 A 
HETATM    3  C5  UNL     1     -38.902 -54.582  68.056  1.00  0.00     0.017 A 
HETATM    4  C6  UNL     1     -40.300 -54.545  67.668  1.00  0.00     0.021 A 
HETATM    5  C7  UNL     1     -41.285 -55.620  67.750  1.00  0.00     0.127 C 
HETATM    6  C8  UNL     1     -41.316 -56.548  68.866  1.00  0.00     0.183 A 
HETATM    7  O2  UNL     1     -40.323 -56.655  69.821  1.00  0.00    -0.364 OA
HETATM    8  C9  UNL     1     -40.320 -57.578  68.801  1.00  0.00     0.116 A 
HETATM    9  C10 UNL     1     -40.751 -58.973  69.297  1.00  0.00     0.052 C 
HETATM   10  C11 UNL     1     -39.306 -57.493  67.716  1.00  0.00     0.211 C 
HETATM   11  N1  UNL     1     -41.053 -56.394  66.493  1.00  0.00    -0.310 N 
HETATM   12  C12 UNL     1     -42.043 -56.700  65.554  1.00  0.00     0.218 C 
HETATM   13  C13 UNL     1     -43.459 -56.338  65.894  1.00  0.00     0.117 C 
HETATM   14  O4  UNL     1     -41.885 -57.237  64.466  1.00  0.00    -0.274 OA
ENDROOT
BRANCH   1  15
HETATM   15  O1  UNL     1     -38.999 -56.977  65.403  1.00  0.00    -0.358 OA
BRANCH  15  16
HETATM   16  C2  UNL     1     -38.312 -58.093  65.235  1.00  0.00     0.166 C 
HETATM   17  C1  UNL     1     -36.878 -57.684  64.815  1.00  0.00     0.033 C 
ENDBRANCH  15  16
ENDBRANCH   1  15
BRANCH  10  18
HETATM   18  O3  UNL     1     -37.977 -57.379  68.193  1.00  0.00    -0.387 OA
ATOM     19  H3  UNL     1     -37.866 -57.677  69.088  1.00  0.00     0.210 HD
ENDBRANCH  10  18
TORSDOF 3
ENDMDL
MODEL 5
REMARK VINA RESULT: -5.158558928      1.676      3.770
REMARK  3 active torsions:
REMARK  status: ('A' for Active; 'I' for Inactive)
REMARK    1  A    between atoms: C2_2  and  O1_3 
REMARK    2  A    between atoms: O1_3  and  C3_4 
REMARK    3  A    between atoms: C11_13  and  O3_14 
REMARK       I    between atoms: N1_16  and  C12_17 
ROOT
HETATM    1  C3  UNL     1     -40.047 -56.824  66.679  1.00  0.00     0.172 C 
HETATM    2  C4  UNL     1     -40.935 -57.592  67.665  1.00  0.00     0.051 A 
HETATM    3  C5  UNL     1     -41.050 -57.216  69.061  1.00  0.00     0.017 A 
HETATM    4  C6  UNL     1     -39.970 -58.132  68.742  1.00  0.00     0.021 A 
HETATM    5  C7  UNL     1     -38.654 -57.815  68.195  1.00  0.00     0.127 C 
HETATM    6  C8  UNL     1     -37.921 -56.628  68.599  1.00  0.00     0.183 A 
HETATM    7  O2  UNL     1     -38.457 -55.595  69.343  1.00  0.00    -0.364 OA
HETATM    8  C9  UNL     1     -38.378 -55.417  67.981  1.00  0.00     0.116 A 
HETATM    9  C10 UNL     1     -37.289 -54.393  67.605  1.00  0.00     0.052 C 
HETATM   10  C11 UNL     1     -39.605 -55.487  67.144  1.00  0.00     0.211 C 
HETATM   11  N1  UNL     1     -38.904 -57.742  66.724  1.00  0.00    -0.310 N 
HETATM   12  C12 UNL     1     -38.196 -58.470  65.761  1.00  0.00     0.218 C 
HETATM   13  C13 UNL     1     -37.021 -59.280  66.227  1.00  0.00     0.117 C 
HETATM   14  O4  UNL     1     -38.429 -58.525  64.562  1.00  0.00    -0.274 OA
ENDROOT
BRANCH   1  15
HETATM   15  O1  UNL     1     -40.756 -56.812  65.521  1.00  0.00    -0.358 OA
BRANCH  15  16
HETATM   16  C2  UNL     1     -42.056 -57.030  65.436  1.00  0.00     0.166 C 
HETATM   17  C1  UNL     1     -42.562 -56.281  64.178  1.00  0.00     0.033 C 
ENDBRANCH  15  16
ENDBRANCH   1  15
BRANCH  10  18
HETATM   18  O3  UNL     1     -40.662 -54.672  67.620  1.00  0.00    -0.387 OA
ATOM     19  H3  UNL     1     -40.620 -53.774  67.312  1.00  0.00     0.210 HD
ENDBRANCH  10  18
TORSDOF 3
ENDMDL
