MODEL 1
REMARK VINA RESULT: -8.529773571      0.000      0.000
REMARK  10 active torsions:
REMARK  status: ('A' for Active; 'I' for Inactive)
REMARK    1  A    between atoms: C4_4  and  N1_5 
REMARK    2  A    between atoms: N1_5  and  S1_7 
REMARK    3  A    between atoms: C7_12  and  C8_13 
REMARK    4  A    between atoms: C18_26  and  N3_27 
REMARK    5  A    between atoms: N3_27  and  C19_28 
REMARK    6  A    between atoms: C22_35  and  C23_36 
REMARK    7  A    between atoms: C23_36  and  N6_38 
REMARK    8  A    between atoms: N6_38  and  C25_40 
REMARK    9  A    between atoms: C25_40  and  C26_41 
REMARK   10  A    between atoms: C26_41  and  N7_42 
ROOT
HETATM    1  C1  UNL     1      -8.859 -17.550 -11.244  1.00  0.00     0.052 C 
HETATM    2  C2  UNL     1     -10.123 -17.978 -11.909  1.00  0.00    -0.018 A 
HETATM    3  C3  UNL     1     -10.139 -18.612 -13.106  1.00  0.00     0.040 A 
HETATM    4  C4  UNL     1     -11.361 -18.976 -13.664  1.00  0.00     0.043 A 
HETATM    5  C6  UNL     1     -12.492 -18.686 -12.993  1.00  0.00     0.047 A 
HETATM    6  C7  UNL     1     -12.515 -18.017 -11.734  1.00  0.00     0.034 A 
HETATM    7  C18 UNL     1     -11.312 -17.654 -11.165  1.00  0.00     0.129 A 
ENDROOT
BRANCH   7   8
HETATM    8  N3  UNL     1     -11.109 -17.168  -9.988  1.00  0.00    -0.370 NA
BRANCH   8   9
HETATM    9  C19 UNL     1     -10.952 -16.654  -8.905  1.00  0.00     0.260 A 
HETATM   10  N4  UNL     1     -10.342 -17.114  -7.824  1.00  0.00    -0.313 N 
HETATM   11  C20 UNL     1     -10.361 -16.182  -6.875  1.00  0.00     0.078 A 
ATOM     12  H4  UNL     1      -9.922 -18.040  -7.734  1.00  0.00     0.170 HD
HETATM   13  C21 UNL     1      -9.866 -16.110  -5.576  1.00  0.00     0.120 A 
HETATM   14  C30 UNL     1     -11.012 -15.080  -7.371  1.00  0.00     0.066 A 
HETATM   15  N5  UNL     1     -10.029 -14.978  -4.840  1.00  0.00    -0.365 N 
HETATM   16  C22 UNL     1     -10.654 -13.904  -5.303  1.00  0.00     0.033 A 
ATOM     17  H5  UNL     1      -9.654 -14.954  -3.891  1.00  0.00     0.165 HD
HETATM   18  C29 UNL     1     -11.156 -13.932  -6.571  1.00  0.00     0.059 A 
HETATM   19  N8  UNL     1     -11.367 -15.382  -8.608  1.00  0.00    -0.314 N 
ATOM     20  H8  UNL     1     -11.871 -14.764  -9.243  1.00  0.00     0.170 HD
BRANCH  16  21
HETATM   21  C23 UNL     1     -10.740 -12.690  -4.410  1.00  0.00     0.126 C 
HETATM   22  C24 UNL     1     -10.091 -11.537  -5.128  1.00  0.00     0.039 C 
BRANCH  21  23
HETATM   23  N6  UNL     1     -12.026 -12.458  -3.942  1.00  0.00    -0.391 N 
ATOM     24  H6  UNL     1     -12.764 -12.175  -4.587  1.00  0.00     0.159 HD
BRANCH  23  25
HETATM   25  C25 UNL     1     -12.301 -12.616  -2.583  1.00  0.00     0.086 C 
BRANCH  25  26
HETATM   26  C26 UNL     1     -12.085 -13.925  -1.911  1.00  0.00     0.315 C 
BRANCH  26  27
HETATM   27  N7  UNL     1     -13.246 -14.820  -2.177  1.00  0.00     0.084 N 
HETATM   28  C27 UNL     1     -12.709 -15.997  -2.814  1.00  0.00     0.309 C 
HETATM   29  C28 UNL     1     -13.899 -15.188  -0.961  1.00  0.00     0.309 C 
ENDBRANCH  26  27
ENDBRANCH  25  26
ENDBRANCH  23  25
ENDBRANCH  21  23
ENDBRANCH  16  21
ENDBRANCH   8   9
ENDBRANCH   7   8
BRANCH   6  30
HETATM   30  C8  UNL     1     -13.819 -17.921 -11.166  1.00  0.00     0.048 C 
HETATM   31  N2  UNL     1     -14.808 -18.760 -11.525  1.00  0.00    -0.389 N 
HETATM   32  C9  UNL     1     -16.060 -18.511 -10.841  1.00  0.00     0.120 C 
ATOM     33  H2  UNL     1     -14.686 -19.502 -12.214  1.00  0.00     0.159 HD
HETATM   34  C10 UNL     1     -15.929 -18.369  -9.344  1.00  0.00     0.024 C 
HETATM   35  C11 UNL     1     -14.945 -17.249  -8.992  1.00  0.00     0.043 C 
HETATM   36  C12 UNL     1     -14.290 -16.856 -10.320  1.00  0.00    -0.025 C 
HETATM   37  C13 UNL     1     -14.257 -15.608 -10.728  1.00  0.00    -0.038 C 
HETATM   38  C14 UNL     1     -14.743 -14.517  -9.849  1.00  0.00     0.038 C 
HETATM   39  C17 UNL     1     -13.832 -15.034 -11.997  1.00  0.00     0.200 C 
HETATM   40  C15 UNL     1     -14.406 -13.244 -10.526  1.00  0.00     0.007 C 
HETATM   41  C16 UNL     1     -14.394 -13.606 -12.008  1.00  0.00     0.042 C 
HETATM   42  F1  UNL     1     -14.393 -15.726 -13.081  1.00  0.00    -0.245 F 
ENDBRANCH   6  30
BRANCH   4  43
HETATM   43  N1  UNL     1     -11.263 -19.599 -14.934  1.00  0.00    -0.285 N 
ATOM     44  H1  UNL     1     -11.148 -19.011 -15.760  1.00  0.00     0.178 HD
BRANCH  43  45
HETATM   45  S1  UNL     1     -11.328 -21.295 -15.138  1.00  0.00     0.227 S 
HETATM   46  C5  UNL     1      -9.878 -21.858 -15.978  1.00  0.00     0.186 C 
HETATM   47  O1  UNL     1     -12.581 -21.703 -15.880  1.00  0.00    -0.206 OA
HETATM   48  O2  UNL     1     -11.369 -21.955 -13.757  1.00  0.00    -0.206 OA
ENDBRANCH  43  45
ENDBRANCH   4  43
TORSDOF 10
ENDMDL
MODEL 2
REMARK VINA RESULT: -8.282592865      0.958      2.156
REMARK  10 active torsions:
REMARK  status: ('A' for Active; 'I' for Inactive)
REMARK    1  A    between atoms: C4_4  and  N1_5 
REMARK    2  A    between atoms: N1_5  and  S1_7 
REMARK    3  A    between atoms: C7_12  and  C8_13 
REMARK    4  A    between atoms: C18_26  and  N3_27 
REMARK    5  A    between atoms: N3_27  and  C19_28 
REMARK    6  A    between atoms: C22_35  and  C23_36 
REMARK    7  A    between atoms: C23_36  and  N6_38 
REMARK    8  A    between atoms: N6_38  and  C25_40 
REMARK    9  A    between atoms: C25_40  and  C26_41 
REMARK   10  A    between atoms: C26_41  and  N7_42 
ROOT
HETATM    1  C1  UNL     1      -8.915 -17.637 -10.930  1.00  0.00     0.052 C 
HETATM    2  C2  UNL     1     -10.124 -18.012 -11.718  1.00  0.00    -0.018 A 
HETATM    3  C3  UNL     1     -10.049 -18.553 -12.957  1.00  0.00     0.040 A 
HETATM    4  C4  UNL     1     -11.224 -18.873 -13.630  1.00  0.00     0.043 A 
HETATM    5  C6  UNL     1     -12.403 -18.635 -13.024  1.00  0.00     0.047 A 
HETATM    6  C7  UNL     1     -12.522 -18.064 -11.723  1.00  0.00     0.034 A 
HETATM    7  C18 UNL     1     -11.366 -17.746 -11.041  1.00  0.00     0.129 A 
ENDROOT
BRANCH   7   8
HETATM    8  N3  UNL     1     -11.254 -17.352  -9.818  1.00  0.00    -0.370 NA
BRANCH   8   9
HETATM    9  C19 UNL     1     -11.134 -17.051  -8.653  1.00  0.00     0.260 A 
HETATM   10  N4  UNL     1     -10.080 -17.134  -7.856  1.00  0.00    -0.313 N 
HETATM   11  C20 UNL     1     -10.389 -16.633  -6.662  1.00  0.00     0.078 A 
ATOM     12  H4  UNL     1      -9.173 -17.521  -8.117  1.00  0.00     0.170 HD
HETATM   13  C21 UNL     1      -9.684 -16.451  -5.476  1.00  0.00     0.120 A 
HETATM   14  C30 UNL     1     -11.694 -16.213  -6.699  1.00  0.00     0.066 A 
HETATM   15  N5  UNL     1     -10.284 -15.872  -4.402  1.00  0.00    -0.365 N 
HETATM   16  C22 UNL     1     -11.544 -15.459  -4.419  1.00  0.00     0.033 A 
ATOM     17  H5  UNL     1      -9.742 -15.750  -3.546  1.00  0.00     0.165 HD
HETATM   18  C29 UNL     1     -12.272 -15.621  -5.561  1.00  0.00     0.059 A 
HETATM   19  N8  UNL     1     -12.136 -16.475  -7.917  1.00  0.00    -0.314 N 
ATOM     20  H8  UNL     1     -13.077 -16.277  -8.257  1.00  0.00     0.170 HD
BRANCH  16  21
HETATM   21  C23 UNL     1     -12.094 -14.795  -3.180  1.00  0.00     0.126 C 
HETATM   22  C24 UNL     1     -12.008 -15.782  -2.047  1.00  0.00     0.039 C 
BRANCH  21  23
HETATM   23  N6  UNL     1     -11.523 -13.553  -2.939  1.00  0.00    -0.391 N 
ATOM     24  H6  UNL     1     -10.901 -13.419  -2.142  1.00  0.00     0.159 HD
BRANCH  23  25
HETATM   25  C25 UNL     1     -11.808 -12.489  -3.796  1.00  0.00     0.086 C 
BRANCH  25  26
HETATM   26  C26 UNL     1     -10.760 -11.935  -4.694  1.00  0.00     0.315 C 
BRANCH  26  27
HETATM   27  N7  UNL     1     -10.989 -12.415  -6.085  1.00  0.00     0.084 N 
HETATM   28  C27 UNL     1     -11.446 -11.273  -6.836  1.00  0.00     0.309 C 
HETATM   29  C28 UNL     1      -9.781 -12.917  -6.660  1.00  0.00     0.309 C 
ENDBRANCH  26  27
ENDBRANCH  25  26
ENDBRANCH  23  25
ENDBRANCH  21  23
ENDBRANCH  16  21
ENDBRANCH   8   9
ENDBRANCH   7   8
BRANCH   6  30
HETATM   30  C8  UNL     1     -13.865 -18.013 -11.247  1.00  0.00     0.048 C 
HETATM   31  N2  UNL     1     -14.819 -18.825 -11.737  1.00  0.00    -0.389 N 
HETATM   32  C9  UNL     1     -16.120 -18.629 -11.131  1.00  0.00     0.120 C 
ATOM     33  H2  UNL     1     -14.642 -19.515 -12.467  1.00  0.00     0.159 HD
HETATM   34  C10 UNL     1     -16.100 -18.595  -9.622  1.00  0.00     0.024 C 
HETATM   35  C11 UNL     1     -15.153 -17.502  -9.119  1.00  0.00     0.043 C 
HETATM   36  C12 UNL     1     -14.404 -17.012 -10.363  1.00  0.00    -0.025 C 
HETATM   37  C13 UNL     1     -14.351 -15.739 -10.676  1.00  0.00    -0.038 C 
HETATM   38  C14 UNL     1     -14.908 -14.714  -9.759  1.00  0.00     0.038 C 
HETATM   39  C17 UNL     1     -13.838 -15.073 -11.866  1.00  0.00     0.200 C 
HETATM   40  C15 UNL     1     -14.531 -13.396 -10.316  1.00  0.00     0.007 C 
HETATM   41  C16 UNL     1     -14.407 -13.648 -11.815  1.00  0.00     0.042 C 
HETATM   42  F1  UNL     1     -14.313 -15.686 -13.036  1.00  0.00    -0.245 F 
ENDBRANCH   6  30
BRANCH   4  43
HETATM   43  N1  UNL     1     -11.030 -19.397 -14.933  1.00  0.00    -0.285 N 
ATOM     44  H1  UNL     1     -10.840 -18.749 -15.698  1.00  0.00     0.178 HD
BRANCH  43  45
HETATM   45  S1  UNL     1     -11.098 -21.071 -15.275  1.00  0.00     0.227 S 
HETATM   46  C5  UNL     1      -9.947 -21.473 -16.555  1.00  0.00     0.186 C 
HETATM   47  O1  UNL     1     -12.502 -21.488 -15.653  1.00  0.00    -0.206 OA
HETATM   48  O2  UNL     1     -10.705 -21.846 -14.015  1.00  0.00    -0.206 OA
ENDBRANCH  43  45
ENDBRANCH   4  43
TORSDOF 10
ENDMDL
MODEL 3
REMARK VINA RESULT: -7.984015128      1.244      1.774
REMARK  10 active torsions:
REMARK  status: ('A' for Active; 'I' for Inactive)
REMARK    1  A    between atoms: C4_4  and  N1_5 
REMARK    2  A    between atoms: N1_5  and  S1_7 
REMARK    3  A    between atoms: C7_12  and  C8_13 
REMARK    4  A    between atoms: C18_26  and  N3_27 
REMARK    5  A    between atoms: N3_27  and  C19_28 
REMARK    6  A    between atoms: C22_35  and  C23_36 
REMARK    7  A    between atoms: C23_36  and  N6_38 
REMARK    8  A    between atoms: N6_38  and  C25_40 
REMARK    9  A    between atoms: C25_40  and  C26_41 
REMARK   10  A    between atoms: C26_41  and  N7_42 
ROOT
HETATM    1  C1  UNL     1      -8.924 -17.782 -12.081  1.00  0.00     0.052 C 
HETATM    2  C2  UNL     1     -10.211 -18.109 -12.760  1.00  0.00    -0.018 A 
HETATM    3  C3  UNL     1     -10.267 -18.568 -14.034  1.00  0.00     0.040 A 
HETATM    4  C4  UNL     1     -11.507 -18.848 -14.600  1.00  0.00     0.043 A 
HETATM    5  C6  UNL     1     -12.615 -18.655 -13.860  1.00  0.00     0.047 A 
HETATM    6  C7  UNL     1     -12.596 -18.170 -12.519  1.00  0.00     0.034 A 
HETATM    7  C18 UNL     1     -11.374 -17.892 -11.942  1.00  0.00     0.129 A 
ENDROOT
BRANCH   7   8
HETATM    8  N3  UNL     1     -11.134 -17.578 -10.714  1.00  0.00    -0.370 NA
BRANCH   8   9
HETATM    9  C19 UNL     1     -10.901 -17.353  -9.549  1.00  0.00     0.260 A 
HETATM   10  N4  UNL     1      -9.751 -17.362  -8.894  1.00  0.00    -0.313 N 
HETATM   11  C20 UNL     1      -9.959 -16.997  -7.631  1.00  0.00     0.078 A 
ATOM     12  H4  UNL     1      -8.846 -17.610  -9.295  1.00  0.00     0.170 HD
HETATM   13  C21 UNL     1      -9.133 -16.818  -6.525  1.00  0.00     0.120 A 
HETATM   14  C30 UNL     1     -11.299 -16.745  -7.475  1.00  0.00     0.066 A 
HETATM   15  N5  UNL     1      -9.654 -16.403  -5.340  1.00  0.00    -0.365 N 
HETATM   16  C22 UNL     1     -10.945 -16.154  -5.169  1.00  0.00     0.033 A 
ATOM     17  H5  UNL     1      -9.024 -16.279  -4.546  1.00  0.00     0.165 HD
HETATM   18  C29 UNL     1     -11.790 -16.319  -6.227  1.00  0.00     0.059 A 
HETATM   19  N8  UNL     1     -11.860 -16.967  -8.650  1.00  0.00    -0.314 N 
ATOM     20  H8  UNL     1     -12.853 -16.866  -8.857  1.00  0.00     0.170 HD
BRANCH  16  21
HETATM   21  C23 UNL     1     -11.404 -15.661  -3.818  1.00  0.00     0.126 C 
HETATM   22  C24 UNL     1     -11.564 -16.857  -2.917  1.00  0.00     0.039 C 
BRANCH  21  23
HETATM   23  N6  UNL     1     -10.610 -14.637  -3.322  1.00  0.00    -0.391 N 
ATOM     24  H6  UNL     1      -9.745 -14.852  -2.825  1.00  0.00     0.159 HD
BRANCH  23  25
HETATM   25  C25 UNL     1     -11.004 -13.311  -3.509  1.00  0.00     0.086 C 
BRANCH  25  26
HETATM   26  C26 UNL     1     -12.350 -12.850  -3.077  1.00  0.00     0.315 C 
BRANCH  26  27
HETATM   27  N7  UNL     1     -12.498 -13.050  -1.608  1.00  0.00     0.084 N 
HETATM   28  C27 UNL     1     -12.842 -11.763  -1.059  1.00  0.00     0.309 C 
HETATM   29  C28 UNL     1     -13.536 -13.989  -1.321  1.00  0.00     0.309 C 
ENDBRANCH  26  27
ENDBRANCH  25  26
ENDBRANCH  23  25
ENDBRANCH  21  23
ENDBRANCH  16  21
ENDBRANCH   8   9
ENDBRANCH   7   8
BRANCH   6  30
HETATM   30  C8  UNL     1     -13.882 -18.154 -11.903  1.00  0.00     0.048 C 
HETATM   31  N2  UNL     1     -14.897 -18.904 -12.370  1.00  0.00    -0.389 N 
HETATM   32  C9  UNL     1     -16.125 -18.758 -11.615  1.00  0.00     0.120 C 
ATOM     33  H2  UNL     1     -14.809 -19.519 -13.179  1.00  0.00     0.159 HD
HETATM   34  C10 UNL     1     -15.949 -18.876 -10.121  1.00  0.00     0.024 C 
HETATM   35  C11 UNL     1     -14.934 -17.848  -9.613  1.00  0.00     0.043 C 
HETATM   36  C12 UNL     1     -14.308 -17.242 -10.874  1.00  0.00    -0.025 C 
HETATM   37  C13 UNL     1     -14.262 -15.944 -11.063  1.00  0.00    -0.038 C 
HETATM   38  C14 UNL     1     -14.702 -15.012  -9.997  1.00  0.00     0.038 C 
HETATM   39  C17 UNL     1     -13.861 -15.167 -12.228  1.00  0.00     0.200 C 
HETATM   40  C15 UNL     1     -14.359 -13.648 -10.456  1.00  0.00     0.007 C 
HETATM   41  C16 UNL     1     -14.394 -13.750 -11.978  1.00  0.00     0.042 C 
HETATM   42  F1  UNL     1     -14.466 -15.655 -13.397  1.00  0.00    -0.245 F 
ENDBRANCH   6  30
BRANCH   4  43
HETATM   43  N1  UNL     1     -11.450 -19.286 -15.947  1.00  0.00    -0.285 N 
ATOM     44  H1  UNL     1     -11.407 -18.586 -16.687  1.00  0.00     0.178 HD
BRANCH  43  45
HETATM   45  S1  UNL     1     -11.451 -20.939 -16.382  1.00  0.00     0.227 S 
HETATM   46  C5  UNL     1      -9.835 -21.621 -16.168  1.00  0.00     0.186 C 
HETATM   47  O1  UNL     1     -11.938 -21.124 -17.802  1.00  0.00    -0.206 OA
HETATM   48  O2  UNL     1     -12.415 -21.690 -15.458  1.00  0.00    -0.206 OA
ENDBRANCH  43  45
ENDBRANCH   4  43
TORSDOF 10
ENDMDL
MODEL 4
REMARK VINA RESULT: -7.935946474      4.843      7.982
REMARK  10 active torsions:
REMARK  status: ('A' for Active; 'I' for Inactive)
REMARK    1  A    between atoms: C4_4  and  N1_5 
REMARK    2  A    between atoms: N1_5  and  S1_7 
REMARK    3  A    between atoms: C7_12  and  C8_13 
REMARK    4  A    between atoms: C18_26  and  N3_27 
REMARK    5  A    between atoms: N3_27  and  C19_28 
REMARK    6  A    between atoms: C22_35  and  C23_36 
REMARK    7  A    between atoms: C23_36  and  N6_38 
REMARK    8  A    between atoms: N6_38  and  C25_40 
REMARK    9  A    between atoms: C25_40  and  C26_41 
REMARK   10  A    between atoms: C26_41  and  N7_42 
ROOT
HETATM    1  C1  UNL     1     -12.422 -13.280  -6.019  1.00  0.00     0.052 C 
HETATM    2  C2  UNL     1     -12.021 -14.451  -6.851  1.00  0.00    -0.018 A 
HETATM    3  C3  UNL     1     -11.305 -15.488  -6.355  1.00  0.00     0.040 A 
HETATM    4  C4  UNL     1     -10.967 -16.543  -7.196  1.00  0.00     0.043 A 
HETATM    5  C6  UNL     1     -11.365 -16.500  -8.482  1.00  0.00     0.047 A 
HETATM    6  C7  UNL     1     -12.117 -15.425  -9.041  1.00  0.00     0.034 A 
HETATM    7  C18 UNL     1     -12.464 -14.373  -8.218  1.00  0.00     0.129 A 
ENDROOT
BRANCH   7   8
HETATM    8  N3  UNL     1     -13.245 -13.383  -8.489  1.00  0.00    -0.370 NA
BRANCH   8   9
HETATM    9  C19 UNL     1     -14.007 -12.495  -8.793  1.00  0.00     0.260 A 
HETATM   10  N4  UNL     1     -13.893 -11.556  -9.720  1.00  0.00    -0.313 N 
HETATM   11  C20 UNL     1     -15.002 -10.821  -9.743  1.00  0.00     0.078 A 
ATOM     12  H4  UNL     1     -13.081 -11.418 -10.322  1.00  0.00     0.170 HD
HETATM   13  C21 UNL     1     -15.433  -9.741 -10.507  1.00  0.00     0.120 A 
HETATM   14  C30 UNL     1     -15.860 -11.312  -8.791  1.00  0.00     0.066 A 
HETATM   15  N5  UNL     1     -16.667  -9.205 -10.304  1.00  0.00    -0.365 N 
HETATM   16  C22 UNL     1     -17.510  -9.666  -9.390  1.00  0.00     0.033 A 
ATOM     17  H5  UNL     1     -16.956  -8.414 -10.881  1.00  0.00     0.165 HD
HETATM   18  C29 UNL     1     -17.126 -10.723  -8.619  1.00  0.00     0.059 A 
HETATM   19  N8  UNL     1     -15.240 -12.330  -8.220  1.00  0.00    -0.314 N 
ATOM     20  H8  UNL     1     -15.621 -12.905  -7.469  1.00  0.00     0.170 HD
BRANCH  16  21
HETATM   21  C23 UNL     1     -18.868  -9.017  -9.281  1.00  0.00     0.126 C 
HETATM   22  C24 UNL     1     -18.967  -7.964 -10.353  1.00  0.00     0.039 C 
BRANCH  21  23
HETATM   23  N6  UNL     1     -19.903  -9.941  -9.249  1.00  0.00    -0.391 N 
ATOM     24  H6  UNL     1     -20.092 -10.471  -8.399  1.00  0.00     0.159 HD
BRANCH  23  25
HETATM   25  C25 UNL     1     -20.682 -10.138 -10.390  1.00  0.00     0.086 C 
BRANCH  25  26
HETATM   26  C26 UNL     1     -20.702 -11.456 -11.078  1.00  0.00     0.315 C 
BRANCH  26  27
HETATM   27  N7  UNL     1     -20.196 -11.299 -12.471  1.00  0.00     0.084 N 
HETATM   28  C27 UNL     1     -20.705 -10.037 -12.946  1.00  0.00     0.309 C 
HETATM   29  C28 UNL     1     -18.767 -11.282 -12.498  1.00  0.00     0.309 C 
ENDBRANCH  26  27
ENDBRANCH  25  26
ENDBRANCH  23  25
ENDBRANCH  21  23
ENDBRANCH  16  21
ENDBRANCH   8   9
ENDBRANCH   7   8
BRANCH   6  30
HETATM   30  C8  UNL     1     -12.519 -15.654 -10.389  1.00  0.00     0.048 C 
HETATM   31  N2  UNL     1     -12.538 -14.663 -11.298  1.00  0.00    -0.389 N 
HETATM   32  C9  UNL     1     -12.972 -15.086 -12.614  1.00  0.00     0.120 C 
ATOM     33  H2  UNL     1     -12.272 -13.702 -11.081  1.00  0.00     0.159 HD
HETATM   34  C10 UNL     1     -12.284 -16.330 -13.121  1.00  0.00     0.024 C 
HETATM   35  C11 UNL     1     -12.477 -17.492 -12.141  1.00  0.00     0.043 C 
HETATM   36  C12 UNL     1     -13.110 -16.866 -10.894  1.00  0.00    -0.025 C 
HETATM   37  C13 UNL     1     -14.213 -17.347 -10.368  1.00  0.00    -0.038 C 
HETATM   38  C14 UNL     1     -14.815 -18.596 -10.893  1.00  0.00     0.038 C 
HETATM   39  C17 UNL     1     -15.058 -16.833  -9.299  1.00  0.00     0.200 C 
HETATM   40  C15 UNL     1     -15.926 -18.949  -9.981  1.00  0.00     0.007 C 
HETATM   41  C16 UNL     1     -16.378 -17.607  -9.413  1.00  0.00     0.042 C 
HETATM   42  F1  UNL     1     -15.341 -15.471  -9.484  1.00  0.00    -0.245 F 
ENDBRANCH   6  30
BRANCH   4  43
HETATM   43  N1  UNL     1     -10.185 -17.554  -6.583  1.00  0.00    -0.285 N 
ATOM     44  H1  UNL     1     -10.661 -18.296  -6.069  1.00  0.00     0.178 HD
BRANCH  43  45
HETATM   45  S1  UNL     1      -8.478 -17.584  -6.670  1.00  0.00     0.227 S 
HETATM   46  C5  UNL     1      -7.958 -18.657  -7.975  1.00  0.00     0.186 C 
HETATM   47  O1  UNL     1      -7.876 -18.002  -5.347  1.00  0.00    -0.206 OA
HETATM   48  O2  UNL     1      -7.978 -16.171  -6.984  1.00  0.00    -0.206 OA
ENDBRANCH  43  45
ENDBRANCH   4  43
TORSDOF 10
ENDMDL
MODEL 5
REMARK VINA RESULT: -7.779209900      4.809      7.524
REMARK  10 active torsions:
REMARK  status: ('A' for Active; 'I' for Inactive)
REMARK    1  A    between atoms: C4_4  and  N1_5 
REMARK    2  A    between atoms: N1_5  and  S1_7 
REMARK    3  A    between atoms: C7_12  and  C8_13 
REMARK    4  A    between atoms: C18_26  and  N3_27 
REMARK    5  A    between atoms: N3_27  and  C19_28 
REMARK    6  A    between atoms: C22_35  and  C23_36 
REMARK    7  A    between atoms: C23_36  and  N6_38 
REMARK    8  A    between atoms: N6_38  and  C25_40 
REMARK    9  A    between atoms: C25_40  and  C26_41 
REMARK   10  A    between atoms: C26_41  and  N7_42 
ROOT
HETATM    1  C1  UNL     1     -12.462 -13.283  -5.982  1.00  0.00     0.052 C 
HETATM    2  C2  UNL     1     -12.016 -14.471  -6.766  1.00  0.00    -0.018 A 
HETATM    3  C3  UNL     1     -11.305 -15.484  -6.215  1.00  0.00     0.040 A 
HETATM    4  C4  UNL     1     -10.923 -16.557  -7.014  1.00  0.00     0.043 A 
HETATM    5  C6  UNL     1     -11.275 -16.555  -8.313  1.00  0.00     0.047 A 
HETATM    6  C7  UNL     1     -12.019 -15.505  -8.929  1.00  0.00     0.034 A 
HETATM    7  C18 UNL     1     -12.410 -14.437  -8.150  1.00  0.00     0.129 A 
ENDROOT
BRANCH   7   8
HETATM    8  N3  UNL     1     -13.193 -13.465  -8.476  1.00  0.00    -0.370 NA
BRANCH   8   9
HETATM    9  C19 UNL     1     -13.962 -12.600  -8.823  1.00  0.00     0.260 A 
HETATM   10  N4  UNL     1     -13.931 -11.808  -9.884  1.00  0.00    -0.313 N 
HETATM   11  C20 UNL     1     -15.019 -11.041  -9.894  1.00  0.00     0.078 A 
ATOM     12  H4  UNL     1     -13.190 -11.790 -10.585  1.00  0.00     0.170 HD
HETATM   13  C21 UNL     1     -15.508 -10.064 -10.757  1.00  0.00     0.120 A 
HETATM   14  C30 UNL     1     -15.775 -11.356  -8.794  1.00  0.00     0.066 A 
HETATM   15  N5  UNL     1     -16.697  -9.456 -10.503  1.00  0.00    -0.365 N 
HETATM   16  C22 UNL     1     -17.442  -9.748  -9.445  1.00  0.00     0.033 A 
ATOM     17  H5  UNL     1     -17.031  -8.745 -11.154  1.00  0.00     0.165 HD
HETATM   18  C29 UNL     1     -16.998 -10.698  -8.573  1.00  0.00     0.059 A 
HETATM   19  N8  UNL     1     -15.119 -12.306  -8.150  1.00  0.00    -0.314 N 
ATOM     20  H8  UNL     1     -15.426 -12.752  -7.286  1.00  0.00     0.170 HD
BRANCH  16  21
HETATM   21  C23 UNL     1     -18.764  -9.036  -9.286  1.00  0.00     0.126 C 
HETATM   22  C24 UNL     1     -19.854 -10.074  -9.291  1.00  0.00     0.039 C 
BRANCH  21  23
HETATM   23  N6  UNL     1     -18.774  -8.158  -8.211  1.00  0.00    -0.391 N 
ATOM     24  H6  UNL     1     -19.358  -8.350  -7.397  1.00  0.00     0.159 HD
BRANCH  23  25
HETATM   25  C25 UNL     1     -17.979  -7.012  -8.253  1.00  0.00     0.086 C 
BRANCH  25  26
HETATM   26  C26 UNL     1     -16.920  -6.784  -7.236  1.00  0.00     0.315 C 
BRANCH  26  27
HETATM   27  N7  UNL     1     -15.627  -6.495  -7.918  1.00  0.00     0.084 N 
HETATM   28  C27 UNL     1     -14.826  -7.686  -7.785  1.00  0.00     0.309 C 
HETATM   29  C28 UNL     1     -15.831  -6.205  -9.302  1.00  0.00     0.309 C 
ENDBRANCH  26  27
ENDBRANCH  25  26
ENDBRANCH  23  25
ENDBRANCH  21  23
ENDBRANCH  16  21
ENDBRANCH   8   9
ENDBRANCH   7   8
BRANCH   6  30
HETATM   30  C8  UNL     1     -12.368 -15.778 -10.285  1.00  0.00     0.048 C 
HETATM   31  N2  UNL     1     -12.312 -14.825 -11.233  1.00  0.00    -0.389 N 
HETATM   32  C9  UNL     1     -12.702 -15.288 -12.549  1.00  0.00     0.120 C 
ATOM     33  H2  UNL     1     -12.021 -13.866 -11.043  1.00  0.00     0.159 HD
HETATM   34  C10 UNL     1     -12.036 -16.575 -12.973  1.00  0.00     0.024 C 
HETATM   35  C11 UNL     1     -12.315 -17.687 -11.958  1.00  0.00     0.043 C 
HETATM   36  C12 UNL     1     -12.980 -16.989 -10.767  1.00  0.00    -0.025 C 
HETATM   37  C13 UNL     1     -14.121 -17.409 -10.274  1.00  0.00    -0.038 C 
HETATM   38  C14 UNL     1     -14.744 -18.658 -10.775  1.00  0.00     0.038 C 
HETATM   39  C17 UNL     1     -14.995 -16.822  -9.266  1.00  0.00     0.200 C 
HETATM   40  C15 UNL     1     -15.906 -18.935  -9.902  1.00  0.00     0.007 C 
HETATM   41  C16 UNL     1     -16.335 -17.556  -9.409  1.00  0.00     0.042 C 
HETATM   42  F1  UNL     1     -15.219 -15.461  -9.518  1.00  0.00    -0.245 F 
ENDBRANCH   6  30
BRANCH   4  43
HETATM   43  N1  UNL     1     -10.152 -17.540  -6.345  1.00  0.00    -0.285 N 
ATOM     44  H1  UNL     1     -10.629 -18.201  -5.731  1.00  0.00     0.178 HD
BRANCH  43  45
HETATM   45  S1  UNL     1      -8.457 -17.665  -6.524  1.00  0.00     0.227 S 
HETATM   46  C5  UNL     1      -8.070 -18.662  -7.932  1.00  0.00     0.186 C 
HETATM   47  O1  UNL     1      -7.820 -18.222  -5.271  1.00  0.00    -0.206 OA
HETATM   48  O2  UNL     1      -7.883 -16.265  -6.756  1.00  0.00    -0.206 OA
ENDBRANCH  43  45
ENDBRANCH   4  43
TORSDOF 10
ENDMDL
