MODEL 1
REMARK VINA RESULT: -7.293414100      0.000      0.000
REMARK  12 active torsions:
REMARK  status: ('A' for Active; 'I' for Inactive)
REMARK    1  A    between atoms: C3_5  and  N2_6 
REMARK    2  A    between atoms: N4_11  and  C4_12 
REMARK    3  A    between atoms: C4_12  and  O1_13 
REMARK    4  A    between atoms: O1_13  and  C5_14 
REMARK    5  A    between atoms: C6_15  and  C7_16 
REMARK    6  A    between atoms: C7_16  and  C8_17 
REMARK    7  A    between atoms: C8_17  and  C9_18 
REMARK    8  A    between atoms: C9_18  and  O2_19 
REMARK    9  A    between atoms: C10_21  and  N5_22 
REMARK   10  A    between atoms: N5_22  and  N6_23 
REMARK   11  A    between atoms: N5_22  and  O3_26 
REMARK   12  A    between atoms: C12_34  and  N9_35 
ROOT
HETATM    1  C5  UNL     1     -42.005   7.161 -18.847  1.00  0.00     0.123 A 
HETATM    2  C6  UNL     1     -41.479   6.156 -19.641  1.00  0.00     0.027 A 
HETATM    3  C10 UNL     1     -40.252   6.348 -20.231  1.00  0.00     0.162 A 
HETATM    4  N7  UNL     1     -39.550   7.477 -20.065  1.00  0.00    -0.323 N 
ATOM      5  H7  UNL     1     -38.641   7.591 -20.516  1.00  0.00     0.169 HD
HETATM    6  C11 UNL     1     -40.050   8.448 -19.305  1.00  0.00     0.137 A 
HETATM    7  N8  UNL     1     -39.401   9.568 -19.116  1.00  0.00    -0.383 N 
ATOM      8  H81 UNL     1     -39.784  10.312 -18.534  1.00  0.00     0.157 HD
ATOM      9  H82 UNL     1     -38.499   9.638 -19.587  1.00  0.00     0.157 HD
HETATM   10  C12 UNL     1     -41.276   8.353 -18.665  1.00  0.00     0.180 A 
ENDROOT
BRANCH   1  11
HETATM   11  O1  UNL     1     -43.181   7.041 -18.232  1.00  0.00    -0.301 OA
BRANCH  11  12
HETATM   12  C4  UNL     1     -43.781   6.617 -17.103  1.00  0.00     0.262 C 
BRANCH  12  13
HETATM   13  N4  UNL     1     -43.917   7.505 -15.977  1.00  0.00    -0.193 N 
HETATM   14  N3  UNL     1     -43.031   7.497 -15.004  1.00  0.00    -0.121 N 
HETATM   15  C3  UNL     1     -43.137   8.314 -13.956  1.00  0.00     0.691 A 
ATOM     16  H3  UNL     1     -42.245   6.849 -15.052  1.00  0.00     0.206 HD
HETATM   17  N1  UNL     1     -44.155   9.191 -13.835  1.00  0.00    -0.189 N 
HETATM   18  C2  UNL     1     -45.067   9.219 -14.809  1.00  0.00     0.092 A 
ATOM     19  H1  UNL     1     -44.226   9.810 -13.027  1.00  0.00     0.184 HD
HETATM   20  C1  UNL     1     -46.209  10.163 -14.728  1.00  0.00     0.075 C 
HETATM   21  C13 UNL     1     -44.948   8.372 -15.883  1.00  0.00     0.291 A 
HETATM   22  O6  UNL     1     -45.810   8.388 -16.820  1.00  0.00    -0.264 OA
BRANCH  15  23
HETATM   23  N2  UNL     1     -42.271   8.324 -12.980  1.00  0.00    -0.233 N 
ATOM     24  H22 UNL     1     -41.781   7.485 -12.670  1.00  0.00     0.174 HD
ATOM     25  H21 UNL     1     -42.118   9.233 -12.543  1.00  0.00     0.174 HD
ENDBRANCH  15  23
ENDBRANCH  12  13
ENDBRANCH  11  12
ENDBRANCH   1  11
BRANCH   2  26
HETATM   26  C7  UNL     1     -42.193   4.907 -19.908  1.00  0.00     0.047 C 
BRANCH  26  27
HETATM   27  C8  UNL     1     -42.168   3.875 -18.823  1.00  0.00     0.031 C 
BRANCH  27  28
HETATM   28  C9  UNL     1     -42.540   2.549 -19.512  1.00  0.00     0.164 C 
BRANCH  28  29
HETATM   29  O2  UNL     1     -41.617   2.286 -20.519  1.00  0.00    -0.401 OA
ATOM     30  H2  UNL     1     -42.052   2.345 -21.361  1.00  0.00     0.209 HD
ENDBRANCH  28  29
ENDBRANCH  27  28
ENDBRANCH  26  27
ENDBRANCH   2  26
BRANCH  10  31
HETATM   31  N9  UNL     1     -41.729   9.419 -17.858  1.00  0.00    -0.109 N 
HETATM   32  O4  UNL     1     -41.374   9.548 -16.681  1.00  0.00    -0.532 OA
HETATM   33  O5  UNL     1     -42.586  10.340 -18.392  1.00  0.00    -0.532 OA
ENDBRANCH  10  31
BRANCH   3  34
HETATM   34  N5  UNL     1     -39.647   5.358 -21.050  1.00  0.00    -0.152 N 
BRANCH  34  35
HETATM   35  N6  UNL     1     -39.074   4.250 -20.458  1.00  0.00    -0.317 N 
ATOM     36  H62 UNL     1     -38.079   4.229 -20.232  1.00  0.00     0.179 HD
ATOM     37  H61 UNL     1     -39.658   3.444 -20.236  1.00  0.00     0.179 HD
ENDBRANCH  34  35
BRANCH  34  38
HETATM   38  O3  UNL     1     -39.633   5.516 -22.371  1.00  0.00    -0.267 OA
ATOM     39  H3  UNL     1     -38.802   5.595 -22.825  1.00  0.00     0.247 HD
ENDBRANCH  34  38
ENDBRANCH   3  34
TORSDOF 12
ENDMDL
MODEL 2
REMARK VINA RESULT: -7.237673994      7.726      9.961
REMARK  12 active torsions:
REMARK  status: ('A' for Active; 'I' for Inactive)
REMARK    1  A    between atoms: C3_5  and  N2_6 
REMARK    2  A    between atoms: N4_11  and  C4_12 
REMARK    3  A    between atoms: C4_12  and  O1_13 
REMARK    4  A    between atoms: O1_13  and  C5_14 
REMARK    5  A    between atoms: C6_15  and  C7_16 
REMARK    6  A    between atoms: C7_16  and  C8_17 
REMARK    7  A    between atoms: C8_17  and  C9_18 
REMARK    8  A    between atoms: C9_18  and  O2_19 
REMARK    9  A    between atoms: C10_21  and  N5_22 
REMARK   10  A    between atoms: N5_22  and  N6_23 
REMARK   11  A    between atoms: N5_22  and  O3_26 
REMARK   12  A    between atoms: C12_34  and  N9_35 
ROOT
HETATM    1  C5  UNL     1     -41.680  -1.387 -13.751  1.00  0.00     0.123 A 
HETATM    2  C6  UNL     1     -40.453  -1.152 -13.156  1.00  0.00     0.027 A 
HETATM    3  C10 UNL     1     -39.754  -2.214 -12.632  1.00  0.00     0.162 A 
HETATM    4  N7  UNL     1     -40.222  -3.469 -12.678  1.00  0.00    -0.323 N 
ATOM      5  H7  UNL     1     -39.680  -4.237 -12.281  1.00  0.00     0.169 HD
HETATM    6  C11 UNL     1     -41.402  -3.702 -13.247  1.00  0.00     0.137 A 
HETATM    7  N8  UNL     1     -41.900  -4.909 -13.313  1.00  0.00    -0.383 N 
ATOM      8  H81 UNL     1     -42.804  -5.088 -13.748  1.00  0.00     0.157 HD
ATOM      9  H82 UNL     1     -41.324  -5.645 -12.902  1.00  0.00     0.157 HD
HETATM   10  C12 UNL     1     -42.184  -2.702 -13.805  1.00  0.00     0.180 A 
ENDROOT
BRANCH   1  11
HETATM   11  O1  UNL     1     -42.408  -0.411 -14.291  1.00  0.00    -0.301 OA
BRANCH  11  12
HETATM   12  C4  UNL     1     -43.400   0.469 -14.049  1.00  0.00     0.262 C 
BRANCH  12  13
HETATM   13  N4  UNL     1     -43.825   1.384 -15.078  1.00  0.00    -0.193 N 
HETATM   14  N3  UNL     1     -43.009   1.723 -16.053  1.00  0.00    -0.121 N 
HETATM   15  C3  UNL     1     -43.384   2.563 -17.017  1.00  0.00     0.691 A 
ATOM     16  H3  UNL     1     -42.066   1.333 -16.072  1.00  0.00     0.206 HD
HETATM   17  N1  UNL     1     -44.616   3.113 -17.045  1.00  0.00    -0.189 N 
HETATM   18  C2  UNL     1     -45.463   2.785 -16.067  1.00  0.00     0.092 A 
ATOM     19  H1  UNL     1     -44.890   3.756 -17.788  1.00  0.00     0.184 HD
HETATM   20  C1  UNL     1     -46.830   3.359 -16.048  1.00  0.00     0.075 C 
HETATM   21  C13 UNL     1     -45.065   1.918 -15.080  1.00  0.00     0.291 A 
HETATM   22  O6  UNL     1     -45.861   1.595 -14.140  1.00  0.00    -0.264 OA
BRANCH  15  23
HETATM   23  N2  UNL     1     -42.593   2.915 -17.993  1.00  0.00    -0.233 N 
ATOM     24  H22 UNL     1     -42.853   2.819 -18.975  1.00  0.00     0.174 HD
ATOM     25  H21 UNL     1     -41.689   3.293 -17.708  1.00  0.00     0.174 HD
ENDBRANCH  15  23
ENDBRANCH  12  13
ENDBRANCH  11  12
ENDBRANCH   1  11
BRANCH   2  26
HETATM   26  C7  UNL     1     -39.882   0.189 -13.028  1.00  0.00     0.047 C 
BRANCH  26  27
HETATM   27  C8  UNL     1     -39.769   0.992 -14.286  1.00  0.00     0.031 C 
BRANCH  27  28
HETATM   28  C9  UNL     1     -38.317   0.798 -14.764  1.00  0.00     0.164 C 
BRANCH  28  29
HETATM   29  O2  UNL     1     -37.694   2.039 -14.840  1.00  0.00    -0.401 OA
ATOM     30  H2  UNL     1     -37.419   2.301 -13.969  1.00  0.00     0.209 HD
ENDBRANCH  28  29
ENDBRANCH  27  28
ENDBRANCH  26  27
ENDBRANCH   2  26
BRANCH  10  31
HETATM   31  N9  UNL     1     -43.417  -3.033 -14.409  1.00  0.00    -0.109 N 
HETATM   32  O4  UNL     1     -44.326  -3.590 -13.785  1.00  0.00    -0.532 OA
HETATM   33  O5  UNL     1     -43.613  -2.729 -15.727  1.00  0.00    -0.532 OA
ENDBRANCH  10  31
BRANCH   3  34
HETATM   34  N5  UNL     1     -38.485  -2.050 -12.016  1.00  0.00    -0.152 N 
BRANCH  34  35
HETATM   35  N6  UNL     1     -37.342  -2.173 -12.780  1.00  0.00    -0.317 N 
ATOM     36  H62 UNL     1     -37.276  -2.871 -13.521  1.00  0.00     0.179 HD
ATOM     37  H61 UNL     1     -36.554  -1.550 -12.604  1.00  0.00     0.179 HD
ENDBRANCH  34  35
BRANCH  34  38
HETATM   38  O3  UNL     1     -38.416  -1.790 -10.713  1.00  0.00    -0.267 OA
ATOM     39  H3  UNL     1     -37.568  -1.760 -10.284  1.00  0.00     0.247 HD
ENDBRANCH  34  38
ENDBRANCH   3  34
TORSDOF 12
ENDMDL
MODEL 3
REMARK VINA RESULT: -7.185188842      3.840      7.583
REMARK  12 active torsions:
REMARK  status: ('A' for Active; 'I' for Inactive)
REMARK    1  A    between atoms: C3_5  and  N2_6 
REMARK    2  A    between atoms: N4_11  and  C4_12 
REMARK    3  A    between atoms: C4_12  and  O1_13 
REMARK    4  A    between atoms: O1_13  and  C5_14 
REMARK    5  A    between atoms: C6_15  and  C7_16 
REMARK    6  A    between atoms: C7_16  and  C8_17 
REMARK    7  A    between atoms: C8_17  and  C9_18 
REMARK    8  A    between atoms: C9_18  and  O2_19 
REMARK    9  A    between atoms: C10_21  and  N5_22 
REMARK   10  A    between atoms: N5_22  and  N6_23 
REMARK   11  A    between atoms: N5_22  and  O3_26 
REMARK   12  A    between atoms: C12_34  and  N9_35 
ROOT
HETATM    1  C5  UNL     1     -43.044   4.088 -18.025  1.00  0.00     0.123 A 
HETATM    2  C6  UNL     1     -44.106   4.312 -17.166  1.00  0.00     0.027 A 
HETATM    3  C10 UNL     1     -44.214   5.536 -16.548  1.00  0.00     0.162 A 
HETATM    4  N7  UNL     1     -43.324   6.518 -16.748  1.00  0.00    -0.323 N 
ATOM      5  H7  UNL     1     -43.431   7.415 -16.275  1.00  0.00     0.169 HD
HETATM    6  C11 UNL     1     -42.300   6.308 -17.571  1.00  0.00     0.137 A 
HETATM    7  N8  UNL     1     -41.406   7.236 -17.795  1.00  0.00    -0.383 N 
ATOM      8  H81 UNL     1     -40.621   7.075 -18.425  1.00  0.00     0.157 HD
ATOM      9  H82 UNL     1     -41.552   8.116 -17.300  1.00  0.00     0.157 HD
HETATM   10  C12 UNL     1     -42.101   5.111 -18.243  1.00  0.00     0.180 A 
ENDROOT
BRANCH   1  11
HETATM   11  O1  UNL     1     -42.881   2.933 -18.668  1.00  0.00    -0.301 OA
BRANCH  11  12
HETATM   12  C4  UNL     1     -42.566   2.384 -19.858  1.00  0.00     0.262 C 
BRANCH  12  13
HETATM   13  N4  UNL     1     -43.605   2.031 -20.792  1.00  0.00    -0.193 N 
HETATM   14  N3  UNL     1     -44.712   2.739 -20.864  1.00  0.00    -0.121 N 
HETATM   15  C3  UNL     1     -45.682   2.431 -21.724  1.00  0.00     0.691 A 
ATOM     16  H3  UNL     1     -44.830   3.542 -20.247  1.00  0.00     0.206 HD
HETATM   17  N1  UNL     1     -45.586   1.379 -22.564  1.00  0.00    -0.189 N 
HETATM   18  C2  UNL     1     -44.472   0.645 -22.510  1.00  0.00     0.092 A 
ATOM     19  H1  UNL     1     -46.336   1.153 -23.216  1.00  0.00     0.184 HD
HETATM   20  C1  UNL     1     -44.311  -0.523 -23.409  1.00  0.00     0.075 C 
HETATM   21  C13 UNL     1     -43.479   0.971 -21.620  1.00  0.00     0.291 A 
HETATM   22  O6  UNL     1     -42.411   0.281 -21.557  1.00  0.00    -0.264 OA
BRANCH  15  23
HETATM   23  N2  UNL     1     -46.788   3.118 -21.814  1.00  0.00    -0.233 N 
ATOM     24  H22 UNL     1     -46.950   3.809 -22.547  1.00  0.00     0.174 HD
ATOM     25  H21 UNL     1     -47.486   2.917 -21.097  1.00  0.00     0.174 HD
ENDBRANCH  15  23
ENDBRANCH  12  13
ENDBRANCH  11  12
ENDBRANCH   1  11
BRANCH   2  26
HETATM   26  C7  UNL     1     -45.103   3.286 -16.859  1.00  0.00     0.047 C 
BRANCH  26  27
HETATM   27  C8  UNL     1     -44.743   2.298 -15.794  1.00  0.00     0.031 C 
BRANCH  27  28
HETATM   28  C9  UNL     1     -45.862   2.407 -14.741  1.00  0.00     0.164 C 
BRANCH  28  29
HETATM   29  O2  UNL     1     -45.350   3.006 -13.594  1.00  0.00    -0.401 OA
ATOM     30  H2  UNL     1     -45.957   2.871 -12.877  1.00  0.00     0.209 HD
ENDBRANCH  28  29
ENDBRANCH  27  28
ENDBRANCH  26  27
ENDBRANCH   2  26
BRANCH  10  31
HETATM   31  N9  UNL     1     -41.000   4.974 -19.116  1.00  0.00    -0.109 N 
HETATM   32  O4  UNL     1     -39.951   4.421 -18.768  1.00  0.00    -0.532 OA
HETATM   33  O5  UNL     1     -41.094   5.468 -20.386  1.00  0.00    -0.532 OA
ENDBRANCH  10  31
BRANCH   3  34
HETATM   34  N5  UNL     1     -45.282   5.840 -15.663  1.00  0.00    -0.152 N 
BRANCH  34  35
HETATM   35  N6  UNL     1     -46.501   6.227 -16.183  1.00  0.00    -0.317 N 
ATOM     36  H62 UNL     1     -47.034   5.608 -16.793  1.00  0.00     0.179 HD
ATOM     37  H61 UNL     1     -46.878   7.144 -15.944  1.00  0.00     0.179 HD
ENDBRANCH  34  35
BRANCH  34  38
HETATM   38  O3  UNL     1     -45.091   5.759 -14.349  1.00  0.00    -0.267 OA
ATOM     39  H3  UNL     1     -45.175   6.539 -13.813  1.00  0.00     0.247 HD
ENDBRANCH  34  38
ENDBRANCH   3  34
TORSDOF 12
ENDMDL
MODEL 4
REMARK VINA RESULT: -7.080351268      8.168     10.093
REMARK  12 active torsions:
REMARK  status: ('A' for Active; 'I' for Inactive)
REMARK    1  A    between atoms: C3_5  and  N2_6 
REMARK    2  A    between atoms: N4_11  and  C4_12 
REMARK    3  A    between atoms: C4_12  and  O1_13 
REMARK    4  A    between atoms: O1_13  and  C5_14 
REMARK    5  A    between atoms: C6_15  and  C7_16 
REMARK    6  A    between atoms: C7_16  and  C8_17 
REMARK    7  A    between atoms: C8_17  and  C9_18 
REMARK    8  A    between atoms: C9_18  and  O2_19 
REMARK    9  A    between atoms: C10_21  and  N5_22 
REMARK   10  A    between atoms: N5_22  and  N6_23 
REMARK   11  A    between atoms: N5_22  and  O3_26 
REMARK   12  A    between atoms: C12_34  and  N9_35 
ROOT
HETATM    1  C5  UNL     1     -41.611  -1.642 -13.423  1.00  0.00     0.123 A 
HETATM    2  C6  UNL     1     -42.073  -2.914 -13.712  1.00  0.00     0.027 A 
HETATM    3  C10 UNL     1     -41.456  -3.995 -13.127  1.00  0.00     0.162 A 
HETATM    4  N7  UNL     1     -40.420  -3.858 -12.288  1.00  0.00    -0.323 N 
ATOM      5  H7  UNL     1     -39.983  -4.679 -11.870  1.00  0.00     0.169 HD
HETATM    6  C11 UNL     1     -39.968  -2.638 -12.008  1.00  0.00     0.137 A 
HETATM    7  N8  UNL     1     -38.959  -2.456 -11.196  1.00  0.00    -0.383 N 
ATOM      8  H81 UNL     1     -38.613  -1.521 -10.982  1.00  0.00     0.157 HD
ATOM      9  H82 UNL     1     -38.553  -3.304 -10.803  1.00  0.00     0.157 HD
HETATM   10  C12 UNL     1     -40.521  -1.484 -12.543  1.00  0.00     0.180 A 
ENDROOT
BRANCH   1  11
HETATM   11  O1  UNL     1     -42.166  -0.547 -13.941  1.00  0.00    -0.301 OA
BRANCH  11  12
HETATM   12  C4  UNL     1     -42.898   0.545 -13.648  1.00  0.00     0.262 C 
BRANCH  12  13
HETATM   13  N4  UNL     1     -43.446   1.356 -14.705  1.00  0.00    -0.193 N 
HETATM   14  N3  UNL     1     -42.703   1.714 -15.731  1.00  0.00    -0.121 N 
HETATM   15  C3  UNL     1     -43.193   2.459 -16.721  1.00  0.00     0.691 A 
ATOM     16  H3  UNL     1     -41.729   1.413 -15.768  1.00  0.00     0.206 HD
HETATM   17  N1  UNL     1     -44.472   2.888 -16.727  1.00  0.00    -0.189 N 
HETATM   18  C2  UNL     1     -45.247   2.538 -15.697  1.00  0.00     0.092 A 
ATOM     19  H1  UNL     1     -44.834   3.459 -17.490  1.00  0.00     0.184 HD
HETATM   20  C1  UNL     1     -46.661   2.982 -15.651  1.00  0.00     0.075 C 
HETATM   21  C13 UNL     1     -44.731   1.771 -14.683  1.00  0.00     0.291 A 
HETATM   22  O6  UNL     1     -45.458   1.429 -13.695  1.00  0.00    -0.264 OA
BRANCH  15  23
HETATM   23  N2  UNL     1     -42.476   2.826 -17.748  1.00  0.00    -0.233 N 
ATOM     24  H22 UNL     1     -42.891   3.151 -18.621  1.00  0.00     0.174 HD
ATOM     25  H21 UNL     1     -41.466   2.765 -17.619  1.00  0.00     0.174 HD
ENDBRANCH  15  23
ENDBRANCH  12  13
ENDBRANCH  11  12
ENDBRANCH   1  11
BRANCH   2  26
HETATM   26  C7  UNL     1     -43.173  -3.160 -14.645  1.00  0.00     0.047 C 
BRANCH  26  27
HETATM   27  C8  UNL     1     -44.536  -3.324 -14.046  1.00  0.00     0.031 C 
BRANCH  27  28
HETATM   28  C9  UNL     1     -45.351  -2.118 -14.550  1.00  0.00     0.164 C 
BRANCH  28  29
HETATM   29  O2  UNL     1     -44.698  -1.553 -15.640  1.00  0.00    -0.401 OA
ATOM     30  H2  UNL     1     -45.127  -0.737 -15.870  1.00  0.00     0.209 HD
ENDBRANCH  28  29
ENDBRANCH  27  28
ENDBRANCH  26  27
ENDBRANCH   2  26
BRANCH  10  31
HETATM   31  N9  UNL     1     -39.998  -0.224 -12.179  1.00  0.00    -0.109 N 
HETATM   32  O4  UNL     1     -40.094   0.219 -11.030  1.00  0.00    -0.532 OA
HETATM   33  O5  UNL     1     -39.366   0.531 -13.126  1.00  0.00    -0.532 OA
ENDBRANCH  10  31
BRANCH   3  34
HETATM   34  N5  UNL     1     -41.883  -5.327 -13.370  1.00  0.00    -0.152 N 
BRANCH  34  35
HETATM   35  N6  UNL     1     -42.455  -6.051 -12.342  1.00  0.00    -0.317 N 
ATOM     36  H62 UNL     1     -42.772  -5.593 -11.488  1.00  0.00     0.179 HD
ATOM     37  H61 UNL     1     -42.569  -7.060 -12.445  1.00  0.00     0.179 HD
ENDBRANCH  34  35
BRANCH  34  38
HETATM   38  O3  UNL     1     -41.718  -5.861 -14.577  1.00  0.00    -0.267 OA
ATOM     39  H3  UNL     1     -40.881  -6.248 -14.808  1.00  0.00     0.247 HD
ENDBRANCH  34  38
ENDBRANCH   3  34
TORSDOF 12
ENDMDL
MODEL 5
REMARK VINA RESULT: -7.035982397      3.673      6.470
REMARK  12 active torsions:
REMARK  status: ('A' for Active; 'I' for Inactive)
REMARK    1  A    between atoms: C3_5  and  N2_6 
REMARK    2  A    between atoms: N4_11  and  C4_12 
REMARK    3  A    between atoms: C4_12  and  O1_13 
REMARK    4  A    between atoms: O1_13  and  C5_14 
REMARK    5  A    between atoms: C6_15  and  C7_16 
REMARK    6  A    between atoms: C7_16  and  C8_17 
REMARK    7  A    between atoms: C8_17  and  C9_18 
REMARK    8  A    between atoms: C9_18  and  O2_19 
REMARK    9  A    between atoms: C10_21  and  N5_22 
REMARK   10  A    between atoms: N5_22  and  N6_23 
REMARK   11  A    between atoms: N5_22  and  O3_26 
REMARK   12  A    between atoms: C12_34  and  N9_35 
ROOT
HETATM    1  C5  UNL     1     -44.840   3.472 -18.477  1.00  0.00     0.123 A 
HETATM    2  C6  UNL     1     -45.212   3.644 -19.799  1.00  0.00     0.027 A 
HETATM    3  C10 UNL     1     -46.456   4.162 -20.077  1.00  0.00     0.162 A 
HETATM    4  N7  UNL     1     -47.319   4.504 -19.111  1.00  0.00    -0.323 N 
ATOM      5  H7  UNL     1     -48.235   4.886 -19.349  1.00  0.00     0.169 HD
HETATM    6  C11 UNL     1     -46.969   4.339 -17.838  1.00  0.00     0.137 A 
HETATM    7  N8  UNL     1     -47.779   4.656 -16.862  1.00  0.00    -0.383 N 
ATOM      8  H81 UNL     1     -47.511   4.529 -15.887  1.00  0.00     0.157 HD
ATOM      9  H82 UNL     1     -48.683   5.032 -17.147  1.00  0.00     0.157 HD
HETATM   10  C12 UNL     1     -45.739   3.826 -17.452  1.00  0.00     0.180 A 
ENDROOT
BRANCH   1  11
HETATM   11  O1  UNL     1     -43.648   2.988 -18.130  1.00  0.00    -0.301 OA
BRANCH  11  12
HETATM   12  C4  UNL     1     -42.419   3.329 -17.696  1.00  0.00     0.262 C 
BRANCH  12  13
HETATM   13  N4  UNL     1     -41.625   4.276 -18.437  1.00  0.00    -0.193 N 
HETATM   14  N3  UNL     1     -40.725   3.865 -19.305  1.00  0.00    -0.121 N 
HETATM   15  C3  UNL     1     -39.985   4.725 -20.003  1.00  0.00     0.691 A 
ATOM     16  H3  UNL     1     -40.592   2.864 -19.447  1.00  0.00     0.206 HD
HETATM   17  N1  UNL     1     -40.114   6.060 -19.859  1.00  0.00    -0.189 N 
HETATM   18  C2  UNL     1     -41.020   6.503 -18.984  1.00  0.00     0.092 A 
ATOM     19  H1  UNL     1     -39.540   6.708 -20.398  1.00  0.00     0.184 HD
HETATM   20  C1  UNL     1     -41.204   7.961 -18.784  1.00  0.00     0.075 C 
HETATM   21  C13 UNL     1     -41.777   5.608 -18.270  1.00  0.00     0.291 A 
HETATM   22  O6  UNL     1     -42.645   6.015 -17.433  1.00  0.00    -0.264 OA
BRANCH  15  23
HETATM   23  N2  UNL     1     -39.087   4.341 -20.869  1.00  0.00    -0.233 N 
ATOM     24  H22 UNL     1     -39.194   4.486 -21.874  1.00  0.00     0.174 HD
ATOM     25  H21 UNL     1     -38.267   3.882 -20.473  1.00  0.00     0.174 HD
ENDBRANCH  15  23
ENDBRANCH  12  13
ENDBRANCH  11  12
ENDBRANCH   1  11
BRANCH   2  26
HETATM   26  C7  UNL     1     -44.349   3.265 -20.917  1.00  0.00     0.047 C 
BRANCH  26  27
HETATM   27  C8  UNL     1     -44.623   1.938 -21.555  1.00  0.00     0.031 C 
BRANCH  27  28
HETATM   28  C9  UNL     1     -43.279   1.185 -21.524  1.00  0.00     0.164 C 
BRANCH  28  29
HETATM   29  O2  UNL     1     -42.363   1.922 -20.779  1.00  0.00    -0.401 OA
ATOM     30  H2  UNL     1     -41.821   1.326 -20.277  1.00  0.00     0.209 HD
ENDBRANCH  28  29
ENDBRANCH  27  28
ENDBRANCH  26  27
ENDBRANCH   2  26
BRANCH  10  31
HETATM   31  N9  UNL     1     -45.434   3.701 -16.079  1.00  0.00    -0.109 N 
HETATM   32  O4  UNL     1     -44.999   4.647 -15.414  1.00  0.00    -0.532 OA
HETATM   33  O5  UNL     1     -45.625   2.496 -15.463  1.00  0.00    -0.532 OA
ENDBRANCH  10  31
BRANCH   3  34
HETATM   34  N5  UNL     1     -46.901   4.376 -21.409  1.00  0.00    -0.152 N 
BRANCH  34  35
HETATM   35  N6  UNL     1     -46.590   5.562 -22.043  1.00  0.00    -0.317 N 
ATOM     36  H62 UNL     1     -46.206   6.352 -21.524  1.00  0.00     0.179 HD
ATOM     37  H61 UNL     1     -46.740   5.645 -23.049  1.00  0.00     0.179 HD
ENDBRANCH  34  35
BRANCH  34  38
HETATM   38  O3  UNL     1     -47.618   3.437 -22.021  1.00  0.00    -0.267 OA
ATOM     39  H3  UNL     1     -48.339   3.691 -22.586  1.00  0.00     0.247 HD
ENDBRANCH  34  38
ENDBRANCH   3  34
TORSDOF 12
ENDMDL
