MODEL 1
REMARK VINA RESULT: -8.770713414      0.000      0.000
REMARK  16 active torsions:
REMARK  status: ('A' for Active; 'I' for Inactive)
REMARK    1  A    between atoms: C2_2  and  C4_4 
REMARK    2  A    between atoms: C2_2  and  O2_7 
REMARK    3  A    between atoms: C4_4  and  O1_5 
REMARK    4  A    between atoms: O2_7  and  N1_8 
REMARK    5  A    between atoms: N1_8  and  C5_9 
REMARK    6  A    between atoms: C5_9  and  C6_10 
REMARK    7  A    between atoms: C5_9  and  C23_51 
REMARK       I    between atoms: C6_10  and  N2_12 
REMARK    8  A    between atoms: C7_14  and  C8_15 
REMARK    9  A    between atoms: C8_15  and  O5_17 
REMARK   10  A    between atoms: O5_17  and  C9_18 
REMARK   11  A    between atoms: C9_18  and  C10_19 
REMARK   12  A    between atoms: C11_21  and  N3_22 
REMARK   13  A    between atoms: C13_26  and  N5_27 
REMARK   14  A    between atoms: C16_35  and  O8_36 
REMARK   15  A    between atoms: C21_48  and  C22_49 
REMARK   16  A    between atoms: C25_54  and  N10_55 
ROOT
HETATM    1  N3  UNL     1      41.038 -18.791  32.415  1.00  0.00    -0.265 N 
HETATM    2  C12 UNL     1      41.151 -18.963  33.735  1.00  0.00     0.147 A 
HETATM    3  N4  UNL     1      41.756 -20.044  34.233  1.00  0.00    -0.175 N 
ATOM      4  H4  UNL     1      42.143 -20.757  33.615  1.00  0.00     0.186 HD
HETATM    5  C13 UNL     1      41.843 -20.171  35.567  1.00  0.00     0.680 A 
HETATM    6  N6  UNL     1      41.348 -19.262  36.416  1.00  0.00    -0.155 N 
ATOM      7  H6  UNL     1      41.449 -19.421  37.418  1.00  0.00     0.187 HD
HETATM    8  C14 UNL     1      40.721 -18.140  35.996  1.00  0.00     0.276 A 
HETATM    9  O7  UNL     1      40.269 -17.309  36.821  1.00  0.00    -0.267 OA
HETATM   10  C15 UNL     1      40.603 -17.955  34.629  1.00  0.00     0.113 A 
HETATM   11  C16 UNL     1      39.967 -16.820  34.116  1.00  0.00     0.116 A 
HETATM   12  C17 UNL     1      39.916 -16.760  32.709  1.00  0.00     0.114 A 
HETATM   13  N7  UNL     1      39.370 -15.795  31.947  1.00  0.00    -0.328 N 
ATOM     14  H7  UNL     1      38.905 -14.950  32.279  1.00  0.00     0.168 HD
HETATM   15  C18 UNL     1      39.555 -16.155  30.671  1.00  0.00     0.190 A 
HETATM   16  C19 UNL     1      39.140 -15.430  29.488  1.00  0.00     0.137 C 
HETATM   17  N8  UNL     1      38.796 -14.865  28.537  1.00  0.00    -0.188 NA
HETATM   18  N9  UNL     1      40.205 -17.327  30.610  1.00  0.00    -0.317 N 
ATOM     19  H9  UNL     1      40.475 -17.831  29.766  1.00  0.00     0.169 HD
HETATM   20  C20 UNL     1      40.434 -17.712  31.899  1.00  0.00     0.145 A 
ENDROOT
BRANCH  11  21
HETATM   21  O8  UNL     1      39.429 -15.835  34.849  1.00  0.00    -0.357 OA
ATOM     22  H8  UNL     1      38.511 -15.591  34.851  1.00  0.00     0.217 HD
ENDBRANCH  11  21
BRANCH   1  23
HETATM   23  C11 UNL     1      41.571 -19.774  31.498  1.00  0.00     0.381 C 
HETATM   24  O6  UNL     1      41.039 -21.049  31.709  1.00  0.00    -0.333 OA
HETATM   25  C10 UNL     1      42.012 -21.942  31.262  1.00  0.00     0.186 C 
HETATM   26  C21 UNL     1      43.242 -21.098  31.116  1.00  0.00     0.218 C 
HETATM   27  O9  UNL     1      42.925 -19.906  31.747  1.00  0.00    -0.329 OA
BRANCH  25  28
HETATM   28  C9  UNL     1      41.499 -22.527  29.985  1.00  0.00     0.214 C 
BRANCH  28  29
HETATM   29  O5  UNL     1      40.183 -22.959  29.990  1.00  0.00    -0.314 OA
BRANCH  29  30
HETATM   30  C8  UNL     1      39.140 -22.477  29.254  1.00  0.00     0.298 C 
HETATM   31  O4  UNL     1      38.982 -22.874  28.095  1.00  0.00    -0.259 OA
BRANCH  30  32
HETATM   32  C7  UNL     1      38.172 -21.488  29.790  1.00  0.00     0.173 C 
HETATM   33  N2  UNL     1      37.852 -21.671  31.020  1.00  0.00    -0.329 N 
HETATM   34  C6  UNL     1      36.943 -20.804  31.652  1.00  0.00     0.249 C 
ATOM     35  H2  UNL     1      38.259 -22.449  31.539  1.00  0.00     0.168 HD
HETATM   36  O3  UNL     1      35.689 -21.003  31.535  1.00  0.00    -0.271 OA
BRANCH  34  37
HETATM   37  C5  UNL     1      37.487 -19.675  32.447  1.00  0.00     0.248 C 
BRANCH  37  38
HETATM   38  N1  UNL     1      37.244 -19.971  33.843  1.00  0.00    -0.079 NA
BRANCH  38  39
HETATM   39  O2  UNL     1      38.340 -20.393  34.490  1.00  0.00    -0.273 OA
BRANCH  39  40
HETATM   40  C2  UNL     1      37.962 -21.578  35.164  1.00  0.00     0.098 C 
HETATM   41  C1  UNL     1      36.482 -21.760  35.229  1.00  0.00     0.050 C 
HETATM   42  C3  UNL     1      38.529 -21.578  36.564  1.00  0.00     0.050 C 
BRANCH  40  43
HETATM   43  C4  UNL     1      38.552 -22.802  34.452  1.00  0.00     0.203 C 
BRANCH  43  44
HETATM   44  O1  UNL     1      39.535 -22.281  33.590  1.00  0.00    -0.398 OA
ATOM     45  H1  UNL     1      39.604 -22.915  32.886  1.00  0.00     0.209 HD
ENDBRANCH  43  44
ENDBRANCH  40  43
ENDBRANCH  39  40
ENDBRANCH  38  39
ENDBRANCH  37  38
BRANCH  37  46
HETATM   46  C23 UNL     1      36.683 -18.450  32.033  1.00  0.00     0.049 A 
HETATM   47  C24 UNL     1      36.353 -17.514  32.973  1.00  0.00     0.080 A 
HETATM   48  S1  UNL     1      35.476 -16.376  32.047  1.00  0.00    -0.064 SA
HETATM   49  C25 UNL     1      35.582 -17.155  30.536  1.00  0.00     0.142 A 
HETATM   50  N11 UNL     1      36.284 -18.252  30.805  1.00  0.00    -0.338 N 
ATOM     51  H11 UNL     1      36.506 -18.923  30.069  1.00  0.00     0.168 HD
BRANCH  49  52
HETATM   52  N10 UNL     1      35.088 -16.764  29.382  1.00  0.00    -0.380 N 
ATOM     53 2H10 UNL     1      34.127 -16.506  29.160  1.00  0.00     0.158 HD
ATOM     54 1H10 UNL     1      35.575 -16.646  28.494  1.00  0.00     0.158 HD
ENDBRANCH  49  52
ENDBRANCH  37  46
ENDBRANCH  34  37
ENDBRANCH  30  32
ENDBRANCH  29  30
ENDBRANCH  28  29
ENDBRANCH  25  28
BRANCH  26  55
HETATM   55  C22 UNL     1      43.613 -20.861  29.690  1.00  0.00     0.265 C 
HETATM   56  O10 UNL     1      44.549 -20.106  29.445  1.00  0.00    -0.304 OA
ENDBRANCH  26  55
ENDBRANCH   1  23
BRANCH   5  57
HETATM   57  N5  UNL     1      42.429 -21.217  36.089  1.00  0.00    -0.234 N 
ATOM     58  H52 UNL     1      43.342 -21.072  36.520  1.00  0.00     0.174 HD
ATOM     59  H51 UNL     1      41.972 -22.128  36.055  1.00  0.00     0.174 HD
ENDBRANCH   5  57
TORSDOF 16
ENDMDL
MODEL 2
REMARK VINA RESULT: -8.553621076      1.834      4.144
REMARK  16 active torsions:
REMARK  status: ('A' for Active; 'I' for Inactive)
REMARK    1  A    between atoms: C2_2  and  C4_4 
REMARK    2  A    between atoms: C2_2  and  O2_7 
REMARK    3  A    between atoms: C4_4  and  O1_5 
REMARK    4  A    between atoms: O2_7  and  N1_8 
REMARK    5  A    between atoms: N1_8  and  C5_9 
REMARK    6  A    between atoms: C5_9  and  C6_10 
REMARK    7  A    between atoms: C5_9  and  C23_51 
REMARK       I    between atoms: C6_10  and  N2_12 
REMARK    8  A    between atoms: C7_14  and  C8_15 
REMARK    9  A    between atoms: C8_15  and  O5_17 
REMARK   10  A    between atoms: O5_17  and  C9_18 
REMARK   11  A    between atoms: C9_18  and  C10_19 
REMARK   12  A    between atoms: C11_21  and  N3_22 
REMARK   13  A    between atoms: C13_26  and  N5_27 
REMARK   14  A    between atoms: C16_35  and  O8_36 
REMARK   15  A    between atoms: C21_48  and  C22_49 
REMARK   16  A    between atoms: C25_54  and  N10_55 
ROOT
HETATM    1  N3  UNL     1      41.416 -19.329  33.274  1.00  0.00    -0.265 N 
HETATM    2  C12 UNL     1      40.920 -18.093  33.384  1.00  0.00     0.147 A 
HETATM    3  N4  UNL     1      40.492 -17.430  32.307  1.00  0.00    -0.175 N 
ATOM      4  H4  UNL     1      40.535 -17.855  31.382  1.00  0.00     0.186 HD
HETATM    5  C13 UNL     1      40.003 -16.190  32.472  1.00  0.00     0.680 A 
HETATM    6  N6  UNL     1      39.929 -15.592  33.667  1.00  0.00    -0.155 N 
ATOM      7  H6  UNL     1      39.547 -14.648  33.720  1.00  0.00     0.187 HD
HETATM    8  C14 UNL     1      40.341 -16.191  34.807  1.00  0.00     0.276 A 
HETATM    9  O7  UNL     1      40.256 -15.600  35.910  1.00  0.00    -0.267 OA
HETATM   10  C15 UNL     1      40.853 -17.472  34.699  1.00  0.00     0.113 A 
HETATM   11  C16 UNL     1      41.301 -18.159  35.832  1.00  0.00     0.116 A 
HETATM   12  C17 UNL     1      41.798 -19.452  35.578  1.00  0.00     0.114 A 
HETATM   13  N7  UNL     1      42.291 -20.333  36.468  1.00  0.00    -0.328 N 
ATOM     14  H7  UNL     1      42.379 -20.193  37.475  1.00  0.00     0.168 HD
HETATM   15  C18 UNL     1      42.643 -21.426  35.781  1.00  0.00     0.190 A 
HETATM   16  C19 UNL     1      43.221 -22.644  36.309  1.00  0.00     0.137 C 
HETATM   17  N8  UNL     1      43.699 -23.616  36.721  1.00  0.00    -0.188 NA
HETATM   18  N9  UNL     1      42.384 -21.256  34.475  1.00  0.00    -0.317 N 
ATOM     19  H9  UNL     1      42.553 -21.928  33.727  1.00  0.00     0.169 HD
HETATM   20  C20 UNL     1      41.850 -20.006  34.345  1.00  0.00     0.145 A 
ENDROOT
BRANCH  11  21
HETATM   21  O8  UNL     1      41.283 -17.681  37.085  1.00  0.00    -0.357 OA
ATOM     22  H8  UNL     1      41.455 -18.190  37.869  1.00  0.00     0.217 HD
ENDBRANCH  11  21
BRANCH   1  23
HETATM   23  C11 UNL     1      41.498 -19.974  31.983  1.00  0.00     0.381 C 
HETATM   24  O6  UNL     1      40.683 -21.106  31.896  1.00  0.00    -0.333 OA
HETATM   25  C10 UNL     1      41.286 -21.932  30.948  1.00  0.00     0.186 C 
HETATM   26  C21 UNL     1      42.655 -21.348  30.774  1.00  0.00     0.218 C 
HETATM   27  O9  UNL     1      42.787 -20.448  31.818  1.00  0.00    -0.329 OA
BRANCH  25  28
HETATM   28  C9  UNL     1      40.424 -21.879  29.727  1.00  0.00     0.214 C 
BRANCH  28  29
HETATM   29  O5  UNL     1      39.068 -22.084  29.920  1.00  0.00    -0.314 OA
BRANCH  29  30
HETATM   30  C8  UNL     1      38.058 -21.174  29.803  1.00  0.00     0.298 C 
HETATM   31  O4  UNL     1      37.037 -21.480  29.178  1.00  0.00    -0.259 OA
BRANCH  30  32
HETATM   32  C7  UNL     1      38.128 -19.819  30.403  1.00  0.00     0.173 C 
HETATM   33  N2  UNL     1      36.986 -19.263  30.591  1.00  0.00    -0.329 N 
HETATM   34  C6  UNL     1      36.909 -17.976  31.153  1.00  0.00     0.249 C 
ATOM     35  H2  UNL     1      36.133 -19.756  30.332  1.00  0.00     0.168 HD
HETATM   36  O3  UNL     1      37.030 -16.949  30.407  1.00  0.00    -0.271 OA
BRANCH  34  37
HETATM   37  C5  UNL     1      36.685 -17.860  32.616  1.00  0.00     0.248 C 
BRANCH  37  38
HETATM   38  N1  UNL     1      36.231 -19.151  33.088  1.00  0.00    -0.079 NA
BRANCH  38  39
HETATM   39  O2  UNL     1      37.188 -19.849  33.717  1.00  0.00    -0.273 OA
BRANCH  39  40
HETATM   40  C2  UNL     1      36.660 -21.147  33.911  1.00  0.00     0.098 C 
HETATM   41  C1  UNL     1      36.527 -21.508  35.353  1.00  0.00     0.050 C 
HETATM   42  C3  UNL     1      37.531 -22.166  33.217  1.00  0.00     0.050 C 
BRANCH  40  43
HETATM   43  C4  UNL     1      35.268 -21.252  33.273  1.00  0.00     0.203 C 
BRANCH  43  44
HETATM   44  O1  UNL     1      35.507 -21.657  31.947  1.00  0.00    -0.398 OA
ATOM     45  H1  UNL     1      34.713 -22.105  31.681  1.00  0.00     0.209 HD
ENDBRANCH  43  44
ENDBRANCH  40  43
ENDBRANCH  39  40
ENDBRANCH  38  39
ENDBRANCH  37  38
BRANCH  37  46
HETATM   46  C23 UNL     1      35.578 -16.830  32.787  1.00  0.00     0.049 A 
HETATM   47  C24 UNL     1      34.320 -17.113  32.332  1.00  0.00     0.080 A 
HETATM   48  S1  UNL     1      33.468 -15.689  32.739  1.00  0.00    -0.064 SA
HETATM   49  C25 UNL     1      34.751 -14.830  33.457  1.00  0.00     0.142 A 
HETATM   50  N11 UNL     1      35.778 -15.670  33.354  1.00  0.00    -0.338 N 
ATOM     51  H11 UNL     1      36.699 -15.413  33.709  1.00  0.00     0.168 HD
BRANCH  49  52
HETATM   52  N10 UNL     1      34.730 -13.627  33.985  1.00  0.00    -0.380 N 
ATOM     53 2H10 UNL     1      33.979 -12.938  33.961  1.00  0.00     0.158 HD
ATOM     54 1H10 UNL     1      35.464 -13.158  34.517  1.00  0.00     0.158 HD
ENDBRANCH  49  52
ENDBRANCH  37  46
ENDBRANCH  34  37
ENDBRANCH  30  32
ENDBRANCH  29  30
ENDBRANCH  28  29
ENDBRANCH  25  28
BRANCH  26  55
HETATM   55  C22 UNL     1      42.829 -20.665  29.459  1.00  0.00     0.265 C 
HETATM   56  O10 UNL     1      43.741 -21.032  28.724  1.00  0.00    -0.304 OA
ENDBRANCH  26  55
ENDBRANCH   1  23
BRANCH   5  57
HETATM   57  N5  UNL     1      39.575 -15.512  31.439  1.00  0.00    -0.234 N 
ATOM     58  H52 UNL     1      38.884 -15.965  30.840  1.00  0.00     0.174 HD
ATOM     59  H51 UNL     1      39.931 -14.574  31.261  1.00  0.00     0.174 HD
ENDBRANCH   5  57
TORSDOF 16
ENDMDL
MODEL 3
REMARK VINA RESULT: -8.482822518      2.911      6.200
REMARK  16 active torsions:
REMARK  status: ('A' for Active; 'I' for Inactive)
REMARK    1  A    between atoms: C2_2  and  C4_4 
REMARK    2  A    between atoms: C2_2  and  O2_7 
REMARK    3  A    between atoms: C4_4  and  O1_5 
REMARK    4  A    between atoms: O2_7  and  N1_8 
REMARK    5  A    between atoms: N1_8  and  C5_9 
REMARK    6  A    between atoms: C5_9  and  C6_10 
REMARK    7  A    between atoms: C5_9  and  C23_51 
REMARK       I    between atoms: C6_10  and  N2_12 
REMARK    8  A    between atoms: C7_14  and  C8_15 
REMARK    9  A    between atoms: C8_15  and  O5_17 
REMARK   10  A    between atoms: O5_17  and  C9_18 
REMARK   11  A    between atoms: C9_18  and  C10_19 
REMARK   12  A    between atoms: C11_21  and  N3_22 
REMARK   13  A    between atoms: C13_26  and  N5_27 
REMARK   14  A    between atoms: C16_35  and  O8_36 
REMARK   15  A    between atoms: C21_48  and  C22_49 
REMARK   16  A    between atoms: C25_54  and  N10_55 
ROOT
HETATM    1  N3  UNL     1      39.011 -19.146  32.828  1.00  0.00    -0.265 N 
HETATM    2  C12 UNL     1      39.607 -19.404  33.996  1.00  0.00     0.147 A 
HETATM    3  N4  UNL     1      39.383 -20.554  34.637  1.00  0.00    -0.175 N 
ATOM      4  H4  UNL     1      38.755 -21.256  34.246  1.00  0.00     0.186 HD
HETATM    5  C13 UNL     1      40.006 -20.765  35.808  1.00  0.00     0.680 A 
HETATM    6  N6  UNL     1      40.838 -19.873  36.358  1.00  0.00    -0.155 N 
ATOM      7  H6  UNL     1      41.277 -20.097  37.251  1.00  0.00     0.187 HD
HETATM    8  C14 UNL     1      41.119 -18.684  35.776  1.00  0.00     0.276 A 
HETATM    9  O7  UNL     1      41.904 -17.872  36.322  1.00  0.00    -0.267 OA
HETATM   10  C15 UNL     1      40.506 -18.412  34.566  1.00  0.00     0.113 A 
HETATM   11  C16 UNL     1      40.745 -17.205  33.902  1.00  0.00     0.116 A 
HETATM   12  C17 UNL     1      40.056 -17.059  32.682  1.00  0.00     0.114 A 
HETATM   13  N7  UNL     1      40.093 -16.012  31.837  1.00  0.00    -0.328 N 
ATOM     14  H7  UNL     1      40.634 -15.155  31.956  1.00  0.00     0.168 HD
HETATM   15  C18 UNL     1      39.286 -16.309  30.812  1.00  0.00     0.190 A 
HETATM   16  C19 UNL     1      39.004 -15.488  29.652  1.00  0.00     0.137 C 
HETATM   17  N8  UNL     1      38.760 -14.831  28.730  1.00  0.00    -0.188 NA
HETATM   18  N9  UNL     1      38.738 -17.521  30.990  1.00  0.00    -0.317 N 
ATOM     19  H9  UNL     1      38.087 -17.994  30.364  1.00  0.00     0.169 HD
HETATM   20  C20 UNL     1      39.224 -17.997  32.173  1.00  0.00     0.145 A 
ENDROOT
BRANCH  11  21
HETATM   21  O8  UNL     1      41.552 -16.227  34.337  1.00  0.00    -0.357 OA
ATOM     22  H8  UNL     1      42.330 -15.917  33.889  1.00  0.00     0.217 HD
ENDBRANCH  11  21
BRANCH   1  23
HETATM   23  C11 UNL     1      38.111 -20.109  32.235  1.00  0.00     0.381 C 
HETATM   24  O6  UNL     1      38.457 -20.428  30.919  1.00  0.00    -0.333 OA
HETATM   25  C10 UNL     1      37.269 -20.810  30.298  1.00  0.00     0.186 C 
HETATM   26  C21 UNL     1      36.200 -20.353  31.245  1.00  0.00     0.218 C 
HETATM   27  O9  UNL     1      36.858 -19.530  32.143  1.00  0.00    -0.329 OA
BRANCH  25  28
HETATM   28  C9  UNL     1      37.344 -22.291  30.109  1.00  0.00     0.214 C 
BRANCH  28  29
HETATM   29  O5  UNL     1      37.570 -22.737  28.816  1.00  0.00    -0.314 OA
BRANCH  29  30
HETATM   30  C8  UNL     1      38.537 -23.598  28.384  1.00  0.00     0.298 C 
HETATM   31  O4  UNL     1      38.491 -24.028  27.227  1.00  0.00    -0.259 OA
BRANCH  30  32
HETATM   32  C7  UNL     1      39.657 -24.044  29.249  1.00  0.00     0.173 C 
HETATM   33  N2  UNL     1      40.761 -23.420  29.050  1.00  0.00    -0.329 N 
HETATM   34  C6  UNL     1      41.904 -23.745  29.804  1.00  0.00     0.249 C 
ATOM     35  H2  UNL     1      40.810 -22.688  28.343  1.00  0.00     0.168 HD
HETATM   36  O3  UNL     1      42.650 -24.713  29.441  1.00  0.00    -0.271 OA
BRANCH  34  37
HETATM   37  C5  UNL     1      42.203 -22.934  31.010  1.00  0.00     0.248 C 
BRANCH  37  38
HETATM   38  N1  UNL     1      42.749 -21.671  30.559  1.00  0.00    -0.079 NA
BRANCH  38  39
HETATM   39  O2  UNL     1      43.265 -21.731  29.323  1.00  0.00    -0.273 OA
BRANCH  39  40
HETATM   40  C2  UNL     1      44.187 -20.662  29.234  1.00  0.00     0.098 C 
HETATM   41  C1  UNL     1      45.250 -20.898  28.214  1.00  0.00     0.050 C 
HETATM   42  C3  UNL     1      44.828 -20.420  30.580  1.00  0.00     0.050 C 
BRANCH  40  43
HETATM   43  C4  UNL     1      43.458 -19.366  28.856  1.00  0.00     0.203 C 
BRANCH  43  44
HETATM   44  O1  UNL     1      42.359 -19.781  28.081  1.00  0.00    -0.398 OA
ATOM     45  H1  UNL     1      41.859 -18.990  27.921  1.00  0.00     0.209 HD
ENDBRANCH  43  44
ENDBRANCH  40  43
ENDBRANCH  39  40
ENDBRANCH  38  39
ENDBRANCH  37  38
BRANCH  37  46
HETATM   46  C23 UNL     1      43.264 -23.708  31.779  1.00  0.00     0.049 A 
HETATM   47  C24 UNL     1      42.914 -24.383  32.915  1.00  0.00     0.080 A 
HETATM   48  S1  UNL     1      44.406 -25.062  33.398  1.00  0.00    -0.064 SA
HETATM   49  C25 UNL     1      45.374 -24.453  32.137  1.00  0.00     0.142 A 
HETATM   50  N11 UNL     1      44.514 -23.754  31.399  1.00  0.00    -0.338 N 
ATOM     51  H11 UNL     1      44.823 -23.267  30.558  1.00  0.00     0.168 HD
BRANCH  49  52
HETATM   52  N10 UNL     1      46.661 -24.630  31.939  1.00  0.00    -0.380 N 
ATOM     53 2H10 UNL     1      47.411 -24.649  32.631  1.00  0.00     0.158 HD
ATOM     54 1H10 UNL     1      47.150 -24.782  31.057  1.00  0.00     0.158 HD
ENDBRANCH  49  52
ENDBRANCH  37  46
ENDBRANCH  34  37
ENDBRANCH  30  32
ENDBRANCH  29  30
ENDBRANCH  28  29
ENDBRANCH  25  28
BRANCH  26  55
HETATM   55  C22 UNL     1      35.532 -21.484  31.951  1.00  0.00     0.265 C 
HETATM   56  O10 UNL     1      34.366 -21.347  32.307  1.00  0.00    -0.304 OA
ENDBRANCH  26  55
ENDBRANCH   1  23
BRANCH   5  57
HETATM   57  N5  UNL     1      39.810 -21.880  36.462  1.00  0.00    -0.234 N 
ATOM     58  H52 UNL     1      39.002 -21.919  37.084  1.00  0.00     0.174 HD
ATOM     59  H51 UNL     1      40.451 -22.664  36.339  1.00  0.00     0.174 HD
ENDBRANCH   5  57
TORSDOF 16
ENDMDL
MODEL 4
REMARK VINA RESULT: -8.356380524      1.027      3.648
REMARK  16 active torsions:
REMARK  status: ('A' for Active; 'I' for Inactive)
REMARK    1  A    between atoms: C2_2  and  C4_4 
REMARK    2  A    between atoms: C2_2  and  O2_7 
REMARK    3  A    between atoms: C4_4  and  O1_5 
REMARK    4  A    between atoms: O2_7  and  N1_8 
REMARK    5  A    between atoms: N1_8  and  C5_9 
REMARK    6  A    between atoms: C5_9  and  C6_10 
REMARK    7  A    between atoms: C5_9  and  C23_51 
REMARK       I    between atoms: C6_10  and  N2_12 
REMARK    8  A    between atoms: C7_14  and  C8_15 
REMARK    9  A    between atoms: C8_15  and  O5_17 
REMARK   10  A    between atoms: O5_17  and  C9_18 
REMARK   11  A    between atoms: C9_18  and  C10_19 
REMARK   12  A    between atoms: C11_21  and  N3_22 
REMARK   13  A    between atoms: C13_26  and  N5_27 
REMARK   14  A    between atoms: C16_35  and  O8_36 
REMARK   15  A    between atoms: C21_48  and  C22_49 
REMARK   16  A    between atoms: C25_54  and  N10_55 
ROOT
HETATM    1  N3  UNL     1      41.315 -19.370  33.169  1.00  0.00    -0.265 N 
HETATM    2  C12 UNL     1      40.825 -18.132  33.270  1.00  0.00     0.147 A 
HETATM    3  N4  UNL     1      40.499 -17.435  32.178  1.00  0.00    -0.175 N 
ATOM      4  H4  UNL     1      40.618 -17.837  31.248  1.00  0.00     0.186 HD
HETATM    5  C13 UNL     1      40.010 -16.194  32.333  1.00  0.00     0.680 A 
HETATM    6  N6  UNL     1      39.838 -15.627  33.534  1.00  0.00    -0.155 N 
ATOM      7  H6  UNL     1      39.463 -14.680  33.579  1.00  0.00     0.187 HD
HETATM    8  C14 UNL     1      40.143 -16.261  34.689  1.00  0.00     0.276 A 
HETATM    9  O7  UNL     1      39.969 -15.698  35.796  1.00  0.00    -0.267 OA
HETATM   10  C15 UNL     1      40.650 -17.545  34.590  1.00  0.00     0.113 A 
HETATM   11  C16 UNL     1      40.990 -18.267  35.739  1.00  0.00     0.116 A 
HETATM   12  C17 UNL     1      41.495 -19.559  35.493  1.00  0.00     0.114 A 
HETATM   13  N7  UNL     1      41.899 -20.469  36.399  1.00  0.00    -0.328 N 
ATOM     14  H7  UNL     1      41.901 -20.357  37.413  1.00  0.00     0.168 HD
HETATM   15  C18 UNL     1      42.298 -21.548  35.715  1.00  0.00     0.190 A 
HETATM   16  C19 UNL     1      42.816 -22.787  36.258  1.00  0.00     0.137 C 
HETATM   17  N8  UNL     1      43.246 -23.775  36.683  1.00  0.00    -0.188 NA
HETATM   18  N9  UNL     1      42.156 -21.340  34.397  1.00  0.00    -0.317 N 
ATOM     19  H9  UNL     1      42.383 -21.994  33.648  1.00  0.00     0.169 HD
HETATM   20  C20 UNL     1      41.648 -20.081  34.255  1.00  0.00     0.145 A 
ENDROOT
BRANCH  11  21
HETATM   21  O8  UNL     1      40.869 -17.822  36.998  1.00  0.00    -0.357 OA
ATOM     22  H8  UNL     1      40.406 -18.270  37.696  1.00  0.00     0.217 HD
ENDBRANCH  11  21
BRANCH   1  23
HETATM   23  C11 UNL     1      41.503 -19.982  31.873  1.00  0.00     0.381 C 
HETATM   24  O6  UNL     1      40.721 -21.128  31.702  1.00  0.00    -0.333 OA
HETATM   25  C10 UNL     1      41.408 -21.919  30.781  1.00  0.00     0.186 C 
HETATM   26  C21 UNL     1      42.773 -21.303  30.719  1.00  0.00     0.218 C 
HETATM   27  O9  UNL     1      42.810 -20.426  31.790  1.00  0.00    -0.329 OA
BRANCH  25  28
HETATM   28  C9  UNL     1      40.634 -21.853  29.503  1.00  0.00     0.214 C 
BRANCH  28  29
HETATM   29  O5  UNL     1      39.801 -22.926  29.231  1.00  0.00    -0.314 OA
BRANCH  29  30
HETATM   30  C8  UNL     1      38.437 -22.952  29.249  1.00  0.00     0.298 C 
HETATM   31  O4  UNL     1      37.842 -23.877  28.684  1.00  0.00    -0.259 OA
BRANCH  30  32
HETATM   32  C7  UNL     1      37.624 -21.911  29.925  1.00  0.00     0.173 C 
HETATM   33  N2  UNL     1      37.491 -22.081  31.190  1.00  0.00    -0.329 N 
HETATM   34  C6  UNL     1      36.745 -21.165  31.953  1.00  0.00     0.249 C 
ATOM     35  H2  UNL     1      37.928 -22.883  31.643  1.00  0.00     0.168 HD
HETATM   36  O3  UNL     1      35.478 -21.290  32.035  1.00  0.00    -0.271 OA
BRANCH  34  37
HETATM   37  C5  UNL     1      37.471 -20.073  32.647  1.00  0.00     0.248 C 
BRANCH  37  38
HETATM   38  N1  UNL     1      37.294 -20.271  34.071  1.00  0.00    -0.079 NA
BRANCH  38  39
HETATM   39  O2  UNL     1      38.428 -20.611  34.700  1.00  0.00    -0.273 OA
BRANCH  39  40
HETATM   40  C2  UNL     1      38.114 -21.746  35.484  1.00  0.00     0.098 C 
HETATM   41  C1  UNL     1      36.657 -22.069  35.476  1.00  0.00     0.050 C 
HETATM   42  C3  UNL     1      38.572 -21.531  36.907  1.00  0.00     0.050 C 
BRANCH  40  43
HETATM   43  C4  UNL     1      38.868 -22.975  34.960  1.00  0.00     0.203 C 
BRANCH  43  44
HETATM   44  O1  UNL     1      39.371 -22.584  33.705  1.00  0.00    -0.398 OA
ATOM     45  H1  UNL     1      39.663 -23.390  33.297  1.00  0.00     0.209 HD
ENDBRANCH  43  44
ENDBRANCH  40  43
ENDBRANCH  39  40
ENDBRANCH  38  39
ENDBRANCH  37  38
BRANCH  37  46
HETATM   46  C23 UNL     1      36.788 -18.782  32.219  1.00  0.00     0.049 A 
HETATM   47  C24 UNL     1      36.825 -17.694  33.047  1.00  0.00     0.080 A 
HETATM   48  S1  UNL     1      35.942 -16.537  32.152  1.00  0.00    -0.064 SA
HETATM   49  C25 UNL     1      35.584 -17.498  30.792  1.00  0.00     0.142 A 
HETATM   50  N11 UNL     1      36.155 -18.664  31.081  1.00  0.00    -0.338 N 
ATOM     51  H11 UNL     1      36.100 -19.448  30.431  1.00  0.00     0.168 HD
BRANCH  49  52
HETATM   52  N10 UNL     1      34.906 -17.166  29.716  1.00  0.00    -0.380 N 
ATOM     53 2H10 UNL     1      33.898 -17.052  29.614  1.00  0.00     0.158 HD
ATOM     54 1H10 UNL     1      35.263 -16.961  28.783  1.00  0.00     0.158 HD
ENDBRANCH  49  52
ENDBRANCH  37  46
ENDBRANCH  34  37
ENDBRANCH  30  32
ENDBRANCH  29  30
ENDBRANCH  28  29
ENDBRANCH  25  28
BRANCH  26  55
HETATM   55  C22 UNL     1      43.025 -20.585  29.436  1.00  0.00     0.265 C 
HETATM   56  O10 UNL     1      43.876 -21.031  28.671  1.00  0.00    -0.304 OA
ENDBRANCH  26  55
ENDBRANCH   1  23
BRANCH   5  57
HETATM   57  N5  UNL     1      39.681 -15.484  31.286  1.00  0.00    -0.234 N 
ATOM     58  H52 UNL     1      40.347 -14.777  30.975  1.00  0.00     0.174 HD
ATOM     59  H51 UNL     1      38.790 -15.650  30.817  1.00  0.00     0.174 HD
ENDBRANCH   5  57
TORSDOF 16
ENDMDL
MODEL 5
REMARK VINA RESULT: -8.193323310      2.604      6.996
REMARK  16 active torsions:
REMARK  status: ('A' for Active; 'I' for Inactive)
REMARK    1  A    between atoms: C2_2  and  C4_4 
REMARK    2  A    between atoms: C2_2  and  O2_7 
REMARK    3  A    between atoms: C4_4  and  O1_5 
REMARK    4  A    between atoms: O2_7  and  N1_8 
REMARK    5  A    between atoms: N1_8  and  C5_9 
REMARK    6  A    between atoms: C5_9  and  C6_10 
REMARK    7  A    between atoms: C5_9  and  C23_51 
REMARK       I    between atoms: C6_10  and  N2_12 
REMARK    8  A    between atoms: C7_14  and  C8_15 
REMARK    9  A    between atoms: C8_15  and  O5_17 
REMARK   10  A    between atoms: O5_17  and  C9_18 
REMARK   11  A    between atoms: C9_18  and  C10_19 
REMARK   12  A    between atoms: C11_21  and  N3_22 
REMARK   13  A    between atoms: C13_26  and  N5_27 
REMARK   14  A    between atoms: C16_35  and  O8_36 
REMARK   15  A    between atoms: C21_48  and  C22_49 
REMARK   16  A    between atoms: C25_54  and  N10_55 
ROOT
HETATM    1  N3  UNL     1      36.460 -19.769  31.908  1.00  0.00    -0.265 N 
HETATM    2  C12 UNL     1      35.899 -18.576  31.694  1.00  0.00     0.147 A 
HETATM    3  N4  UNL     1      34.973 -18.096  32.528  1.00  0.00    -0.175 N 
ATOM      4  H4  UNL     1      34.679 -18.632  33.345  1.00  0.00     0.186 HD
HETATM    5  C13 UNL     1      34.440 -16.891  32.268  1.00  0.00     0.680 A 
HETATM    6  N6  UNL     1      34.795 -16.154  31.208  1.00  0.00    -0.155 N 
ATOM      7  H6  UNL     1      34.348 -15.248  31.070  1.00  0.00     0.187 HD
HETATM    8  C14 UNL     1      35.722 -16.566  30.314  1.00  0.00     0.276 A 
HETATM    9  O7  UNL     1      36.030 -15.848  29.332  1.00  0.00    -0.267 OA
HETATM   10  C15 UNL     1      36.308 -17.800  30.532  1.00  0.00     0.113 A 
HETATM   11  C16 UNL     1      37.276 -18.296  29.652  1.00  0.00     0.116 A 
HETATM   12  C17 UNL     1      37.787 -19.563  29.993  1.00  0.00     0.114 A 
HETATM   13  N7  UNL     1      38.718 -20.278  29.336  1.00  0.00    -0.328 N 
ATOM     14  H7  UNL     1      39.200 -20.004  28.479  1.00  0.00     0.168 HD
HETATM   15  C18 UNL     1      38.891 -21.415  30.020  1.00  0.00     0.190 A 
HETATM   16  C19 UNL     1      39.795 -22.501  29.699  1.00  0.00     0.137 C 
HETATM   17  N8  UNL     1      40.503 -23.381  29.441  1.00  0.00    -0.188 NA
HETATM   18  N9  UNL     1      38.089 -21.436  31.095  1.00  0.00    -0.317 N 
ATOM     19  H9  UNL     1      38.017 -22.181  31.788  1.00  0.00     0.169 HD
HETATM   20  C20 UNL     1      37.388 -20.265  31.080  1.00  0.00     0.145 A 
ENDROOT
BRANCH  11  21
HETATM   21  O8  UNL     1      37.723 -17.665  28.557  1.00  0.00    -0.357 OA
ATOM     22  H8  UNL     1      37.177 -17.335  27.852  1.00  0.00     0.217 HD
ENDBRANCH  11  21
BRANCH   1  23
HETATM   23  C11 UNL     1      36.075 -20.566  33.052  1.00  0.00     0.381 C 
HETATM   24  O6  UNL     1      37.174 -21.118  33.716  1.00  0.00    -0.333 OA
HETATM   25  C10 UNL     1      36.701 -22.278  34.328  1.00  0.00     0.186 C 
HETATM   26  C21 UNL     1      35.370 -22.515  33.680  1.00  0.00     0.218 C 
HETATM   27  O9  UNL     1      35.351 -21.653  32.596  1.00  0.00    -0.329 OA
BRANCH  25  28
HETATM   28  C9  UNL     1      36.639 -21.991  35.794  1.00  0.00     0.214 C 
BRANCH  28  29
HETATM   29  O5  UNL     1      37.629 -21.166  36.304  1.00  0.00    -0.314 OA
BRANCH  29  30
HETATM   30  C8  UNL     1      38.896 -21.510  36.676  1.00  0.00     0.298 C 
HETATM   31  O4  UNL     1      39.150 -21.683  37.873  1.00  0.00    -0.259 OA
BRANCH  30  32
HETATM   32  C7  UNL     1      39.997 -21.690  35.697  1.00  0.00     0.173 C 
HETATM   33  N2  UNL     1      39.862 -21.010  34.617  1.00  0.00    -0.329 N 
HETATM   34  C6  UNL     1      40.835 -21.088  33.604  1.00  0.00     0.249 C 
ATOM     35  H2  UNL     1      39.047 -20.411  34.492  1.00  0.00     0.168 HD
HETATM   36  O3  UNL     1      40.785 -22.030  32.747  1.00  0.00    -0.271 OA
BRANCH  34  37
HETATM   37  C5  UNL     1      41.899 -20.054  33.571  1.00  0.00     0.248 C 
BRANCH  37  38
HETATM   38  N1  UNL     1      41.261 -18.769  33.767  1.00  0.00    -0.079 NA
BRANCH  38  39
HETATM   39  O2  UNL     1      40.120 -18.636  33.076  1.00  0.00    -0.273 OA
BRANCH  39  40
HETATM   40  C2  UNL     1      39.889 -17.245  32.969  1.00  0.00     0.098 C 
HETATM   41  C1  UNL     1      39.956 -16.753  31.562  1.00  0.00     0.050 C 
HETATM   42  C3  UNL     1      40.889 -16.490  33.813  1.00  0.00     0.050 C 
BRANCH  40  43
HETATM   43  C4  UNL     1      38.500 -16.896  33.519  1.00  0.00     0.203 C 
BRANCH  43  44
HETATM   44  O1  UNL     1      38.749 -16.124  34.669  1.00  0.00    -0.398 OA
ATOM     45  H1  UNL     1      38.986 -15.265  34.340  1.00  0.00     0.209 HD
ENDBRANCH  43  44
ENDBRANCH  40  43
ENDBRANCH  39  40
ENDBRANCH  38  39
ENDBRANCH  37  38
BRANCH  37  46
HETATM   46  C23 UNL     1      42.502 -20.121  32.175  1.00  0.00     0.049 A 
HETATM   47  C24 UNL     1      43.758 -20.635  32.009  1.00  0.00     0.080 A 
HETATM   48  S1  UNL     1      43.978 -20.492  30.320  1.00  0.00    -0.064 SA
HETATM   49  C25 UNL     1      42.474 -19.796  29.933  1.00  0.00     0.142 A 
HETATM   50  N11 UNL     1      41.866 -19.701  31.113  1.00  0.00    -0.338 N 
ATOM     51  H11 UNL     1      40.927 -19.310  31.187  1.00  0.00     0.168 HD
BRANCH  49  52
HETATM   52  N10 UNL     1      42.022 -19.438  28.752  1.00  0.00    -0.380 N 
ATOM     53 2H10 UNL     1      42.496 -18.894  28.031  1.00  0.00     0.158 HD
ATOM     54 1H10 UNL     1      41.112 -19.636  28.337  1.00  0.00     0.158 HD
ENDBRANCH  49  52
ENDBRANCH  37  46
ENDBRANCH  34  37
ENDBRANCH  30  32
ENDBRANCH  29  30
ENDBRANCH  28  29
ENDBRANCH  25  28
BRANCH  26  55
HETATM   55  C22 UNL     1      34.225 -22.243  34.596  1.00  0.00     0.265 C 
HETATM   56  O10 UNL     1      33.254 -22.993  34.559  1.00  0.00    -0.304 OA
ENDBRANCH  26  55
ENDBRANCH   1  23
BRANCH   5  57
HETATM   57  N5  UNL     1      33.531 -16.391  33.064  1.00  0.00    -0.234 N 
ATOM     58  H52 UNL     1      33.783 -16.284  34.047  1.00  0.00     0.174 HD
ATOM     59  H51 UNL     1      32.618 -16.127  32.695  1.00  0.00     0.174 HD
ENDBRANCH   5  57
TORSDOF 16
ENDMDL
