MODEL 1
REMARK VINA RESULT: -6.095837942      0.000      0.000
REMARK  14 active torsions:
REMARK  status: ('A' for Active; 'I' for Inactive)
REMARK    1  A    between atoms: C2_2  and  N1_3 
REMARK    2  A    between atoms: N1_3  and  C3_6 
REMARK    3  A    between atoms: C3_6  and  C4_7 
REMARK    4  A    between atoms: C4_7  and  C5_8 
REMARK    5  A    between atoms: C5_8  and  N2_9 
REMARK    6  A    between atoms: N2_9  and  C6_11 
REMARK    7  A    between atoms: C7_14  and  N4_15 
REMARK    8  A    between atoms: N4_15  and  C8_17 
REMARK    9  A    between atoms: C8_17  and  C9_18 
REMARK   10  A    between atoms: C9_18  and  C10_19 
REMARK   11  A    between atoms: C10_19  and  C11_20 
REMARK   12  A    between atoms: C11_20  and  O1_21 
REMARK   13  A    between atoms: C12_25  and  N6_26 
REMARK   14  A    between atoms: N6_26  and  N7_28 
ROOT
HETATM    1  C6  UNL     1      26.759 -18.213  20.144  1.00  0.00     0.707 A 
HETATM    2  N3  UNL     1      27.521 -19.045  20.913  1.00  0.00    -0.022 N 
ATOM      3  H3  UNL     1      27.200 -20.006  21.035  1.00  0.00     0.203 HD
HETATM    4  C7  UNL     1      28.655 -18.689  21.516  1.00  0.00     0.707 A 
HETATM    5  N5  UNL     1      29.057 -17.421  21.344  1.00  0.00    -0.020 N 
ATOM      6  H5  UNL     1      29.921 -17.120  21.796  1.00  0.00     0.203 HD
HETATM    7  C12 UNL     1      28.376 -16.527  20.605  1.00  0.00     0.725 A 
HETATM    8  N8  UNL     1      27.224 -16.961  20.016  1.00  0.00    -0.020 N 
ATOM      9  H8  UNL     1      26.690 -16.301  19.450  1.00  0.00     0.203 HD
ENDROOT
BRANCH   1  10
HETATM   10  N2  UNL     1      25.687 -18.648  19.605  1.00  0.00    -0.225 N 
ATOM     11  H2  UNL     1      25.732 -19.582  19.198  1.00  0.00     0.177 HD
BRANCH  10  12
HETATM   12  C5  UNL     1      24.439 -17.976  19.508  1.00  0.00     0.139 C 
BRANCH  12  13
HETATM   13  C4  UNL     1      23.797 -17.846  20.902  1.00  0.00     0.048 C 
BRANCH  13  14
HETATM   14  C3  UNL     1      23.428 -16.396  21.093  1.00  0.00     0.234 C 
BRANCH  14  15
HETATM   15  N1  UNL     1      23.485 -15.776  19.774  1.00  0.00    -0.075 N 
ATOM     16  H12 UNL     1      22.557 -15.664  19.367  1.00  0.00     0.277 HD
ATOM     17  H11 UNL     1      23.882 -16.405  19.076  1.00  0.00     0.277 HD
BRANCH  15  18
HETATM   18  C2  UNL     1      24.203 -14.514  19.834  1.00  0.00     0.228 C 
HETATM   19  C1  UNL     1      23.820 -13.809  21.136  1.00  0.00     0.034 C 
ENDBRANCH  15  18
ENDBRANCH  14  15
ENDBRANCH  13  14
ENDBRANCH  12  13
ENDBRANCH  10  12
ENDBRANCH   1  10
BRANCH   4  20
HETATM   20  N4  UNL     1      29.365 -19.491  22.231  1.00  0.00    -0.225 N 
ATOM     21  H4  UNL     1      29.055 -19.628  23.193  1.00  0.00     0.177 HD
BRANCH  20  22
HETATM   22  C8  UNL     1      30.527 -20.208  21.843  1.00  0.00     0.138 C 
BRANCH  22  23
HETATM   23  C9  UNL     1      30.256 -21.471  21.067  1.00  0.00     0.022 C 
BRANCH  23  24
HETATM   24  C10 UNL     1      29.303 -22.396  21.758  1.00  0.00     0.028 C 
BRANCH  24  25
HETATM   25  C11 UNL     1      29.107 -23.706  21.044  1.00  0.00     0.164 C 
BRANCH  25  26
HETATM   26  O1  UNL     1      27.803 -23.847  20.566  1.00  0.00    -0.401 OA
ATOM     27  H1  UNL     1      27.782 -23.949  19.622  1.00  0.00     0.209 HD
ENDBRANCH  25  26
ENDBRANCH  24  25
ENDBRANCH  23  24
ENDBRANCH  22  23
ENDBRANCH  20  22
ENDBRANCH   4  20
BRANCH   7  28
HETATM   28  N6  UNL     1      28.785 -15.308  20.450  1.00  0.00    -0.136 N 
ATOM     29  H6  UNL     1      29.776 -15.079  20.524  1.00  0.00     0.205 HD
BRANCH  28  30
HETATM   30  N7  UNL     1      27.847 -14.319  20.179  1.00  0.00    -0.327 N 
HETATM   31  C13 UNL     1      27.556 -13.378  21.259  1.00  0.00     0.168 C 
ATOM     32  H7  UNL     1      27.385 -14.253  19.272  1.00  0.00     0.180 HD
ENDBRANCH  28  30
ENDBRANCH   7  28
TORSDOF 14
ENDMDL
MODEL 2
REMARK VINA RESULT: -6.054510420      9.274     12.756
REMARK  14 active torsions:
REMARK  status: ('A' for Active; 'I' for Inactive)
REMARK    1  A    between atoms: C2_2  and  N1_3 
REMARK    2  A    between atoms: N1_3  and  C3_6 
REMARK    3  A    between atoms: C3_6  and  C4_7 
REMARK    4  A    between atoms: C4_7  and  C5_8 
REMARK    5  A    between atoms: C5_8  and  N2_9 
REMARK    6  A    between atoms: N2_9  and  C6_11 
REMARK    7  A    between atoms: C7_14  and  N4_15 
REMARK    8  A    between atoms: N4_15  and  C8_17 
REMARK    9  A    between atoms: C8_17  and  C9_18 
REMARK   10  A    between atoms: C9_18  and  C10_19 
REMARK   11  A    between atoms: C10_19  and  C11_20 
REMARK   12  A    between atoms: C11_20  and  O1_21 
REMARK   13  A    between atoms: C12_25  and  N6_26 
REMARK   14  A    between atoms: N6_26  and  N7_28 
ROOT
HETATM    1  C6  UNL     1      18.283 -16.027  25.807  1.00  0.00     0.707 A 
HETATM    2  N3  UNL     1      17.008 -15.943  25.327  1.00  0.00    -0.022 N 
ATOM      3  H3  UNL     1      16.506 -16.814  25.157  1.00  0.00     0.203 HD
HETATM    4  C7  UNL     1      16.373 -14.800  25.065  1.00  0.00     0.707 A 
HETATM    5  N5  UNL     1      17.053 -13.666  25.294  1.00  0.00    -0.020 N 
ATOM      6  H5  UNL     1      16.592 -12.777  25.101  1.00  0.00     0.203 HD
HETATM    7  C12 UNL     1      18.312 -13.647  25.766  1.00  0.00     0.725 A 
HETATM    8  N8  UNL     1      18.900 -14.853  26.013  1.00  0.00    -0.020 N 
ATOM      9  H8  UNL     1      19.855 -14.864  26.372  1.00  0.00     0.203 HD
ENDROOT
BRANCH   1  10
HETATM   10  N2  UNL     1      18.805 -17.170  26.030  1.00  0.00    -0.225 N 
ATOM     11  H2  UNL     1      19.786 -17.173  26.311  1.00  0.00     0.177 HD
BRANCH  10  12
HETATM   12  C5  UNL     1      18.174 -18.439  25.929  1.00  0.00     0.139 C 
BRANCH  12  13
HETATM   13  C4  UNL     1      19.015 -19.381  25.048  1.00  0.00     0.048 C 
BRANCH  13  14
HETATM   14  C3  UNL     1      18.926 -20.760  25.653  1.00  0.00     0.234 C 
BRANCH  14  15
HETATM   15  N1  UNL     1      19.648 -21.655  24.756  1.00  0.00    -0.075 N 
ATOM     16  H12 UNL     1      19.134 -22.519  24.587  1.00  0.00     0.277 HD
ATOM     17  H11 UNL     1      20.474 -22.054  25.203  1.00  0.00     0.277 HD
BRANCH  15  18
HETATM   18  C2  UNL     1      19.982 -20.974  23.516  1.00  0.00     0.228 C 
HETATM   19  C1  UNL     1      21.095 -21.761  22.825  1.00  0.00     0.034 C 
ENDBRANCH  15  18
ENDBRANCH  14  15
ENDBRANCH  13  14
ENDBRANCH  12  13
ENDBRANCH  10  12
ENDBRANCH   1  10
BRANCH   4  20
HETATM   20  N4  UNL     1      15.166 -14.740  24.621  1.00  0.00    -0.225 N 
ATOM     21  H4  UNL     1      14.427 -14.858  25.313  1.00  0.00     0.177 HD
BRANCH  20  22
HETATM   22  C8  UNL     1      14.739 -14.530  23.284  1.00  0.00     0.138 C 
BRANCH  22  23
HETATM   23  C9  UNL     1      14.549 -13.084  22.905  1.00  0.00     0.022 C 
BRANCH  23  24
HETATM   24  C10 UNL     1      13.124 -12.731  22.615  1.00  0.00     0.028 C 
BRANCH  24  25
HETATM   25  C11 UNL     1      12.951 -11.868  21.394  1.00  0.00     0.164 C 
BRANCH  25  26
HETATM   26  O1  UNL     1      13.920 -12.139  20.426  1.00  0.00    -0.401 OA
ATOM     27  H1  UNL     1      14.748 -12.392  20.817  1.00  0.00     0.209 HD
ENDBRANCH  25  26
ENDBRANCH  24  25
ENDBRANCH  23  24
ENDBRANCH  22  23
ENDBRANCH  20  22
ENDBRANCH   4  20
BRANCH   7  28
HETATM   28  N6  UNL     1      18.948 -12.539  25.983  1.00  0.00    -0.136 N 
ATOM     29  H6  UNL     1      19.469 -12.400  26.849  1.00  0.00     0.205 HD
BRANCH  28  30
HETATM   30  N7  UNL     1      18.907 -11.545  25.013  1.00  0.00    -0.327 N 
HETATM   31  C13 UNL     1      20.189 -10.980  24.598  1.00  0.00     0.168 C 
ATOM     32  H7  UNL     1      18.026 -11.227  24.611  1.00  0.00     0.180 HD
ENDBRANCH  28  30
ENDBRANCH   7  28
TORSDOF 14
ENDMDL
MODEL 3
REMARK VINA RESULT: -5.973255617      2.987      5.780
REMARK  14 active torsions:
REMARK  status: ('A' for Active; 'I' for Inactive)
REMARK    1  A    between atoms: C2_2  and  N1_3 
REMARK    2  A    between atoms: N1_3  and  C3_6 
REMARK    3  A    between atoms: C3_6  and  C4_7 
REMARK    4  A    between atoms: C4_7  and  C5_8 
REMARK    5  A    between atoms: C5_8  and  N2_9 
REMARK    6  A    between atoms: N2_9  and  C6_11 
REMARK    7  A    between atoms: C7_14  and  N4_15 
REMARK    8  A    between atoms: N4_15  and  C8_17 
REMARK    9  A    between atoms: C8_17  and  C9_18 
REMARK   10  A    between atoms: C9_18  and  C10_19 
REMARK   11  A    between atoms: C10_19  and  C11_20 
REMARK   12  A    between atoms: C11_20  and  O1_21 
REMARK   13  A    between atoms: C12_25  and  N6_26 
REMARK   14  A    between atoms: N6_26  and  N7_28 
ROOT
HETATM    1  C6  UNL     1      25.151 -17.561  20.085  1.00  0.00     0.707 A 
HETATM    2  N3  UNL     1      25.598 -16.279  19.948  1.00  0.00    -0.022 N 
ATOM      3  H3  UNL     1      24.901 -15.545  19.819  1.00  0.00     0.203 HD
HETATM    4  C7  UNL     1      26.881 -15.919  19.971  1.00  0.00     0.707 A 
HETATM    5  N5  UNL     1      27.780 -16.901  20.140  1.00  0.00    -0.020 N 
ATOM      6  H5  UNL     1      28.769 -16.654  20.160  1.00  0.00     0.203 HD
HETATM    7  C12 UNL     1      27.438 -18.194  20.284  1.00  0.00     0.725 A 
HETATM    8  N8  UNL     1      26.106 -18.490  20.252  1.00  0.00    -0.020 N 
ATOM      9  H8  UNL     1      25.822 -19.463  20.359  1.00  0.00     0.203 HD
ENDROOT
BRANCH   1  10
HETATM   10  N2  UNL     1      23.899 -17.807  20.052  1.00  0.00    -0.225 N 
ATOM     11  H2  UNL     1      23.484 -17.917  19.126  1.00  0.00     0.177 HD
BRANCH  10  12
HETATM   12  C5  UNL     1      23.020 -17.943  21.159  1.00  0.00     0.139 C 
BRANCH  12  13
HETATM   13  C4  UNL     1      21.985 -16.803  21.157  1.00  0.00     0.048 C 
BRANCH  13  14
HETATM   14  C3  UNL     1      22.194 -16.005  22.420  1.00  0.00     0.234 C 
BRANCH  14  15
HETATM   15  N1  UNL     1      21.192 -16.466  23.375  1.00  0.00    -0.075 N 
ATOM     16  H12 UNL     1      21.104 -17.482  23.371  1.00  0.00     0.277 HD
ATOM     17  H11 UNL     1      20.246 -16.230  23.075  1.00  0.00     0.277 HD
BRANCH  15  18
HETATM   18  C2  UNL     1      21.480 -15.954  24.704  1.00  0.00     0.228 C 
HETATM   19  C1  UNL     1      22.349 -14.705  24.556  1.00  0.00     0.034 C 
ENDBRANCH  15  18
ENDBRANCH  14  15
ENDBRANCH  13  14
ENDBRANCH  12  13
ENDBRANCH  10  12
ENDBRANCH   1  10
BRANCH   4  20
HETATM   20  N4  UNL     1      27.283 -14.701  19.849  1.00  0.00    -0.225 N 
ATOM     21  H4  UNL     1      27.114 -14.263  18.944  1.00  0.00     0.177 HD
BRANCH  20  22
HETATM   22  C8  UNL     1      27.933 -13.897  20.820  1.00  0.00     0.138 C 
BRANCH  22  23
HETATM   23  C9  UNL     1      27.158 -13.706  22.098  1.00  0.00     0.022 C 
BRANCH  23  24
HETATM   24  C10 UNL     1      26.115 -12.637  22.003  1.00  0.00     0.028 C 
BRANCH  24  25
HETATM   25  C11 UNL     1      24.705 -13.165  22.018  1.00  0.00     0.164 C 
BRANCH  25  26
HETATM   26  O1  UNL     1      24.334 -13.687  20.778  1.00  0.00    -0.401 OA
ATOM     27  H1  UNL     1      23.949 -14.552  20.860  1.00  0.00     0.209 HD
ENDBRANCH  25  26
ENDBRANCH  24  25
ENDBRANCH  23  24
ENDBRANCH  22  23
ENDBRANCH  20  22
ENDBRANCH   4  20
BRANCH   7  28
HETATM   28  N6  UNL     1      28.323 -19.125  20.450  1.00  0.00    -0.136 N 
ATOM     29  H6  UNL     1      29.073 -19.257  19.771  1.00  0.00     0.205 HD
BRANCH  28  30
HETATM   30  N7  UNL     1      28.231 -19.940  21.571  1.00  0.00    -0.327 N 
HETATM   31  C13 UNL     1      29.298 -20.920  21.759  1.00  0.00     0.168 C 
ATOM     32  H7  UNL     1      27.457 -19.858  22.230  1.00  0.00     0.180 HD
ENDBRANCH  28  30
ENDBRANCH   7  28
TORSDOF 14
ENDMDL
MODEL 4
REMARK VINA RESULT: -5.929364840      9.451     11.283
REMARK  14 active torsions:
REMARK  status: ('A' for Active; 'I' for Inactive)
REMARK    1  A    between atoms: C2_2  and  N1_3 
REMARK    2  A    between atoms: N1_3  and  C3_6 
REMARK    3  A    between atoms: C3_6  and  C4_7 
REMARK    4  A    between atoms: C4_7  and  C5_8 
REMARK    5  A    between atoms: C5_8  and  N2_9 
REMARK    6  A    between atoms: N2_9  and  C6_11 
REMARK    7  A    between atoms: C7_14  and  N4_15 
REMARK    8  A    between atoms: N4_15  and  C8_17 
REMARK    9  A    between atoms: C8_17  and  C9_18 
REMARK   10  A    between atoms: C9_18  and  C10_19 
REMARK   11  A    between atoms: C10_19  and  C11_20 
REMARK   12  A    between atoms: C11_20  and  O1_21 
REMARK   13  A    between atoms: C12_25  and  N6_26 
REMARK   14  A    between atoms: N6_26  and  N7_28 
ROOT
HETATM    1  C6  UNL     1      18.521 -13.636  25.837  1.00  0.00     0.707 A 
HETATM    2  N3  UNL     1      19.108 -14.846  26.066  1.00  0.00    -0.022 N 
ATOM      3  H3  UNL     1      20.059 -14.850  26.437  1.00  0.00     0.203 HD
HETATM    4  C7  UNL     1      18.526 -16.024  25.840  1.00  0.00     0.707 A 
HETATM    5  N5  UNL     1      17.277 -15.995  25.351  1.00  0.00    -0.020 N 
ATOM      6  H5  UNL     1      16.808 -16.882  25.167  1.00  0.00     0.203 HD
HETATM    7  C12 UNL     1      16.615 -14.853  25.093  1.00  0.00     0.725 A 
HETATM    8  N8  UNL     1      17.271 -13.685  25.349  1.00  0.00    -0.020 N 
ATOM      9  H8  UNL     1      16.789 -12.806  25.161  1.00  0.00     0.203 HD
ENDROOT
BRANCH   1  10
HETATM   10  N2  UNL     1      19.159 -12.560  26.087  1.00  0.00    -0.225 N 
ATOM     11  H2  UNL     1      19.138 -12.235  27.055  1.00  0.00     0.177 HD
BRANCH  10  12
HETATM   12  C5  UNL     1      19.896 -11.763  25.171  1.00  0.00     0.139 C 
BRANCH  12  13
HETATM   13  C4  UNL     1      20.610 -10.620  25.916  1.00  0.00     0.048 C 
BRANCH  13  14
HETATM   14  C3  UNL     1      21.437 -11.247  27.011  1.00  0.00     0.234 C 
BRANCH  14  15
HETATM   15  N1  UNL     1      21.724 -10.188  27.973  1.00  0.00    -0.075 N 
ATOM     16  H12 UNL     1      21.013  -9.458  27.957  1.00  0.00     0.277 HD
ATOM     17  H11 UNL     1      22.526  -9.626  27.690  1.00  0.00     0.277 HD
BRANCH  15  18
HETATM   18  C2  UNL     1      21.898 -10.743  29.305  1.00  0.00     0.228 C 
HETATM   19  C1  UNL     1      21.410 -12.192  29.285  1.00  0.00     0.034 C 
ENDBRANCH  15  18
ENDBRANCH  14  15
ENDBRANCH  13  14
ENDBRANCH  12  13
ENDBRANCH  10  12
ENDBRANCH   1  10
BRANCH   4  20
HETATM   20  N4  UNL     1      19.094 -17.156  26.072  1.00  0.00    -0.225 N 
ATOM     21  H4  UNL     1      20.044 -17.261  25.719  1.00  0.00     0.177 HD
BRANCH  20  22
HETATM   22  C8  UNL     1      18.557 -18.276  26.759  1.00  0.00     0.138 C 
BRANCH  22  23
HETATM   23  C9  UNL     1      18.438 -19.526  25.926  1.00  0.00     0.022 C 
BRANCH  23  24
HETATM   24  C10 UNL     1      19.210 -19.459  24.646  1.00  0.00     0.028 C 
BRANCH  24  25
HETATM   25  C11 UNL     1      19.532 -20.809  24.063  1.00  0.00     0.164 C 
BRANCH  25  26
HETATM   26  O1  UNL     1      19.397 -21.828  25.008  1.00  0.00    -0.401 OA
ATOM     27  H1  UNL     1      19.501 -22.688  24.618  1.00  0.00     0.209 HD
ENDBRANCH  25  26
ENDBRANCH  24  25
ENDBRANCH  23  24
ENDBRANCH  22  23
ENDBRANCH  20  22
ENDBRANCH   4  20
BRANCH   7  28
HETATM   28  N6  UNL     1      15.407 -14.850  24.624  1.00  0.00    -0.136 N 
ATOM     29  H6  UNL     1      14.609 -14.994  25.243  1.00  0.00     0.205 HD
BRANCH  28  30
HETATM   30  N7  UNL     1      15.221 -14.645  23.263  1.00  0.00    -0.327 N 
HETATM   31  C13 UNL     1      14.377 -13.515  22.878  1.00  0.00     0.168 C 
ATOM     32  H7  UNL     1      15.652 -15.252  22.566  1.00  0.00     0.180 HD
ENDBRANCH  28  30
ENDBRANCH   7  28
TORSDOF 14
ENDMDL
MODEL 5
REMARK VINA RESULT: -5.873938500      2.127      2.686
REMARK  14 active torsions:
REMARK  status: ('A' for Active; 'I' for Inactive)
REMARK    1  A    between atoms: C2_2  and  N1_3 
REMARK    2  A    between atoms: N1_3  and  C3_6 
REMARK    3  A    between atoms: C3_6  and  C4_7 
REMARK    4  A    between atoms: C4_7  and  C5_8 
REMARK    5  A    between atoms: C5_8  and  N2_9 
REMARK    6  A    between atoms: N2_9  and  C6_11 
REMARK    7  A    between atoms: C7_14  and  N4_15 
REMARK    8  A    between atoms: N4_15  and  C8_17 
REMARK    9  A    between atoms: C8_17  and  C9_18 
REMARK   10  A    between atoms: C9_18  and  C10_19 
REMARK   11  A    between atoms: C10_19  and  C11_20 
REMARK   12  A    between atoms: C11_20  and  O1_21 
REMARK   13  A    between atoms: C12_25  and  N6_26 
REMARK   14  A    between atoms: N6_26  and  N7_28 
ROOT
HETATM    1  C6  UNL     1      25.327 -17.530  20.059  1.00  0.00     0.707 A 
HETATM    2  N3  UNL     1      26.249 -18.491  20.357  1.00  0.00    -0.022 N 
ATOM      3  H3  UNL     1      25.909 -19.436  20.536  1.00  0.00     0.203 HD
HETATM    4  C7  UNL     1      27.564 -18.281  20.431  1.00  0.00     0.707 A 
HETATM    5  N5  UNL     1      27.989 -17.031  20.194  1.00  0.00    -0.020 N 
ATOM      6  H5  UNL     1      28.989 -16.841  20.245  1.00  0.00     0.203 HD
HETATM    7  C12 UNL     1      27.158 -16.016  19.891  1.00  0.00     0.725 A 
HETATM    8  N8  UNL     1      25.825 -16.304  19.832  1.00  0.00    -0.020 N 
ATOM      9  H8  UNL     1      25.176 -15.551  19.604  1.00  0.00     0.203 HD
ENDROOT
BRANCH   1  10
HETATM   10  N2  UNL     1      24.088 -17.829  20.009  1.00  0.00    -0.225 N 
ATOM     11  H2  UNL     1      23.743 -18.183  19.116  1.00  0.00     0.177 HD
BRANCH  10  12
HETATM   12  C5  UNL     1      23.135 -17.724  21.057  1.00  0.00     0.139 C 
BRANCH  12  13
HETATM   13  C4  UNL     1      22.417 -16.364  20.987  1.00  0.00     0.048 C 
BRANCH  13  14
HETATM   14  C3  UNL     1      22.424 -15.781  22.379  1.00  0.00     0.234 C 
BRANCH  14  15
HETATM   15  N1  UNL     1      21.338 -16.428  23.106  1.00  0.00    -0.075 N 
ATOM     16  H12 UNL     1      21.315 -17.434  22.937  1.00  0.00     0.277 HD
ATOM     17  H11 UNL     1      20.426 -16.188  22.718  1.00  0.00     0.277 HD
BRANCH  15  18
HETATM   18  C2  UNL     1      21.419 -16.122  24.524  1.00  0.00     0.228 C 
HETATM   19  C1  UNL     1      20.350 -16.938  25.250  1.00  0.00     0.034 C 
ENDBRANCH  15  18
ENDBRANCH  14  15
ENDBRANCH  13  14
ENDBRANCH  12  13
ENDBRANCH  10  12
ENDBRANCH   1  10
BRANCH   4  20
HETATM   20  N4  UNL     1      28.419 -19.203  20.705  1.00  0.00    -0.225 N 
ATOM     21  H4  UNL     1      29.007 -19.513  19.932  1.00  0.00     0.177 HD
BRANCH  20  22
HETATM   22  C8  UNL     1      28.643 -19.841  21.953  1.00  0.00     0.138 C 
BRANCH  22  23
HETATM   23  C9  UNL     1      29.367 -21.160  21.863  1.00  0.00     0.022 C 
BRANCH  23  24
HETATM   24  C10 UNL     1      30.834 -21.013  21.608  1.00  0.00     0.028 C 
BRANCH  24  25
HETATM   25  C11 UNL     1      31.275 -21.572  20.281  1.00  0.00     0.164 C 
BRANCH  25  26
HETATM   26  O1  UNL     1      30.488 -21.099  19.231  1.00  0.00    -0.401 OA
ATOM     27  H1  UNL     1      29.943 -21.783  18.861  1.00  0.00     0.209 HD
ENDBRANCH  25  26
ENDBRANCH  24  25
ENDBRANCH  23  24
ENDBRANCH  22  23
ENDBRANCH  20  22
ENDBRANCH   4  20
BRANCH   7  28
HETATM   28  N6  UNL     1      27.591 -14.817  19.662  1.00  0.00    -0.136 N 
ATOM     29  H6  UNL     1      27.325 -14.322  18.811  1.00  0.00     0.205 HD
BRANCH  28  30
HETATM   30  N7  UNL     1      28.427 -14.220  20.598  1.00  0.00    -0.327 N 
HETATM   31  C13 UNL     1      27.778 -13.505  21.695  1.00  0.00     0.168 C 
ATOM     32  H7  UNL     1      29.442 -14.278  20.524  1.00  0.00     0.180 HD
ENDBRANCH  28  30
ENDBRANCH   7  28
TORSDOF 14
ENDMDL
