MODEL 1
REMARK VINA RESULT: -7.813923377      0.000      0.000
REMARK  4 active torsions:
REMARK  status: ('A' for Active; 'I' for Inactive)
REMARK    1  A    between atoms: N1_1  and  C1_4 
REMARK    2  A    between atoms: C3_7  and  C4_8 
REMARK    3  A    between atoms: C4_8  and  C5_9 
REMARK    4  A    between atoms: C5_9  and  C6_10 
ROOT
HETATM    1  C1  UNL     1      -8.947   2.137   5.103  1.00  0.00     0.065 A 
HETATM    2  C2  UNL     1      -8.961   3.498   4.946  1.00  0.00     0.099 A 
HETATM    3  N2  UNL     1      -8.591   4.365   6.048  1.00  0.00    -0.098 NA
HETATM    4  C3  UNL     1      -9.306   4.167   3.794  1.00  0.00     0.087 A 
HETATM    5  S2  UNL     1      -9.743   3.162   2.491  1.00  0.00    -0.060 SA
HETATM    6  C10 UNL     1      -9.669   1.491   2.864  1.00  0.00     0.089 A 
HETATM    7  N3  UNL     1      -9.981   0.521   1.957  1.00  0.00    -0.335 N 
ATOM      8  H3  UNL     1     -10.269   0.803   1.019  1.00  0.00     0.168 HD
HETATM    9  C11 UNL     1      -9.924  -0.788   2.247  1.00  0.00     0.116 A 
HETATM   10  N4  UNL     1     -10.168  -1.924   1.566  1.00  0.00    -0.352 N 
ATOM     11  H4  UNL     1     -10.475  -1.963   0.594  1.00  0.00     0.166 HD
HETATM   12  C12 UNL     1      -9.954  -2.992   2.336  1.00  0.00     0.090 A 
HETATM   13  C13 UNL     1      -9.557  -2.505   3.555  1.00  0.00     0.032 A 
HETATM   14  C14 UNL     1      -9.528  -1.102   3.530  1.00  0.00     0.010 A 
HETATM   15  C15 UNL     1      -9.209  -0.150   4.462  1.00  0.00     0.032 A 
HETATM   16  C16 UNL     1      -9.270   1.195   4.155  1.00  0.00     0.027 A 
ENDROOT
BRANCH   4  17
HETATM   17  C4  UNL     1      -9.291   5.615   3.725  1.00  0.00    -0.052 C 
BRANCH  17  18
HETATM   18  C5  UNL     1      -9.295   6.819   3.653  1.00  0.00    -0.060 C 
BRANCH  18  19
HETATM   19  C6  UNL     1      -9.305   8.288   3.580  1.00  0.00     0.025 A 
HETATM   20  C7  UNL     1      -8.235   9.037   3.870  1.00  0.00     0.028 A 
HETATM   21  C8  UNL     1      -8.369  10.398   3.764  1.00  0.00     0.051 A 
HETATM   22  S1  UNL     1      -9.988  10.583   3.261  1.00  0.00    -0.112 SA
HETATM   23  C9  UNL     1     -10.446   8.944   3.199  1.00  0.00     0.070 A 
ENDBRANCH  18  19
ENDBRANCH  17  18
ENDBRANCH   4  17
BRANCH   1  24
HETATM   24  N1  UNL     1      -8.590   1.661   6.278  1.00  0.00    -0.397 N 
ATOM     25  H12 UNL     1      -8.494   2.352   7.021  1.00  0.00     0.156 HD
ATOM     26  H11 UNL     1      -8.439   0.655   6.355  1.00  0.00     0.156 HD
ENDBRANCH   1  24
TORSDOF 4
ENDMDL
MODEL 2
REMARK VINA RESULT: -7.760252104      1.851      2.890
REMARK  4 active torsions:
REMARK  status: ('A' for Active; 'I' for Inactive)
REMARK    1  A    between atoms: N1_1  and  C1_4 
REMARK    2  A    between atoms: C3_7  and  C4_8 
REMARK    3  A    between atoms: C4_8  and  C5_9 
REMARK    4  A    between atoms: C5_9  and  C6_10 
ROOT
HETATM    1  C1  UNL     1     -11.124   2.506   1.367  1.00  0.00     0.065 A 
HETATM    2  C2  UNL     1     -11.057   3.841   1.668  1.00  0.00     0.099 A 
HETATM    3  N2  UNL     1     -11.620   4.825   0.762  1.00  0.00    -0.098 NA
HETATM    4  C3  UNL     1     -10.483   4.379   2.797  1.00  0.00     0.087 A 
HETATM    5  S2  UNL     1      -9.818   3.237   3.871  1.00  0.00    -0.060 SA
HETATM    6  C10 UNL     1      -9.992   1.618   3.337  1.00  0.00     0.089 A 
HETATM    7  N3  UNL     1      -9.526   0.555   4.053  1.00  0.00    -0.335 N 
ATOM      8  H3  UNL     1      -9.057   0.731   4.942  1.00  0.00     0.168 HD
HETATM    9  C11 UNL     1      -9.661  -0.714   3.637  1.00  0.00     0.116 A 
HETATM   10  N4  UNL     1      -9.308  -1.918   4.128  1.00  0.00    -0.352 N 
ATOM     11  H4  UNL     1      -8.819  -2.064   5.011  1.00  0.00     0.166 HD
HETATM   12  C12 UNL     1      -9.687  -2.894   3.302  1.00  0.00     0.090 A 
HETATM   13  C13 UNL     1     -10.304  -2.276   2.244  1.00  0.00     0.032 A 
HETATM   14  C14 UNL     1     -10.304  -0.886   2.430  1.00  0.00     0.010 A 
HETATM   15  C15 UNL     1     -10.782   0.163   1.688  1.00  0.00     0.032 A 
HETATM   16  C16 UNL     1     -10.639   1.466   2.124  1.00  0.00     0.027 A 
ENDROOT
BRANCH   4  17
HETATM   17  C4  UNL     1     -10.460   5.810   3.027  1.00  0.00    -0.052 C 
BRANCH  17  18
HETATM   18  C5  UNL     1     -10.419   7.000   3.223  1.00  0.00    -0.060 C 
BRANCH  18  19
HETATM   19  C6  UNL     1     -10.357   8.449   3.469  1.00  0.00     0.025 A 
HETATM   20  C7  UNL     1     -11.450   9.213   3.586  1.00  0.00     0.028 A 
HETATM   21  C8  UNL     1     -11.263  10.551   3.815  1.00  0.00     0.051 A 
HETATM   22  S1  UNL     1      -9.565  10.697   3.859  1.00  0.00    -0.112 SA
HETATM   23  C9  UNL     1      -9.142   9.069   3.589  1.00  0.00     0.070 A 
ENDBRANCH  18  19
ENDBRANCH  17  18
ENDBRANCH   4  17
BRANCH   1  24
HETATM   24  N1  UNL     1     -11.711   2.162   0.240  1.00  0.00    -0.397 N 
ATOM     25  H12 UNL     1     -11.465   2.726  -0.574  1.00  0.00     0.156 HD
ATOM     26  H11 UNL     1     -12.356   1.372   0.263  1.00  0.00     0.156 HD
ENDBRANCH   1  24
TORSDOF 4
ENDMDL
MODEL 3
REMARK VINA RESULT: -7.687063144      0.973      1.095
REMARK  4 active torsions:
REMARK  status: ('A' for Active; 'I' for Inactive)
REMARK    1  A    between atoms: N1_1  and  C1_4 
REMARK    2  A    between atoms: C3_7  and  C4_8 
REMARK    3  A    between atoms: C4_8  and  C5_9 
REMARK    4  A    between atoms: C5_9  and  C6_10 
ROOT
HETATM    1  C1  UNL     1      -9.158   2.491   4.698  1.00  0.00     0.065 A 
HETATM    2  C2  UNL     1      -9.287   3.818   4.385  1.00  0.00     0.099 A 
HETATM    3  N2  UNL     1      -8.936   4.836   5.357  1.00  0.00    -0.098 NA
HETATM    4  C3  UNL     1      -9.739   4.316   3.185  1.00  0.00     0.087 A 
HETATM    5  S2  UNL     1     -10.155   3.133   2.033  1.00  0.00    -0.060 SA
HETATM    6  C10 UNL     1      -9.931   1.529   2.593  1.00  0.00     0.089 A 
HETATM    7  N3  UNL     1     -10.207   0.438   1.823  1.00  0.00    -0.335 N 
ATOM      8  H3  UNL     1     -10.560   0.582   0.877  1.00  0.00     0.168 HD
HETATM    9  C11 UNL     1     -10.032  -0.820   2.260  1.00  0.00     0.116 A 
HETATM   10  N4  UNL     1     -10.217  -2.044   1.730  1.00  0.00    -0.352 N 
ATOM     11  H4  UNL     1     -10.566  -2.222   0.788  1.00  0.00     0.166 HD
HETATM   12  C12 UNL     1      -9.883  -2.993   2.605  1.00  0.00     0.090 A 
HETATM   13  C13 UNL     1      -9.469  -2.336   3.736  1.00  0.00     0.032 A 
HETATM   14  C14 UNL     1      -9.553  -0.948   3.546  1.00  0.00     0.010 A 
HETATM   15  C15 UNL     1      -9.267   0.130   4.343  1.00  0.00     0.032 A 
HETATM   16  C16 UNL     1      -9.450   1.421   3.886  1.00  0.00     0.027 A 
ENDROOT
BRANCH   4  17
HETATM   17  C4  UNL     1      -9.842   5.743   2.948  1.00  0.00    -0.052 C 
BRANCH  17  18
HETATM   18  C5  UNL     1      -9.945   6.927   2.738  1.00  0.00    -0.060 C 
BRANCH  18  19
HETATM   19  C6  UNL     1     -10.085   8.368   2.476  1.00  0.00     0.025 A 
HETATM   20  C7  UNL     1      -9.730   8.931   1.315  1.00  0.00     0.028 A 
HETATM   21  C8  UNL     1      -9.908  10.285   1.191  1.00  0.00     0.051 A 
HETATM   22  S1  UNL     1     -10.566  10.724   2.701  1.00  0.00    -0.112 SA
HETATM   23  C9  UNL     1     -10.597   9.191   3.443  1.00  0.00     0.070 A 
ENDBRANCH  18  19
ENDBRANCH  17  18
ENDBRANCH   4  17
BRANCH   1  24
HETATM   24  N1  UNL     1      -8.709   2.186   5.898  1.00  0.00    -0.397 N 
ATOM     25  H12 UNL     1      -9.179   2.651   6.674  1.00  0.00     0.156 HD
ATOM     26  H11 UNL     1      -7.939   1.520   5.961  1.00  0.00     0.156 HD
ENDBRANCH   1  24
TORSDOF 4
ENDMDL
MODEL 4
REMARK VINA RESULT: -7.378201258      2.522      8.427
REMARK  4 active torsions:
REMARK  status: ('A' for Active; 'I' for Inactive)
REMARK    1  A    between atoms: N1_1  and  C1_4 
REMARK    2  A    between atoms: C3_7  and  C4_8 
REMARK    3  A    between atoms: C4_8  and  C5_9 
REMARK    4  A    between atoms: C5_9  and  C6_10 
ROOT
HETATM    1  C1  UNL     1      -8.468   4.902   4.453  1.00  0.00     0.065 A 
HETATM    2  C2  UNL     1      -8.612   3.591   4.086  1.00  0.00     0.099 A 
HETATM    3  N2  UNL     1      -8.048   2.535   4.906  1.00  0.00    -0.098 NA
HETATM    4  C3  UNL     1      -9.269   3.141   2.963  1.00  0.00     0.087 A 
HETATM    5  S2  UNL     1      -9.937   4.369   1.990  1.00  0.00    -0.060 SA
HETATM    6  C10 UNL     1      -9.662   5.947   2.599  1.00  0.00     0.089 A 
HETATM    7  N3  UNL     1     -10.115   7.067   1.967  1.00  0.00    -0.335 N 
ATOM      8  H3  UNL     1     -10.639   6.961   1.097  1.00  0.00     0.168 HD
HETATM    9  C11 UNL     1      -9.901   8.304   2.442  1.00  0.00     0.116 A 
HETATM   10  N4  UNL     1     -10.224   9.547   2.036  1.00  0.00    -0.352 N 
ATOM     11  H4  UNL     1     -10.752   9.762   1.190  1.00  0.00     0.166 HD
HETATM   12  C12 UNL     1      -9.758  10.459   2.891  1.00  0.00     0.090 A 
HETATM   13  C13 UNL     1      -9.113   9.757   3.877  1.00  0.00     0.032 A 
HETATM   14  C14 UNL     1      -9.188   8.380   3.619  1.00  0.00     0.010 A 
HETATM   15  C15 UNL     1      -8.720   7.272   4.277  1.00  0.00     0.032 A 
HETATM   16  C16 UNL     1      -8.945   6.003   3.781  1.00  0.00     0.027 A 
ENDROOT
BRANCH   4  17
HETATM   17  C4  UNL     1      -9.368   1.727   2.658  1.00  0.00    -0.052 C 
BRANCH  17  18
HETATM   18  C5  UNL     1      -9.433   0.553   2.391  1.00  0.00    -0.060 C 
BRANCH  18  19
HETATM   19  C6  UNL     1      -9.510  -0.876   2.050  1.00  0.00     0.025 A 
HETATM   20  C7  UNL     1      -9.373  -1.333   0.800  1.00  0.00     0.028 A 
HETATM   21  C8  UNL     1      -9.464  -2.687   0.609  1.00  0.00     0.051 A 
HETATM   22  S1  UNL     1      -9.738  -3.277   2.185  1.00  0.00    -0.112 SA
HETATM   23  C9  UNL     1      -9.729  -1.802   3.036  1.00  0.00     0.070 A 
ENDBRANCH  18  19
ENDBRANCH  17  18
ENDBRANCH   4  17
BRANCH   1  24
HETATM   24  N1  UNL     1      -7.807   5.158   5.563  1.00  0.00    -0.397 N 
ATOM     25  H12 UNL     1      -8.336   5.040   6.426  1.00  0.00     0.156 HD
ATOM     26  H11 UNL     1      -6.833   5.449   5.478  1.00  0.00     0.156 HD
ENDBRANCH   1  24
TORSDOF 4
ENDMDL
MODEL 5
REMARK VINA RESULT: -7.260656659      1.389      1.865
REMARK  4 active torsions:
REMARK  status: ('A' for Active; 'I' for Inactive)
REMARK    1  A    between atoms: N1_1  and  C1_4 
REMARK    2  A    between atoms: C3_7  and  C4_8 
REMARK    3  A    between atoms: C4_8  and  C5_9 
REMARK    4  A    between atoms: C5_9  and  C6_10 
ROOT
HETATM    1  C1  UNL     1      -9.538   2.024   3.873  1.00  0.00     0.065 A 
HETATM    2  C2  UNL     1      -9.790   3.367   3.970  1.00  0.00     0.099 A 
HETATM    3  N2  UNL     1      -9.572   4.064   5.225  1.00  0.00    -0.098 NA
HETATM    4  C3  UNL     1     -10.252   4.170   2.953  1.00  0.00     0.087 A 
HETATM    5  S2  UNL     1     -10.513   3.368   1.475  1.00  0.00    -0.060 SA
HETATM    6  C10 UNL     1     -10.147   1.695   1.534  1.00  0.00     0.089 A 
HETATM    7  N3  UNL     1     -10.288   0.873   0.454  1.00  0.00    -0.335 N 
ATOM      8  H3  UNL     1     -10.625   1.271  -0.423  1.00  0.00     0.168 HD
HETATM    9  C11 UNL     1     -10.002  -0.438   0.498  1.00  0.00     0.116 A 
HETATM   10  N4  UNL     1     -10.047  -1.451  -0.388  1.00  0.00    -0.352 N 
ATOM     11  H4  UNL     1     -10.348  -1.359  -1.359  1.00  0.00     0.166 HD
HETATM   12  C12 UNL     1      -9.646  -2.590   0.176  1.00  0.00     0.090 A 
HETATM   13  C13 UNL     1      -9.335  -2.280   1.475  1.00  0.00     0.032 A 
HETATM   14  C14 UNL     1      -9.551  -0.914   1.711  1.00  0.00     0.010 A 
HETATM   15  C15 UNL     1      -9.399  -0.112   2.813  1.00  0.00     0.032 A 
HETATM   16  C16 UNL     1      -9.696   1.236   2.759  1.00  0.00     0.027 A 
ENDROOT
BRANCH   4  17
HETATM   17  C4  UNL     1     -10.491   5.586   3.154  1.00  0.00    -0.052 C 
BRANCH  17  18
HETATM   18  C5  UNL     1     -10.667   6.769   3.319  1.00  0.00    -0.060 C 
BRANCH  18  19
HETATM   19  C6  UNL     1     -10.896   8.207   3.524  1.00  0.00     0.025 A 
HETATM   20  C7  UNL     1     -12.069   8.704   3.935  1.00  0.00     0.028 A 
HETATM   21  C8  UNL     1     -12.158  10.063   4.090  1.00  0.00     0.051 A 
HETATM   22  S1  UNL     1     -10.600  10.600   3.656  1.00  0.00    -0.112 SA
HETATM   23  C9  UNL     1      -9.882   9.099   3.294  1.00  0.00     0.070 A 
ENDBRANCH  18  19
ENDBRANCH  17  18
ENDBRANCH   4  17
BRANCH   1  24
HETATM   24  N1  UNL     1      -9.097   1.405   4.949  1.00  0.00    -0.397 N 
ATOM     25  H12 UNL     1      -9.275   0.402   4.982  1.00  0.00     0.156 HD
ATOM     26  H11 UNL     1      -8.619   1.964   5.655  1.00  0.00     0.156 HD
ENDBRANCH   1  24
TORSDOF 4
ENDMDL
