MODEL 1
REMARK VINA RESULT: -6.972242903      0.000      0.000
REMARK  5 active torsions:
REMARK  status: ('A' for Active; 'I' for Inactive)
REMARK    1  A    between atoms: C4_4  and  N1_5 
REMARK    2  A    between atoms: C9_15  and  C10_16 
REMARK    3  A    between atoms: C10_16  and  N4_17 
REMARK    4  A    between atoms: N4_17  and  C11_19 
REMARK    5  A    between atoms: C11_19  and  N5_21 
ROOT
HETATM    1  N1  UNL     1     -26.397 -11.124  -1.473  1.00  0.00    -0.302 N 
HETATM    2  C5  UNL     1     -25.450 -11.507  -0.428  1.00  0.00     0.164 C 
HETATM    3  C6  UNL     1     -26.283  -9.829  -1.975  1.00  0.00     0.181 C 
HETATM    4  N2  UNL     1     -26.196  -8.748  -2.389  1.00  0.00    -0.172 NA
ENDROOT
BRANCH   1   5
HETATM    5  C4  UNL     1     -27.380 -12.086  -1.922  1.00  0.00     0.198 C 
HETATM    6  C3  UNL     1     -26.957 -12.628  -3.262  1.00  0.00     0.080 C 
HETATM    7  C2  UNL     1     -26.378 -14.024  -3.116  1.00  0.00     0.185 C 
HETATM    8  C1  UNL     1     -25.163 -14.215  -3.994  1.00  0.00     0.040 C 
HETATM    9  N7  UNL     1     -27.391 -14.956  -3.596  1.00  0.00    -0.069 N 
HETATM   10  C13 UNL     1     -27.204 -16.190  -2.880  1.00  0.00     0.266 C 
ATOM     11  H72 UNL     1     -28.340 -14.590  -3.521  1.00  0.00     0.277 HD
ATOM     12  H71 UNL     1     -27.377 -15.076  -4.609  1.00  0.00     0.277 HD
HETATM   13  C9  UNL     1     -28.327 -16.269  -1.838  1.00  0.00     0.165 C 
HETATM   14  O2  UNL     1     -29.422 -15.622  -2.313  1.00  0.00    -0.373 OA
HETATM   15  C8  UNL     1     -29.635 -14.351  -1.885  1.00  0.00     0.271 C 
HETATM   16  C7  UNL     1     -28.777 -13.876  -0.805  1.00  0.00     0.242 C 
HETATM   17  N3  UNL     1     -27.612 -13.112  -0.948  1.00  0.00    -0.337 N 
HETATM   18  O1  UNL     1     -29.119 -14.184   0.388  1.00  0.00    -0.271 OA
ATOM     19  H3  UNL     1     -26.853 -13.306  -0.295  1.00  0.00     0.164 HD
BRANCH  13  20
HETATM   20  C10 UNL     1     -28.604 -17.747  -1.648  1.00  0.00     0.155 C 
BRANCH  20  21
HETATM   21  N4  UNL     1     -29.971 -18.089  -1.883  1.00  0.00    -0.364 N 
ATOM     22  H4  UNL     1     -30.696 -17.800  -1.225  1.00  0.00     0.162 HD
BRANCH  21  23
HETATM   23  C11 UNL     1     -30.310 -18.836  -3.041  1.00  0.00     0.180 C 
HETATM   24  S1  UNL     1     -31.677 -19.758  -3.050  1.00  0.00    -0.040 SA
BRANCH  23  25
HETATM   25  N5  UNL     1     -29.510 -18.826  -4.213  1.00  0.00    -0.270 N 
HETATM   26  C12 UNL     1     -29.442 -17.682  -5.030  1.00  0.00     0.184 C 
HETATM   27  N6  UNL     1     -29.374 -16.734  -5.689  1.00  0.00    -0.172 NA
ATOM     28  H5  UNL     1     -28.978 -19.659  -4.466  1.00  0.00     0.180 HD
ENDBRANCH  23  25
ENDBRANCH  21  23
ENDBRANCH  20  21
ENDBRANCH  13  20
ENDBRANCH   1   5
TORSDOF 5
ENDMDL
MODEL 2
REMARK VINA RESULT: -6.841637503      3.167      4.357
REMARK  5 active torsions:
REMARK  status: ('A' for Active; 'I' for Inactive)
REMARK    1  A    between atoms: C4_4  and  N1_5 
REMARK    2  A    between atoms: C9_15  and  C10_16 
REMARK    3  A    between atoms: C10_16  and  N4_17 
REMARK    4  A    between atoms: N4_17  and  C11_19 
REMARK    5  A    between atoms: C11_19  and  N5_21 
ROOT
HETATM    1  N1  UNL     1     -22.265 -11.476  -4.352  1.00  0.00    -0.302 N 
HETATM    2  C5  UNL     1     -21.646 -10.298  -3.747  1.00  0.00     0.164 C 
HETATM    3  C6  UNL     1     -21.953 -11.728  -5.686  1.00  0.00     0.181 C 
HETATM    4  N2  UNL     1     -21.702 -11.938  -6.800  1.00  0.00    -0.172 NA
ENDROOT
BRANCH   1   5
HETATM    5  C4  UNL     1     -23.148 -12.298  -3.554  1.00  0.00     0.198 C 
HETATM    6  C3  UNL     1     -23.937 -11.411  -2.628  1.00  0.00     0.080 C 
HETATM    7  C2  UNL     1     -25.358 -11.236  -3.134  1.00  0.00     0.185 C 
HETATM    8  C1  UNL     1     -25.834  -9.812  -2.967  1.00  0.00     0.040 C 
HETATM    9  N7  UNL     1     -26.214 -12.064  -2.293  1.00  0.00    -0.069 N 
HETATM   10  C13 UNL     1     -27.338 -12.463  -3.096  1.00  0.00     0.266 C 
ATOM     11  H72 UNL     1     -25.721 -12.854  -1.874  1.00  0.00     0.277 HD
ATOM     12  H71 UNL     1     -26.486 -11.605  -1.424  1.00  0.00     0.277 HD
HETATM   13  C9  UNL     1     -27.113 -13.934  -3.469  1.00  0.00     0.165 C 
HETATM   14  O2  UNL     1     -26.410 -14.542  -2.480  1.00  0.00    -0.373 OA
HETATM   15  C8  UNL     1     -25.072 -14.689  -2.660  1.00  0.00     0.271 C 
HETATM   16  C7  UNL     1     -24.553 -14.358  -3.983  1.00  0.00     0.242 C 
HETATM   17  N3  UNL     1     -23.977 -13.141  -4.367  1.00  0.00    -0.337 N 
HETATM   18  O1  UNL     1     -24.631 -15.265  -4.882  1.00  0.00    -0.271 OA
ATOM     19  H3  UNL     1     -24.166 -12.822  -5.316  1.00  0.00     0.164 HD
BRANCH  13  20
HETATM   20  C10 UNL     1     -28.497 -14.536  -3.607  1.00  0.00     0.155 C 
BRANCH  20  21
HETATM   21  N4  UNL     1     -28.518 -15.687  -4.453  1.00  0.00    -0.364 N 
ATOM     22  H4  UNL     1     -28.234 -15.616  -5.430  1.00  0.00     0.162 HD
BRANCH  21  23
HETATM   23  C11 UNL     1     -28.941 -16.933  -3.918  1.00  0.00     0.180 C 
HETATM   24  S1  UNL     1     -28.900 -17.179  -2.288  1.00  0.00    -0.040 SA
BRANCH  23  25
HETATM   25  N5  UNL     1     -29.404 -17.995  -4.738  1.00  0.00    -0.270 N 
HETATM   26  C12 UNL     1     -30.486 -18.798  -4.333  1.00  0.00     0.184 C 
HETATM   27  N6  UNL     1     -31.388 -19.445  -4.007  1.00  0.00    -0.172 NA
ATOM     28  H5  UNL     1     -28.946 -18.177  -5.631  1.00  0.00     0.180 HD
ENDBRANCH  23  25
ENDBRANCH  21  23
ENDBRANCH  20  21
ENDBRANCH  13  20
ENDBRANCH   1   5
TORSDOF 5
ENDMDL
MODEL 3
REMARK VINA RESULT: -6.764472168      1.390      2.112
REMARK  5 active torsions:
REMARK  status: ('A' for Active; 'I' for Inactive)
REMARK    1  A    between atoms: C4_4  and  N1_5 
REMARK    2  A    between atoms: C9_15  and  C10_16 
REMARK    3  A    between atoms: C10_16  and  N4_17 
REMARK    4  A    between atoms: N4_17  and  C11_19 
REMARK    5  A    between atoms: C11_19  and  N5_21 
ROOT
HETATM    1  N1  UNL     1     -26.299 -11.236  -1.122  1.00  0.00    -0.302 N 
HETATM    2  C5  UNL     1     -25.626 -10.312  -2.032  1.00  0.00     0.164 C 
HETATM    3  C6  UNL     1     -25.911 -11.188   0.216  1.00  0.00     0.181 C 
HETATM    4  N2  UNL     1     -25.585 -11.157   1.329  1.00  0.00    -0.172 NA
ENDROOT
BRANCH   1   5
HETATM    5  C4  UNL     1     -27.309 -12.132  -1.644  1.00  0.00     0.198 C 
HETATM    6  C3  UNL     1     -26.910 -12.562  -3.030  1.00  0.00     0.080 C 
HETATM    7  C2  UNL     1     -26.363 -13.978  -3.015  1.00  0.00     0.185 C 
HETATM    8  C1  UNL     1     -25.160 -14.117  -3.920  1.00  0.00     0.040 C 
HETATM    9  N7  UNL     1     -27.401 -14.841  -3.565  1.00  0.00    -0.069 N 
HETATM   10  C13 UNL     1     -27.236 -16.137  -2.964  1.00  0.00     0.266 C 
ATOM     11  H72 UNL     1     -28.341 -14.462  -3.447  1.00  0.00     0.277 HD
ATOM     12  H71 UNL     1     -27.400 -14.869  -4.585  1.00  0.00     0.277 HD
HETATM   13  C9  UNL     1     -28.352 -16.283  -1.921  1.00  0.00     0.165 C 
HETATM   14  O2  UNL     1     -29.435 -15.572  -2.324  1.00  0.00    -0.373 OA
HETATM   15  C8  UNL     1     -29.615 -14.340  -1.783  1.00  0.00     0.271 C 
HETATM   16  C7  UNL     1     -28.737 -13.982  -0.674  1.00  0.00     0.242 C 
HETATM   17  N3  UNL     1     -27.555 -13.236  -0.762  1.00  0.00    -0.337 N 
HETATM   18  O1  UNL     1     -29.075 -14.388   0.490  1.00  0.00    -0.271 OA
ATOM     19  H3  UNL     1     -26.795 -13.504  -0.137  1.00  0.00     0.164 HD
BRANCH  13  20
HETATM   20  C10 UNL     1     -28.661 -17.765  -1.860  1.00  0.00     0.155 C 
BRANCH  20  21
HETATM   21  N4  UNL     1     -29.998 -18.070  -2.264  1.00  0.00    -0.364 N 
ATOM     22  H4  UNL     1     -30.787 -17.823  -1.666  1.00  0.00     0.162 HD
BRANCH  21  23
HETATM   23  C11 UNL     1     -30.215 -18.720  -3.507  1.00  0.00     0.180 C 
HETATM   24  S1  UNL     1     -29.504 -18.132  -4.873  1.00  0.00    -0.040 SA
BRANCH  23  25
HETATM   25  N5  UNL     1     -31.032 -19.874  -3.628  1.00  0.00    -0.270 N 
HETATM   26  C12 UNL     1     -32.155 -20.053  -2.798  1.00  0.00     0.184 C 
HETATM   27  N6  UNL     1     -33.088 -20.188  -2.128  1.00  0.00    -0.172 NA
ATOM     28  H5  UNL     1     -30.803 -20.582  -4.325  1.00  0.00     0.180 HD
ENDBRANCH  23  25
ENDBRANCH  21  23
ENDBRANCH  20  21
ENDBRANCH  13  20
ENDBRANCH   1   5
TORSDOF 5
ENDMDL
MODEL 4
REMARK VINA RESULT: -6.617430355      2.102      3.354
REMARK  5 active torsions:
REMARK  status: ('A' for Active; 'I' for Inactive)
REMARK    1  A    between atoms: C4_4  and  N1_5 
REMARK    2  A    between atoms: C9_15  and  C10_16 
REMARK    3  A    between atoms: C10_16  and  N4_17 
REMARK    4  A    between atoms: N4_17  and  C11_19 
REMARK    5  A    between atoms: C11_19  and  N5_21 
ROOT
HETATM    1  N1  UNL     1     -27.639 -11.313  -0.965  1.00  0.00    -0.302 N 
HETATM    2  C5  UNL     1     -26.922 -10.136  -1.451  1.00  0.00     0.164 C 
HETATM    3  C6  UNL     1     -28.849 -11.081  -0.314  1.00  0.00     0.181 C 
HETATM    4  N2  UNL     1     -29.854 -10.892   0.236  1.00  0.00    -0.172 NA
ENDROOT
BRANCH   1   5
HETATM    5  C4  UNL     1     -27.069 -12.626  -1.178  1.00  0.00     0.198 C 
HETATM    6  C3  UNL     1     -26.779 -13.256   0.158  1.00  0.00     0.080 C 
HETATM    7  C2  UNL     1     -27.826 -14.304   0.494  1.00  0.00     0.185 C 
HETATM    8  C1  UNL     1     -28.222 -14.243   1.951  1.00  0.00     0.040 C 
HETATM    9  N7  UNL     1     -27.205 -15.606   0.285  1.00  0.00    -0.069 N 
HETATM   10  C13 UNL     1     -28.255 -16.521  -0.077  1.00  0.00     0.266 C 
ATOM     11  H72 UNL     1     -26.444 -15.582  -0.394  1.00  0.00     0.277 HD
ATOM     12  H71 UNL     1     -26.657 -15.922   1.084  1.00  0.00     0.277 HD
HETATM   13  C9  UNL     1     -28.127 -16.763  -1.587  1.00  0.00     0.165 C 
HETATM   14  O2  UNL     1     -26.824 -16.647  -1.948  1.00  0.00    -0.373 OA
HETATM   15  C8  UNL     1     -26.425 -15.469  -2.491  1.00  0.00     0.271 C 
HETATM   16  C7  UNL     1     -27.478 -14.512  -2.815  1.00  0.00     0.242 C 
HETATM   17  N3  UNL     1     -27.900 -13.442  -2.016  1.00  0.00    -0.337 N 
HETATM   18  O1  UNL     1     -28.076 -14.663  -3.935  1.00  0.00    -0.271 OA
ATOM     19  H3  UNL     1     -28.895 -13.221  -2.032  1.00  0.00     0.164 HD
BRANCH  13  20
HETATM   20  C10 UNL     1     -28.637 -18.171  -1.818  1.00  0.00     0.155 C 
BRANCH  20  21
HETATM   21  N4  UNL     1     -29.981 -18.200  -2.305  1.00  0.00    -0.364 N 
ATOM     22  H4  UNL     1     -30.751 -17.891  -1.712  1.00  0.00     0.162 HD
BRANCH  21  23
HETATM   23  C11 UNL     1     -30.231 -18.665  -3.623  1.00  0.00     0.180 C 
HETATM   24  S1  UNL     1     -29.420 -17.996  -4.893  1.00  0.00    -0.040 SA
BRANCH  23  25
HETATM   25  N5  UNL     1     -31.163 -19.697  -3.901  1.00  0.00    -0.270 N 
HETATM   26  C12 UNL     1     -32.183 -20.014  -2.983  1.00  0.00     0.184 C 
HETATM   27  N6  UNL     1     -33.031 -20.260  -2.236  1.00  0.00    -0.172 NA
ATOM     28  H5  UNL     1     -31.094 -20.216  -4.776  1.00  0.00     0.180 HD
ENDBRANCH  23  25
ENDBRANCH  21  23
ENDBRANCH  20  21
ENDBRANCH  13  20
ENDBRANCH   1   5
TORSDOF 5
ENDMDL
MODEL 5
REMARK VINA RESULT: -6.608309354      1.949      3.124
REMARK  5 active torsions:
REMARK  status: ('A' for Active; 'I' for Inactive)
REMARK    1  A    between atoms: C4_4  and  N1_5 
REMARK    2  A    between atoms: C9_15  and  C10_16 
REMARK    3  A    between atoms: C10_16  and  N4_17 
REMARK    4  A    between atoms: N4_17  and  C11_19 
REMARK    5  A    between atoms: C11_19  and  N5_21 
ROOT
HETATM    1  N1  UNL     1     -25.934 -10.540  -1.459  1.00  0.00    -0.302 N 
HETATM    2  C5  UNL     1     -25.713  -9.816  -0.210  1.00  0.00     0.164 C 
HETATM    3  C6  UNL     1     -26.092  -9.768  -2.609  1.00  0.00     0.181 C 
HETATM    4  N2  UNL     1     -26.232  -9.129  -3.567  1.00  0.00    -0.172 NA
ENDROOT
BRANCH   1   5
HETATM    5  C4  UNL     1     -25.977 -11.986  -1.439  1.00  0.00     0.198 C 
HETATM    6  C3  UNL     1     -26.962 -12.431  -0.390  1.00  0.00     0.080 C 
HETATM    7  C2  UNL     1     -28.258 -12.891  -1.034  1.00  0.00     0.185 C 
HETATM    8  C1  UNL     1     -29.463 -12.417  -0.253  1.00  0.00     0.040 C 
HETATM    9  N7  UNL     1     -28.269 -14.347  -0.974  1.00  0.00    -0.069 N 
HETATM   10  C13 UNL     1     -29.040 -14.810  -2.096  1.00  0.00     0.266 C 
ATOM     11  H72 UNL     1     -27.333 -14.753  -0.937  1.00  0.00     0.277 HD
ATOM     12  H71 UNL     1     -28.604 -14.709  -0.082  1.00  0.00     0.277 HD
HETATM   13  C9  UNL     1     -28.038 -15.348  -3.127  1.00  0.00     0.165 C 
HETATM   14  O2  UNL     1     -26.949 -15.833  -2.479  1.00  0.00    -0.373 OA
HETATM   15  C8  UNL     1     -25.856 -15.032  -2.402  1.00  0.00     0.271 C 
HETATM   16  C7  UNL     1     -25.890 -13.807  -3.194  1.00  0.00     0.242 C 
HETATM   17  N3  UNL     1     -26.251 -12.534  -2.736  1.00  0.00    -0.337 N 
HETATM   18  O1  UNL     1     -25.559 -13.901  -4.426  1.00  0.00    -0.271 OA
ATOM     19  H3  UNL     1     -26.760 -11.938  -3.388  1.00  0.00     0.164 HD
BRANCH  13  20
HETATM   20  C10 UNL     1     -28.769 -16.448  -3.870  1.00  0.00     0.155 C 
BRANCH  20  21
HETATM   21  N4  UNL     1     -29.194 -17.509  -3.011  1.00  0.00    -0.364 N 
ATOM     22  H4  UNL     1     -28.882 -17.544  -2.040  1.00  0.00     0.162 HD
BRANCH  21  23
HETATM   23  C11 UNL     1     -30.055 -18.515  -3.525  1.00  0.00     0.180 C 
HETATM   24  S1  UNL     1     -30.510 -18.471  -5.109  1.00  0.00    -0.040 SA
BRANCH  23  25
HETATM   25  N5  UNL     1     -30.550 -19.574  -2.721  1.00  0.00    -0.270 N 
HETATM   26  C12 UNL     1     -31.905 -19.951  -2.781  1.00  0.00     0.184 C 
HETATM   27  N6  UNL     1     -33.015 -20.271  -2.845  1.00  0.00    -0.172 NA
ATOM     28  H5  UNL     1     -29.916 -20.068  -2.093  1.00  0.00     0.180 HD
ENDBRANCH  23  25
ENDBRANCH  21  23
ENDBRANCH  20  21
ENDBRANCH  13  20
ENDBRANCH   1   5
TORSDOF 5
ENDMDL
