MODEL 1
REMARK VINA RESULT: -6.677756254      0.000      0.000
REMARK  7 active torsions:
REMARK  status: ('A' for Active; 'I' for Inactive)
REMARK    1  A    between atoms: C2_2  and  C4_4 
REMARK    2  A    between atoms: C5_5  and  O1_6 
REMARK    3  A    between atoms: O1_6  and  C6_7 
REMARK    4  A    between atoms: C6_7  and  N2_12 
REMARK    5  A    between atoms: N1_8  and  O2_10 
REMARK    6  A    between atoms: N2_12  and  C7_14 
REMARK    7  A    between atoms: C16_31  and  O4_32 
ROOT
HETATM    1  C6  UNL     1       1.886  31.368  26.105  1.00  0.00     0.240 C 
HETATM    2  N1  UNL     1       2.147  31.096  24.901  1.00  0.00    -0.233 N 
ATOM      3  H1  UNL     1       2.899  30.428  24.731  1.00  0.00     0.198 HD
ENDROOT
BRANCH   1   4
HETATM    4  O1  UNL     1       0.896  32.251  26.460  1.00  0.00    -0.315 OA
BRANCH   4   5
HETATM    5  C5  UNL     1      -0.463  31.933  26.519  1.00  0.00     0.141 C 
HETATM    6  C4  UNL     1      -1.254  33.224  26.720  1.00  0.00     0.049 C 
HETATM    7  C16 UNL     1      -1.042  33.653  28.132  1.00  0.00     0.157 C 
HETATM    8  C15 UNL     1      -1.667  32.671  29.061  1.00  0.00     0.245 A 
HETATM    9  C14 UNL     1      -1.427  31.320  28.766  1.00  0.00     0.222 A 
HETATM   10  N5  UNL     1      -2.773  31.859  28.699  1.00  0.00    -0.060 N 
HETATM   11  C13 UNL     1      -0.733  30.905  27.531  1.00  0.00     0.068 C 
ATOM     12  H52 UNL     1      -3.511  31.900  27.996  1.00  0.00     0.278 HD
ATOM     13  H51 UNL     1      -3.676  31.626  29.111  1.00  0.00     0.278 HD
BRANCH   6  14
HETATM   14  C2  UNL     1      -0.687  34.257  25.764  1.00  0.00    -0.014 C 
HETATM   15  C1  UNL     1      -0.997  33.896  24.326  1.00  0.00     0.010 C 
HETATM   16  C3  UNL     1      -1.269  35.626  26.014  1.00  0.00     0.010 C 
ENDBRANCH   6  14
BRANCH   7  17
HETATM   17  O4  UNL     1       0.331  33.652  28.381  1.00  0.00    -0.393 OA
ATOM     18  H4  UNL     1       0.466  33.364  29.276  1.00  0.00     0.210 HD
ENDBRANCH   7  17
ENDBRANCH   4   5
ENDBRANCH   1   4
BRANCH   1  19
HETATM   19  N2  UNL     1       2.671  30.716  27.147  1.00  0.00    -0.337 N 
ATOM     20  H2  UNL     1       2.905  29.728  27.048  1.00  0.00     0.164 HD
BRANCH  19  21
HETATM   21  C7  UNL     1       3.122  31.429  28.308  1.00  0.00     0.215 C 
HETATM   22  C8  UNL     1       2.348  31.090  29.527  1.00  0.00     0.092 C 
HETATM   23  N3  UNL     1       2.881  31.065  30.666  1.00  0.00    -0.375 N 
HETATM   24  C9  UNL     1       4.242  31.340  30.990  1.00  0.00     0.098 C 
ATOM     25  H3  UNL     1       2.269  30.822  31.446  1.00  0.00     0.161 HD
HETATM   26  C10 UNL     1       4.341  32.788  31.486  1.00  0.00     0.062 C 
HETATM   27  C11 UNL     1       4.745  30.479  32.134  1.00  0.00     0.062 C 
HETATM   28  N4  UNL     1       5.118  31.221  29.867  1.00  0.00    -0.333 N 
HETATM   29  C12 UNL     1       4.560  31.138  28.567  1.00  0.00     0.247 C 
ATOM     30  H4  UNL     1       6.129  31.198  29.999  1.00  0.00     0.165 HD
HETATM   31  O3  UNL     1       5.309  30.808  27.613  1.00  0.00    -0.271 OA
ENDBRANCH  19  21
ENDBRANCH   1  19
BRANCH   2  32
HETATM   32  O2  UNL     1       1.532  31.599  23.826  1.00  0.00    -0.287 OA
ATOM     33  H2  UNL     1       1.049  31.105  23.173  1.00  0.00     0.244 HD
ENDBRANCH   2  32
TORSDOF 7
ENDMDL
MODEL 2
REMARK VINA RESULT: -6.615137558      3.766      6.611
REMARK  7 active torsions:
REMARK  status: ('A' for Active; 'I' for Inactive)
REMARK    1  A    between atoms: C2_2  and  C4_4 
REMARK    2  A    between atoms: C5_5  and  O1_6 
REMARK    3  A    between atoms: O1_6  and  C6_7 
REMARK    4  A    between atoms: C6_7  and  N2_12 
REMARK    5  A    between atoms: N1_8  and  O2_10 
REMARK    6  A    between atoms: N2_12  and  C7_14 
REMARK    7  A    between atoms: C16_31  and  O4_32 
ROOT
HETATM    1  C6  UNL     1       0.268  30.567  25.473  1.00  0.00     0.240 C 
HETATM    2  N1  UNL     1       0.384  31.189  24.380  1.00  0.00    -0.233 N 
ATOM      3  H1  UNL     1       0.088  30.698  23.537  1.00  0.00     0.198 HD
ENDROOT
BRANCH   1   4
HETATM    4  O1  UNL     1       0.631  31.121  26.675  1.00  0.00    -0.315 OA
BRANCH   4   5
HETATM    5  C5  UNL     1       1.738  30.721  27.428  1.00  0.00     0.141 C 
HETATM    6  C4  UNL     1       1.857  31.641  28.641  1.00  0.00     0.049 C 
HETATM    7  C16 UNL     1       2.359  32.955  28.148  1.00  0.00     0.157 C 
HETATM    8  C15 UNL     1       3.751  32.809  27.639  1.00  0.00     0.245 A 
HETATM    9  C14 UNL     1       3.982  31.694  26.819  1.00  0.00     0.222 A 
HETATM   10  N5  UNL     1       4.644  31.810  28.106  1.00  0.00    -0.060 N 
HETATM   11  C13 UNL     1       2.953  30.657  26.607  1.00  0.00     0.068 C 
ATOM     12  H52 UNL     1       4.724  31.233  28.943  1.00  0.00     0.278 HD
ATOM     13  H51 UNL     1       5.608  31.788  28.438  1.00  0.00     0.278 HD
BRANCH   6  14
HETATM   14  C2  UNL     1       0.468  31.795  29.232  1.00  0.00    -0.014 C 
HETATM   15  C1  UNL     1       0.006  30.507  29.882  1.00  0.00     0.010 C 
HETATM   16  C3  UNL     1       0.428  32.866  30.292  1.00  0.00     0.010 C 
ENDBRANCH   6  14
BRANCH   7  17
HETATM   17  O4  UNL     1       1.558  33.347  27.075  1.00  0.00    -0.393 OA
ATOM     18  H4  UNL     1       0.761  33.724  27.427  1.00  0.00     0.210 HD
ENDBRANCH   7  17
ENDBRANCH   4   5
ENDBRANCH   1   4
BRANCH   1  19
HETATM   19  N2  UNL     1      -0.273  29.213  25.443  1.00  0.00    -0.337 N 
ATOM     20  H2  UNL     1      -1.005  28.955  26.104  1.00  0.00     0.164 HD
BRANCH  19  21
HETATM   21  C7  UNL     1       0.200  28.234  24.505  1.00  0.00     0.215 C 
HETATM   22  C8  UNL     1       0.454  26.914  25.132  1.00  0.00     0.092 C 
HETATM   23  N3  UNL     1       0.263  25.837  24.512  1.00  0.00    -0.375 N 
HETATM   24  C9  UNL     1      -0.205  25.680  23.175  1.00  0.00     0.098 C 
ATOM     25  H3  UNL     1       0.467  24.978  25.025  1.00  0.00     0.161 HD
HETATM   26  C10 UNL     1       1.006  25.451  22.260  1.00  0.00     0.062 C 
HETATM   27  C11 UNL     1      -1.080  24.452  23.012  1.00  0.00     0.062 C 
HETATM   28  N4  UNL     1      -0.887  26.836  22.684  1.00  0.00    -0.333 N 
HETATM   29  C12 UNL     1      -0.789  28.051  23.406  1.00  0.00     0.247 C 
ATOM     30  H4  UNL     1      -1.437  26.787  21.825  1.00  0.00     0.165 HD
HETATM   31  O3  UNL     1      -1.564  28.992  23.104  1.00  0.00    -0.271 OA
ENDBRANCH  19  21
ENDBRANCH   1  19
BRANCH   2  32
HETATM   32  O2  UNL     1       0.858  32.429  24.224  1.00  0.00    -0.287 OA
ATOM     33  H2  UNL     1       1.662  32.670  23.778  1.00  0.00     0.244 HD
ENDBRANCH   2  32
TORSDOF 7
ENDMDL
MODEL 3
REMARK VINA RESULT: -6.463951764      2.360      5.945
REMARK  7 active torsions:
REMARK  status: ('A' for Active; 'I' for Inactive)
REMARK    1  A    between atoms: C2_2  and  C4_4 
REMARK    2  A    between atoms: C5_5  and  O1_6 
REMARK    3  A    between atoms: O1_6  and  C6_7 
REMARK    4  A    between atoms: C6_7  and  N2_12 
REMARK    5  A    between atoms: N1_8  and  O2_10 
REMARK    6  A    between atoms: N2_12  and  C7_14 
REMARK    7  A    between atoms: C16_31  and  O4_32 
ROOT
HETATM    1  C6  UNL     1       3.342  32.623  28.242  1.00  0.00     0.240 C 
HETATM    2  N1  UNL     1       4.014  33.512  27.649  1.00  0.00    -0.233 N 
ATOM      3  H1  UNL     1       4.304  33.310  26.692  1.00  0.00     0.198 HD
ENDROOT
BRANCH   1   4
HETATM    4  O1  UNL     1       2.894  32.778  29.530  1.00  0.00    -0.315 OA
BRANCH   4   5
HETATM    5  C5  UNL     1       3.306  31.993  30.610  1.00  0.00     0.141 C 
HETATM    6  C4  UNL     1       2.132  31.844  31.575  1.00  0.00     0.049 C 
HETATM    7  C16 UNL     1       1.968  33.152  32.272  1.00  0.00     0.157 C 
HETATM    8  C15 UNL     1       3.148  33.416  33.141  1.00  0.00     0.245 A 
HETATM    9  C14 UNL     1       4.399  33.161  32.558  1.00  0.00     0.222 A 
HETATM   10  N5  UNL     1       3.946  32.383  33.697  1.00  0.00    -0.060 N 
HETATM   11  C13 UNL     1       4.524  32.527  31.231  1.00  0.00     0.068 C 
ATOM     12  H52 UNL     1       3.821  31.392  33.904  1.00  0.00     0.278 HD
ATOM     13  H51 UNL     1       4.313  32.159  34.622  1.00  0.00     0.278 HD
BRANCH   6  14
HETATM   14  C2  UNL     1       0.900  31.529  30.747  1.00  0.00    -0.014 C 
HETATM   15  C1  UNL     1       0.943  30.108  30.226  1.00  0.00     0.010 C 
HETATM   16  C3  UNL     1      -0.365  31.668  31.555  1.00  0.00     0.010 C 
ENDBRANCH   6  14
BRANCH   7  17
HETATM   17  O4  UNL     1       1.927  34.154  31.303  1.00  0.00    -0.393 OA
ATOM     18  H4  UNL     1       2.391  34.910  31.643  1.00  0.00     0.210 HD
ENDBRANCH   7  17
ENDBRANCH   4   5
ENDBRANCH   1   4
BRANCH   1  19
HETATM   19  N2  UNL     1       3.037  31.392  27.521  1.00  0.00    -0.337 N 
ATOM     20  H2  UNL     1       3.660  30.591  27.619  1.00  0.00     0.164 HD
BRANCH  19  21
HETATM   21  C7  UNL     1       1.881  31.281  26.677  1.00  0.00     0.215 C 
HETATM   22  C8  UNL     1       0.839  32.288  26.996  1.00  0.00     0.092 C 
HETATM   23  N3  UNL     1       0.104  32.787  26.107  1.00  0.00    -0.375 N 
HETATM   24  C9  UNL     1       0.124  32.506  24.709  1.00  0.00     0.098 C 
ATOM     25  H3  UNL     1      -0.586  33.471  26.421  1.00  0.00     0.161 HD
HETATM   26  C10 UNL     1      -0.984  31.491  24.401  1.00  0.00     0.062 C 
HETATM   27  C11 UNL     1      -0.195  33.730  23.872  1.00  0.00     0.062 C 
HETATM   28  N4  UNL     1       1.356  31.924  24.276  1.00  0.00    -0.333 N 
HETATM   29  C12 UNL     1       2.268  31.441  25.247  1.00  0.00     0.247 C 
ATOM     30  H4  UNL     1       1.576  31.856  23.282  1.00  0.00     0.165 HD
HETATM   31  O3  UNL     1       3.432  31.144  24.881  1.00  0.00    -0.271 OA
ENDBRANCH  19  21
ENDBRANCH   1  19
BRANCH   2  32
HETATM   32  O2  UNL     1       4.383  34.692  28.156  1.00  0.00    -0.287 OA
ATOM     33  H2  UNL     1       5.029  34.833  28.839  1.00  0.00     0.244 HD
ENDBRANCH   2  32
TORSDOF 7
ENDMDL
MODEL 4
REMARK VINA RESULT: -6.432118480      4.212      6.718
REMARK  7 active torsions:
REMARK  status: ('A' for Active; 'I' for Inactive)
REMARK    1  A    between atoms: C2_2  and  C4_4 
REMARK    2  A    between atoms: C5_5  and  O1_6 
REMARK    3  A    between atoms: O1_6  and  C6_7 
REMARK    4  A    between atoms: C6_7  and  N2_12 
REMARK    5  A    between atoms: N1_8  and  O2_10 
REMARK    6  A    between atoms: N2_12  and  C7_14 
REMARK    7  A    between atoms: C16_31  and  O4_32 
ROOT
HETATM    1  C6  UNL     1       0.296  30.157  24.777  1.00  0.00     0.240 C 
HETATM    2  N1  UNL     1       1.495  29.817  24.579  1.00  0.00    -0.233 N 
ATOM      3  H1  UNL     1       1.650  28.952  24.060  1.00  0.00     0.198 HD
ENDROOT
BRANCH   1   4
HETATM    4  O1  UNL     1      -0.040  31.299  25.460  1.00  0.00    -0.315 OA
BRANCH   4   5
HETATM    5  C5  UNL     1       0.437  32.575  25.149  1.00  0.00     0.141 C 
HETATM    6  C4  UNL     1       0.540  33.381  26.442  1.00  0.00     0.049 C 
HETATM    7  C16 UNL     1      -0.849  33.733  26.853  1.00  0.00     0.157 C 
HETATM    8  C15 UNL     1      -1.451  34.670  25.863  1.00  0.00     0.245 A 
HETATM    9  C14 UNL     1      -1.253  34.334  24.514  1.00  0.00     0.222 A 
HETATM   10  N5  UNL     1      -0.677  35.549  25.062  1.00  0.00    -0.060 N 
HETATM   11  C13 UNL     1      -0.378  33.216  24.110  1.00  0.00     0.068 C 
ATOM     12  H52 UNL     1       0.256  35.958  25.115  1.00  0.00     0.278 HD
ATOM     13  H51 UNL     1      -0.705  36.542  24.829  1.00  0.00     0.278 HD
BRANCH   6  14
HETATM   14  C2  UNL     1       1.188  32.488  27.483  1.00  0.00    -0.014 C 
HETATM   15  C1  UNL     1       2.680  32.737  27.562  1.00  0.00     0.010 C 
HETATM   16  C3  UNL     1       0.624  32.736  28.860  1.00  0.00     0.010 C 
ENDBRANCH   6  14
BRANCH   7  17
HETATM   17  O4  UNL     1      -1.611  32.564  26.841  1.00  0.00    -0.393 OA
ATOM     18  H4  UNL     1      -1.986  32.467  25.973  1.00  0.00     0.210 HD
ENDBRANCH   7  17
ENDBRANCH   4   5
ENDBRANCH   1   4
BRANCH   1  19
HETATM   19  N2  UNL     1      -0.761  29.297  24.256  1.00  0.00    -0.337 N 
ATOM     20  H2  UNL     1      -1.713  29.658  24.198  1.00  0.00     0.164 HD
BRANCH  19  21
HETATM   21  C7  UNL     1      -0.494  27.954  23.824  1.00  0.00     0.215 C 
HETATM   22  C8  UNL     1      -0.690  26.954  24.903  1.00  0.00     0.092 C 
HETATM   23  N3  UNL     1      -1.116  25.796  24.665  1.00  0.00    -0.375 N 
HETATM   24  C9  UNL     1      -1.472  25.249  23.398  1.00  0.00     0.098 C 
ATOM     25  H3  UNL     1      -1.218  25.177  25.470  1.00  0.00     0.161 HD
HETATM   26  C10 UNL     1      -0.291  24.419  22.877  1.00  0.00     0.062 C 
HETATM   27  C11 UNL     1      -2.639  24.285  23.495  1.00  0.00     0.062 C 
HETATM   28  N4  UNL     1      -1.745  26.250  22.415  1.00  0.00    -0.333 N 
HETATM   29  C12 UNL     1      -1.379  27.593  22.681  1.00  0.00     0.247 C 
ATOM     30  H4  UNL     1      -2.196  26.002  21.534  1.00  0.00     0.165 HD
HETATM   31  O3  UNL     1      -1.820  28.496  21.928  1.00  0.00    -0.271 OA
ENDBRANCH  19  21
ENDBRANCH   1  19
BRANCH   2  32
HETATM   32  O2  UNL     1       2.582  30.482  24.984  1.00  0.00    -0.287 OA
ATOM     33  H2  UNL     1       3.361  30.100  25.371  1.00  0.00     0.244 HD
ENDBRANCH   2  32
TORSDOF 7
ENDMDL
MODEL 5
REMARK VINA RESULT: -6.429551127      3.344      5.267
REMARK  7 active torsions:
REMARK  status: ('A' for Active; 'I' for Inactive)
REMARK    1  A    between atoms: C2_2  and  C4_4 
REMARK    2  A    between atoms: C5_5  and  O1_6 
REMARK    3  A    between atoms: O1_6  and  C6_7 
REMARK    4  A    between atoms: C6_7  and  N2_12 
REMARK    5  A    between atoms: N1_8  and  O2_10 
REMARK    6  A    between atoms: N2_12  and  C7_14 
REMARK    7  A    between atoms: C16_31  and  O4_32 
ROOT
HETATM    1  C6  UNL     1       1.232  30.663  25.024  1.00  0.00     0.240 C 
HETATM    2  N1  UNL     1       2.478  30.458  25.036  1.00  0.00    -0.233 N 
ATOM      3  H1  UNL     1       2.804  29.577  24.640  1.00  0.00     0.198 HD
ENDROOT
BRANCH   1   4
HETATM    4  O1  UNL     1       0.672  31.810  25.528  1.00  0.00    -0.315 OA
BRANCH   4   5
HETATM    5  C5  UNL     1      -0.639  31.909  25.999  1.00  0.00     0.141 C 
HETATM    6  C4  UNL     1      -1.015  33.387  26.078  1.00  0.00     0.049 C 
HETATM    7  C16 UNL     1      -0.292  33.963  27.247  1.00  0.00     0.157 C 
HETATM    8  C15 UNL     1      -0.811  33.367  28.510  1.00  0.00     0.245 A 
HETATM    9  C14 UNL     1      -0.986  31.974  28.495  1.00  0.00     0.222 A 
HETATM   10  N5  UNL     1      -2.128  32.858  28.641  1.00  0.00    -0.060 N 
HETATM   11  C13 UNL     1      -0.814  31.181  27.262  1.00  0.00     0.068 C 
ATOM     12  H52 UNL     1      -3.016  32.992  28.157  1.00  0.00     0.278 HD
ATOM     13  H51 UNL     1      -2.891  32.964  29.309  1.00  0.00     0.278 HD
BRANCH   6  14
HETATM   14  C2  UNL     1      -0.548  34.043  24.793  1.00  0.00    -0.014 C 
HETATM   15  C1  UNL     1      -1.091  33.316  23.580  1.00  0.00     0.010 C 
HETATM   16  C3  UNL     1      -1.013  35.475  24.696  1.00  0.00     0.010 C 
ENDBRANCH   6  14
BRANCH   7  17
HETATM   17  O4  UNL     1       1.053  33.609  27.138  1.00  0.00    -0.393 OA
ATOM     18  H4  UNL     1       1.517  34.339  26.743  1.00  0.00     0.210 HD
ENDBRANCH   7  17
ENDBRANCH   4   5
ENDBRANCH   1   4
BRANCH   1  19
HETATM   19  N2  UNL     1       0.369  29.635  24.453  1.00  0.00    -0.337 N 
ATOM     20  H2  UNL     1      -0.403  29.915  23.848  1.00  0.00     0.164 HD
BRANCH  19  21
HETATM   21  C7  UNL     1       0.580  28.241  24.721  1.00  0.00     0.215 C 
HETATM   22  C8  UNL     1      -0.065  27.795  25.981  1.00  0.00     0.092 C 
HETATM   23  N3  UNL     1      -0.544  26.640  26.109  1.00  0.00    -0.375 N 
HETATM   24  C9  UNL     1      -0.562  25.599  25.135  1.00  0.00     0.098 C 
ATOM     25  H3  UNL     1      -0.966  26.423  27.012  1.00  0.00     0.161 HD
HETATM   26  C10 UNL     1       0.604  24.643  25.422  1.00  0.00     0.062 C 
HETATM   27  C11 UNL     1      -1.818  24.752  25.223  1.00  0.00     0.062 C 
HETATM   28  N4  UNL     1      -0.389  26.080  23.800  1.00  0.00    -0.333 N 
HETATM   29  C12 UNL     1       0.048  27.413  23.602  1.00  0.00     0.247 C 
ATOM     30  H4  UNL     1      -0.577  25.473  23.002  1.00  0.00     0.165 HD
HETATM   31  O3  UNL     1      -0.020  27.901  22.446  1.00  0.00    -0.271 OA
ENDBRANCH  19  21
ENDBRANCH   1  19
BRANCH   2  32
HETATM   32  O2  UNL     1       3.410  31.286  25.519  1.00  0.00    -0.287 OA
ATOM     33  H2  UNL     1       3.637  31.403  26.434  1.00  0.00     0.244 HD
ENDBRANCH   2  32
TORSDOF 7
ENDMDL
