MODEL 1
REMARK VINA RESULT: -6.651843333      0.000      0.000
REMARK  7 active torsions:
REMARK  status: ('A' for Active; 'I' for Inactive)
REMARK    1  A    between atoms: O1_2  and  C2_3 
REMARK    2  A    between atoms: C5_6  and  C6_7 
REMARK    3  A    between atoms: C6_7  and  O2_8 
REMARK    4  A    between atoms: C8_11  and  C9_12 
REMARK    5  A    between atoms: C11_15  and  O4_16 
REMARK    6  A    between atoms: C15_21  and  O5_22 
REMARK    7  A    between atoms: C16_24  and  O6_25 
ROOT
HETATM    1  C2  UNL     1       1.012  28.546  25.673  1.00  0.00     0.128 C 
HETATM    2  C3  UNL     1      -0.351  29.093  26.091  1.00  0.00     0.043 C 
HETATM    3  C4  UNL     1      -0.052  29.948  27.274  1.00  0.00    -0.022 C 
HETATM    4  C5  UNL     1      -0.746  29.476  28.524  1.00  0.00     0.019 C 
HETATM    5  C7  UNL     1      -1.149  30.617  29.430  1.00  0.00     0.022 C 
HETATM    6  C8  UNL     1      -0.117  31.706  29.506  1.00  0.00     0.090 C 
HETATM    7  C11 UNL     1       0.509  32.029  28.163  1.00  0.00     0.073 C 
HETATM    8  C12 UNL     1       1.823  31.278  28.024  1.00  0.00     0.045 C 
HETATM    9  C13 UNL     1       1.440  30.025  27.376  1.00  0.00     0.007 C 
HETATM   10  C14 UNL     1       1.889  29.776  25.990  1.00  0.00     0.051 C 
HETATM   11  C15 UNL     1       1.777  30.768  24.953  1.00  0.00     0.153 C 
HETATM   12  C16 UNL     1       1.052  32.029  25.154  1.00  0.00     0.147 C 
HETATM   13  C17 UNL     1      -0.272  31.995  25.786  1.00  0.00     0.042 C 
HETATM   14  C18 UNL     1      -0.409  31.391  27.117  1.00  0.00     0.033 C 
ENDROOT
BRANCH   4  15
HETATM   15  C6  UNL     1       0.002  28.469  29.327  1.00  0.00     0.169 C 
BRANCH  15  16
HETATM   16  O2  UNL     1      -0.827  27.326  29.441  1.00  0.00    -0.400 OA
ATOM     17  H2  UNL     1      -1.035  27.041  28.559  1.00  0.00     0.209 HD
ENDBRANCH  15  16
ENDBRANCH   4  15
BRANCH   6  18
HETATM   18  C9  UNL     1      -0.682  32.882  30.181  1.00  0.00     0.130 C 
HETATM   19  C10 UNL     1      -2.143  33.139  30.315  1.00  0.00     0.091 C 
HETATM   20  O3  UNL     1       0.049  33.748  30.689  1.00  0.00    -0.298 OA
ENDBRANCH   6  18
BRANCH   1  21
HETATM   21  O1  UNL     1       1.069  28.211  24.354  1.00  0.00    -0.390 OA
HETATM   22  C1  UNL     1      -0.177  27.726  23.961  1.00  0.00     0.202 C 
ENDBRANCH   1  21
BRANCH   7  23
HETATM   23  O4  UNL     1       0.651  33.387  27.957  1.00  0.00    -0.389 OA
ATOM     24  H4  UNL     1       0.996  33.591  27.096  1.00  0.00     0.210 HD
ENDBRANCH   7  23
BRANCH  11  25
HETATM   25  O5  UNL     1       3.083  31.137  24.523  1.00  0.00    -0.393 OA
ATOM     26  H5  UNL     1       3.494  31.662  25.199  1.00  0.00     0.210 HD
ENDBRANCH  11  25
BRANCH  12  27
HETATM   27  O6  UNL     1       0.833  32.570  23.853  1.00  0.00    -0.393 OA
ATOM     28  H6  UNL     1       1.693  32.689  23.469  1.00  0.00     0.210 HD
ENDBRANCH  12  27
TORSDOF 7
ENDMDL
MODEL 2
REMARK VINA RESULT: -6.567217778      1.713      4.277
REMARK  7 active torsions:
REMARK  status: ('A' for Active; 'I' for Inactive)
REMARK    1  A    between atoms: O1_2  and  C2_3 
REMARK    2  A    between atoms: C5_6  and  C6_7 
REMARK    3  A    between atoms: C6_7  and  O2_8 
REMARK    4  A    between atoms: C8_11  and  C9_12 
REMARK    5  A    between atoms: C11_15  and  O4_16 
REMARK    6  A    between atoms: C15_21  and  O5_22 
REMARK    7  A    between atoms: C16_24  and  O6_25 
ROOT
HETATM    1  C2  UNL     1       1.191  30.011  28.862  1.00  0.00     0.128 C 
HETATM    2  C3  UNL     1      -0.110  30.104  28.067  1.00  0.00     0.043 C 
HETATM    3  C4  UNL     1       0.068  31.317  27.219  1.00  0.00    -0.022 C 
HETATM    4  C5  UNL     1      -0.960  32.380  27.501  1.00  0.00     0.019 C 
HETATM    5  C7  UNL     1      -1.342  33.160  26.264  1.00  0.00     0.022 C 
HETATM    6  C8  UNL     1      -0.173  33.459  25.368  1.00  0.00     0.090 C 
HETATM    7  C11 UNL     1       0.783  32.290  25.225  1.00  0.00     0.073 C 
HETATM    8  C12 UNL     1       1.938  32.461  26.198  1.00  0.00     0.045 C 
HETATM    9  C13 UNL     1       1.489  31.754  27.397  1.00  0.00     0.007 C 
HETATM   10  C14 UNL     1       2.182  30.508  27.789  1.00  0.00     0.051 C 
HETATM   11  C15 UNL     1       2.483  29.464  26.844  1.00  0.00     0.153 C 
HETATM   12  C16 UNL     1       1.971  29.484  25.468  1.00  0.00     0.147 C 
HETATM   13  C17 UNL     1       0.556  29.798  25.241  1.00  0.00     0.042 C 
HETATM   14  C18 UNL     1       0.020  31.069  25.746  1.00  0.00     0.033 C 
ENDROOT
BRANCH   4  15
HETATM   15  C6  UNL     1      -0.603  33.341  28.581  1.00  0.00     0.169 C 
BRANCH  15  16
HETATM   16  O2  UNL     1      -0.838  34.644  28.076  1.00  0.00    -0.400 OA
ATOM     17  H2  UNL     1      -0.638  35.255  28.775  1.00  0.00     0.209 HD
ENDBRANCH  15  16
ENDBRANCH   4  15
BRANCH   6  18
HETATM   18  C9  UNL     1      -0.653  33.977  24.080  1.00  0.00     0.130 C 
HETATM   19  C10 UNL     1      -0.655  35.422  23.716  1.00  0.00     0.091 C 
HETATM   20  O3  UNL     1      -1.094  33.218  23.202  1.00  0.00    -0.298 OA
ENDBRANCH   6  18
BRANCH   1  21
HETATM   21  O1  UNL     1       1.478  28.743  29.267  1.00  0.00    -0.390 OA
HETATM   22  C1  UNL     1       0.281  28.066  29.497  1.00  0.00     0.202 C 
ENDBRANCH   1  21
BRANCH   7  23
HETATM   23  O4  UNL     1       1.209  32.110  23.924  1.00  0.00    -0.389 OA
ATOM     24  H4  UNL     1       0.859  31.318  23.532  1.00  0.00     0.210 HD
ENDBRANCH   7  23
BRANCH  11  25
HETATM   25  O5  UNL     1       3.897  29.338  26.729  1.00  0.00    -0.393 OA
ATOM     26  H5  UNL     1       4.159  28.486  27.057  1.00  0.00     0.210 HD
ENDBRANCH  11  25
BRANCH  12  27
HETATM   27  O6  UNL     1       2.147  28.162  24.963  1.00  0.00    -0.393 OA
ATOM     28  H6  UNL     1       2.327  28.257  24.035  1.00  0.00     0.210 HD
ENDBRANCH  12  27
TORSDOF 7
ENDMDL
MODEL 3
REMARK VINA RESULT: -6.560767179      2.490      5.589
REMARK  7 active torsions:
REMARK  status: ('A' for Active; 'I' for Inactive)
REMARK    1  A    between atoms: O1_2  and  C2_3 
REMARK    2  A    between atoms: C5_6  and  C6_7 
REMARK    3  A    between atoms: C6_7  and  O2_8 
REMARK    4  A    between atoms: C8_11  and  C9_12 
REMARK    5  A    between atoms: C11_15  and  O4_16 
REMARK    6  A    between atoms: C15_21  and  O5_22 
REMARK    7  A    between atoms: C16_24  and  O6_25 
ROOT
HETATM    1  C2  UNL     1       3.397  32.976  28.509  1.00  0.00     0.128 C 
HETATM    2  C3  UNL     1       2.136  32.147  28.748  1.00  0.00     0.043 C 
HETATM    3  C4  UNL     1       1.851  31.528  27.423  1.00  0.00    -0.022 C 
HETATM    4  C5  UNL     1       0.514  31.939  26.866  1.00  0.00     0.019 C 
HETATM    5  C7  UNL     1      -0.145  30.836  26.068  1.00  0.00     0.022 C 
HETATM    6  C8  UNL     1       0.821  30.061  25.218  1.00  0.00     0.090 C 
HETATM    7  C11 UNL     1       2.132  29.767  25.923  1.00  0.00     0.073 C 
HETATM    8  C12 UNL     1       3.164  30.808  25.525  1.00  0.00     0.045 C 
HETATM    9  C13 UNL     1       3.022  31.846  26.546  1.00  0.00     0.007 C 
HETATM   10  C14 UNL     1       4.124  32.052  27.509  1.00  0.00     0.051 C 
HETATM   11  C15 UNL     1       4.765  30.959  28.192  1.00  0.00     0.153 C 
HETATM   12  C16 UNL     1       4.256  29.583  28.114  1.00  0.00     0.147 C 
HETATM   13  C17 UNL     1       2.819  29.346  28.292  1.00  0.00     0.042 C 
HETATM   14  C18 UNL     1       1.870  30.034  27.407  1.00  0.00     0.033 C 
ENDROOT
BRANCH   4  15
HETATM   15  C6  UNL     1       0.520  33.183  26.047  1.00  0.00     0.169 C 
BRANCH  15  16
HETATM   16  O2  UNL     1       0.153  34.249  26.905  1.00  0.00    -0.400 OA
ATOM     17  H2  UNL     1       0.473  35.051  26.508  1.00  0.00     0.209 HD
ENDBRANCH  15  16
ENDBRANCH   4  15
BRANCH   6  18
HETATM   18  C9  UNL     1       0.165  28.859  24.687  1.00  0.00     0.130 C 
HETATM   19  C10 UNL     1      -0.619  27.905  25.520  1.00  0.00     0.091 C 
HETATM   20  O3  UNL     1       0.232  28.566  23.483  1.00  0.00    -0.298 OA
ENDBRANCH   6  18
BRANCH   1  21
HETATM   21  O1  UNL     1       4.129  33.171  29.641  1.00  0.00    -0.390 OA
HETATM   22  C1  UNL     1       3.261  33.229  30.730  1.00  0.00     0.202 C 
ENDBRANCH   1  21
BRANCH   7  23
HETATM   23  O4  UNL     1       2.572  28.476  25.706  1.00  0.00    -0.389 OA
ATOM     24  H4  UNL     1       3.519  28.402  25.742  1.00  0.00     0.210 HD
ENDBRANCH   7  23
BRANCH  11  25
HETATM   25  O5  UNL     1       6.126  30.891  27.782  1.00  0.00    -0.393 OA
ATOM     26  H5  UNL     1       6.447  30.008  27.920  1.00  0.00     0.210 HD
ENDBRANCH  11  25
BRANCH  12  27
HETATM   27  O6  UNL     1       4.888  28.868  29.175  1.00  0.00    -0.393 OA
ATOM     28  H6  UNL     1       4.539  29.230  29.980  1.00  0.00     0.210 HD
ENDBRANCH  12  27
TORSDOF 7
ENDMDL
MODEL 4
REMARK VINA RESULT: -6.539683838      2.022      3.618
REMARK  7 active torsions:
REMARK  status: ('A' for Active; 'I' for Inactive)
REMARK    1  A    between atoms: O1_2  and  C2_3 
REMARK    2  A    between atoms: C5_6  and  C6_7 
REMARK    3  A    between atoms: C6_7  and  O2_8 
REMARK    4  A    between atoms: C8_11  and  C9_12 
REMARK    5  A    between atoms: C11_15  and  O4_16 
REMARK    6  A    between atoms: C15_21  and  O5_22 
REMARK    7  A    between atoms: C16_24  and  O6_25 
ROOT
HETATM    1  C2  UNL     1      -0.770  32.555  25.260  1.00  0.00     0.128 C 
HETATM    2  C3  UNL     1       0.036  33.461  26.188  1.00  0.00     0.043 C 
HETATM    3  C4  UNL     1       0.279  32.621  27.395  1.00  0.00    -0.022 C 
HETATM    4  C5  UNL     1      -0.320  33.212  28.644  1.00  0.00     0.019 C 
HETATM    5  C7  UNL     1       0.509  32.926  29.875  1.00  0.00     0.022 C 
HETATM    6  C8  UNL     1       1.079  31.536  29.896  1.00  0.00     0.090 C 
HETATM    7  C11 UNL     1       1.603  31.086  28.545  1.00  0.00     0.073 C 
HETATM    8  C12 UNL     1       0.539  30.259  27.842  1.00  0.00     0.045 C 
HETATM    9  C13 UNL     1      -0.204  31.245  27.058  1.00  0.00     0.007 C 
HETATM   10  C14 UNL     1      -0.106  31.200  25.584  1.00  0.00     0.051 C 
HETATM   11  C15 UNL     1       1.154  31.069  24.899  1.00  0.00     0.153 C 
HETATM   12  C16 UNL     1       2.439  31.146  25.605  1.00  0.00     0.147 C 
HETATM   13  C17 UNL     1       2.651  32.223  26.579  1.00  0.00     0.042 C 
HETATM   14  C18 UNL     1       1.717  32.360  27.703  1.00  0.00     0.033 C 
ENDROOT
BRANCH   4  15
HETATM   15  C6  UNL     1      -1.732  32.826  28.918  1.00  0.00     0.169 C 
BRANCH  15  16
HETATM   16  O2  UNL     1      -2.034  33.254  30.235  1.00  0.00    -0.400 OA
ATOM     17  H2  UNL     1      -2.913  32.953  30.432  1.00  0.00     0.209 HD
ENDBRANCH  15  16
ENDBRANCH   4  15
BRANCH   6  18
HETATM   18  C9  UNL     1       2.073  31.421  30.971  1.00  0.00     0.130 C 
HETATM   19  C10 UNL     1       2.887  32.563  31.474  1.00  0.00     0.091 C 
HETATM   20  O3  UNL     1       2.294  30.336  31.533  1.00  0.00    -0.298 OA
ENDBRANCH   6  18
BRANCH   1  21
HETATM   21  O1  UNL     1      -0.635  32.883  23.945  1.00  0.00    -0.390 OA
HETATM   22  C1  UNL     1      -0.695  34.270  23.822  1.00  0.00     0.202 C 
ENDBRANCH   1  21
BRANCH   7  23
HETATM   23  O4  UNL     1       2.811  30.425  28.639  1.00  0.00    -0.389 OA
ATOM     24  H4  UNL     1       2.709  29.511  28.877  1.00  0.00     0.210 HD
ENDBRANCH   7  23
BRANCH  11  25
HETATM   25  O5  UNL     1       1.171  29.831  24.197  1.00  0.00    -0.393 OA
ATOM     26  H5  UNL     1       0.656  29.918  23.404  1.00  0.00     0.210 HD
ENDBRANCH  11  25
BRANCH  12  27
HETATM   27  O6  UNL     1       3.430  31.348  24.600  1.00  0.00    -0.393 OA
ATOM     28  H6  UNL     1       4.184  31.718  25.044  1.00  0.00     0.210 HD
ENDBRANCH  12  27
TORSDOF 7
ENDMDL
MODEL 5
REMARK VINA RESULT: -6.363258820      2.034      4.475
REMARK  7 active torsions:
REMARK  status: ('A' for Active; 'I' for Inactive)
REMARK    1  A    between atoms: O1_2  and  C2_3 
REMARK    2  A    between atoms: C5_6  and  C6_7 
REMARK    3  A    between atoms: C6_7  and  O2_8 
REMARK    4  A    between atoms: C8_11  and  C9_12 
REMARK    5  A    between atoms: C11_15  and  O4_16 
REMARK    6  A    between atoms: C15_21  and  O5_22 
REMARK    7  A    between atoms: C16_24  and  O6_25 
ROOT
HETATM    1  C2  UNL     1       2.183  30.271  29.414  1.00  0.00     0.128 C 
HETATM    2  C3  UNL     1       0.857  30.043  28.691  1.00  0.00     0.043 C 
HETATM    3  C4  UNL     1       0.769  31.175  27.727  1.00  0.00    -0.022 C 
HETATM    4  C5  UNL     1      -0.429  32.055  27.970  1.00  0.00     0.019 C 
HETATM    5  C7  UNL     1      -0.999  32.623  26.690  1.00  0.00     0.022 C 
HETATM    6  C8  UNL     1       0.055  33.039  25.704  1.00  0.00     0.090 C 
HETATM    7  C11 UNL     1       1.208  32.057  25.614  1.00  0.00     0.073 C 
HETATM    8  C12 UNL     1       2.348  32.535  26.498  1.00  0.00     0.045 C 
HETATM    9  C13 UNL     1       2.089  31.882  27.781  1.00  0.00     0.007 C 
HETATM   10  C14 UNL     1       3.019  30.831  28.244  1.00  0.00     0.051 C 
HETATM   11  C15 UNL     1       3.474  29.770  27.384  1.00  0.00     0.153 C 
HETATM   12  C16 UNL     1       2.912  29.556  26.044  1.00  0.00     0.147 C 
HETATM   13  C17 UNL     1       1.455  29.581  25.872  1.00  0.00     0.042 C 
HETATM   14  C18 UNL     1       0.710  30.776  26.288  1.00  0.00     0.033 C 
ENDROOT
BRANCH   4  15
HETATM   15  C6  UNL     1      -0.216  33.169  28.934  1.00  0.00     0.169 C 
BRANCH  15  16
HETATM   16  O2  UNL     1      -0.878  34.307  28.411  1.00  0.00    -0.400 OA
ATOM     17  H2  UNL     1      -1.543  33.993  27.811  1.00  0.00     0.209 HD
ENDBRANCH  15  16
ENDBRANCH   4  15
BRANCH   6  18
HETATM   18  C9  UNL     1      -0.565  33.328  24.404  1.00  0.00     0.130 C 
HETATM   19  C10 UNL     1      -0.666  34.694  23.818  1.00  0.00     0.091 C 
HETATM   20  O3  UNL     1      -1.051  32.424  23.706  1.00  0.00    -0.298 OA
ENDBRANCH   6  18
BRANCH   1  21
HETATM   21  O1  UNL     1       2.719  29.125  29.917  1.00  0.00    -0.390 OA
HETATM   22  C1  UNL     1       3.377  29.423  31.109  1.00  0.00     0.202 C 
ENDBRANCH   1  21
BRANCH   7  23
HETATM   23  O4  UNL     1       1.608  31.828  24.312  1.00  0.00    -0.389 OA
ATOM     24  H4  UNL     1       0.988  31.294  23.829  1.00  0.00     0.210 HD
ENDBRANCH   7  23
BRANCH  11  25
HETATM   25  O5  UNL     1       4.879  29.895  27.199  1.00  0.00    -0.393 OA
ATOM     26  H5  UNL     1       5.128  30.803  27.326  1.00  0.00     0.210 HD
ENDBRANCH  11  25
BRANCH  12  27
HETATM   27  O6  UNL     1       3.314  28.244  25.653  1.00  0.00    -0.393 OA
ATOM     28  H6  UNL     1       4.002  28.362  25.009  1.00  0.00     0.210 HD
ENDBRANCH  12  27
TORSDOF 7
ENDMDL
