MODEL 1
REMARK VINA RESULT: -4.957596107      0.000      0.000
REMARK  0 active torsions:
REMARK  status: ('A' for Active; 'I' for Inactive)
ROOT
HETATM    1  C1  UNL     1      -8.653  -4.825  33.822  1.00  0.00     0.039 C 
HETATM    2  C2  UNL     1      -9.851  -5.286  32.981  1.00  0.00     0.118 C 
HETATM    3  C3  UNL     1     -11.073  -4.723  33.592  1.00  0.00     0.032 C 
HETATM    4  C4  UNL     1     -12.240  -4.957  32.702  1.00  0.00     0.013 C 
HETATM    5  C5  UNL     1     -11.981  -4.871  31.253  1.00  0.00     0.060 C 
HETATM    6  C6  UNL     1     -12.259  -3.525  30.644  1.00  0.00     0.265 C 
HETATM    7  C7  UNL     1     -10.826  -3.195  30.765  1.00  0.00     0.081 C 
HETATM    8  C8  UNL     1     -10.557  -4.687  30.840  1.00  0.00     0.070 C 
HETATM    9  C9  UNL     1     -10.367  -5.291  29.479  1.00  0.00     0.041 C 
HETATM   10  C10 UNL     1     -10.806  -4.431  28.344  1.00  0.00     0.047 C 
HETATM   11  C11 UNL     1     -12.260  -4.115  28.288  1.00  0.00     0.274 C 
HETATM   12  C12 UNL     1     -12.493  -3.407  26.941  1.00  0.00     0.048 C 
HETATM   13  C13 UNL     1     -11.899  -4.285  25.826  1.00  0.00     0.030 C 
HETATM   14  C14 UNL     1     -11.829  -2.084  26.849  1.00  0.00     0.030 C 
HETATM   15  S1  UNL     1     -14.260  -3.282  26.548  1.00  0.00    -0.086 SA
HETATM   16  S2  UNL     1     -15.346  -2.151  27.938  1.00  0.00    -0.095 SA
HETATM   17  C15 UNL     1     -15.253  -2.909  29.584  1.00  0.00     0.122 C 
HETATM   18  C16 UNL     1     -14.227  -3.988  29.540  1.00  0.00     0.324 C 
HETATM   19  N1  UNL     1     -12.855  -3.468  29.368  1.00  0.00     0.025 N 
HETATM   20  O1  UNL     1     -13.036  -2.128  29.100  1.00  0.00    -0.064 OA
HETATM   21  O2  UNL     1      -9.596  -5.016  31.699  1.00  0.00    -0.375 OA
ENDROOT
TORSDOF 0
ENDMDL
MODEL 2
REMARK VINA RESULT: -4.945903266      7.438      9.649
REMARK  0 active torsions:
REMARK  status: ('A' for Active; 'I' for Inactive)
ROOT
HETATM    1  C1  UNL     1     -10.676  -7.054  19.434  1.00  0.00     0.039 C 
HETATM    2  C2  UNL     1     -11.468  -7.701  20.578  1.00  0.00     0.118 C 
HETATM    3  C3  UNL     1     -11.211  -6.916  21.803  1.00  0.00     0.032 C 
HETATM    4  C4  UNL     1     -12.115  -7.365  22.894  1.00  0.00     0.013 C 
HETATM    5  C5  UNL     1     -13.477  -7.756  22.489  1.00  0.00     0.060 C 
HETATM    6  C6  UNL     1     -14.503  -6.661  22.596  1.00  0.00     0.265 C 
HETATM    7  C7  UNL     1     -14.322  -6.378  21.160  1.00  0.00     0.081 C 
HETATM    8  C8  UNL     1     -13.756  -7.780  21.022  1.00  0.00     0.070 C 
HETATM    9  C9  UNL     1     -14.830  -8.793  20.751  1.00  0.00     0.041 C 
HETATM   10  C10 UNL     1     -16.220  -8.317  21.005  1.00  0.00     0.047 C 
HETATM   11  C11 UNL     1     -16.542  -7.968  22.417  1.00  0.00     0.274 C 
HETATM   12  C12 UNL     1     -18.059  -7.714  22.459  1.00  0.00     0.048 C 
HETATM   13  C13 UNL     1     -18.769  -8.927  21.834  1.00  0.00     0.030 C 
HETATM   14  C14 UNL     1     -18.479  -6.521  21.684  1.00  0.00     0.030 C 
HETATM   15  S1  UNL     1     -18.677  -7.636  24.164  1.00  0.00    -0.086 SA
HETATM   16  S2  UNL     1     -17.845  -6.072  25.282  1.00  0.00    -0.095 SA
HETATM   17  C15 UNL     1     -16.046  -6.273  25.413  1.00  0.00     0.122 C 
HETATM   18  C16 UNL     1     -15.632  -7.356  24.479  1.00  0.00     0.324 C 
HETATM   19  N1  UNL     1     -15.794  -6.984  23.059  1.00  0.00     0.025 N 
HETATM   20  O1  UNL     1     -16.484  -5.791  23.102  1.00  0.00    -0.064 OA
HETATM   21  O2  UNL     1     -12.731  -7.864  20.178  1.00  0.00    -0.375 OA
ENDROOT
TORSDOF 0
ENDMDL
MODEL 3
REMARK VINA RESULT: -4.870832549      4.767      6.380
REMARK  0 active torsions:
REMARK  status: ('A' for Active; 'I' for Inactive)
ROOT
HETATM    1  C1  UNL     1     -11.139  -3.801  28.002  1.00  0.00     0.039 C 
HETATM    2  C2  UNL     1     -11.870  -5.096  27.624  1.00  0.00     0.118 C 
HETATM    3  C3  UNL     1     -13.181  -5.088  28.305  1.00  0.00     0.032 C 
HETATM    4  C4  UNL     1     -14.019  -6.212  27.810  1.00  0.00     0.013 C 
HETATM    5  C5  UNL     1     -13.885  -6.541  26.379  1.00  0.00     0.060 C 
HETATM    6  C6  UNL     1     -14.899  -5.882  25.485  1.00  0.00     0.265 C 
HETATM    7  C7  UNL     1     -13.915  -4.827  25.178  1.00  0.00     0.081 C 
HETATM    8  C8  UNL     1     -12.835  -5.798  25.620  1.00  0.00     0.070 C 
HETATM    9  C9  UNL     1     -12.359  -6.659  24.486  1.00  0.00     0.041 C 
HETATM   10  C10 UNL     1     -13.235  -6.649  23.280  1.00  0.00     0.047 C 
HETATM   11  C11 UNL     1     -14.607  -7.198  23.466  1.00  0.00     0.274 C 
HETATM   12  C12 UNL     1     -15.231  -7.274  22.061  1.00  0.00     0.048 C 
HETATM   13  C13 UNL     1     -14.263  -8.041  21.143  1.00  0.00     0.030 C 
HETATM   14  C14 UNL     1     -15.452  -5.945  21.442  1.00  0.00     0.030 C 
HETATM   15  S1  UNL     1     -16.756  -8.258  22.059  1.00  0.00    -0.086 SA
HETATM   16  S2  UNL     1     -18.267  -7.458  23.269  1.00  0.00    -0.095 SA
HETATM   17  C15 UNL     1     -17.722  -7.385  24.999  1.00  0.00     0.122 C 
HETATM   18  C16 UNL     1     -16.264  -7.683  25.038  1.00  0.00     0.324 C 
HETATM   19  N1  UNL     1     -15.445  -6.622  24.418  1.00  0.00     0.025 N 
HETATM   20  O1  UNL     1     -16.368  -5.791  23.820  1.00  0.00    -0.064 OA
HETATM   21  O2  UNL     1     -11.843  -5.225  26.295  1.00  0.00    -0.375 OA
ENDROOT
TORSDOF 0
ENDMDL
MODEL 4
REMARK VINA RESULT: -4.765462621      7.504      9.616
REMARK  0 active torsions:
REMARK  status: ('A' for Active; 'I' for Inactive)
ROOT
HETATM    1  C1  UNL     1     -11.116  -7.329  20.650  1.00  0.00     0.039 C 
HETATM    2  C2  UNL     1     -12.349  -6.461  20.936  1.00  0.00     0.118 C 
HETATM    3  C3  UNL     1     -13.308  -6.664  19.830  1.00  0.00     0.032 C 
HETATM    4  C4  UNL     1     -14.605  -6.016  20.158  1.00  0.00     0.013 C 
HETATM    5  C5  UNL     1     -15.021  -6.071  21.571  1.00  0.00     0.060 C 
HETATM    6  C6  UNL     1     -15.932  -7.217  21.913  1.00  0.00     0.265 C 
HETATM    7  C7  UNL     1     -14.762  -7.981  22.387  1.00  0.00     0.081 C 
HETATM    8  C8  UNL     1     -14.038  -6.654  22.532  1.00  0.00     0.070 C 
HETATM    9  C9  UNL     1     -14.262  -6.040  23.884  1.00  0.00     0.041 C 
HETATM   10  C10 UNL     1     -15.381  -6.638  24.667  1.00  0.00     0.047 C 
HETATM   11  C11 UNL     1     -16.742  -6.484  24.082  1.00  0.00     0.274 C 
HETATM   12  C12 UNL     1     -17.727  -6.985  25.154  1.00  0.00     0.048 C 
HETATM   13  C13 UNL     1     -17.419  -6.254  26.472  1.00  0.00     0.030 C 
HETATM   14  C14 UNL     1     -17.610  -8.438  25.428  1.00  0.00     0.030 C 
HETATM   15  S1  UNL     1     -19.438  -6.530  24.755  1.00  0.00    -0.086 SA
HETATM   16  S2  UNL     1     -20.128  -7.370  22.964  1.00  0.00    -0.095 SA
HETATM   17  C15 UNL     1     -19.121  -6.800  21.566  1.00  0.00     0.122 C 
HETATM   18  C16 UNL     1     -17.931  -6.090  22.112  1.00  0.00     0.324 C 
HETATM   19  N1  UNL     1     -16.995  -6.994  22.811  1.00  0.00     0.025 N 
HETATM   20  O1  UNL     1     -17.677  -8.189  22.887  1.00  0.00    -0.064 OA
HETATM   21  O2  UNL     1     -12.755  -6.702  22.185  1.00  0.00    -0.375 OA
ENDROOT
TORSDOF 0
ENDMDL
MODEL 5
REMARK VINA RESULT: -4.761127463      3.577      6.438
REMARK  0 active torsions:
REMARK  status: ('A' for Active; 'I' for Inactive)
ROOT
HETATM    1  C1  UNL     1     -14.473  -6.650  22.096  1.00  0.00     0.039 C 
HETATM    2  C2  UNL     1     -14.936  -6.137  23.467  1.00  0.00     0.118 C 
HETATM    3  C3  UNL     1     -15.460  -7.291  24.226  1.00  0.00     0.032 C 
HETATM    4  C4  UNL     1     -15.725  -6.895  25.634  1.00  0.00     0.013 C 
HETATM    5  C5  UNL     1     -14.777  -5.936  26.229  1.00  0.00     0.060 C 
HETATM    6  C6  UNL     1     -13.654  -6.564  27.008  1.00  0.00     0.265 C 
HETATM    7  C7  UNL     1     -12.789  -6.447  25.819  1.00  0.00     0.081 C 
HETATM    8  C8  UNL     1     -13.737  -5.373  25.316  1.00  0.00     0.070 C 
HETATM    9  C9  UNL     1     -13.350  -4.009  25.809  1.00  0.00     0.041 C 
HETATM   10  C10 UNL     1     -12.367  -4.003  26.929  1.00  0.00     0.047 C 
HETATM   11  C11 UNL     1     -12.827  -4.619  28.204  1.00  0.00     0.274 C 
HETATM   12  C12 UNL     1     -11.739  -4.307  29.247  1.00  0.00     0.048 C 
HETATM   13  C13 UNL     1     -11.474  -2.791  29.230  1.00  0.00     0.030 C 
HETATM   14  C14 UNL     1     -10.444  -4.974  28.966  1.00  0.00     0.030 C 
HETATM   15  S1  UNL     1     -12.307  -4.663  30.933  1.00  0.00    -0.086 SA
HETATM   16  S2  UNL     1     -12.779  -6.681  31.245  1.00  0.00    -0.095 SA
HETATM   17  C15 UNL     1     -14.128  -7.194  30.146  1.00  0.00     0.122 C 
HETATM   18  C16 UNL     1     -14.356  -6.107  29.153  1.00  0.00     0.324 C 
HETATM   19  N1  UNL     1     -13.234  -5.951  28.205  1.00  0.00     0.025 N 
HETATM   20  O1  UNL     1     -12.247  -6.766  28.716  1.00  0.00    -0.064 OA
HETATM   21  O2  UNL     1     -13.949  -5.416  24.003  1.00  0.00    -0.375 OA
ENDROOT
TORSDOF 0
ENDMDL
