MODEL 1
REMARK VINA RESULT: -6.407353595      0.000      0.000
REMARK  7 active torsions:
REMARK  status: ('A' for Active; 'I' for Inactive)
REMARK    1  A    between atoms: C3_3  and  C4_4 
REMARK    2  A    between atoms: C4_4  and  O1_5 
REMARK    3  A    between atoms: C6_10  and  N1_11 
REMARK       I    between atoms: N1_11  and  C7_13 
REMARK    4  A    between atoms: C7_13  and  C8_15 
REMARK    5  A    between atoms: C8_15  and  O4_16 
REMARK    6  A    between atoms: C12_20  and  O5_21 
REMARK    7  A    between atoms: C15_25  and  O6_26 
ROOT
HETATM    1  C1  UNL     1       2.260 -25.099 -25.527  1.00  0.00     0.112 C 
HETATM    2  C2  UNL     1       1.759 -26.474 -25.643  1.00  0.00    -0.108 C 
HETATM    3  C3  UNL     1       1.348 -27.605 -25.751  1.00  0.00    -0.065 C 
ENDROOT
BRANCH   3   4
HETATM    4  C4  UNL     1       0.838 -28.997 -25.857  1.00  0.00     0.163 C 
HETATM    5  C5  UNL     1       0.462 -29.503 -24.486  1.00  0.00     0.242 C 
HETATM    6 BR1  UNL     1      -0.808 -28.204 -23.764  1.00  0.00    -0.057 Br
HETATM    7  O2  UNL     1      -0.169 -30.699 -24.609  1.00  0.00    -0.346 OA
HETATM    8  C6  UNL     1       0.355 -31.568 -25.534  1.00  0.00     0.236 C 
HETATM    9  C10 UNL     1       1.754 -31.261 -25.969  1.00  0.00     0.036 C 
HETATM   10  C11 UNL     1       2.702 -31.623 -24.847  1.00  0.00     0.023 C 
HETATM   11  C12 UNL     1       2.083 -32.195 -27.129  1.00  0.00     0.131 C 
HETATM   12  C16 UNL     1       1.976 -29.834 -26.345  1.00  0.00     0.080 C 
HETATM   13  C13 UNL     1       3.423 -31.753 -27.686  1.00  0.00     0.035 C 
HETATM   14  C14 UNL     1       3.183 -30.484 -28.452  1.00  0.00     0.035 C 
HETATM   15  C15 UNL     1       2.128 -29.611 -27.826  1.00  0.00     0.127 C 
BRANCH   4  16
HETATM   16  O1  UNL     1      -0.251 -29.061 -26.705  1.00  0.00    -0.373 OA
ATOM     17  H1  UNL     1      -0.123 -29.723 -27.374  1.00  0.00     0.212 HD
ENDBRANCH   4  16
BRANCH   8  18
HETATM   18  N1  UNL     1       0.238 -32.905 -24.998  1.00  0.00    -0.332 N 
HETATM   19  C7  UNL     1      -0.840 -33.742 -25.469  1.00  0.00     0.243 C 
HETATM   20  O3  UNL     1      -1.645 -33.276 -26.336  1.00  0.00    -0.271 OA
ATOM     21  H1  UNL     1       0.902 -33.249 -24.304  1.00  0.00     0.165 HD
BRANCH  19  22
HETATM   22  C8  UNL     1      -0.967 -35.100 -24.931  1.00  0.00     0.269 C 
BRANCH  22  23
HETATM   23  O4  UNL     1      -0.836 -36.088 -25.857  1.00  0.00    -0.387 OA
HETATM   24  C9  UNL     1      -1.171 -37.365 -25.468  1.00  0.00     0.202 C 
ENDBRANCH  22  23
ENDBRANCH  19  22
ENDBRANCH   8  18
BRANCH  11  25
HETATM   25  O5  UNL     1       2.286 -33.508 -26.656  1.00  0.00    -0.395 OA
ATOM     26  H5  UNL     1       1.455 -33.908 -26.427  1.00  0.00     0.210 HD
ENDBRANCH  11  25
BRANCH  15  27
HETATM   27  O6  UNL     1       2.545 -28.292 -28.013  1.00  0.00    -0.395 OA
ATOM     28  H6  UNL     1       3.232 -28.135 -27.374  1.00  0.00     0.210 HD
ENDBRANCH  15  27
ENDBRANCH   3   4
TORSDOF 7
ENDMDL
MODEL 2
REMARK VINA RESULT: -6.371704583      2.411      3.825
REMARK  7 active torsions:
REMARK  status: ('A' for Active; 'I' for Inactive)
REMARK    1  A    between atoms: C3_3  and  C4_4 
REMARK    2  A    between atoms: C4_4  and  O1_5 
REMARK    3  A    between atoms: C6_10  and  N1_11 
REMARK       I    between atoms: N1_11  and  C7_13 
REMARK    4  A    between atoms: C7_13  and  C8_15 
REMARK    5  A    between atoms: C8_15  and  O4_16 
REMARK    6  A    between atoms: C12_20  and  O5_21 
REMARK    7  A    between atoms: C15_25  and  O6_26 
ROOT
HETATM    1  C1  UNL     1       5.232 -28.749 -29.011  1.00  0.00     0.112 C 
HETATM    2  C2  UNL     1       4.425 -29.590 -28.118  1.00  0.00    -0.108 C 
HETATM    3  C3  UNL     1       3.768 -30.276 -27.371  1.00  0.00    -0.065 C 
ENDROOT
BRANCH   3   4
HETATM    4  C4  UNL     1       2.947 -31.132 -26.476  1.00  0.00     0.163 C 
HETATM    5  C5  UNL     1       2.556 -32.395 -27.203  1.00  0.00     0.242 C 
HETATM    6 BR1  UNL     1       4.228 -33.199 -27.820  1.00  0.00    -0.057 Br
HETATM    7  O2  UNL     1       1.965 -33.249 -26.328  1.00  0.00    -0.346 OA
HETATM    8  C6  UNL     1       1.095 -32.687 -25.427  1.00  0.00     0.236 C 
HETATM    9  C10 UNL     1       0.609 -31.317 -25.787  1.00  0.00     0.036 C 
HETATM   10  C11 UNL     1      -0.385 -31.438 -26.922  1.00  0.00     0.023 C 
HETATM   11  C12 UNL     1      -0.170 -30.784 -24.589  1.00  0.00     0.131 C 
HETATM   12  C16 UNL     1       1.691 -30.373 -26.192  1.00  0.00     0.080 C 
HETATM   13  C13 UNL     1      -0.495 -29.332 -24.884  1.00  0.00     0.035 C 
HETATM   14  C14 UNL     1       0.777 -28.553 -24.718  1.00  0.00     0.035 C 
HETATM   15  C15 UNL     1       1.996 -29.319 -25.163  1.00  0.00     0.127 C 
BRANCH   4  16
HETATM   16  O1  UNL     1       3.636 -31.441 -25.319  1.00  0.00    -0.373 OA
ATOM     17  H1  UNL     1       3.741 -32.381 -25.226  1.00  0.00     0.212 HD
ENDBRANCH   4  16
BRANCH   8  18
HETATM   18  N1  UNL     1       0.003 -33.613 -25.233  1.00  0.00    -0.332 N 
HETATM   19  C7  UNL     1      -0.259 -34.095 -23.897  1.00  0.00     0.243 C 
HETATM   20  O3  UNL     1       0.478 -33.690 -22.943  1.00  0.00    -0.271 OA
ATOM     21  H1  UNL     1      -0.570 -33.918 -26.020  1.00  0.00     0.165 HD
BRANCH  19  22
HETATM   22  C8  UNL     1      -1.364 -35.035 -23.689  1.00  0.00     0.269 C 
BRANCH  22  23
HETATM   23  O4  UNL     1      -0.997 -36.345 -23.678  1.00  0.00    -0.387 OA
HETATM   24  C9  UNL     1      -1.058 -37.028 -24.872  1.00  0.00     0.202 C 
ENDBRANCH  22  23
ENDBRANCH  19  22
ENDBRANCH   8  18
BRANCH  11  25
HETATM   25  O5  UNL     1      -1.416 -31.437 -24.486  1.00  0.00    -0.395 OA
ATOM     26  H5  UNL     1      -1.677 -31.507 -23.576  1.00  0.00     0.210 HD
ENDBRANCH  11  25
BRANCH  15  27
HETATM   27  O6  UNL     1       2.852 -28.388 -25.753  1.00  0.00    -0.395 OA
ATOM     28  H6  UNL     1       3.544 -28.223 -25.124  1.00  0.00     0.210 HD
ENDBRANCH  15  27
ENDBRANCH   3   4
TORSDOF 7
ENDMDL
MODEL 3
REMARK VINA RESULT: -6.284825770      2.806      4.941
REMARK  7 active torsions:
REMARK  status: ('A' for Active; 'I' for Inactive)
REMARK    1  A    between atoms: C3_3  and  C4_4 
REMARK    2  A    between atoms: C4_4  and  O1_5 
REMARK    3  A    between atoms: C6_10  and  N1_11 
REMARK       I    between atoms: N1_11  and  C7_13 
REMARK    4  A    between atoms: C7_13  and  C8_15 
REMARK    5  A    between atoms: C8_15  and  O4_16 
REMARK    6  A    between atoms: C12_20  and  O5_21 
REMARK    7  A    between atoms: C15_25  and  O6_26 
ROOT
HETATM    1  C1  UNL     1      -1.157 -27.981 -23.106  1.00  0.00     0.112 C 
HETATM    2  C2  UNL     1      -0.583 -28.856 -24.134  1.00  0.00    -0.108 C 
HETATM    3  C3  UNL     1      -0.120 -29.587 -24.979  1.00  0.00    -0.065 C 
ENDROOT
BRANCH   3   4
HETATM    4  C4  UNL     1       0.470 -30.466 -26.021  1.00  0.00     0.163 C 
HETATM    5  C5  UNL     1       0.464 -29.750 -27.349  1.00  0.00     0.242 C 
HETATM    6 BR1  UNL     1       1.406 -28.062 -27.052  1.00  0.00    -0.057 Br
HETATM    7  O2  UNL     1       1.166 -30.480 -28.253  1.00  0.00    -0.346 OA
HETATM    8  C6  UNL     1       0.974 -31.839 -28.214  1.00  0.00     0.236 C 
HETATM    9  C10 UNL     1      -0.257 -32.283 -27.485  1.00  0.00     0.036 C 
HETATM   10  C11 UNL     1      -1.466 -31.971 -28.340  1.00  0.00     0.023 C 
HETATM   11  C12 UNL     1      -0.192 -33.803 -27.371  1.00  0.00     0.131 C 
HETATM   12  C16 UNL     1      -0.436 -31.648 -26.147  1.00  0.00     0.080 C 
HETATM   13  C13 UNL     1      -1.338 -34.227 -26.472  1.00  0.00     0.035 C 
HETATM   14  C14 UNL     1      -0.956 -33.858 -25.068  1.00  0.00     0.035 C 
HETATM   15  C15 UNL     1      -0.170 -32.575 -24.992  1.00  0.00     0.127 C 
BRANCH   4  16
HETATM   16  O1  UNL     1       1.758 -30.836 -25.683  1.00  0.00    -0.373 OA
ATOM     17  H1  UNL     1       2.093 -31.490 -26.286  1.00  0.00     0.212 HD
ENDBRANCH   4  16
BRANCH   8  18
HETATM   18  N1  UNL     1       1.001 -32.328 -29.573  1.00  0.00    -0.332 N 
HETATM   19  C7  UNL     1       2.239 -32.870 -30.083  1.00  0.00     0.243 C 
HETATM   20  O3  UNL     1       3.257 -32.897 -29.320  1.00  0.00    -0.271 OA
ATOM     21  H1  UNL     1       0.167 -32.292 -30.158  1.00  0.00     0.165 HD
BRANCH  19  22
HETATM   22  C8  UNL     1       2.278 -33.368 -31.460  1.00  0.00     0.269 C 
BRANCH  22  23
HETATM   23  O4  UNL     1       3.162 -34.381 -31.670  1.00  0.00    -0.387 OA
HETATM   24  C9  UNL     1       4.327 -34.076 -32.336  1.00  0.00     0.202 C 
ENDBRANCH  22  23
ENDBRANCH  19  22
ENDBRANCH   8  18
BRANCH  11  25
HETATM   25  O5  UNL     1      -0.453 -34.398 -28.623  1.00  0.00    -0.395 OA
ATOM     26  H5  UNL     1      -0.375 -35.343 -28.560  1.00  0.00     0.210 HD
ENDBRANCH  11  25
BRANCH  15  27
HETATM   27  O6  UNL     1      -0.585 -31.927 -23.828  1.00  0.00    -0.395 OA
ATOM     28  H6  UNL     1       0.205 -31.643 -23.383  1.00  0.00     0.210 HD
ENDBRANCH  15  27
ENDBRANCH   3   4
TORSDOF 7
ENDMDL
MODEL 4
REMARK VINA RESULT: -6.238363033      2.600      5.745
REMARK  7 active torsions:
REMARK  status: ('A' for Active; 'I' for Inactive)
REMARK    1  A    between atoms: C3_3  and  C4_4 
REMARK    2  A    between atoms: C4_4  and  O1_5 
REMARK    3  A    between atoms: C6_10  and  N1_11 
REMARK       I    between atoms: N1_11  and  C7_13 
REMARK    4  A    between atoms: C7_13  and  C8_15 
REMARK    5  A    between atoms: C8_15  and  O4_16 
REMARK    6  A    between atoms: C12_20  and  O5_21 
REMARK    7  A    between atoms: C15_25  and  O6_26 
ROOT
HETATM    1  C1  UNL     1       2.827 -33.513 -31.094  1.00  0.00     0.112 C 
HETATM    2  C2  UNL     1       2.064 -32.889 -30.006  1.00  0.00    -0.108 C 
HETATM    3  C3  UNL     1       1.430 -32.388 -29.107  1.00  0.00    -0.065 C 
ENDROOT
BRANCH   3   4
HETATM    4  C4  UNL     1       0.661 -31.747 -28.010  1.00  0.00     0.163 C 
HETATM    5  C5  UNL     1       1.491 -30.654 -27.382  1.00  0.00     0.242 C 
HETATM    6 BR1  UNL     1       2.005 -29.463 -28.846  1.00  0.00    -0.057 Br
HETATM    7  O2  UNL     1       0.722 -29.955 -26.508  1.00  0.00    -0.346 OA
HETATM    8  C6  UNL     1      -0.131 -30.694 -25.727  1.00  0.00     0.236 C 
HETATM    9  C10 UNL     1       0.190 -32.154 -25.646  1.00  0.00     0.036 C 
HETATM   10  C11 UNL     1       1.413 -32.334 -24.772  1.00  0.00     0.023 C 
HETATM   11  C12 UNL     1      -0.964 -32.832 -24.915  1.00  0.00     0.131 C 
HETATM   12  C16 UNL     1       0.444 -32.796 -26.968  1.00  0.00     0.080 C 
HETATM   13  C13 UNL     1      -0.726 -34.327 -25.003  1.00  0.00     0.035 C 
HETATM   14  C14 UNL     1      -1.047 -34.742 -26.410  1.00  0.00     0.035 C 
HETATM   15  C15 UNL     1      -0.667 -33.701 -27.430  1.00  0.00     0.127 C 
BRANCH   4  16
HETATM   16  O1  UNL     1      -0.532 -31.231 -28.479  1.00  0.00    -0.373 OA
ATOM     17  H1  UNL     1      -1.102 -31.923 -28.794  1.00  0.00     0.212 HD
ENDBRANCH   4  16
BRANCH   8  18
HETATM   18  N1  UNL     1      -0.176 -30.079 -24.420  1.00  0.00    -0.332 N 
HETATM   19  C7  UNL     1      -0.444 -28.662 -24.337  1.00  0.00     0.243 C 
HETATM   20  O3  UNL     1      -0.631 -28.009 -25.412  1.00  0.00    -0.271 OA
ATOM     21  H1  UNL     1      -0.023 -30.631 -23.577  1.00  0.00     0.165 HD
BRANCH  19  22
HETATM   22  C8  UNL     1      -0.491 -28.028 -23.016  1.00  0.00     0.269 C 
BRANCH  22  23
HETATM   23  O4  UNL     1      -1.738 -27.666 -22.608  1.00  0.00    -0.387 OA
HETATM   24  C9  UNL     1      -2.144 -26.380 -22.884  1.00  0.00     0.202 C 
ENDBRANCH  22  23
ENDBRANCH  19  22
ENDBRANCH   8  18
BRANCH  11  25
HETATM   25  O5  UNL     1      -0.921 -32.523 -23.539  1.00  0.00    -0.395 OA
ATOM     26  H5  UNL     1      -1.383 -33.184 -23.039  1.00  0.00     0.210 HD
ENDBRANCH  11  25
BRANCH  15  27
HETATM   27  O6  UNL     1      -0.207 -34.395 -28.550  1.00  0.00    -0.395 OA
ATOM     28  H6  UNL     1      -0.968 -34.557 -29.096  1.00  0.00     0.210 HD
ENDBRANCH  15  27
ENDBRANCH   3   4
TORSDOF 7
ENDMDL
MODEL 5
REMARK VINA RESULT: -6.203871786      2.537      3.218
REMARK  7 active torsions:
REMARK  status: ('A' for Active; 'I' for Inactive)
REMARK    1  A    between atoms: C3_3  and  C4_4 
REMARK    2  A    between atoms: C4_4  and  O1_5 
REMARK    3  A    between atoms: C6_10  and  N1_11 
REMARK       I    between atoms: N1_11  and  C7_13 
REMARK    4  A    between atoms: C7_13  and  C8_15 
REMARK    5  A    between atoms: C8_15  and  O4_16 
REMARK    6  A    between atoms: C12_20  and  O5_21 
REMARK    7  A    between atoms: C15_25  and  O6_26 
ROOT
HETATM    1  C1  UNL     1      -0.036 -27.689 -31.004  1.00  0.00     0.112 C 
HETATM    2  C2  UNL     1      -0.005 -28.825 -30.075  1.00  0.00    -0.108 C 
HETATM    3  C3  UNL     1       0.032 -29.754 -29.303  1.00  0.00    -0.065 C 
ENDROOT
BRANCH   3   4
HETATM    4  C4  UNL     1       0.054 -30.908 -28.368  1.00  0.00     0.163 C 
HETATM    5  C5  UNL     1      -1.342 -31.179 -27.866  1.00  0.00     0.242 C 
HETATM    6 BR1  UNL     1      -2.448 -31.422 -29.460  1.00  0.00    -0.057 Br
HETATM    7  O2  UNL     1      -1.346 -32.339 -27.159  1.00  0.00    -0.346 OA
HETATM    8  C6  UNL     1      -0.273 -32.545 -26.327  1.00  0.00     0.236 C 
HETATM    9  C10 UNL     1       0.520 -31.317 -26.003  1.00  0.00     0.036 C 
HETATM   10  C11 UNL     1      -0.276 -30.466 -25.038  1.00  0.00     0.023 C 
HETATM   11  C12 UNL     1       1.767 -31.770 -25.250  1.00  0.00     0.131 C 
HETATM   12  C16 UNL     1       0.878 -30.491 -27.192  1.00  0.00     0.080 C 
HETATM   13  C13 UNL     1       2.655 -30.550 -25.092  1.00  0.00     0.035 C 
HETATM   14  C14 UNL     1       3.265 -30.274 -26.435  1.00  0.00     0.035 C 
HETATM   15  C15 UNL     1       2.331 -30.574 -27.577  1.00  0.00     0.127 C 
BRANCH   4  16
HETATM   16  O1  UNL     1       0.567 -32.034 -28.984  1.00  0.00    -0.373 OA
ATOM     17  H1  UNL     1       0.608 -32.765 -28.377  1.00  0.00     0.212 HD
ENDBRANCH   4  16
BRANCH   8  18
HETATM   18  N1  UNL     1      -0.759 -33.203 -25.137  1.00  0.00    -0.332 N 
HETATM   19  C7  UNL     1      -0.855 -34.644 -25.139  1.00  0.00     0.243 C 
HETATM   20  O3  UNL     1      -0.510 -35.280 -26.184  1.00  0.00    -0.271 OA
ATOM     21  H1  UNL     1      -1.027 -32.664 -24.314  1.00  0.00     0.165 HD
BRANCH  19  22
HETATM   22  C8  UNL     1      -1.347 -35.322 -23.936  1.00  0.00     0.269 C 
BRANCH  22  23
HETATM   23  O4  UNL     1      -0.698 -36.478 -23.634  1.00  0.00    -0.387 OA
HETATM   24  C9  UNL     1      -0.921 -37.561 -24.455  1.00  0.00     0.202 C 
ENDBRANCH  22  23
ENDBRANCH  19  22
ENDBRANCH   8  18
BRANCH  11  25
HETATM   25  O5  UNL     1       1.429 -32.164 -23.938  1.00  0.00    -0.395 OA
ATOM     26  H5  UNL     1       0.490 -32.107 -23.809  1.00  0.00     0.210 HD
ENDBRANCH  11  25
BRANCH  15  27
HETATM   27  O6  UNL     1       2.566 -29.598 -28.547  1.00  0.00    -0.395 OA
ATOM     28  H6  UNL     1       2.412 -30.012 -29.388  1.00  0.00     0.210 HD
ENDBRANCH  15  27
ENDBRANCH   3   4
TORSDOF 7
ENDMDL
