MODEL 1
REMARK VINA RESULT: -7.005711856      0.000      0.000
REMARK  7 active torsions:
REMARK  status: ('A' for Active; 'I' for Inactive)
REMARK    1  A    between atoms: C2_2  and  C3_3 
REMARK    2  A    between atoms: N1_7  and  C6_8 
REMARK    3  A    between atoms: C7_9  and  O2_10 
REMARK    4  A    between atoms: C9_14  and  O3_15 
REMARK    5  A    between atoms: C10_17  and  O4_18 
REMARK    6  A    between atoms: C11_20  and  C12_21 
REMARK    7  A    between atoms: C12_21  and  C13_22 
ROOT
HETATM    1  C6  UNL     1       0.310 -32.670 -27.094  1.00  0.00     0.134 C 
HETATM    2  C7  UNL     1       0.225 -33.871 -26.215  1.00  0.00     0.159 C 
HETATM    3  C8  UNL     1      -0.856 -33.578 -25.193  1.00  0.00     0.120 C 
HETATM    4 BR1  UNL     1      -1.251 -35.187 -24.227  1.00  0.00    -0.086 Br
HETATM    5  C9  UNL     1      -0.255 -32.552 -24.256  1.00  0.00     0.164 C 
HETATM    6  C10 UNL     1       0.868 -31.769 -24.861  1.00  0.00     0.154 C 
HETATM    7  C11 UNL     1       0.718 -31.406 -26.278  1.00  0.00     0.044 C 
ENDROOT
BRANCH   1   8
HETATM    8  N1  UNL     1       1.087 -32.821 -28.294  1.00  0.00    -0.258 N 
HETATM    9  C5  UNL     1       0.480 -32.943 -29.514  1.00  0.00     0.253 A 
HETATM   10  C4  UNL     1       1.172 -33.090 -30.692  1.00  0.00     0.099 A 
HETATM   11  O1  UNL     1      -0.787 -32.912 -29.504  1.00  0.00    -0.268 OA
HETATM   12  C3  UNL     1       2.548 -33.118 -30.656  1.00  0.00     0.018 A 
HETATM   13  N2  UNL     1       3.151 -33.001 -29.470  1.00  0.00    -0.312 N 
HETATM   14  C17 UNL     1       2.430 -32.859 -28.344  1.00  0.00     0.330 A 
ATOM     15  H2  UNL     1       4.170 -33.019 -29.418  1.00  0.00     0.170 HD
HETATM   16  O5  UNL     1       3.085 -32.756 -27.275  1.00  0.00    -0.246 OA
BRANCH  12  17
HETATM   17  C2  UNL     1       3.342 -33.276 -31.907  1.00  0.00     0.053 C 
HETATM   18  C1  UNL     1       4.829 -33.172 -31.593  1.00  0.00     0.011 C 
ENDBRANCH  12  17
ENDBRANCH   1   8
BRANCH   2  19
HETATM   19  O2  UNL     1      -0.290 -34.935 -26.994  1.00  0.00    -0.392 OA
ATOM     20  H2  UNL     1       0.126 -35.736 -26.697  1.00  0.00     0.210 HD
ENDBRANCH   2  19
BRANCH   7  21
HETATM   21  C12 UNL     1      -0.179 -30.312 -26.593  1.00  0.00     0.017 C 
BRANCH  21  22
HETATM   22  C13 UNL     1       0.001 -29.141 -27.390  1.00  0.00    -0.051 C 
HETATM   23  C14 UNL     1      -0.178 -27.754 -27.057  1.00  0.00     0.014 C 
HETATM   24  C15 UNL     1      -0.905 -29.376 -28.654  1.00  0.00     0.014 C 
HETATM   25  C16 UNL     1       1.419 -29.247 -28.062  1.00  0.00     0.014 C 
ENDBRANCH  21  22
ENDBRANCH   7  21
BRANCH   6  26
HETATM   26  O4  UNL     1       1.273 -30.757 -24.045  1.00  0.00    -0.393 OA
ATOM     27  H4  UNL     1       1.379 -31.050 -23.148  1.00  0.00     0.210 HD
ENDBRANCH   6  26
BRANCH   5  28
HETATM   28  O3  UNL     1      -1.289 -31.825 -23.734  1.00  0.00    -0.392 OA
ATOM     29  H3  UNL     1      -0.914 -31.196 -23.130  1.00  0.00     0.210 HD
ENDBRANCH   5  28
TORSDOF 7
ENDMDL
MODEL 2
REMARK VINA RESULT: -6.746000596      2.482      5.019
REMARK  7 active torsions:
REMARK  status: ('A' for Active; 'I' for Inactive)
REMARK    1  A    between atoms: C2_2  and  C3_3 
REMARK    2  A    between atoms: N1_7  and  C6_8 
REMARK    3  A    between atoms: C7_9  and  O2_10 
REMARK    4  A    between atoms: C9_14  and  O3_15 
REMARK    5  A    between atoms: C10_17  and  O4_18 
REMARK    6  A    between atoms: C11_20  and  C12_21 
REMARK    7  A    between atoms: C12_21  and  C13_22 
ROOT
HETATM    1  C6  UNL     1       1.118 -31.764 -25.977  1.00  0.00     0.134 C 
HETATM    2  C7  UNL     1       0.307 -32.339 -24.865  1.00  0.00     0.159 C 
HETATM    3  C8  UNL     1       0.116 -33.809 -25.189  1.00  0.00     0.120 C 
HETATM    4 BR1  UNL     1      -0.637 -34.689 -23.662  1.00  0.00    -0.086 Br
HETATM    5  C9  UNL     1      -0.869 -33.841 -26.338  1.00  0.00     0.164 C 
HETATM    6  C10 UNL     1      -0.918 -32.569 -27.127  1.00  0.00     0.154 C 
HETATM    7  C11 UNL     1       0.367 -31.886 -27.338  1.00  0.00     0.044 C 
ENDROOT
BRANCH   1   8
HETATM    8  N1  UNL     1       1.641 -30.443 -25.756  1.00  0.00    -0.258 N 
HETATM    9  C5  UNL     1       2.988 -30.210 -25.777  1.00  0.00     0.253 A 
HETATM   10  C4  UNL     1       3.544 -28.968 -25.573  1.00  0.00     0.099 A 
HETATM   11  O1  UNL     1       3.719 -31.220 -26.000  1.00  0.00    -0.268 OA
HETATM   12  C3  UNL     1       2.711 -27.899 -25.335  1.00  0.00     0.018 A 
HETATM   13  N2  UNL     1       1.394 -28.116 -25.312  1.00  0.00    -0.312 N 
HETATM   14  C17 UNL     1       0.897 -29.349 -25.517  1.00  0.00     0.330 A 
ATOM     15  H2  UNL     1       0.757 -27.338 -25.137  1.00  0.00     0.170 HD
HETATM   16  O5  UNL     1      -0.355 -29.456 -25.477  1.00  0.00    -0.246 OA
BRANCH  12  17
HETATM   17  C2  UNL     1       3.267 -26.534 -25.108  1.00  0.00     0.053 C 
HETATM   18  C1  UNL     1       4.769 -26.619 -24.874  1.00  0.00     0.011 C 
ENDBRANCH  12  17
ENDBRANCH   1   8
BRANCH   2  19
HETATM   19  O2  UNL     1       1.110 -32.325 -23.699  1.00  0.00    -0.392 OA
ATOM     20  H2  UNL     1       1.747 -33.025 -23.781  1.00  0.00     0.210 HD
ENDBRANCH   2  19
BRANCH   7  21
HETATM   21  C12 UNL     1       1.259 -32.440 -28.337  1.00  0.00     0.017 C 
BRANCH  21  22
HETATM   22  C13 UNL     1       2.126 -31.813 -29.282  1.00  0.00    -0.051 C 
HETATM   23  C14 UNL     1       2.477 -30.428 -29.446  1.00  0.00     0.014 C 
HETATM   24  C15 UNL     1       1.578 -32.262 -30.686  1.00  0.00     0.014 C 
HETATM   25  C16 UNL     1       3.485 -32.605 -29.267  1.00  0.00     0.014 C 
ENDBRANCH  21  22
ENDBRANCH   7  21
BRANCH   6  26
HETATM   26  O4  UNL     1      -1.695 -32.695 -28.237  1.00  0.00    -0.393 OA
ATOM     27  H4  UNL     1      -1.762 -31.876 -28.713  1.00  0.00     0.210 HD
ENDBRANCH   6  26
BRANCH   5  28
HETATM   28  O3  UNL     1      -0.626 -34.985 -27.047  1.00  0.00    -0.392 OA
ATOM     29  H3  UNL     1       0.087 -35.439 -26.614  1.00  0.00     0.210 HD
ENDBRANCH   5  28
TORSDOF 7
ENDMDL
MODEL 3
REMARK VINA RESULT: -6.670337398      0.642      1.608
REMARK  7 active torsions:
REMARK  status: ('A' for Active; 'I' for Inactive)
REMARK    1  A    between atoms: C2_2  and  C3_3 
REMARK    2  A    between atoms: N1_7  and  C6_8 
REMARK    3  A    between atoms: C7_9  and  O2_10 
REMARK    4  A    between atoms: C9_14  and  O3_15 
REMARK    5  A    between atoms: C10_17  and  O4_18 
REMARK    6  A    between atoms: C11_20  and  C12_21 
REMARK    7  A    between atoms: C12_21  and  C13_22 
ROOT
HETATM    1  C6  UNL     1       0.343 -32.683 -26.989  1.00  0.00     0.134 C 
HETATM    2  C7  UNL     1       0.233 -33.981 -26.264  1.00  0.00     0.159 C 
HETATM    3  C8  UNL     1      -0.816 -33.783 -25.187  1.00  0.00     0.120 C 
HETATM    4 BR1  UNL     1      -1.248 -35.487 -24.419  1.00  0.00    -0.086 Br
HETATM    5  C9  UNL     1      -0.160 -32.903 -24.145  1.00  0.00     0.164 C 
HETATM    6  C10 UNL     1       0.978 -32.088 -24.675  1.00  0.00     0.154 C 
HETATM    7  C11 UNL     1       0.813 -31.546 -26.032  1.00  0.00     0.044 C 
ENDROOT
BRANCH   1   8
HETATM    8  N1  UNL     1       1.090 -32.709 -28.217  1.00  0.00    -0.258 N 
HETATM    9  C5  UNL     1       2.455 -32.636 -28.210  1.00  0.00     0.253 A 
HETATM   10  C4  UNL     1       3.219 -32.656 -29.353  1.00  0.00     0.099 A 
HETATM   11  O1  UNL     1       2.996 -32.545 -27.068  1.00  0.00    -0.268 OA
HETATM   12  C3  UNL     1       2.590 -32.755 -30.572  1.00  0.00     0.018 A 
HETATM   13  N2  UNL     1       1.256 -32.828 -30.591  1.00  0.00    -0.312 N 
HETATM   14  C17 UNL     1       0.551 -32.804 -29.446  1.00  0.00     0.330 A 
ATOM     15  H2  UNL     1       0.767 -32.902 -31.483  1.00  0.00     0.170 HD
HETATM   16  O5  UNL     1      -0.699 -32.876 -29.562  1.00  0.00    -0.246 OA
BRANCH  12  17
HETATM   17  C2  UNL     1       3.375 -32.782 -31.838  1.00  0.00     0.053 C 
HETATM   18  C1  UNL     1       4.839 -33.073 -31.533  1.00  0.00     0.011 C 
ENDBRANCH  12  17
ENDBRANCH   1   8
BRANCH   2  19
HETATM   19  O2  UNL     1      -0.336 -34.922 -27.157  1.00  0.00    -0.392 OA
ATOM     20  H2  UNL     1       0.325 -35.138 -27.805  1.00  0.00     0.210 HD
ENDBRANCH   2  19
BRANCH   7  21
HETATM   21  C12 UNL     1      -0.051 -30.392 -26.187  1.00  0.00     0.017 C 
BRANCH  21  22
HETATM   22  C13 UNL     1       0.143 -29.150 -26.863  1.00  0.00    -0.051 C 
HETATM   23  C14 UNL     1      -0.138 -27.806 -26.437  1.00  0.00     0.014 C 
HETATM   24  C15 UNL     1      -0.627 -29.313 -28.225  1.00  0.00     0.014 C 
HETATM   25  C16 UNL     1       1.621 -29.135 -27.399  1.00  0.00     0.014 C 
ENDBRANCH  21  22
ENDBRANCH   7  21
BRANCH   6  26
HETATM   26  O4  UNL     1       1.436 -31.200 -23.750  1.00  0.00    -0.393 OA
ATOM     27  H4  UNL     1       2.385 -31.196 -23.706  1.00  0.00     0.210 HD
ENDBRANCH   6  26
BRANCH   5  28
HETATM   28  O3  UNL     1      -1.156 -32.213 -23.511  1.00  0.00    -0.392 OA
ATOM     29  H3  UNL     1      -1.273 -31.395 -23.979  1.00  0.00     0.210 HD
ENDBRANCH   5  28
TORSDOF 7
ENDMDL
MODEL 4
REMARK VINA RESULT: -6.668758719      2.765      5.148
REMARK  7 active torsions:
REMARK  status: ('A' for Active; 'I' for Inactive)
REMARK    1  A    between atoms: C2_2  and  C3_3 
REMARK    2  A    between atoms: N1_7  and  C6_8 
REMARK    3  A    between atoms: C7_9  and  O2_10 
REMARK    4  A    between atoms: C9_14  and  O3_15 
REMARK    5  A    between atoms: C10_17  and  O4_18 
REMARK    6  A    between atoms: C11_20  and  C12_21 
REMARK    7  A    between atoms: C12_21  and  C13_22 
ROOT
HETATM    1  C6  UNL     1       0.142 -31.866 -25.414  1.00  0.00     0.134 C 
HETATM    2  C7  UNL     1      -0.201 -30.902 -24.328  1.00  0.00     0.159 C 
HETATM    3  C8  UNL     1      -0.029 -29.515 -24.917  1.00  0.00     0.120 C 
HETATM    4 BR1  UNL     1      -0.753 -28.227 -23.695  1.00  0.00    -0.086 Br
HETATM    5  C9  UNL     1       1.466 -29.316 -25.046  1.00  0.00     0.164 C 
HETATM    6  C10 UNL     1       2.241 -30.595 -25.110  1.00  0.00     0.154 C 
HETATM    7  C11 UNL     1       1.623 -31.692 -25.869  1.00  0.00     0.044 C 
ENDROOT
BRANCH   1   8
HETATM    8  N1  UNL     1      -0.196 -33.241 -25.165  1.00  0.00    -0.258 N 
HETATM    9  C5  UNL     1      -0.721 -34.025 -26.155  1.00  0.00     0.253 A 
HETATM   10  C4  UNL     1      -1.062 -35.344 -25.973  1.00  0.00     0.099 A 
HETATM   11  O1  UNL     1      -0.881 -33.461 -27.278  1.00  0.00    -0.268 OA
HETATM   12  C3  UNL     1      -0.872 -35.916 -24.736  1.00  0.00     0.018 A 
HETATM   13  N2  UNL     1      -0.360 -35.160 -23.762  1.00  0.00    -0.312 N 
HETATM   14  C17 UNL     1      -0.041 -33.872 -23.988  1.00  0.00     0.330 A 
ATOM     15  H2  UNL     1      -0.209 -35.562 -22.836  1.00  0.00     0.170 HD
HETATM   16  O5  UNL     1       0.433 -33.239 -23.011  1.00  0.00    -0.246 OA
BRANCH  12  17
HETATM   17  C2  UNL     1      -1.226 -37.343 -24.491  1.00  0.00     0.053 C 
HETATM   18  C1  UNL     1      -1.306 -38.091 -25.816  1.00  0.00     0.011 C 
ENDBRANCH  12  17
ENDBRANCH   1   8
BRANCH   2  19
HETATM   19  O2  UNL     1      -1.588 -31.021 -24.074  1.00  0.00    -0.392 OA
ATOM     20  H2  UNL     1      -1.690 -31.395 -23.207  1.00  0.00     0.210 HD
ENDBRANCH   2  19
BRANCH   7  21
HETATM   21  C12 UNL     1       1.681 -31.615 -27.316  1.00  0.00     0.017 C 
BRANCH  21  22
HETATM   22  C13 UNL     1       2.693 -32.004 -28.244  1.00  0.00    -0.051 C 
HETATM   23  C14 UNL     1       3.868 -32.810 -28.054  1.00  0.00     0.014 C 
HETATM   24  C15 UNL     1       3.223 -30.651 -28.847  1.00  0.00     0.014 C 
HETATM   25  C16 UNL     1       1.967 -32.588 -29.511  1.00  0.00     0.014 C 
ENDBRANCH  21  22
ENDBRANCH   7  21
BRANCH   6  26
HETATM   26  O4  UNL     1       3.557 -30.374 -25.382  1.00  0.00    -0.393 OA
ATOM     27  H4  UNL     1       4.119 -30.983 -24.919  1.00  0.00     0.210 HD
ENDBRANCH   6  26
BRANCH   5  28
HETATM   28  O3  UNL     1       1.670 -28.431 -26.068  1.00  0.00    -0.392 OA
ATOM     29  H3  UNL     1       2.076 -27.658 -25.694  1.00  0.00     0.210 HD
ENDBRANCH   5  28
TORSDOF 7
ENDMDL
MODEL 5
REMARK VINA RESULT: -6.622091420      1.175      2.034
REMARK  7 active torsions:
REMARK  status: ('A' for Active; 'I' for Inactive)
REMARK    1  A    between atoms: C2_2  and  C3_3 
REMARK    2  A    between atoms: N1_7  and  C6_8 
REMARK    3  A    between atoms: C7_9  and  O2_10 
REMARK    4  A    between atoms: C9_14  and  O3_15 
REMARK    5  A    between atoms: C10_17  and  O4_18 
REMARK    6  A    between atoms: C11_20  and  C12_21 
REMARK    7  A    between atoms: C12_21  and  C13_22 
ROOT
HETATM    1  C6  UNL     1       0.497 -32.490 -27.040  1.00  0.00     0.134 C 
HETATM    2  C7  UNL     1       0.290 -33.867 -26.505  1.00  0.00     0.159 C 
HETATM    3  C8  UNL     1      -0.788 -33.756 -25.443  1.00  0.00     0.120 C 
HETATM    4 BR1  UNL     1      -1.339 -35.520 -24.931  1.00  0.00    -0.086 Br
HETATM    5  C9  UNL     1      -0.126 -33.066 -24.270  1.00  0.00     0.164 C 
HETATM    6  C10 UNL     1       1.074 -32.254 -24.648  1.00  0.00     0.154 C 
HETATM    7  C11 UNL     1       0.990 -31.523 -25.921  1.00  0.00     0.044 C 
ENDROOT
BRANCH   1   8
HETATM    8  N1  UNL     1       1.288 -32.393 -28.236  1.00  0.00    -0.258 N 
HETATM    9  C5  UNL     1       2.623 -32.684 -28.221  1.00  0.00     0.253 A 
HETATM   10  C4  UNL     1       3.427 -32.608 -29.334  1.00  0.00     0.099 A 
HETATM   11  O1  UNL     1       3.097 -33.037 -27.100  1.00  0.00    -0.268 OA
HETATM   12  C3  UNL     1       2.871 -32.220 -30.530  1.00  0.00     0.018 A 
HETATM   13  N2  UNL     1       1.566 -31.933 -30.558  1.00  0.00    -0.312 N 
HETATM   14  C17 UNL     1       0.821 -32.022 -29.441  1.00  0.00     0.330 A 
ATOM     15  H2  UNL     1       1.131 -31.643 -31.434  1.00  0.00     0.170 HD
HETATM   16  O5  UNL     1      -0.396 -31.732 -29.564  1.00  0.00    -0.246 OA
BRANCH  12  17
HETATM   17  C2  UNL     1       3.701 -32.123 -31.764  1.00  0.00     0.053 C 
HETATM   18  C1  UNL     1       4.914 -33.038 -31.645  1.00  0.00     0.011 C 
ENDBRANCH  12  17
ENDBRANCH   1   8
BRANCH   2  19
HETATM   19  O2  UNL     1      -0.293 -34.643 -27.535  1.00  0.00    -0.392 OA
ATOM     20  H2  UNL     1       0.333 -35.315 -27.778  1.00  0.00     0.210 HD
ENDBRANCH   2  19
BRANCH   7  21
HETATM   21  C12 UNL     1       0.196 -30.311 -25.942  1.00  0.00     0.017 C 
BRANCH  21  22
HETATM   22  C13 UNL     1       0.529 -28.957 -25.634  1.00  0.00    -0.051 C 
HETATM   23  C14 UNL     1       1.795 -28.364 -25.299  1.00  0.00     0.014 C 
HETATM   24  C15 UNL     1      -0.427 -28.572 -24.445  1.00  0.00     0.014 C 
HETATM   25  C16 UNL     1      -0.087 -28.055 -26.765  1.00  0.00     0.014 C 
ENDBRANCH  21  22
ENDBRANCH   7  21
BRANCH   6  26
HETATM   26  O4  UNL     1       1.543 -31.528 -23.595  1.00  0.00    -0.393 OA
ATOM     27  H4  UNL     1       2.344 -31.068 -23.815  1.00  0.00     0.210 HD
ENDBRANCH   6  26
BRANCH   5  28
HETATM   28  O3  UNL     1      -1.107 -32.412 -23.578  1.00  0.00    -0.392 OA
ATOM     29  H3  UNL     1      -0.680 -31.888 -22.911  1.00  0.00     0.210 HD
ENDBRANCH   5  28
TORSDOF 7
ENDMDL
