MODEL 1
REMARK VINA RESULT: -7.802551130      0.000      0.000
REMARK  5 active torsions:
REMARK  status: ('A' for Active; 'I' for Inactive)
REMARK    1  A    between atoms: C3_3  and  C4_4 
REMARK    2  A    between atoms: C4_4  and  N1_5 
REMARK    3  A    between atoms: N2_15  and  C12_17 
REMARK    4  A    between atoms: C12_17  and  C13_18 
REMARK    5  A    between atoms: C13_18  and  C14_19 
ROOT
HETATM    1  C1  UNL     1     187.056  29.670 527.711  1.00  0.00     0.112 C 
HETATM    2  C2  UNL     1     186.610  28.267 527.635  1.00  0.00    -0.109 C 
HETATM    3  C3  UNL     1     186.242  27.124 527.553  1.00  0.00    -0.087 C 
ENDROOT
BRANCH   3   4
HETATM    4  C4  UNL     1     185.793  25.741 527.430  1.00  0.00     0.218 C 
BRANCH   4   5
HETATM    5  N1  UNL     1     185.563  25.440 526.010  1.00  0.00    -0.358 N 
HETATM    6  C5  UNL     1     186.669  24.789 525.333  1.00  0.00     0.151 C 
HETATM    7  C6  UNL     1     186.256  23.937 524.178  1.00  0.00     0.187 C 
HETATM    8  O1  UNL     1     186.839  24.311 522.963  1.00  0.00    -0.387 OA
HETATM    9  C7  UNL     1     185.899  24.480 521.962  1.00  0.00     0.193 C 
HETATM   10  C8  UNL     1     185.700  25.971 521.710  1.00  0.00     0.193 C 
HETATM   11  O2  UNL     1     186.185  26.649 522.796  1.00  0.00    -0.389 OA
HETATM   12  C9  UNL     1     185.269  27.246 523.609  1.00  0.00     0.175 C 
HETATM   13  C10 UNL     1     184.135  26.411 524.084  1.00  0.00     0.102 C 
HETATM   14  C11 UNL     1     184.316  25.789 525.419  1.00  0.00     0.081 C 
HETATM   15  N2  UNL     1     183.277  25.520 526.146  1.00  0.00    -0.359 N 
ATOM     16  H2  UNL     1     183.477  25.093 527.050  1.00  0.00     0.166 HD
BRANCH  15  17
HETATM   17  C12 UNL     1     181.912  25.732 525.871  1.00  0.00     0.062 C 
BRANCH  17  18
HETATM   18  C13 UNL     1     181.400  27.066 526.368  1.00  0.00     0.051 C 
BRANCH  18  19
HETATM   19  C14 UNL     1     181.339  28.077 525.266  1.00  0.00     0.016 C 
HETATM   20  C15 UNL     1     182.303  29.189 525.523  1.00  0.00     0.008 C 
HETATM   21  C16 UNL     1     181.921  30.353 524.621  1.00  0.00     0.028 C 
HETATM   22  C17 UNL     1     180.572  30.859 525.003  1.00  0.00     0.232 C 
HETATM   23  N3  UNL     1     179.730  29.844 525.615  1.00  0.00    -0.075 N 
HETATM   24  C18 UNL     1     179.932  28.546 524.987  1.00  0.00     0.237 C 
ATOM     25  H32 UNL     1     179.870  29.798 526.625  1.00  0.00     0.277 HD
ATOM     26  H31 UNL     1     178.747  30.117 525.607  1.00  0.00     0.277 HD
ENDBRANCH  18  19
ENDBRANCH  17  18
ENDBRANCH  15  17
ENDBRANCH   4   5
ENDBRANCH   3   4
TORSDOF 5
ENDMDL
MODEL 2
REMARK VINA RESULT: -7.746723432      2.014      4.269
REMARK  5 active torsions:
REMARK  status: ('A' for Active; 'I' for Inactive)
REMARK    1  A    between atoms: C3_3  and  C4_4 
REMARK    2  A    between atoms: C4_4  and  N1_5 
REMARK    3  A    between atoms: N2_15  and  C12_17 
REMARK    4  A    between atoms: C12_17  and  C13_18 
REMARK    5  A    between atoms: C13_18  and  C14_19 
ROOT
HETATM    1  C1  UNL     1     185.724  26.132 520.692  1.00  0.00     0.112 C 
HETATM    2  C2  UNL     1     185.930  25.577 522.042  1.00  0.00    -0.109 C 
HETATM    3  C3  UNL     1     186.092  25.143 523.152  1.00  0.00    -0.087 C 
ENDROOT
BRANCH   3   4
HETATM    4  C4  UNL     1     186.280  24.635 524.508  1.00  0.00     0.218 C 
BRANCH   4   5
HETATM    5  N1  UNL     1     186.168  25.754 525.454  1.00  0.00    -0.358 N 
HETATM    6  C5  UNL     1     187.359  26.574 525.581  1.00  0.00     0.151 C 
HETATM    7  C6  UNL     1     187.083  27.986 525.983  1.00  0.00     0.187 C 
HETATM    8  O1  UNL     1     187.720  28.370 527.167  1.00  0.00    -0.387 OA
HETATM    9  C7  UNL     1     186.841  28.931 528.076  1.00  0.00     0.193 C 
HETATM   10  C8  UNL     1     186.561  27.924 529.186  1.00  0.00     0.193 C 
HETATM   11  O2  UNL     1     186.925  26.685 528.732  1.00  0.00    -0.389 OA
HETATM   12  C9  UNL     1     185.917  25.808 528.462  1.00  0.00     0.175 C 
HETATM   13  C10 UNL     1     184.812  26.287 527.592  1.00  0.00     0.102 C 
HETATM   14  C11 UNL     1     184.944  25.954 526.152  1.00  0.00     0.081 C 
HETATM   15  N2  UNL     1     183.877  25.824 525.426  1.00  0.00    -0.359 N 
ATOM     16  H2  UNL     1     184.044  25.596 524.445  1.00  0.00     0.166 HD
BRANCH  15  17
HETATM   17  C12 UNL     1     182.523  25.952 525.790  1.00  0.00     0.062 C 
BRANCH  17  18
HETATM   18  C13 UNL     1     181.729  26.832 524.849  1.00  0.00     0.051 C 
BRANCH  18  19
HETATM   19  C14 UNL     1     180.793  27.730 525.595  1.00  0.00     0.016 C 
HETATM   20  C15 UNL     1     179.852  28.403 524.650  1.00  0.00     0.008 C 
HETATM   21  C16 UNL     1     179.217  29.576 525.383  1.00  0.00     0.028 C 
HETATM   22  C17 UNL     1     180.268  30.577 525.727  1.00  0.00     0.232 C 
HETATM   23  N3  UNL     1     181.590  29.993 525.879  1.00  0.00    -0.075 N 
HETATM   24  C18 UNL     1     181.515  28.685 526.514  1.00  0.00     0.237 C 
ATOM     25  H32 UNL     1     182.087  29.950 524.989  1.00  0.00     0.277 HD
ATOM     26  H31 UNL     1     182.222  30.618 526.380  1.00  0.00     0.277 HD
ENDBRANCH  18  19
ENDBRANCH  17  18
ENDBRANCH  15  17
ENDBRANCH   4   5
ENDBRANCH   3   4
TORSDOF 5
ENDMDL
MODEL 3
REMARK VINA RESULT: -7.343232412      1.065      1.404
REMARK  5 active torsions:
REMARK  status: ('A' for Active; 'I' for Inactive)
REMARK    1  A    between atoms: C3_3  and  C4_4 
REMARK    2  A    between atoms: C4_4  and  N1_5 
REMARK    3  A    between atoms: N2_15  and  C12_17 
REMARK    4  A    between atoms: C12_17  and  C13_18 
REMARK    5  A    between atoms: C13_18  and  C14_19 
ROOT
HETATM    1  C1  UNL     1     187.039  27.995 528.973  1.00  0.00     0.112 C 
HETATM    2  C2  UNL     1     186.361  26.834 528.368  1.00  0.00    -0.109 C 
HETATM    3  C3  UNL     1     185.791  25.898 527.870  1.00  0.00    -0.087 C 
ENDROOT
BRANCH   3   4
HETATM    4  C4  UNL     1     185.083  24.778 527.259  1.00  0.00     0.218 C 
BRANCH   4   5
HETATM    5  N1  UNL     1     185.069  24.962 525.801  1.00  0.00    -0.358 N 
HETATM    6  C5  UNL     1     186.024  24.149 525.070  1.00  0.00     0.151 C 
HETATM    7  C6  UNL     1     185.608  23.840 523.669  1.00  0.00     0.187 C 
HETATM    8  O1  UNL     1     186.519  24.274 522.701  1.00  0.00    -0.387 OA
HETATM    9  C7  UNL     1     185.913  25.030 521.714  1.00  0.00     0.193 C 
HETATM   10  C8  UNL     1     186.260  26.500 521.928  1.00  0.00     0.193 C 
HETATM   11  O2  UNL     1     186.700  26.645 523.215  1.00  0.00    -0.389 OA
HETATM   12  C9  UNL     1     185.875  27.305 524.077  1.00  0.00     0.175 C 
HETATM   13  C10 UNL     1     184.461  26.854 524.145  1.00  0.00     0.102 C 
HETATM   14  C11 UNL     1     184.152  25.886 525.226  1.00  0.00     0.081 C 
HETATM   15  N2  UNL     1     182.954  25.840 525.720  1.00  0.00    -0.359 N 
ATOM     16  H2  UNL     1     182.814  25.150 526.458  1.00  0.00     0.166 HD
BRANCH  15  17
HETATM   17  C12 UNL     1     181.817  26.602 525.389  1.00  0.00     0.062 C 
BRANCH  17  18
HETATM   18  C13 UNL     1     181.154  27.242 526.588  1.00  0.00     0.051 C 
BRANCH  18  19
HETATM   19  C14 UNL     1     181.128  28.735 526.471  1.00  0.00     0.016 C 
HETATM   20  C15 UNL     1     180.087  29.163 525.489  1.00  0.00     0.008 C 
HETATM   21  C16 UNL     1     180.372  30.609 525.111  1.00  0.00     0.028 C 
HETATM   22  C17 UNL     1     181.684  30.692 524.408  1.00  0.00     0.232 C 
HETATM   23  N3  UNL     1     182.606  29.632 524.784  1.00  0.00    -0.075 N 
HETATM   24  C18 UNL     1     182.493  29.318 526.202  1.00  0.00     0.237 C 
ATOM     25  H32 UNL     1     182.480  28.802 524.205  1.00  0.00     0.277 HD
ATOM     26  H31 UNL     1     183.566  29.859 524.524  1.00  0.00     0.277 HD
ENDBRANCH  18  19
ENDBRANCH  17  18
ENDBRANCH  15  17
ENDBRANCH   4   5
ENDBRANCH   3   4
TORSDOF 5
ENDMDL
MODEL 4
REMARK VINA RESULT: -6.987721061      1.920      4.193
REMARK  5 active torsions:
REMARK  status: ('A' for Active; 'I' for Inactive)
REMARK    1  A    between atoms: C3_3  and  C4_4 
REMARK    2  A    between atoms: C4_4  and  N1_5 
REMARK    3  A    between atoms: N2_15  and  C12_17 
REMARK    4  A    between atoms: C12_17  and  C13_18 
REMARK    5  A    between atoms: C13_18  and  C14_19 
ROOT
HETATM    1  C1  UNL     1     186.003  23.188 522.146  1.00  0.00     0.112 C 
HETATM    2  C2  UNL     1     185.821  24.591 522.563  1.00  0.00    -0.109 C 
HETATM    3  C3  UNL     1     185.659  25.729 522.919  1.00  0.00    -0.087 C 
ENDROOT
BRANCH   3   4
HETATM    4  C4  UNL     1     185.449  27.102 523.368  1.00  0.00     0.218 C 
BRANCH   4   5
HETATM    5  N1  UNL     1     185.395  27.119 524.837  1.00  0.00    -0.358 N 
HETATM    6  C5  UNL     1     186.600  27.597 525.490  1.00  0.00     0.151 C 
HETATM    7  C6  UNL     1     186.359  28.211 526.830  1.00  0.00     0.187 C 
HETATM    8  O1  UNL     1     187.059  27.590 527.869  1.00  0.00    -0.387 OA
HETATM    9  C7  UNL     1     186.232  27.246 528.924  1.00  0.00     0.193 C 
HETATM   10  C8  UNL     1     185.995  25.739 528.902  1.00  0.00     0.193 C 
HETATM   11  O2  UNL     1     186.323  25.281 527.655  1.00  0.00    -0.389 OA
HETATM   12  C9  UNL     1     185.294  24.878 526.857  1.00  0.00     0.175 C 
HETATM   13  C10 UNL     1     184.153  25.815 526.694  1.00  0.00     0.102 C 
HETATM   14  C11 UNL     1     184.210  26.686 525.493  1.00  0.00     0.081 C 
HETATM   15  N2  UNL     1     183.107  27.117 524.963  1.00  0.00    -0.359 N 
ATOM     16  H2  UNL     1     183.223  27.712 524.143  1.00  0.00     0.166 HD
BRANCH  15  17
HETATM   17  C12 UNL     1     181.774  26.885 525.353  1.00  0.00     0.062 C 
BRANCH  17  18
HETATM   18  C13 UNL     1     180.769  27.199 524.267  1.00  0.00     0.051 C 
BRANCH  18  19
HETATM   19  C14 UNL     1     180.409  28.652 524.254  1.00  0.00     0.016 C 
HETATM   20  C15 UNL     1     181.589  29.485 524.635  1.00  0.00     0.008 C 
HETATM   21  C16 UNL     1     181.082  30.873 524.996  1.00  0.00     0.028 C 
HETATM   22  C17 UNL     1     180.211  30.787 526.203  1.00  0.00     0.232 C 
HETATM   23  N3  UNL     1     179.565  29.494 526.355  1.00  0.00    -0.075 N 
HETATM   24  C18 UNL     1     179.171  28.950 525.063  1.00  0.00     0.237 C 
ATOM     25  H32 UNL     1     180.151  28.840 526.875  1.00  0.00     0.277 HD
ATOM     26  H31 UNL     1     178.776  29.541 527.000  1.00  0.00     0.277 HD
ENDBRANCH  18  19
ENDBRANCH  17  18
ENDBRANCH  15  17
ENDBRANCH   4   5
ENDBRANCH   3   4
TORSDOF 5
ENDMDL
MODEL 5
REMARK VINA RESULT: -6.963670049      2.690      6.273
REMARK  5 active torsions:
REMARK  status: ('A' for Active; 'I' for Inactive)
REMARK    1  A    between atoms: C3_3  and  C4_4 
REMARK    2  A    between atoms: C4_4  and  N1_5 
REMARK    3  A    between atoms: N2_15  and  C12_17 
REMARK    4  A    between atoms: C12_17  and  C13_18 
REMARK    5  A    between atoms: C13_18  and  C14_19 
ROOT
HETATM    1  C1  UNL     1     185.742  26.479 522.225  1.00  0.00     0.112 C 
HETATM    2  C2  UNL     1     184.892  26.376 523.425  1.00  0.00    -0.109 C 
HETATM    3  C3  UNL     1     184.212  26.278 524.413  1.00  0.00    -0.087 C 
ENDROOT
BRANCH   3   4
HETATM    4  C4  UNL     1     183.401  26.143 525.619  1.00  0.00     0.218 C 
BRANCH   4   5
HETATM    5  N1  UNL     1     182.720  27.418 525.880  1.00  0.00    -0.358 N 
HETATM    6  C5  UNL     1     181.293  27.314 526.124  1.00  0.00     0.151 C 
HETATM    7  C6  UNL     1     180.744  28.407 526.982  1.00  0.00     0.187 C 
HETATM    8  O1  UNL     1     179.727  29.148 526.371  1.00  0.00    -0.387 OA
HETATM    9  C7  UNL     1     179.967  30.509 526.424  1.00  0.00     0.193 C 
HETATM   10  C8  UNL     1     180.411  30.991 525.046  1.00  0.00     0.193 C 
HETATM   11  O2  UNL     1     180.816  29.898 524.329  1.00  0.00    -0.389 OA
HETATM   12  C9  UNL     1     182.152  29.780 524.088  1.00  0.00     0.175 C 
HETATM   13  C10 UNL     1     183.067  29.904 525.252  1.00  0.00     0.102 C 
HETATM   14  C11 UNL     1     183.477  28.623 525.879  1.00  0.00     0.081 C 
HETATM   15  N2  UNL     1     184.617  28.548 526.494  1.00  0.00    -0.359 N 
ATOM     16  H2  UNL     1     184.832  27.638 526.902  1.00  0.00     0.166 HD
BRANCH  15  17
HETATM   17  C12 UNL     1     185.601  29.537 526.681  1.00  0.00     0.062 C 
BRANCH  17  18
HETATM   18  C13 UNL     1     186.549  29.232 527.820  1.00  0.00     0.051 C 
BRANCH  18  19
HETATM   19  C14 UNL     1     187.246  27.922 527.619  1.00  0.00     0.016 C 
HETATM   20  C15 UNL     1     187.074  27.450 526.212  1.00  0.00     0.008 C 
HETATM   21  C16 UNL     1     187.435  25.972 526.170  1.00  0.00     0.028 C 
HETATM   22  C17 UNL     1     186.469  25.200 527.001  1.00  0.00     0.232 C 
HETATM   23  N3  UNL     1     185.882  25.982 528.077  1.00  0.00    -0.075 N 
HETATM   24  C18 UNL     1     186.858  26.894 528.654  1.00  0.00     0.237 C 
ATOM     25  H32 UNL     1     185.043  26.475 527.769  1.00  0.00     0.277 HD
ATOM     26  H31 UNL     1     185.459  25.385 528.788  1.00  0.00     0.277 HD
ENDBRANCH  18  19
ENDBRANCH  17  18
ENDBRANCH  15  17
ENDBRANCH   4   5
ENDBRANCH   3   4
TORSDOF 5
ENDMDL
