MODEL 1
REMARK VINA RESULT: -7.896171303      0.000      0.000
REMARK  4 active torsions:
REMARK  status: ('A' for Active; 'I' for Inactive)
REMARK    1  A    between atoms: C4_6  and  C5_7 
REMARK    2  A    between atoms: N2_15  and  C11_16 
REMARK    3  A    between atoms: C11_16  and  C12_17 
REMARK    4  A    between atoms: C12_17  and  N3_18 
ROOT
HETATM    1  C1  UNL     1     185.591  24.141 524.693  1.00  0.00     0.034 C 
HETATM    2  C2  UNL     1     184.438  25.122 524.616  1.00  0.00     0.101 C 
HETATM    3  C3  UNL     1     183.617  24.998 525.870  1.00  0.00     0.144 C 
HETATM    4  N1  UNL     1     182.555  25.944 525.864  1.00  0.00    -0.386 N 
ATOM      5  H1  UNL     1     181.698  25.706 526.362  1.00  0.00     0.159 HD
HETATM    6  C4  UNL     1     182.612  27.080 525.267  1.00  0.00     0.078 C 
HETATM    7  C10 UNL     1     183.822  27.458 524.503  1.00  0.00     0.266 C 
HETATM    8  O1  UNL     1     183.843  28.553 523.950  1.00  0.00    -0.266 OA
HETATM    9  N2  UNL     1     184.867  26.493 524.485  1.00  0.00    -0.340 N 
ENDROOT
BRANCH   9  10
HETATM   10  C11 UNL     1     186.248  26.921 524.336  1.00  0.00     0.146 C 
BRANCH  10  11
HETATM   11  C12 UNL     1     187.029  26.575 525.591  1.00  0.00     0.147 C 
BRANCH  11  12
HETATM   12  N3  UNL     1     186.615  27.347 526.722  1.00  0.00    -0.331 N 
HETATM   13  C13 UNL     1     186.440  28.779 526.869  1.00  0.00     0.147 C 
HETATM   14  C14 UNL     1     186.858  28.997 528.320  1.00  0.00     0.144 C 
HETATM   15  N4  UNL     1     186.203  27.849 528.954  1.00  0.00    -0.341 N 
HETATM   16  C15 UNL     1     186.277  26.804 527.996  1.00  0.00     0.318 C 
ATOM     17  H4  UNL     1     185.784  27.809 529.883  1.00  0.00     0.164 HD
HETATM   18  O2  UNL     1     186.065  25.577 528.282  1.00  0.00    -0.247 OA
ENDBRANCH  11  12
ENDBRANCH  10  11
ENDBRANCH   9  10
BRANCH   6  19
HETATM   19  C5  UNL     1     181.450  27.963 525.340  1.00  0.00     0.050 C 
HETATM   20  C6  UNL     1     180.393  27.669 524.314  1.00  0.00     0.012 C 
HETATM   21  C7  UNL     1     179.051  28.216 524.668  1.00  0.00     0.011 C 
HETATM   22  C8  UNL     1     179.125  29.639 525.227  1.00  0.00     0.074 C 
HETATM   23  S1  UNL     1     179.872  29.456 526.895  1.00  0.00    -0.168 SA
HETATM   24  C9  UNL     1     180.926  27.960 526.755  1.00  0.00     0.084 C 
ENDBRANCH   6  19
TORSDOF 4
ENDMDL
MODEL 2
REMARK VINA RESULT: -7.848037827      1.053      1.357
REMARK  4 active torsions:
REMARK  status: ('A' for Active; 'I' for Inactive)
REMARK    1  A    between atoms: C4_6  and  C5_7 
REMARK    2  A    between atoms: N2_15  and  C11_16 
REMARK    3  A    between atoms: C11_16  and  C12_17 
REMARK    4  A    between atoms: C12_17  and  N3_18 
ROOT
HETATM    1  C1  UNL     1     185.630  24.198 524.841  1.00  0.00     0.034 C 
HETATM    2  C2  UNL     1     184.489  25.190 524.721  1.00  0.00     0.101 C 
HETATM    3  C3  UNL     1     183.540  24.972 525.868  1.00  0.00     0.144 C 
HETATM    4  N1  UNL     1     182.482  25.922 525.825  1.00  0.00    -0.386 N 
ATOM      5  H1  UNL     1     181.578  25.651 526.209  1.00  0.00     0.159 HD
HETATM    6  C4  UNL     1     182.600  27.102 525.329  1.00  0.00     0.078 C 
HETATM    7  C10 UNL     1     183.883  27.531 524.730  1.00  0.00     0.266 C 
HETATM    8  O1  UNL     1     183.960  28.666 524.271  1.00  0.00    -0.266 OA
HETATM    9  N2  UNL     1     184.927  26.564 524.746  1.00  0.00    -0.340 N 
ENDROOT
BRANCH   9  10
HETATM   10  C11 UNL     1     186.314  26.994 524.778  1.00  0.00     0.146 C 
BRANCH  10  11
HETATM   11  C12 UNL     1     186.481  28.110 525.794  1.00  0.00     0.147 C 
BRANCH  11  12
HETATM   12  N3  UNL     1     186.733  27.614 527.113  1.00  0.00    -0.331 N 
HETATM   13  C13 UNL     1     186.595  26.277 527.655  1.00  0.00     0.147 C 
HETATM   14  C14 UNL     1     186.158  26.566 529.089  1.00  0.00     0.144 C 
HETATM   15  N4  UNL     1     187.054  27.680 529.414  1.00  0.00    -0.341 N 
HETATM   16  C15 UNL     1     187.195  28.407 528.203  1.00  0.00     0.318 C 
ATOM     17  H4  UNL     1     187.483  27.888 530.315  1.00  0.00     0.164 HD
HETATM   18  O2  UNL     1     187.671  29.591 528.150  1.00  0.00    -0.247 OA
ENDBRANCH  11  12
ENDBRANCH  10  11
ENDBRANCH   9  10
BRANCH   6  19
HETATM   19  C5  UNL     1     181.435  27.983 525.349  1.00  0.00     0.050 C 
HETATM   20  C6  UNL     1     180.383  27.630 524.336  1.00  0.00     0.012 C 
HETATM   21  C7  UNL     1     179.038  28.191 524.654  1.00  0.00     0.011 C 
HETATM   22  C8  UNL     1     179.105  29.642 525.134  1.00  0.00     0.074 C 
HETATM   23  S1  UNL     1     179.845  29.554 526.813  1.00  0.00    -0.168 SA
HETATM   24  C9  UNL     1     180.905  28.056 526.759  1.00  0.00     0.084 C 
ENDBRANCH   6  19
TORSDOF 4
ENDMDL
MODEL 3
REMARK VINA RESULT: -7.370083643      1.945      4.087
REMARK  4 active torsions:
REMARK  status: ('A' for Active; 'I' for Inactive)
REMARK    1  A    between atoms: C4_6  and  C5_7 
REMARK    2  A    between atoms: N2_15  and  C11_16 
REMARK    3  A    between atoms: C11_16  and  C12_17 
REMARK    4  A    between atoms: C12_17  and  N3_18 
ROOT
HETATM    1  C1  UNL     1     187.036  28.378 527.683  1.00  0.00     0.034 C 
HETATM    2  C2  UNL     1     185.548  28.360 527.393  1.00  0.00     0.101 C 
HETATM    3  C3  UNL     1     185.206  29.563 526.558  1.00  0.00     0.144 C 
HETATM    4  N1  UNL     1     183.826  29.554 526.214  1.00  0.00    -0.386 N 
ATOM      5  H1  UNL     1     183.361  30.450 526.070  1.00  0.00     0.159 HD
HETATM    6  C4  UNL     1     183.130  28.483 526.076  1.00  0.00     0.078 C 
HETATM    7  C10 UNL     1     183.751  27.160 526.308  1.00  0.00     0.266 C 
HETATM    8  O1  UNL     1     183.057  26.158 526.162  1.00  0.00    -0.266 OA
HETATM    9  N2  UNL     1     185.123  27.178 526.685  1.00  0.00    -0.340 N 
ENDROOT
BRANCH   9  10
HETATM   10  C11 UNL     1     185.981  26.052 526.355  1.00  0.00     0.146 C 
BRANCH  10  11
HETATM   11  C12 UNL     1     186.711  26.329 525.053  1.00  0.00     0.147 C 
BRANCH  11  12
HETATM   12  N3  UNL     1     186.157  25.600 523.952  1.00  0.00    -0.331 N 
HETATM   13  C13 UNL     1     186.324  24.213 523.565  1.00  0.00     0.147 C 
HETATM   14  C14 UNL     1     186.272  24.306 522.043  1.00  0.00     0.144 C 
HETATM   15  N4  UNL     1     185.166  25.254 521.878  1.00  0.00    -0.341 N 
HETATM   16  C15 UNL     1     185.282  26.152 522.972  1.00  0.00     0.318 C 
ATOM     17  H4  UNL     1     184.465  25.266 521.138  1.00  0.00     0.164 HD
HETATM   18  O2  UNL     1     184.674  27.274 523.023  1.00  0.00    -0.247 OA
ENDBRANCH  11  12
ENDBRANCH  10  11
ENDBRANCH   9  10
BRANCH   6  19
HETATM   19  C5  UNL     1     181.720  28.611 525.717  1.00  0.00     0.050 C 
HETATM   20  C6  UNL     1     181.187  30.013 525.820  1.00  0.00     0.012 C 
HETATM   21  C7  UNL     1     179.943  30.236 525.028  1.00  0.00     0.011 C 
HETATM   22  C8  UNL     1     178.945  29.084 525.162  1.00  0.00     0.074 C 
HETATM   23  S1  UNL     1     179.699  27.691 524.232  1.00  0.00    -0.168 SA
HETATM   24  C9  UNL     1     181.506  27.990 524.360  1.00  0.00     0.084 C 
ENDBRANCH   6  19
TORSDOF 4
ENDMDL
MODEL 4
REMARK VINA RESULT: -7.335871248      1.814      3.847
REMARK  4 active torsions:
REMARK  status: ('A' for Active; 'I' for Inactive)
REMARK    1  A    between atoms: C4_6  and  C5_7 
REMARK    2  A    between atoms: N2_15  and  C11_16 
REMARK    3  A    between atoms: C11_16  and  C12_17 
REMARK    4  A    between atoms: C12_17  and  N3_18 
ROOT
HETATM    1  C1  UNL     1     186.986  27.015 527.681  1.00  0.00     0.034 C 
HETATM    2  C2  UNL     1     185.530  27.316 527.383  1.00  0.00     0.101 C 
HETATM    3  C3  UNL     1     185.456  28.590 526.588  1.00  0.00     0.144 C 
HETATM    4  N1  UNL     1     184.108  28.879 526.237  1.00  0.00    -0.386 N 
ATOM      5  H1  UNL     1     183.841  29.856 526.121  1.00  0.00     0.159 HD
HETATM    6  C4  UNL     1     183.207  27.981 526.058  1.00  0.00     0.078 C 
HETATM    7  C10 UNL     1     183.537  26.550 526.247  1.00  0.00     0.266 C 
HETATM    8  O1  UNL     1     182.653  25.720 526.063  1.00  0.00    -0.266 OA
HETATM    9  N2  UNL     1     184.878  26.271 526.632  1.00  0.00    -0.340 N 
ENDROOT
BRANCH   9  10
HETATM   10  C11 UNL     1     185.488  25.003 526.268  1.00  0.00     0.146 C 
BRANCH  10  11
HETATM   11  C12 UNL     1     186.531  25.228 525.187  1.00  0.00     0.147 C 
BRANCH  11  12
HETATM   12  N3  UNL     1     185.988  25.098 523.870  1.00  0.00    -0.331 N 
HETATM   13  C13 UNL     1     185.798  23.921 523.044  1.00  0.00     0.147 C 
HETATM   14  C14 UNL     1     186.044  24.479 521.645  1.00  0.00     0.144 C 
HETATM   15  N4  UNL     1     185.318  25.749 521.741  1.00  0.00    -0.341 N 
HETATM   16  C15 UNL     1     185.503  26.182 523.081  1.00  0.00     0.318 C 
ATOM     17  H4  UNL     1     184.794  26.221 521.005  1.00  0.00     0.164 HD
HETATM   18  O2  UNL     1     185.258  27.373 523.471  1.00  0.00    -0.247 OA
ENDBRANCH  11  12
ENDBRANCH  10  11
ENDBRANCH   9  10
BRANCH   6  19
HETATM   19  C5  UNL     1     181.859  28.411 525.697  1.00  0.00     0.050 C 
HETATM   20  C6  UNL     1     181.281  27.684 524.514  1.00  0.00     0.012 C 
HETATM   21  C7  UNL     1     179.794  27.762 524.438  1.00  0.00     0.011 C 
HETATM   22  C8  UNL     1     179.260  29.163 524.742  1.00  0.00     0.074 C 
HETATM   23  S1  UNL     1     179.522  29.390 526.546  1.00  0.00    -0.168 SA
HETATM   24  C9  UNL     1     180.983  28.344 526.924  1.00  0.00     0.084 C 
ENDBRANCH   6  19
TORSDOF 4
ENDMDL
MODEL 5
REMARK VINA RESULT: -7.316762268      2.006      3.954
REMARK  4 active torsions:
REMARK  status: ('A' for Active; 'I' for Inactive)
REMARK    1  A    between atoms: C4_6  and  C5_7 
REMARK    2  A    between atoms: N2_15  and  C11_16 
REMARK    3  A    between atoms: C11_16  and  C12_17 
REMARK    4  A    between atoms: C12_17  and  N3_18 
ROOT
HETATM    1  C1  UNL     1     186.659  26.019 527.993  1.00  0.00     0.034 C 
HETATM    2  C2  UNL     1     185.301  26.589 527.632  1.00  0.00     0.101 C 
HETATM    3  C3  UNL     1     185.480  28.018 527.198  1.00  0.00     0.144 C 
HETATM    4  N1  UNL     1     184.235  28.575 526.795  1.00  0.00    -0.386 N 
ATOM      5  H1  UNL     1     184.097  29.578 526.913  1.00  0.00     0.159 HD
HETATM    6  C4  UNL     1     183.273  27.887 526.292  1.00  0.00     0.078 C 
HETATM    7  C10 UNL     1     183.413  26.422 526.131  1.00  0.00     0.266 C 
HETATM    8  O1  UNL     1     182.476  25.799 525.642  1.00  0.00    -0.266 OA
HETATM    9  N2  UNL     1     184.647  25.868 526.568  1.00  0.00    -0.340 N 
ENDROOT
BRANCH   9  10
HETATM   10  C11 UNL     1     185.158  24.656 525.949  1.00  0.00     0.146 C 
BRANCH  10  11
HETATM   11  C12 UNL     1     186.314  24.999 525.027  1.00  0.00     0.147 C 
BRANCH  11  12
HETATM   12  N3  UNL     1     185.899  25.152 523.666  1.00  0.00    -0.331 N 
HETATM   13  C13 UNL     1     185.842  24.185 522.587  1.00  0.00     0.147 C 
HETATM   14  C14 UNL     1     186.186  25.048 521.376  1.00  0.00     0.144 C 
HETATM   15  N4  UNL     1     185.394  26.245 521.677  1.00  0.00    -0.341 N 
HETATM   16  C15 UNL     1     185.436  26.371 523.091  1.00  0.00     0.318 C 
ATOM     17  H4  UNL     1     184.916  26.854 521.014  1.00  0.00     0.164 HD
HETATM   18  O2  UNL     1     185.100  27.438 523.707  1.00  0.00    -0.247 OA
ENDBRANCH  11  12
ENDBRANCH  10  11
ENDBRANCH   9  10
BRANCH   6  19
HETATM   19  C5  UNL     1     182.044  28.582 525.916  1.00  0.00     0.050 C 
HETATM   20  C6  UNL     1     180.922  28.418 526.903  1.00  0.00     0.012 C 
HETATM   21  C7  UNL     1     179.870  29.468 526.787  1.00  0.00     0.011 C 
HETATM   22  C8  UNL     1     179.500  29.772 525.334  1.00  0.00     0.074 C 
HETATM   23  S1  UNL     1     180.951  30.666 524.650  1.00  0.00    -0.168 SA
HETATM   24  C9  UNL     1     182.372  30.024 525.620  1.00  0.00     0.084 C 
ENDBRANCH   6  19
TORSDOF 4
ENDMDL
