MODEL 1
REMARK VINA RESULT: -7.327743998      0.000      0.000
REMARK  9 active torsions:
REMARK  status: ('A' for Active; 'I' for Inactive)
REMARK    1  A    between atoms: C2_2  and  C3_3 
REMARK    2  A    between atoms: C3_3  and  C5_5 
REMARK    3  A    between atoms: C5_5  and  N1_6 
REMARK       I    between atoms: N1_6  and  C6_8 
REMARK    4  A    between atoms: C6_8  and  C7_10 
REMARK    5  A    between atoms: C7_10  and  N2_11 
REMARK    6  A    between atoms: C7_10  and  C21_28 
REMARK       I    between atoms: N2_11  and  C8_13 
REMARK    7  A    between atoms: C8_13  and  C9_15 
REMARK    8  A    between atoms: N3_20  and  C14_21 
REMARK    9  A    between atoms: C14_21  and  C15_22 
ROOT
HETATM    1  N2  UNL     1      41.216  -7.142  22.878  1.00  0.00    -0.345 N 
ATOM      2  H2  UNL     1      41.729  -6.309  23.166  1.00  0.00     0.163 HD
HETATM    3  C8  UNL     1      41.939  -8.293  22.466  1.00  0.00     0.257 C 
HETATM    4  O2  UNL     1      41.271  -9.298  22.118  1.00  0.00    -0.271 OA
ENDROOT
BRANCH   1   5
HETATM    5  C7  UNL     1      39.735  -7.123  22.900  1.00  0.00     0.180 C 
BRANCH   5   6
HETATM    6  C6  UNL     1      39.208  -6.529  21.673  1.00  0.00     0.240 C 
HETATM    7  N1  UNL     1      39.217  -5.125  21.433  1.00  0.00    -0.359 N 
ATOM      8  H1  UNL     1      39.603  -4.488  22.131  1.00  0.00     0.162 HD
HETATM    9  O1  UNL     1      38.722  -7.315  20.795  1.00  0.00    -0.271 OA
BRANCH   7  10
HETATM   10  C5  UNL     1      38.681  -4.610  20.208  1.00  0.00     0.126 C 
BRANCH  10  11
HETATM   11  C3  UNL     1      39.004  -3.136  20.077  1.00  0.00    -0.001 C 
HETATM   12  C4  UNL     1      37.766  -2.338  19.827  1.00  0.00     0.011 C 
BRANCH  11  13
HETATM   13  C2  UNL     1      39.687  -2.646  21.341  1.00  0.00     0.001 C 
HETATM   14  C1  UNL     1      39.739  -1.128  21.357  1.00  0.00     0.005 C 
ENDBRANCH  11  13
ENDBRANCH  10  11
ENDBRANCH   7  10
ENDBRANCH   5   6
BRANCH   5  15
HETATM   15  C21 UNL     1      39.379  -6.441  24.175  1.00  0.00     0.018 A 
HETATM   16  C22 UNL     1      38.581  -7.266  25.162  1.00  0.00     0.007 A 
HETATM   17  C23 UNL     1      40.002  -6.767  25.454  1.00  0.00     0.007 A 
ENDBRANCH   5  15
ENDBRANCH   1   5
BRANCH   3  18
HETATM   18  C9  UNL     1      43.402  -8.230  22.476  1.00  0.00     0.235 C 
HETATM   19  C10 UNL     1      43.991  -7.347  23.521  1.00  0.00     0.060 C 
HETATM   20  C11 UNL     1      43.878  -9.660  22.790  1.00  0.00     0.053 C 
HETATM   21  C12 UNL     1      45.319  -9.532  22.349  1.00  0.00     0.033 C 
HETATM   22  C13 UNL     1      45.359  -8.358  21.381  1.00  0.00     0.274 C 
HETATM   23  N3  UNL     1      43.978  -8.066  21.150  1.00  0.00     0.107 N 
BRANCH  23  24
HETATM   24  C14 UNL     1      43.747  -6.781  20.609  1.00  0.00     0.278 C 
BRANCH  24  25
HETATM   25  C15 UNL     1      42.937  -6.780  19.354  1.00  0.00     0.014 C 
HETATM   26  C16 UNL     1      42.016  -5.577  19.218  1.00  0.00     0.006 C 
HETATM   27  C17 UNL     1      41.464  -5.615  17.807  1.00  0.00     0.000 C 
HETATM   28  C18 UNL     1      40.507  -6.764  17.748  1.00  0.00     0.000 C 
HETATM   29  C19 UNL     1      40.945  -8.015  18.409  1.00  0.00     0.000 C 
HETATM   30  C20 UNL     1      42.389  -8.052  18.855  1.00  0.00     0.006 C 
ENDBRANCH  24  25
ENDBRANCH  23  24
ENDBRANCH   3  18
TORSDOF 9
ENDMDL
MODEL 2
REMARK VINA RESULT: -7.321536502      1.717      5.209
REMARK  9 active torsions:
REMARK  status: ('A' for Active; 'I' for Inactive)
REMARK    1  A    between atoms: C2_2  and  C3_3 
REMARK    2  A    between atoms: C3_3  and  C5_5 
REMARK    3  A    between atoms: C5_5  and  N1_6 
REMARK       I    between atoms: N1_6  and  C6_8 
REMARK    4  A    between atoms: C6_8  and  C7_10 
REMARK    5  A    between atoms: C7_10  and  N2_11 
REMARK    6  A    between atoms: C7_10  and  C21_28 
REMARK       I    between atoms: N2_11  and  C8_13 
REMARK    7  A    between atoms: C8_13  and  C9_15 
REMARK    8  A    between atoms: N3_20  and  C14_21 
REMARK    9  A    between atoms: C14_21  and  C15_22 
ROOT
HETATM    1  N2  UNL     1      41.190  -8.256  21.328  1.00  0.00    -0.345 N 
ATOM      2  H2  UNL     1      42.176  -8.001  21.367  1.00  0.00     0.163 HD
HETATM    3  C8  UNL     1      40.471  -8.063  20.118  1.00  0.00     0.257 C 
HETATM    4  O2  UNL     1      39.258  -8.388  20.112  1.00  0.00    -0.271 OA
ENDROOT
BRANCH   1   5
HETATM    5  C7  UNL     1      40.540  -8.817  22.535  1.00  0.00     0.180 C 
BRANCH   5   6
HETATM    6  C6  UNL     1      40.019  -7.750  23.386  1.00  0.00     0.240 C 
HETATM    7  N1  UNL     1      39.142  -7.998  24.481  1.00  0.00    -0.359 N 
ATOM      8  H1  UNL     1      38.854  -8.952  24.700  1.00  0.00     0.162 HD
HETATM    9  O1  UNL     1      40.371  -6.554  23.120  1.00  0.00    -0.271 OA
BRANCH   7  10
HETATM   10  C5  UNL     1      38.667  -6.903  25.273  1.00  0.00     0.126 C 
BRANCH  10  11
HETATM   11  C3  UNL     1      39.293  -6.946  26.651  1.00  0.00    -0.001 C 
HETATM   12  C4  UNL     1      39.854  -8.300  26.940  1.00  0.00     0.011 C 
BRANCH  11  13
HETATM   13  C2  UNL     1      40.391  -5.901  26.747  1.00  0.00     0.001 C 
HETATM   14  C1  UNL     1      41.748  -6.574  26.865  1.00  0.00     0.005 C 
ENDBRANCH  11  13
ENDBRANCH  10  11
ENDBRANCH   7  10
ENDBRANCH   5   6
BRANCH   5  15
HETATM   15  C21 UNL     1      41.566  -9.710  23.142  1.00  0.00     0.018 A 
HETATM   16  C22 UNL     1      43.007  -9.305  22.919  1.00  0.00     0.007 A 
HETATM   17  C23 UNL     1      42.359  -9.336  24.309  1.00  0.00     0.007 A 
ENDBRANCH   5  15
ENDBRANCH   1   5
BRANCH   3  18
HETATM   18  C9  UNL     1      41.188  -7.504  18.970  1.00  0.00     0.235 C 
HETATM   19  C10 UNL     1      42.673  -7.545  19.069  1.00  0.00     0.060 C 
HETATM   20  C11 UNL     1      40.803  -8.388  17.769  1.00  0.00     0.053 C 
HETATM   21  C12 UNL     1      41.241  -7.469  16.650  1.00  0.00     0.033 C 
HETATM   22  C13 UNL     1      41.273  -6.069  17.245  1.00  0.00     0.274 C 
HETATM   23  N3  UNL     1      40.646  -6.231  18.520  1.00  0.00     0.107 N 
BRANCH  23  24
HETATM   24  C14 UNL     1      40.907  -5.177  19.425  1.00  0.00     0.278 C 
BRANCH  24  25
HETATM   25  C15 UNL     1      39.691  -4.426  19.859  1.00  0.00     0.014 C 
HETATM   26  C16 UNL     1      38.831  -3.932  18.706  1.00  0.00     0.006 C 
HETATM   27  C17 UNL     1      37.544  -3.416  19.319  1.00  0.00     0.000 C 
HETATM   28  C18 UNL     1      37.886  -2.146  20.034  1.00  0.00     0.000 C 
HETATM   29  C19 UNL     1      39.136  -2.158  20.828  1.00  0.00     0.000 C 
HETATM   30  C20 UNL     1      39.786  -3.511  21.009  1.00  0.00     0.006 C 
ENDBRANCH  24  25
ENDBRANCH  23  24
ENDBRANCH   3  18
TORSDOF 9
ENDMDL
MODEL 3
REMARK VINA RESULT: -7.208376340      1.647      4.435
REMARK  9 active torsions:
REMARK  status: ('A' for Active; 'I' for Inactive)
REMARK    1  A    between atoms: C2_2  and  C3_3 
REMARK    2  A    between atoms: C3_3  and  C5_5 
REMARK    3  A    between atoms: C5_5  and  N1_6 
REMARK       I    between atoms: N1_6  and  C6_8 
REMARK    4  A    between atoms: C6_8  and  C7_10 
REMARK    5  A    between atoms: C7_10  and  N2_11 
REMARK    6  A    between atoms: C7_10  and  C21_28 
REMARK       I    between atoms: N2_11  and  C8_13 
REMARK    7  A    between atoms: C8_13  and  C9_15 
REMARK    8  A    between atoms: N3_20  and  C14_21 
REMARK    9  A    between atoms: C14_21  and  C15_22 
ROOT
HETATM    1  N2  UNL     1      42.253  -7.580  19.418  1.00  0.00    -0.345 N 
ATOM      2  H2  UNL     1      42.428  -8.580  19.516  1.00  0.00     0.163 HD
HETATM    3  C8  UNL     1      42.878  -6.675  20.317  1.00  0.00     0.257 C 
HETATM    4  O2  UNL     1      42.636  -5.452  20.163  1.00  0.00    -0.271 OA
ENDROOT
BRANCH   1   5
HETATM    5  C7  UNL     1      41.352  -7.107  18.342  1.00  0.00     0.180 C 
BRANCH   5   6
HETATM    6  C6  UNL     1      40.173  -6.452  18.905  1.00  0.00     0.240 C 
HETATM    7  N1  UNL     1      39.863  -5.083  18.662  1.00  0.00    -0.359 N 
ATOM      8  H1  UNL     1      40.473  -4.517  18.072  1.00  0.00     0.162 HD
HETATM    9  O1  UNL     1      39.404  -7.150  19.645  1.00  0.00    -0.271 OA
BRANCH   7  10
HETATM   10  C5  UNL     1      38.691  -4.505  19.249  1.00  0.00     0.126 C 
BRANCH  10  11
HETATM   11  C3  UNL     1      39.050  -3.227  19.979  1.00  0.00    -0.001 C 
HETATM   12  C4  UNL     1      37.880  -2.299  20.035  1.00  0.00     0.011 C 
BRANCH  11  13
HETATM   13  C2  UNL     1      39.517  -3.554  21.386  1.00  0.00     0.001 C 
HETATM   14  C1  UNL     1      39.491  -2.307  22.252  1.00  0.00     0.005 C 
ENDBRANCH  11  13
ENDBRANCH  10  11
ENDBRANCH   7  10
ENDBRANCH   5   6
BRANCH   5  15
HETATM   15  C21 UNL     1      41.105  -8.305  17.493  1.00  0.00     0.018 A 
HETATM   16  C22 UNL     1      39.969  -8.187  16.500  1.00  0.00     0.007 A 
HETATM   17  C23 UNL     1      41.432  -8.356  16.071  1.00  0.00     0.007 A 
ENDBRANCH   5  15
ENDBRANCH   1   5
BRANCH   3  18
HETATM   18  C9  UNL     1      43.757  -7.225  21.351  1.00  0.00     0.235 C 
HETATM   19  C10 UNL     1      44.734  -8.243  20.877  1.00  0.00     0.060 C 
HETATM   20  C11 UNL     1      44.581  -6.034  21.873  1.00  0.00     0.053 C 
HETATM   21  C12 UNL     1      45.085  -6.642  23.162  1.00  0.00     0.033 C 
HETATM   22  C13 UNL     1      44.122  -7.772  23.498  1.00  0.00     0.274 C 
HETATM   23  N3  UNL     1      43.049  -7.586  22.570  1.00  0.00     0.107 N 
BRANCH  23  24
HETATM   24  C14 UNL     1      42.228  -8.725  22.408  1.00  0.00     0.278 C 
BRANCH  24  25
HETATM   25  C15 UNL     1      40.775  -8.472  22.644  1.00  0.00     0.014 C 
HETATM   26  C16 UNL     1      40.467  -7.061  23.122  1.00  0.00     0.006 C 
HETATM   27  C17 UNL     1      38.960  -6.910  23.077  1.00  0.00     0.000 C 
HETATM   28  C18 UNL     1      38.408  -7.754  24.184  1.00  0.00     0.000 C 
HETATM   29  C19 UNL     1      39.018  -9.094  24.350  1.00  0.00     0.000 C 
HETATM   30  C20 UNL     1      39.951  -9.533  23.246  1.00  0.00     0.006 C 
ENDBRANCH  24  25
ENDBRANCH  23  24
ENDBRANCH   3  18
TORSDOF 9
ENDMDL
MODEL 4
REMARK VINA RESULT: -7.164235086      1.806      5.208
REMARK  9 active torsions:
REMARK  status: ('A' for Active; 'I' for Inactive)
REMARK    1  A    between atoms: C2_2  and  C3_3 
REMARK    2  A    between atoms: C3_3  and  C5_5 
REMARK    3  A    between atoms: C5_5  and  N1_6 
REMARK       I    between atoms: N1_6  and  C6_8 
REMARK    4  A    between atoms: C6_8  and  C7_10 
REMARK    5  A    between atoms: C7_10  and  N2_11 
REMARK    6  A    between atoms: C7_10  and  C21_28 
REMARK       I    between atoms: N2_11  and  C8_13 
REMARK    7  A    between atoms: C8_13  and  C9_15 
REMARK    8  A    between atoms: N3_20  and  C14_21 
REMARK    9  A    between atoms: C14_21  and  C15_22 
ROOT
HETATM    1  N2  UNL     1      42.575  -6.419  21.813  1.00  0.00    -0.345 N 
ATOM      2  H2  UNL     1      42.305  -5.703  22.488  1.00  0.00     0.163 HD
HETATM    3  C8  UNL     1      41.804  -7.608  21.717  1.00  0.00     0.257 C 
HETATM    4  O2  UNL     1      42.171  -8.464  20.875  1.00  0.00    -0.271 OA
ENDROOT
BRANCH   1   5
HETATM    5  C7  UNL     1      43.763  -6.194  20.958  1.00  0.00     0.180 C 
BRANCH   5   6
HETATM    6  C6  UNL     1      43.362  -5.789  19.612  1.00  0.00     0.240 C 
HETATM    7  N1  UNL     1      42.166  -6.255  18.994  1.00  0.00    -0.359 N 
ATOM      8  H1  UNL     1      41.548  -6.896  19.492  1.00  0.00     0.162 HD
HETATM    9  O1  UNL     1      44.128  -4.990  18.980  1.00  0.00    -0.271 OA
BRANCH   7  10
HETATM   10  C5  UNL     1      41.835  -5.820  17.670  1.00  0.00     0.126 C 
BRANCH  10  11
HETATM   11  C3  UNL     1      40.826  -6.763  17.048  1.00  0.00    -0.001 C 
HETATM   12  C4  UNL     1      41.215  -7.113  15.649  1.00  0.00     0.011 C 
BRANCH  11  13
HETATM   13  C2  UNL     1      40.720  -8.025  17.885  1.00  0.00     0.001 C 
HETATM   14  C1  UNL     1      39.268  -8.453  18.012  1.00  0.00     0.005 C 
ENDBRANCH  11  13
ENDBRANCH  10  11
ENDBRANCH   7  10
ENDBRANCH   5   6
BRANCH   5  15
HETATM   15  C21 UNL     1      44.557  -7.449  21.066  1.00  0.00     0.018 A 
HETATM   16  C22 UNL     1      46.059  -7.274  21.148  1.00  0.00     0.007 A 
HETATM   17  C23 UNL     1      45.227  -7.865  22.294  1.00  0.00     0.007 A 
ENDBRANCH   5  15
ENDBRANCH   1   5
BRANCH   3  18
HETATM   18  C9  UNL     1      40.643  -7.751  22.598  1.00  0.00     0.235 C 
HETATM   19  C10 UNL     1      39.977  -9.083  22.559  1.00  0.00     0.060 C 
HETATM   20  C11 UNL     1      41.182  -7.571  24.029  1.00  0.00     0.053 C 
HETATM   21  C12 UNL     1      39.874  -7.314  24.743  1.00  0.00     0.033 C 
HETATM   22  C13 UNL     1      38.900  -6.834  23.677  1.00  0.00     0.274 C 
HETATM   23  N3  UNL     1      39.733  -6.617  22.535  1.00  0.00     0.107 N 
BRANCH  23  24
HETATM   24  C14 UNL     1      39.024  -6.553  21.313  1.00  0.00     0.278 C 
BRANCH  24  25
HETATM   25  C15 UNL     1      39.206  -5.274  20.564  1.00  0.00     0.014 C 
HETATM   26  C16 UNL     1      39.320  -4.049  21.460  1.00  0.00     0.006 C 
HETATM   27  C17 UNL     1      39.735  -2.898  20.566  1.00  0.00     0.000 C 
HETATM   28  C18 UNL     1      38.551  -2.566  19.712  1.00  0.00     0.000 C 
HETATM   29  C19 UNL     1      37.807  -3.716  19.148  1.00  0.00     0.000 C 
HETATM   30  C20 UNL     1      38.467  -5.067  19.308  1.00  0.00     0.006 C 
ENDBRANCH  24  25
ENDBRANCH  23  24
ENDBRANCH   3  18
TORSDOF 9
ENDMDL
MODEL 5
REMARK VINA RESULT: -7.134041162      1.873      5.256
REMARK  9 active torsions:
REMARK  status: ('A' for Active; 'I' for Inactive)
REMARK    1  A    between atoms: C2_2  and  C3_3 
REMARK    2  A    between atoms: C3_3  and  C5_5 
REMARK    3  A    between atoms: C5_5  and  N1_6 
REMARK       I    between atoms: N1_6  and  C6_8 
REMARK    4  A    between atoms: C6_8  and  C7_10 
REMARK    5  A    between atoms: C7_10  and  N2_11 
REMARK    6  A    between atoms: C7_10  and  C21_28 
REMARK       I    between atoms: N2_11  and  C8_13 
REMARK    7  A    between atoms: C8_13  and  C9_15 
REMARK    8  A    between atoms: N3_20  and  C14_21 
REMARK    9  A    between atoms: C14_21  and  C15_22 
ROOT
HETATM    1  N2  UNL     1      40.685  -6.530  19.703  1.00  0.00    -0.345 N 
ATOM      2  H2  UNL     1      40.285  -7.465  19.633  1.00  0.00     0.163 HD
HETATM    3  C8  UNL     1      41.509  -6.209  20.814  1.00  0.00     0.257 C 
HETATM    4  O2  UNL     1      41.982  -5.046  20.863  1.00  0.00    -0.271 OA
ENDROOT
BRANCH   1   5
HETATM    5  C7  UNL     1      40.393  -5.539  18.642  1.00  0.00     0.180 C 
BRANCH   5   6
HETATM    6  C6  UNL     1      39.230  -4.728  18.998  1.00  0.00     0.240 C 
HETATM    7  N1  UNL     1      39.338  -3.511  19.731  1.00  0.00    -0.359 N 
ATOM      8  H1  UNL     1      40.252  -3.171  20.029  1.00  0.00     0.162 HD
HETATM    9  O1  UNL     1      38.082  -5.144  18.633  1.00  0.00    -0.271 OA
BRANCH   7  10
HETATM   10  C5  UNL     1      38.155  -2.767  20.049  1.00  0.00     0.126 C 
BRANCH  10  11
HETATM   11  C3  UNL     1      38.511  -1.325  20.348  1.00  0.00    -0.001 C 
HETATM   12  C4  UNL     1      37.368  -0.618  21.001  1.00  0.00     0.011 C 
BRANCH  11  13
HETATM   13  C2  UNL     1      39.731  -1.276  21.251  1.00  0.00     0.001 C 
HETATM   14  C1  UNL     1      39.380  -1.785  22.639  1.00  0.00     0.005 C 
ENDBRANCH  11  13
ENDBRANCH  10  11
ENDBRANCH   7  10
ENDBRANCH   5   6
BRANCH   5  15
HETATM   15  C21 UNL     1      40.288  -6.337  17.389  1.00  0.00     0.018 A 
HETATM   16  C22 UNL     1      41.384  -6.111  16.369  1.00  0.00     0.007 A 
HETATM   17  C23 UNL     1      41.174  -7.455  17.079  1.00  0.00     0.007 A 
ENDBRANCH   5  15
ENDBRANCH   1   5
BRANCH   3  18
HETATM   18  C9  UNL     1      41.751  -7.247  21.818  1.00  0.00     0.235 C 
HETATM   19  C10 UNL     1      41.331  -8.620  21.423  1.00  0.00     0.060 C 
HETATM   20  C11 UNL     1      43.277  -7.293  22.010  1.00  0.00     0.053 C 
HETATM   21  C12 UNL     1      43.328  -8.050  23.319  1.00  0.00     0.033 C 
HETATM   22  C13 UNL     1      41.966  -7.856  23.969  1.00  0.00     0.274 C 
HETATM   23  N3  UNL     1      41.347  -6.853  23.159  1.00  0.00     0.107 N 
BRANCH  23  24
HETATM   24  C14 UNL     1      39.942  -6.782  23.308  1.00  0.00     0.278 C 
BRANCH  24  25
HETATM   25  C15 UNL     1      39.409  -7.556  24.469  1.00  0.00     0.014 C 
HETATM   26  C16 UNL     1      38.588  -8.773  24.071  1.00  0.00     0.006 C 
HETATM   27  C17 UNL     1      38.337  -9.558  25.343  1.00  0.00     0.000 C 
HETATM   28  C18 UNL     1      37.364  -8.763  26.157  1.00  0.00     0.000 C 
HETATM   29  C19 UNL     1      37.603  -7.302  26.218  1.00  0.00     0.000 C 
HETATM   30  C20 UNL     1      38.921  -6.827  25.651  1.00  0.00     0.006 C 
ENDBRANCH  24  25
ENDBRANCH  23  24
ENDBRANCH   3  18
TORSDOF 9
ENDMDL
