MODEL 1
REMARK VINA RESULT: -7.854222703      0.000      0.000
REMARK  5 active torsions:
REMARK  status: ('A' for Active; 'I' for Inactive)
REMARK    1  A    between atoms: O1_2  and  C2_3 
REMARK    2  A    between atoms: C2_3  and  C3_4 
REMARK    3  A    between atoms: C3_4  and  N1_5 
REMARK    4  A    between atoms: N1_5  and  C4_7 
REMARK    5  A    between atoms: C5_12  and  C6_13 
ROOT
HETATM    1  C4  UNL     1      14.578 -15.640   7.389  1.00  0.00     0.147 A 
HETATM    2  N2  UNL     1      15.393 -16.453   8.103  1.00  0.00    -0.283 N 
ATOM      3  H2  UNL     1      15.857 -17.236   7.643  1.00  0.00     0.188 HD
HETATM    4  N3  UNL     1      15.592 -16.236   9.400  1.00  0.00    -0.292 N 
ATOM      5  H3  UNL     1      16.214 -16.873   9.898  1.00  0.00     0.187 HD
HETATM    6  C5  UNL     1      15.033 -15.239  10.100  1.00  0.00     0.143 A 
HETATM    7  C7  UNL     1      14.202 -14.396   9.404  1.00  0.00     0.111 A 
HETATM    8  N5  UNL     1      13.501 -13.323   9.805  1.00  0.00    -0.279 N 
ATOM      9  H5  UNL     1      13.469 -12.933  10.747  1.00  0.00     0.184 HD
HETATM   10  N6  UNL     1      12.852 -12.864   8.722  1.00  0.00    -0.021 NA
HETATM   11  N7  UNL     1      13.133 -13.627   7.668  1.00  0.00    -0.278 N 
ATOM     12  H7  UNL     1      12.773 -13.500   6.722  1.00  0.00     0.184 HD
HETATM   13  C8  UNL     1      13.969 -14.584   8.065  1.00  0.00     0.121 A 
ENDROOT
BRANCH   1  14
HETATM   14  N1  UNL     1      14.349 -15.794   6.153  1.00  0.00    -0.362 N 
ATOM     15  H1  UNL     1      14.942 -15.218   5.557  1.00  0.00     0.162 HD
BRANCH  14  16
HETATM   16  C3  UNL     1      13.439 -16.603   5.430  1.00  0.00     0.056 C 
HETATM   17  C9  UNL     1      12.185 -15.819   5.129  1.00  0.00     0.060 C 
HETATM   18  C10 UNL     1      11.867 -15.784   3.658  1.00  0.00     0.235 C 
HETATM   19  N8  UNL     1      12.935 -15.297   2.840  1.00  0.00    -0.075 N 
HETATM   20  C11 UNL     1      14.241 -15.702   3.259  1.00  0.00     0.235 C 
ATOM     21  H82 UNL     1      12.780 -15.555   1.865  1.00  0.00     0.277 HD
ATOM     22  H81 UNL     1      12.888 -14.281   2.762  1.00  0.00     0.277 HD
HETATM   23  C12 UNL     1      14.081 -16.974   4.083  1.00  0.00     0.060 C 
BRANCH  16  24
HETATM   24  C2  UNL     1      13.204 -17.897   6.142  1.00  0.00     0.198 C 
BRANCH  24  25
HETATM   25  O1  UNL     1      11.878 -18.335   6.021  1.00  0.00    -0.393 OA
HETATM   26  C1  UNL     1      11.826 -19.524   5.296  1.00  0.00     0.201 C 
ENDBRANCH  24  25
ENDBRANCH  16  24
ENDBRANCH  14  16
ENDBRANCH   1  14
BRANCH   6  27
HETATM   27  C6  UNL     1      15.350 -15.138  11.504  1.00  0.00     0.285 C 
HETATM   28  N4  UNL     1      16.586 -15.583  12.036  1.00  0.00    -0.056 NA
HETATM   29  O2  UNL     1      14.523 -14.645  12.298  1.00  0.00    -0.269 OA
ENDBRANCH   6  27
TORSDOF 5
ENDMDL
MODEL 2
REMARK VINA RESULT: -7.827389000      2.558      3.761
REMARK  5 active torsions:
REMARK  status: ('A' for Active; 'I' for Inactive)
REMARK    1  A    between atoms: O1_2  and  C2_3 
REMARK    2  A    between atoms: C2_3  and  C3_4 
REMARK    3  A    between atoms: C3_4  and  N1_5 
REMARK    4  A    between atoms: N1_5  and  C4_7 
REMARK    5  A    between atoms: C5_12  and  C6_13 
ROOT
HETATM    1  C4  UNL     1      15.623 -16.523   8.729  1.00  0.00     0.147 A 
HETATM    2  N2  UNL     1      15.561 -17.850   8.469  1.00  0.00    -0.283 N 
ATOM      3  H2  UNL     1      15.581 -18.179   7.504  1.00  0.00     0.188 HD
HETATM    4  N3  UNL     1      15.475 -18.728   9.464  1.00  0.00    -0.292 N 
ATOM      5  H3  UNL     1      15.431 -19.718   9.221  1.00  0.00     0.187 HD
HETATM    6  C5  UNL     1      15.442 -18.405  10.764  1.00  0.00     0.143 A 
HETATM    7  C7  UNL     1      15.504 -17.066  11.062  1.00  0.00     0.111 A 
HETATM    8  N5  UNL     1      15.493 -16.425  12.242  1.00  0.00    -0.279 N 
ATOM      9  H5  UNL     1      15.434 -16.851  13.166  1.00  0.00     0.184 HD
HETATM   10  N6  UNL     1      15.575 -15.113  11.965  1.00  0.00    -0.021 NA
HETATM   11  N7  UNL     1      15.635 -14.930  10.648  1.00  0.00    -0.278 N 
ATOM     12  H7  UNL     1      15.703 -14.032  10.170  1.00  0.00     0.184 HD
HETATM   13  C8  UNL     1      15.593 -16.126  10.066  1.00  0.00     0.121 A 
ENDROOT
BRANCH   1  14
HETATM   14  N1  UNL     1      15.706 -15.639   7.826  1.00  0.00    -0.362 N 
ATOM     15  H1  UNL     1      16.576 -15.109   7.857  1.00  0.00     0.162 HD
BRANCH  14  16
HETATM   16  C3  UNL     1      14.838 -15.236   6.782  1.00  0.00     0.056 C 
HETATM   17  C9  UNL     1      13.403 -15.356   7.234  1.00  0.00     0.060 C 
HETATM   18  C10 UNL     1      12.645 -14.062   7.095  1.00  0.00     0.235 C 
HETATM   19  N8  UNL     1      13.257 -12.951   7.757  1.00  0.00    -0.075 N 
HETATM   20  C11 UNL     1      14.686 -12.930   7.692  1.00  0.00     0.235 C 
ATOM     21  H82 UNL     1      12.874 -12.074   7.404  1.00  0.00     0.277 HD
ATOM     22  H81 UNL     1      12.946 -12.901   8.727  1.00  0.00     0.277 HD
HETATM   23  C12 UNL     1      15.099 -13.752   6.476  1.00  0.00     0.060 C 
BRANCH  16  24
HETATM   24  C2  UNL     1      15.153 -15.975   5.521  1.00  0.00     0.198 C 
BRANCH  24  25
HETATM   25  O1  UNL     1      14.668 -17.291   5.543  1.00  0.00    -0.393 OA
HETATM   26  C1  UNL     1      14.281 -17.685   4.265  1.00  0.00     0.201 C 
ENDBRANCH  24  25
ENDBRANCH  16  24
ENDBRANCH  14  16
ENDBRANCH   1  14
BRANCH   6  27
HETATM   27  C6  UNL     1      15.347 -19.476  11.726  1.00  0.00     0.285 C 
HETATM   28  N4  UNL     1      14.764 -19.296  13.005  1.00  0.00    -0.056 NA
HETATM   29  O2  UNL     1      15.787 -20.609  11.445  1.00  0.00    -0.269 OA
ENDBRANCH   6  27
TORSDOF 5
ENDMDL
MODEL 3
REMARK VINA RESULT: -7.695695742      2.883      4.221
REMARK  5 active torsions:
REMARK  status: ('A' for Active; 'I' for Inactive)
REMARK    1  A    between atoms: O1_2  and  C2_3 
REMARK    2  A    between atoms: C2_3  and  C3_4 
REMARK    3  A    between atoms: C3_4  and  N1_5 
REMARK    4  A    between atoms: N1_5  and  C4_7 
REMARK    5  A    between atoms: C5_12  and  C6_13 
ROOT
HETATM    1  C4  UNL     1      15.892 -16.893   8.969  1.00  0.00     0.147 A 
HETATM    2  N2  UNL     1      15.520 -18.187   8.822  1.00  0.00    -0.283 N 
ATOM      3  H2  UNL     1      15.377 -18.570   7.888  1.00  0.00     0.188 HD
HETATM    4  N3  UNL     1      15.341 -18.961   9.888  1.00  0.00    -0.292 N 
ATOM      5  H3  UNL     1      15.062 -19.929   9.730  1.00  0.00     0.187 HD
HETATM    6  C5  UNL     1      15.502 -18.559  11.157  1.00  0.00     0.143 A 
HETATM    7  C7  UNL     1      15.880 -17.252  11.339  1.00  0.00     0.111 A 
HETATM    8  N5  UNL     1      16.119 -16.553  12.461  1.00  0.00    -0.279 N 
ATOM      9  H5  UNL     1      16.057 -16.898  13.419  1.00  0.00     0.184 HD
HETATM   10  N6  UNL     1      16.457 -15.312  12.075  1.00  0.00    -0.021 NA
HETATM   11  N7  UNL     1      16.430 -15.228  10.746  1.00  0.00    -0.278 N 
ATOM     12  H7  UNL     1      16.645 -14.399  10.193  1.00  0.00     0.184 HD
HETATM   13  C8  UNL     1      16.076 -16.418  10.267  1.00  0.00     0.121 A 
ENDROOT
BRANCH   1  14
HETATM   14  N1  UNL     1      16.079 -16.107   7.994  1.00  0.00    -0.362 N 
ATOM     15  H1  UNL     1      17.062 -15.986   7.753  1.00  0.00     0.162 HD
BRANCH  14  16
HETATM   16  C3  UNL     1      15.201 -15.361   7.169  1.00  0.00     0.056 C 
HETATM   17  C9  UNL     1      15.995 -14.418   6.298  1.00  0.00     0.060 C 
HETATM   18  C10 UNL     1      15.704 -14.604   4.832  1.00  0.00     0.235 C 
HETATM   19  N8  UNL     1      15.888 -15.945   4.365  1.00  0.00    -0.075 N 
HETATM   20  C11 UNL     1      15.484 -16.960   5.289  1.00  0.00     0.235 C 
ATOM     21  H82 UNL     1      15.418 -16.075   3.469  1.00  0.00     0.277 HD
ATOM     22  H81 UNL     1      16.856 -16.091   4.079  1.00  0.00     0.277 HD
HETATM   23  C12 UNL     1      14.465 -16.336   6.235  1.00  0.00     0.060 C 
BRANCH  16  24
HETATM   24  C2  UNL     1      14.141 -14.700   7.990  1.00  0.00     0.198 C 
BRANCH  24  25
HETATM   25  O1  UNL     1      14.638 -13.610   8.719  1.00  0.00    -0.393 OA
HETATM   26  C1  UNL     1      13.629 -13.048   9.497  1.00  0.00     0.201 C 
ENDBRANCH  24  25
ENDBRANCH  16  24
ENDBRANCH  14  16
ENDBRANCH   1  14
BRANCH   6  27
HETATM   27  C6  UNL     1      15.269 -19.522  12.206  1.00  0.00     0.285 C 
HETATM   28  N4  UNL     1      15.731 -20.859  12.123  1.00  0.00    -0.056 NA
HETATM   29  O2  UNL     1      14.641 -19.190  13.231  1.00  0.00    -0.269 OA
ENDBRANCH   6  27
TORSDOF 5
ENDMDL
MODEL 4
REMARK VINA RESULT: -7.668920655      1.015      2.353
REMARK  5 active torsions:
REMARK  status: ('A' for Active; 'I' for Inactive)
REMARK    1  A    between atoms: O1_2  and  C2_3 
REMARK    2  A    between atoms: C2_3  and  C3_4 
REMARK    3  A    between atoms: C3_4  and  N1_5 
REMARK    4  A    between atoms: N1_5  and  C4_7 
REMARK    5  A    between atoms: C5_12  and  C6_13 
ROOT
HETATM    1  C4  UNL     1      14.743 -15.837   7.388  1.00  0.00     0.147 A 
HETATM    2  N2  UNL     1      14.130 -14.846   8.078  1.00  0.00    -0.283 N 
ATOM      3  H2  UNL     1      13.471 -14.231   7.602  1.00  0.00     0.188 HD
HETATM    4  N3  UNL     1      14.383 -14.671   9.372  1.00  0.00    -0.292 N 
ATOM      5  H3  UNL     1      13.899 -13.912   9.851  1.00  0.00     0.187 HD
HETATM    6  C5  UNL     1      15.229 -15.421  10.090  1.00  0.00     0.143 A 
HETATM    7  C7  UNL     1      15.866 -16.436   9.420  1.00  0.00     0.111 A 
HETATM    8  N5  UNL     1      16.756 -17.348   9.843  1.00  0.00    -0.279 N 
ATOM      9  H5  UNL     1      17.128 -17.444  10.788  1.00  0.00     0.184 HD
HETATM   10  N6  UNL     1      17.061 -18.108   8.778  1.00  0.00    -0.021 NA
HETATM   11  N7  UNL     1      16.383 -17.688   7.713  1.00  0.00    -0.278 N 
ATOM     12  H7  UNL     1      16.428 -18.090   6.776  1.00  0.00     0.184 HD
HETATM   13  C8  UNL     1      15.635 -16.652   8.084  1.00  0.00     0.121 A 
ENDROOT
BRANCH   1  14
HETATM   14  N1  UNL     1      14.544 -16.055   6.156  1.00  0.00    -0.362 N 
ATOM     15  H1  UNL     1      15.256 -15.645   5.552  1.00  0.00     0.162 HD
BRANCH  14  16
HETATM   16  C3  UNL     1      13.535 -16.750   5.446  1.00  0.00     0.056 C 
HETATM   17  C9  UNL     1      12.356 -15.839   5.207  1.00  0.00     0.060 C 
HETATM   18  C10 UNL     1      11.996 -15.733   3.748  1.00  0.00     0.235 C 
HETATM   19  N8  UNL     1      13.081 -15.332   2.905  1.00  0.00    -0.075 N 
HETATM   20  C11 UNL     1      14.353 -15.875   3.270  1.00  0.00     0.235 C 
ATOM     21  H82 UNL     1      12.870 -15.547   1.931  1.00  0.00     0.277 HD
ATOM     22  H81 UNL     1      13.133 -14.314   2.854  1.00  0.00     0.277 HD
HETATM   23  C12 UNL     1      14.094 -17.147   4.069  1.00  0.00     0.060 C 
BRANCH  16  24
HETATM   24  C2  UNL     1      13.195 -18.033   6.135  1.00  0.00     0.198 C 
BRANCH  24  25
HETATM   25  O1  UNL     1      11.855 -18.399   5.943  1.00  0.00    -0.393 OA
HETATM   26  C1  UNL     1      11.777 -19.595   5.235  1.00  0.00     0.201 C 
ENDBRANCH  24  25
ENDBRANCH  16  24
ENDBRANCH  14  16
ENDBRANCH   1  14
BRANCH   6  27
HETATM   27  C6  UNL     1      15.395 -15.103  11.488  1.00  0.00     0.285 C 
HETATM   28  N4  UNL     1      16.625 -15.291  12.167  1.00  0.00    -0.056 NA
HETATM   29  O2  UNL     1      14.437 -14.647  12.144  1.00  0.00    -0.269 OA
ENDBRANCH   6  27
TORSDOF 5
ENDMDL
MODEL 5
REMARK VINA RESULT: -7.547839343      2.682      3.839
REMARK  5 active torsions:
REMARK  status: ('A' for Active; 'I' for Inactive)
REMARK    1  A    between atoms: O1_2  and  C2_3 
REMARK    2  A    between atoms: C2_3  and  C3_4 
REMARK    3  A    between atoms: C3_4  and  N1_5 
REMARK    4  A    between atoms: N1_5  and  C4_7 
REMARK    5  A    between atoms: C5_12  and  C6_13 
ROOT
HETATM    1  C4  UNL     1      15.652 -16.007   8.748  1.00  0.00     0.147 A 
HETATM    2  N2  UNL     1      15.857 -17.314   8.457  1.00  0.00    -0.283 N 
ATOM      3  H2  UNL     1      16.078 -17.592   7.502  1.00  0.00     0.188 HD
HETATM    4  N3  UNL     1      15.772 -18.237   9.412  1.00  0.00    -0.292 N 
ATOM      5  H3  UNL     1      15.934 -19.208   9.147  1.00  0.00     0.187 HD
HETATM    6  C5  UNL     1      15.488 -17.980  10.696  1.00  0.00     0.143 A 
HETATM    7  C7  UNL     1      15.276 -16.664  11.023  1.00  0.00     0.111 A 
HETATM    8  N5  UNL     1      14.978 -16.086  12.198  1.00  0.00    -0.279 N 
ATOM      9  H5  UNL     1      14.852 -16.556  13.094  1.00  0.00     0.184 HD
HETATM   10  N6  UNL     1      14.876 -14.767  11.961  1.00  0.00    -0.021 NA
HETATM   11  N7  UNL     1      15.103 -14.520  10.673  1.00  0.00    -0.278 N 
ATOM     12  H7  UNL     1      15.089 -13.602  10.227  1.00  0.00     0.184 HD
HETATM   13  C8  UNL     1      15.354 -15.679  10.070  1.00  0.00     0.121 A 
ENDROOT
BRANCH   1  14
HETATM   14  N1  UNL     1      15.720 -15.083   7.884  1.00  0.00    -0.362 N 
ATOM     15  H1  UNL     1      16.470 -14.416   8.062  1.00  0.00     0.162 HD
BRANCH  14  16
HETATM   16  C3  UNL     1      14.966 -14.786   6.722  1.00  0.00     0.056 C 
HETATM   17  C9  UNL     1      13.633 -15.492   6.782  1.00  0.00     0.060 C 
HETATM   18  C10 UNL     1      12.472 -14.544   6.637  1.00  0.00     0.235 C 
HETATM   19  N8  UNL     1      12.477 -13.464   7.577  1.00  0.00    -0.075 N 
HETATM   20  C11 UNL     1      13.773 -12.936   7.874  1.00  0.00     0.235 C 
ATOM     21  H82 UNL     1      11.855 -12.720   7.264  1.00  0.00     0.277 HD
ATOM     22  H81 UNL     1      12.002 -13.740   8.437  1.00  0.00     0.277 HD
HETATM   23  C12 UNL     1      14.683 -13.274   6.699  1.00  0.00     0.060 C 
BRANCH  16  24
HETATM   24  C2  UNL     1      15.763 -15.073   5.490  1.00  0.00     0.198 C 
BRANCH  24  25
HETATM   25  O1  UNL     1      16.220 -16.398   5.452  1.00  0.00    -0.393 OA
HETATM   26  C1  UNL     1      17.595 -16.429   5.235  1.00  0.00     0.201 C 
ENDBRANCH  24  25
ENDBRANCH  16  24
ENDBRANCH  14  16
ENDBRANCH   1  14
BRANCH   6  27
HETATM   27  C6  UNL     1      15.433 -19.094  11.612  1.00  0.00     0.285 C 
HETATM   28  N4  UNL     1      15.737 -20.419  11.212  1.00  0.00    -0.056 NA
HETATM   29  O2  UNL     1      15.107 -18.909  12.802  1.00  0.00    -0.269 OA
ENDBRANCH   6  27
TORSDOF 5
ENDMDL
