MODEL 1
REMARK VINA RESULT: -5.339359916      0.000      0.000
REMARK  10 active torsions:
REMARK  status: ('A' for Active; 'I' for Inactive)
REMARK    1  A    between atoms: N1_2  and  C3_4 
REMARK    2  A    between atoms: C3_4  and  O1_5 
REMARK    3  A    between atoms: C6_14  and  O2_15 
REMARK    4  A    between atoms: C7_17  and  O3_18 
REMARK    5  A    between atoms: C7_17  and  C8_20 
REMARK       I    between atoms: C8_20  and  N5_22 
REMARK    6  A    between atoms: N5_22  and  N6_24 
REMARK       I    between atoms: N6_24  and  C9_26 
REMARK    7  A    between atoms: C9_26  and  C10_28 
REMARK    8  A    between atoms: C10_28  and  N7_29 
REMARK    9  A    between atoms: C10_28  and  C11_33 
REMARK   10  A    between atoms: C11_33  and  N8_34 
ROOT
HETATM    1  C3  UNL     1      -4.683 -29.406  14.188  1.00  0.00     0.236 A 
HETATM    2  C4  UNL     1      -5.944 -28.877  15.001  1.00  0.00     0.153 A 
HETATM    3  N2  UNL     1      -6.990 -28.302  15.637  1.00  0.00    -0.357 N 
ATOM      4  H2  UNL     1      -7.650 -28.752  16.271  1.00  0.00     0.162 HD
HETATM    5  C5  UNL     1      -6.976 -26.891  15.223  1.00  0.00     0.268 A 
HETATM    6  N3  UNL     1      -5.944 -26.781  14.403  1.00  0.00    -0.276 N 
HETATM    7  N4  UNL     1      -5.688 -27.880  14.522  1.00  0.00    -0.283 N 
ATOM      8  H4  UNL     1      -4.865 -28.045  13.942  1.00  0.00     0.188 HD
HETATM    9  C6  UNL     1      -4.747 -26.708  13.468  1.00  0.00     0.287 A 
HETATM   10  C7  UNL     1      -4.172 -28.150  13.393  1.00  0.00     0.243 A 
ENDROOT
BRANCH  10  11
HETATM   11  O3  UNL     1      -4.237 -28.534  12.057  1.00  0.00    -0.372 OA
ATOM     12  H3  UNL     1      -3.341 -28.754  11.830  1.00  0.00     0.211 HD
ENDBRANCH  10  11
BRANCH  10  13
HETATM   13  C8  UNL     1      -2.713 -27.977  13.712  1.00  0.00     0.281 C 
HETATM   14  O4  UNL     1      -1.878 -28.438  12.892  1.00  0.00    -0.268 OA
HETATM   15  N5  UNL     1      -2.266 -27.322  14.888  1.00  0.00    -0.265 N 
ATOM     16  H5  UNL     1      -2.972 -26.962  15.529  1.00  0.00     0.190 HD
BRANCH  15  17
HETATM   17  N6  UNL     1      -0.940 -27.137  15.225  1.00  0.00    -0.266 N 
HETATM   18  C9  UNL     1      -0.181 -28.087  15.965  1.00  0.00     0.268 C 
HETATM   19  O5  UNL     1      -0.755 -29.153  16.334  1.00  0.00    -0.269 OA
ATOM     20  H6  UNL     1      -0.481 -26.276  14.927  1.00  0.00     0.190 HD
BRANCH  18  21
HETATM   21  C10 UNL     1       1.226 -27.879  16.312  1.00  0.00     0.301 C 
BRANCH  21  22
HETATM   22  N7  UNL     1       1.919 -27.179  15.252  1.00  0.00    -0.065 N 
ATOM     23  H73 UNL     1       1.268 -26.711  14.622  1.00  0.00     0.275 HD
ATOM     24  H72 UNL     1       2.411 -26.357  15.602  1.00  0.00     0.275 HD
ATOM     25  H71 UNL     1       2.545 -27.809  14.750  1.00  0.00     0.275 HD
ENDBRANCH  21  22
BRANCH  21  26
HETATM   26  C11 UNL     1       1.975 -29.142  16.653  1.00  0.00     0.272 C 
BRANCH  26  27
HETATM   27  N8  UNL     1       2.267 -29.883  15.435  1.00  0.00    -0.077 N 
ATOM     28  H83 UNL     1       1.988 -30.861  15.505  1.00  0.00     0.274 HD
ATOM     29  H82 UNL     1       1.656 -29.610  14.664  1.00  0.00     0.274 HD
ATOM     30  H81 UNL     1       3.254 -29.780  15.199  1.00  0.00     0.274 HD
ENDBRANCH  26  27
ENDBRANCH  21  26
ENDBRANCH  18  21
ENDBRANCH  15  17
ENDBRANCH  10  13
BRANCH   1  31
HETATM   31  N1  UNL     1      -5.079 -30.458  13.378  1.00  0.00    -0.382 N 
HETATM   32  C1  UNL     1      -4.269 -31.527  13.038  1.00  0.00     0.146 C 
HETATM   33  C2  UNL     1      -6.457 -30.661  13.098  1.00  0.00     0.146 C 
ENDBRANCH   1  31
BRANCH   1  34
HETATM   34  O1  UNL     1      -3.728 -29.826  15.096  1.00  0.00    -0.362 OA
ATOM     35  H1  UNL     1      -2.910 -29.363  14.958  1.00  0.00     0.213 HD
ENDBRANCH   1  34
BRANCH   9  36
HETATM   36  O2  UNL     1      -5.290 -26.374  12.257  1.00  0.00    -0.371 OA
ATOM     37  H2  UNL     1      -4.714 -26.787  11.625  1.00  0.00     0.212 HD
ENDBRANCH   9  36
TORSDOF 10
ENDMDL
MODEL 2
REMARK VINA RESULT: -5.075314649      4.709      7.859
REMARK  10 active torsions:
REMARK  status: ('A' for Active; 'I' for Inactive)
REMARK    1  A    between atoms: N1_2  and  C3_4 
REMARK    2  A    between atoms: C3_4  and  O1_5 
REMARK    3  A    between atoms: C6_14  and  O2_15 
REMARK    4  A    between atoms: C7_17  and  O3_18 
REMARK    5  A    between atoms: C7_17  and  C8_20 
REMARK       I    between atoms: C8_20  and  N5_22 
REMARK    6  A    between atoms: N5_22  and  N6_24 
REMARK       I    between atoms: N6_24  and  C9_26 
REMARK    7  A    between atoms: C9_26  and  C10_28 
REMARK    8  A    between atoms: C10_28  and  N7_29 
REMARK    9  A    between atoms: C10_28  and  C11_33 
REMARK   10  A    between atoms: C11_33  and  N8_34 
ROOT
HETATM    1  C3  UNL     1       0.637 -33.485  17.288  1.00  0.00     0.236 A 
HETATM    2  C4  UNL     1       1.950 -34.308  17.649  1.00  0.00     0.153 A 
HETATM    3  N2  UNL     1       3.073 -34.932  18.072  1.00  0.00    -0.357 N 
ATOM      4  H2  UNL     1       3.585 -35.673  17.594  1.00  0.00     0.162 HD
HETATM    5  C5  UNL     1       3.401 -34.317  19.366  1.00  0.00     0.268 A 
HETATM    6  N3  UNL     1       2.458 -33.412  19.569  1.00  0.00    -0.276 N 
HETATM    7  N4  UNL     1       1.952 -33.669  18.587  1.00  0.00    -0.283 N 
ATOM      8  H4  UNL     1       1.141 -33.055  18.516  1.00  0.00     0.188 HD
HETATM    9  C6  UNL     1       1.352 -32.385  19.754  1.00  0.00     0.287 A 
HETATM   10  C7  UNL     1       0.423 -32.526  18.516  1.00  0.00     0.243 A 
ENDROOT
BRANCH  10  11
HETATM   11  O3  UNL     1      -0.838 -32.860  19.001  1.00  0.00    -0.372 OA
ATOM     12  H3  UNL     1      -0.694 -33.056  19.920  1.00  0.00     0.211 HD
ENDBRANCH  10  11
BRANCH  10  13
HETATM   13  C8  UNL     1       0.314 -31.126  17.981  1.00  0.00     0.281 C 
HETATM   14  O4  UNL     1      -0.839 -30.651  17.824  1.00  0.00    -0.268 OA
HETATM   15  N5  UNL     1       1.454 -30.346  17.657  1.00  0.00    -0.265 N 
ATOM     16  H5  UNL     1       2.372 -30.766  17.797  1.00  0.00     0.190 HD
BRANCH  15  17
HETATM   17  N6  UNL     1       1.405 -29.057  17.165  1.00  0.00    -0.266 N 
HETATM   18  C9  UNL     1       1.374 -28.751  15.775  1.00  0.00     0.268 C 
HETATM   19  O5  UNL     1       1.394 -29.712  14.951  1.00  0.00    -0.269 OA
ATOM     20  H6  UNL     1       1.391 -28.285  17.831  1.00  0.00     0.190 HD
BRANCH  18  21
HETATM   21  C10 UNL     1       1.320 -27.378  15.268  1.00  0.00     0.301 C 
BRANCH  21  22
HETATM   22  N7  UNL     1       0.981 -26.452  16.326  1.00  0.00    -0.065 N 
ATOM     23  H73 UNL     1       0.330 -26.865  16.994  1.00  0.00     0.275 HD
ATOM     24  H72 UNL     1       1.768 -26.295  16.956  1.00  0.00     0.275 HD
ATOM     25  H71 UNL     1       0.624 -25.577  15.943  1.00  0.00     0.275 HD
ENDBRANCH  21  22
BRANCH  21  26
HETATM   26  C11 UNL     1       0.377 -27.182  14.108  1.00  0.00     0.272 C 
BRANCH  26  27
HETATM   27  N8  UNL     1      -0.901 -27.812  14.404  1.00  0.00    -0.077 N 
ATOM     28  H83 UNL     1      -0.816 -28.540  15.113  1.00  0.00     0.274 HD
ATOM     29  H82 UNL     1      -1.530 -27.187  14.909  1.00  0.00     0.274 HD
ATOM     30  H81 UNL     1      -1.319 -28.163  13.542  1.00  0.00     0.274 HD
ENDBRANCH  26  27
ENDBRANCH  21  26
ENDBRANCH  18  21
ENDBRANCH  15  17
ENDBRANCH  10  13
BRANCH   1  31
HETATM   31  N1  UNL     1      -0.407 -34.372  17.082  1.00  0.00    -0.382 N 
HETATM   32  C1  UNL     1      -1.441 -34.164  16.186  1.00  0.00     0.146 C 
HETATM   33  C2  UNL     1      -0.312 -35.707  17.561  1.00  0.00     0.146 C 
ENDBRANCH   1  31
BRANCH   1  34
HETATM   34  O1  UNL     1       0.885 -32.754  16.141  1.00  0.00    -0.362 OA
ATOM     35  H1  UNL     1       0.595 -33.230  15.372  1.00  0.00     0.213 HD
ENDBRANCH   1  34
BRANCH   9  36
HETATM   36  O2  UNL     1       0.685 -32.812  20.870  1.00  0.00    -0.371 OA
ATOM     37  H2  UNL     1       1.337 -32.767  21.559  1.00  0.00     0.212 HD
ENDBRANCH   9  36
TORSDOF 10
ENDMDL
MODEL 3
REMARK VINA RESULT: -4.994309525      1.661      1.725
REMARK  10 active torsions:
REMARK  status: ('A' for Active; 'I' for Inactive)
REMARK    1  A    between atoms: N1_2  and  C3_4 
REMARK    2  A    between atoms: C3_4  and  O1_5 
REMARK    3  A    between atoms: C6_14  and  O2_15 
REMARK    4  A    between atoms: C7_17  and  O3_18 
REMARK    5  A    between atoms: C7_17  and  C8_20 
REMARK       I    between atoms: C8_20  and  N5_22 
REMARK    6  A    between atoms: N5_22  and  N6_24 
REMARK       I    between atoms: N6_24  and  C9_26 
REMARK    7  A    between atoms: C9_26  and  C10_28 
REMARK    8  A    between atoms: C10_28  and  N7_29 
REMARK    9  A    between atoms: C10_28  and  C11_33 
REMARK   10  A    between atoms: C11_33  and  N8_34 
ROOT
HETATM    1  C3  UNL     1      -5.609 -29.428  13.805  1.00  0.00     0.236 A 
HETATM    2  C4  UNL     1      -6.976 -28.723  13.401  1.00  0.00     0.153 A 
HETATM    3  N2  UNL     1      -8.062 -28.029  12.990  1.00  0.00    -0.357 N 
ATOM      4  H2  UNL     1      -9.040 -28.238  13.191  1.00  0.00     0.162 HD
HETATM    5  C5  UNL     1      -7.537 -26.912  12.193  1.00  0.00     0.268 A 
HETATM    6  N3  UNL     1      -6.223 -27.057  12.215  1.00  0.00    -0.276 N 
HETATM    7  N4  UNL     1      -6.302 -27.988  12.859  1.00  0.00    -0.283 N 
ATOM      8  H4  UNL     1      -5.346 -28.304  13.022  1.00  0.00     0.188 HD
HETATM    9  C6  UNL     1      -4.718 -27.269  12.273  1.00  0.00     0.287 A 
HETATM   10  C7  UNL     1      -4.498 -28.564  13.104  1.00  0.00     0.243 A 
ENDROOT
BRANCH  10  11
HETATM   11  O3  UNL     1      -3.833 -29.460  12.273  1.00  0.00    -0.372 OA
ATOM     12  H3  UNL     1      -4.390 -30.230  12.261  1.00  0.00     0.211 HD
ENDBRANCH  10  11
BRANCH  10  13
HETATM   13  C8  UNL     1      -3.510 -28.155  14.161  1.00  0.00     0.281 C 
HETATM   14  O4  UNL     1      -3.700 -27.057  14.742  1.00  0.00    -0.268 OA
HETATM   15  N5  UNL     1      -2.396 -28.960  14.511  1.00  0.00    -0.265 N 
ATOM     16  H5  UNL     1      -2.275 -29.844  14.017  1.00  0.00     0.190 HD
BRANCH  15  17
HETATM   17  N6  UNL     1      -1.464 -28.631  15.474  1.00  0.00    -0.266 N 
HETATM   18  C9  UNL     1      -0.180 -28.096  15.170  1.00  0.00     0.268 C 
HETATM   19  O5  UNL     1       0.119 -27.916  13.953  1.00  0.00    -0.269 OA
ATOM     20  H6  UNL     1      -1.708 -28.777  16.454  1.00  0.00     0.190 HD
BRANCH  18  21
HETATM   21  C10 UNL     1       0.797 -27.747  16.204  1.00  0.00     0.301 C 
BRANCH  21  22
HETATM   22  N7  UNL     1       0.910 -26.312  16.341  1.00  0.00    -0.065 N 
ATOM     23  H73 UNL     1       0.858 -25.842  15.437  1.00  0.00     0.275 HD
ATOM     24  H72 UNL     1       0.079 -25.908  16.772  1.00  0.00     0.275 HD
ATOM     25  H71 UNL     1       1.759 -26.061  16.848  1.00  0.00     0.275 HD
ENDBRANCH  21  22
BRANCH  21  26
HETATM   26  C11 UNL     1       2.166 -28.341  15.989  1.00  0.00     0.272 C 
BRANCH  26  27
HETATM   27  N8  UNL     1       2.038 -29.657  15.381  1.00  0.00    -0.077 N 
ATOM     28  H83 UNL     1       1.333 -30.228  15.845  1.00  0.00     0.274 HD
ATOM     29  H82 UNL     1       1.608 -29.613  14.457  1.00  0.00     0.274 HD
ATOM     30  H81 UNL     1       2.949 -30.115  15.359  1.00  0.00     0.274 HD
ENDBRANCH  26  27
ENDBRANCH  21  26
ENDBRANCH  18  21
ENDBRANCH  15  17
ENDBRANCH  10  13
BRANCH   1  31
HETATM   31  N1  UNL     1      -5.641 -30.747  13.383  1.00  0.00    -0.382 N 
HETATM   32  C1  UNL     1      -5.019 -31.792  14.043  1.00  0.00     0.146 C 
HETATM   33  C2  UNL     1      -6.585 -31.158  12.403  1.00  0.00     0.146 C 
ENDBRANCH   1  31
BRANCH   1  34
HETATM   34  O1  UNL     1      -5.477 -29.362  15.180  1.00  0.00    -0.362 OA
ATOM     35  H1  UNL     1      -6.311 -29.528  15.604  1.00  0.00     0.213 HD
ENDBRANCH   1  34
BRANCH   9  36
HETATM   36  O2  UNL     1      -4.364 -27.501  10.972  1.00  0.00    -0.371 OA
ATOM     37  H2  UNL     1      -3.973 -26.683  10.689  1.00  0.00     0.212 HD
ENDBRANCH   9  36
TORSDOF 10
ENDMDL
MODEL 4
REMARK VINA RESULT: -4.989992411      1.044      1.327
REMARK  10 active torsions:
REMARK  status: ('A' for Active; 'I' for Inactive)
REMARK    1  A    between atoms: N1_2  and  C3_4 
REMARK    2  A    between atoms: C3_4  and  O1_5 
REMARK    3  A    between atoms: C6_14  and  O2_15 
REMARK    4  A    between atoms: C7_17  and  O3_18 
REMARK    5  A    between atoms: C7_17  and  C8_20 
REMARK       I    between atoms: C8_20  and  N5_22 
REMARK    6  A    between atoms: N5_22  and  N6_24 
REMARK       I    between atoms: N6_24  and  C9_26 
REMARK    7  A    between atoms: C9_26  and  C10_28 
REMARK    8  A    between atoms: C10_28  and  N7_29 
REMARK    9  A    between atoms: C10_28  and  C11_33 
REMARK   10  A    between atoms: C11_33  and  N8_34 
ROOT
HETATM    1  C3  UNL     1      -5.126 -29.034  13.715  1.00  0.00     0.236 A 
HETATM    2  C4  UNL     1      -6.317 -28.731  14.725  1.00  0.00     0.153 A 
HETATM    3  N2  UNL     1      -7.284 -28.342  15.587  1.00  0.00    -0.357 N 
ATOM      4  H2  UNL     1      -8.016 -28.922  15.996  1.00  0.00     0.162 HD
HETATM    5  C5  UNL     1      -7.057 -26.907  15.812  1.00  0.00     0.268 A 
HETATM    6  N3  UNL     1      -6.002 -26.603  15.076  1.00  0.00    -0.276 N 
HETATM    7  N4  UNL     1      -5.909 -27.672  14.705  1.00  0.00    -0.283 N 
ATOM      8  H4  UNL     1      -5.105 -27.687  14.078  1.00  0.00     0.188 HD
HETATM    9  C6  UNL     1      -4.785 -26.306  14.213  1.00  0.00     0.287 A 
HETATM   10  C7  UNL     1      -4.421 -27.643  13.509  1.00  0.00     0.243 A 
ENDROOT
BRANCH  10  11
HETATM   11  O3  UNL     1      -4.510 -27.408  12.140  1.00  0.00    -0.372 OA
ATOM     12  H3  UNL     1      -4.701 -26.480  12.071  1.00  0.00     0.211 HD
ENDBRANCH  10  11
BRANCH  10  13
HETATM   13  C8  UNL     1      -2.960 -27.828  13.812  1.00  0.00     0.281 C 
HETATM   14  O4  UNL     1      -2.187 -28.046  12.845  1.00  0.00    -0.268 OA
HETATM   15  N5  UNL     1      -2.445 -27.765  15.133  1.00  0.00    -0.265 N 
ATOM     16  H5  UNL     1      -3.103 -27.587  15.891  1.00  0.00     0.190 HD
BRANCH  15  17
HETATM   17  N6  UNL     1      -1.115 -27.927  15.462  1.00  0.00    -0.266 N 
HETATM   18  C9  UNL     1      -0.505 -29.199  15.650  1.00  0.00     0.268 C 
HETATM   19  O5  UNL     1      -1.222 -30.232  15.510  1.00  0.00    -0.269 OA
ATOM     20  H6  UNL     1      -0.539 -27.092  15.575  1.00  0.00     0.190 HD
BRANCH  18  21
HETATM   21  C10 UNL     1       0.910 -29.355  15.996  1.00  0.00     0.301 C 
BRANCH  21  22
HETATM   22  N7  UNL     1       1.089 -30.414  16.963  1.00  0.00    -0.065 N 
ATOM     23  H73 UNL     1       0.309 -30.463  17.617  1.00  0.00     0.275 HD
ATOM     24  H72 UNL     1       0.990 -31.335  16.536  1.00  0.00     0.275 HD
ATOM     25  H71 UNL     1       1.982 -30.317  17.447  1.00  0.00     0.275 HD
ENDBRANCH  21  22
BRANCH  21  26
HETATM   26  C11 UNL     1       1.568 -28.096  16.501  1.00  0.00     0.272 C 
BRANCH  26  27
HETATM   27  N8  UNL     1       2.606 -27.678  15.570  1.00  0.00    -0.077 N 
ATOM     28  H83 UNL     1       3.532 -27.691  15.997  1.00  0.00     0.274 HD
ATOM     29  H82 UNL     1       2.770 -28.372  14.841  1.00  0.00     0.274 HD
ATOM     30  H81 UNL     1       2.373 -26.762  15.185  1.00  0.00     0.274 HD
ENDBRANCH  26  27
ENDBRANCH  21  26
ENDBRANCH  18  21
ENDBRANCH  15  17
ENDBRANCH  10  13
BRANCH   1  31
HETATM   31  N1  UNL     1      -5.650 -29.573  12.551  1.00  0.00    -0.382 N 
HETATM   32  C1  UNL     1      -4.995 -30.500  11.759  1.00  0.00     0.146 C 
HETATM   33  C2  UNL     1      -7.035 -29.438  12.265  1.00  0.00     0.146 C 
ENDBRANCH   1  31
BRANCH   1  34
HETATM   34  O1  UNL     1      -4.262 -29.929  14.319  1.00  0.00    -0.362 OA
ATOM     35  H1  UNL     1      -4.748 -30.625  14.745  1.00  0.00     0.213 HD
ENDBRANCH   1  34
BRANCH   9  36
HETATM   36  O2  UNL     1      -5.247 -25.416  13.282  1.00  0.00    -0.371 OA
ATOM     37  H2  UNL     1      -4.836 -25.695  12.472  1.00  0.00     0.212 HD
ENDBRANCH   9  36
TORSDOF 10
ENDMDL
MODEL 5
REMARK VINA RESULT: -4.971959795      1.315      1.457
REMARK  10 active torsions:
REMARK  status: ('A' for Active; 'I' for Inactive)
REMARK    1  A    between atoms: N1_2  and  C3_4 
REMARK    2  A    between atoms: C3_4  and  O1_5 
REMARK    3  A    between atoms: C6_14  and  O2_15 
REMARK    4  A    between atoms: C7_17  and  O3_18 
REMARK    5  A    between atoms: C7_17  and  C8_20 
REMARK       I    between atoms: C8_20  and  N5_22 
REMARK    6  A    between atoms: N5_22  and  N6_24 
REMARK       I    between atoms: N6_24  and  C9_26 
REMARK    7  A    between atoms: C9_26  and  C10_28 
REMARK    8  A    between atoms: C10_28  and  N7_29 
REMARK    9  A    between atoms: C10_28  and  C11_33 
REMARK   10  A    between atoms: C11_33  and  N8_34 
ROOT
HETATM    1  C3  UNL     1      -4.345 -29.440  13.356  1.00  0.00     0.236 A 
HETATM    2  C4  UNL     1      -5.705 -29.495  14.178  1.00  0.00     0.153 A 
HETATM    3  N2  UNL     1      -6.840 -29.410  14.911  1.00  0.00    -0.357 N 
ATOM      4  H2  UNL     1      -7.522 -30.148  15.080  1.00  0.00     0.162 HD
HETATM    5  C5  UNL     1      -6.882 -28.029  15.412  1.00  0.00     0.268 A 
HETATM    6  N3  UNL     1      -5.791 -27.453  14.934  1.00  0.00    -0.276 N 
HETATM    7  N4  UNL     1      -5.475 -28.408  14.410  1.00  0.00    -0.283 N 
ATOM      8  H4  UNL     1      -4.594 -28.197  13.941  1.00  0.00     0.188 HD
HETATM    9  C6  UNL     1      -4.523 -26.839  14.361  1.00  0.00     0.287 A 
HETATM   10  C7  UNL     1      -3.849 -27.955  13.516  1.00  0.00     0.243 A 
ENDROOT
BRANCH  10  11
HETATM   11  O3  UNL     1      -3.770 -27.474  12.213  1.00  0.00    -0.372 OA
ATOM     12  H3  UNL     1      -3.062 -27.971  11.819  1.00  0.00     0.211 HD
ENDBRANCH  10  11
BRANCH  10  13
HETATM   13  C8  UNL     1      -2.439 -28.005  14.035  1.00  0.00     0.281 C 
HETATM   14  O4  UNL     1      -1.506 -27.931  13.196  1.00  0.00    -0.268 OA
HETATM   15  N5  UNL     1      -2.143 -28.128  15.417  1.00  0.00    -0.265 N 
ATOM     16  H5  UNL     1      -2.926 -28.185  16.067  1.00  0.00     0.190 HD
BRANCH  15  17
HETATM   17  N6  UNL     1      -0.868 -28.175  15.942  1.00  0.00    -0.266 N 
HETATM   18  C9  UNL     1      -0.093 -29.368  16.010  1.00  0.00     0.268 C 
HETATM   19  O5  UNL     1      -0.604 -30.438  15.566  1.00  0.00    -0.269 OA
ATOM     20  H6  UNL     1      -0.459 -27.312  16.300  1.00  0.00     0.190 HD
BRANCH  18  21
HETATM   21  C10 UNL     1       1.261 -29.402  16.567  1.00  0.00     0.301 C 
BRANCH  21  22
HETATM   22  N7  UNL     1       2.217 -29.830  15.569  1.00  0.00    -0.065 N 
ATOM     23  H73 UNL     1       2.320 -30.844  15.557  1.00  0.00     0.275 HD
ATOM     24  H72 UNL     1       1.857 -29.700  14.623  1.00  0.00     0.275 HD
ATOM     25  H71 UNL     1       3.113 -29.360  15.700  1.00  0.00     0.275 HD
ENDBRANCH  21  22
BRANCH  21  26
HETATM   26  C11 UNL     1       1.403 -30.259  17.799  1.00  0.00     0.272 C 
BRANCH  26  27
HETATM   27  N8  UNL     1       1.091 -31.642  17.473  1.00  0.00    -0.077 N 
ATOM     28  H83 UNL     1       1.851 -32.099  16.969  1.00  0.00     0.274 HD
ATOM     29  H82 UNL     1       1.083 -32.239  18.300  1.00  0.00     0.274 HD
ATOM     30  H81 UNL     1       0.210 -31.684  16.960  1.00  0.00     0.274 HD
ENDBRANCH  26  27
ENDBRANCH  21  26
ENDBRANCH  18  21
ENDBRANCH  15  17
ENDBRANCH  10  13
BRANCH   1  31
HETATM   31  N1  UNL     1      -4.596 -29.807  12.045  1.00  0.00    -0.382 N 
HETATM   32  C1  UNL     1      -3.692 -30.471  11.234  1.00  0.00     0.146 C 
HETATM   33  C2  UNL     1      -5.927 -29.800  11.546  1.00  0.00     0.146 C 
ENDBRANCH   1  31
BRANCH   1  34
HETATM   34  O1  UNL     1      -3.448 -30.315  13.942  1.00  0.00    -0.362 OA
ATOM     35  H1  UNL     1      -3.530 -30.293  14.888  1.00  0.00     0.213 HD
ENDBRANCH   1  34
BRANCH   9  36
HETATM   36  O2  UNL     1      -4.977 -25.854  13.528  1.00  0.00    -0.371 OA
ATOM     37  H2  UNL     1      -5.037 -26.277  12.680  1.00  0.00     0.212 HD
ENDBRANCH   9  36
TORSDOF 10
ENDMDL
