MODEL 1
REMARK VINA RESULT: -6.109999825      0.000      0.000
REMARK  5 active torsions:
REMARK  status: ('A' for Active; 'I' for Inactive)
REMARK    1  A    between atoms: S1_2  and  C2_3 
REMARK    2  A    between atoms: C2_3  and  C3_4 
REMARK    3  A    between atoms: C4_5  and  C5_6 
REMARK    4  A    between atoms: C5_6  and  O1_7 
REMARK    5  A    between atoms: C8_11  and  O2_12 
ROOT
HETATM    1  C5  UNL     1       3.503 -10.784  -4.962  1.00  0.00     0.175 C 
HETATM    2  C6  UNL     1       3.197 -11.930  -4.076  1.00  0.00     0.003 A 
HETATM    3  C7  UNL     1       2.361 -12.967  -4.504  1.00  0.00     0.049 A 
HETATM    4  C8  UNL     1       2.117 -13.999  -3.634  1.00  0.00     0.084 A 
HETATM    5  C9  UNL     1       2.686 -14.002  -2.375  1.00  0.00     0.050 A 
HETATM    6 BR1  UNL     1       2.311 -15.454  -1.219  1.00  0.00    -0.048 Br
HETATM    7  C10 UNL     1       3.512 -12.986  -1.942  1.00  0.00    -0.032 A 
HETATM    8  C11 UNL     1       4.136 -12.962  -0.602  1.00  0.00     0.050 C 
HETATM    9  C12 UNL     1       3.759 -11.945  -2.820  1.00  0.00    -0.012 A 
HETATM   10  C13 UNL     1       4.637 -10.845  -2.395  1.00  0.00     0.156 C 
HETATM   11  C14 UNL     1       6.073 -11.214  -2.803  1.00  0.00     0.039 C 
HETATM   12  C15 UNL     1       5.924 -11.081  -4.327  1.00  0.00     0.039 C 
HETATM   13  C16 UNL     1       4.762 -10.130  -4.478  1.00  0.00     0.174 C 
HETATM   14  O3  UNL     1       4.479  -9.686  -3.165  1.00  0.00    -0.371 OA
ENDROOT
BRANCH   1  15
HETATM   15  C4  UNL     1       3.690 -11.201  -6.352  1.00  0.00    -0.060 C 
HETATM   16  C3  UNL     1       3.829 -11.558  -7.499  1.00  0.00    -0.093 C 
BRANCH  16  17
HETATM   17  C2  UNL     1       3.974 -11.989  -8.906  1.00  0.00     0.167 C 
BRANCH  17  18
HETATM   18  S1  UNL     1       2.310 -12.033  -9.631  1.00  0.00    -0.161 SA
HETATM   19  C1  UNL     1       1.256 -12.989  -8.505  1.00  0.00     0.090 C 
ENDBRANCH  17  18
ENDBRANCH  16  17
ENDBRANCH   1  15
BRANCH   1  20
HETATM   20  O1  UNL     1       2.447  -9.882  -4.836  1.00  0.00    -0.371 OA
ATOM     21  H1  UNL     1       2.754  -8.983  -4.827  1.00  0.00     0.212 HD
ENDBRANCH   1  20
BRANCH   4  22
HETATM   22  O2  UNL     1       1.282 -15.038  -4.054  1.00  0.00    -0.359 OA
ATOM     23  H2  UNL     1       0.597 -15.333  -3.466  1.00  0.00     0.217 HD
ENDBRANCH   4  22
TORSDOF 5
ENDMDL
MODEL 2
REMARK VINA RESULT: -5.703047297      2.265      3.339
REMARK  5 active torsions:
REMARK  status: ('A' for Active; 'I' for Inactive)
REMARK    1  A    between atoms: S1_2  and  C2_3 
REMARK    2  A    between atoms: C2_3  and  C3_4 
REMARK    3  A    between atoms: C4_5  and  C5_6 
REMARK    4  A    between atoms: C5_6  and  O1_7 
REMARK    5  A    between atoms: C8_11  and  O2_12 
ROOT
HETATM    1  C5  UNL     1       2.060 -11.018  -7.820  1.00  0.00     0.175 C 
HETATM    2  C6  UNL     1       1.891 -12.174  -6.911  1.00  0.00     0.003 A 
HETATM    3  C7  UNL     1       1.542 -13.434  -7.408  1.00  0.00     0.049 A 
HETATM    4  C8  UNL     1       1.399 -14.464  -6.513  1.00  0.00     0.084 A 
HETATM    5  C9  UNL     1       1.598 -14.250  -5.164  1.00  0.00     0.050 A 
HETATM    6 BR1  UNL     1       1.387 -15.710  -3.977  1.00  0.00    -0.048 Br
HETATM    7  C10 UNL     1       1.944 -13.012  -4.661  1.00  0.00    -0.032 A 
HETATM    8  C11 UNL     1       2.163 -12.753  -3.223  1.00  0.00     0.050 C 
HETATM    9  C12 UNL     1       2.088 -11.974  -5.564  1.00  0.00    -0.012 A 
HETATM   10  C13 UNL     1       2.458 -10.641  -5.066  1.00  0.00     0.156 C 
HETATM   11  C14 UNL     1       3.993 -10.550  -5.082  1.00  0.00     0.039 C 
HETATM   12  C15 UNL     1       4.210 -10.516  -6.602  1.00  0.00     0.039 C 
HETATM   13  C16 UNL     1       2.898  -9.986  -7.127  1.00  0.00     0.174 C 
HETATM   14  O3  UNL     1       2.167  -9.615  -5.974  1.00  0.00    -0.371 OA
ENDROOT
BRANCH   1  15
HETATM   15  C4  UNL     1       2.715 -11.396  -9.072  1.00  0.00    -0.060 C 
HETATM   16  C3  UNL     1       3.261 -11.690 -10.110  1.00  0.00    -0.093 C 
BRANCH  16  17
HETATM   17  C2  UNL     1       3.950 -12.035 -11.372  1.00  0.00     0.167 C 
BRANCH  17  18
HETATM   18  S1  UNL     1       2.711 -11.977 -12.698  1.00  0.00    -0.161 SA
HETATM   19  C1  UNL     1       3.590 -12.216 -14.267  1.00  0.00     0.090 C 
ENDBRANCH  17  18
ENDBRANCH  16  17
ENDBRANCH   1  15
BRANCH   1  20
HETATM   20  O1  UNL     1       0.788 -10.491  -8.045  1.00  0.00    -0.371 OA
ATOM     21  H1  UNL     1       0.428 -10.791  -8.871  1.00  0.00     0.212 HD
ENDBRANCH   1  20
BRANCH   4  22
HETATM   22  O2  UNL     1       1.050 -15.726  -7.003  1.00  0.00    -0.359 OA
ATOM     23  H2  UNL     1       0.177 -16.055  -6.821  1.00  0.00     0.217 HD
ENDBRANCH   4  22
TORSDOF 5
ENDMDL
MODEL 3
REMARK VINA RESULT: -5.618786245      3.601      5.435
REMARK  5 active torsions:
REMARK  status: ('A' for Active; 'I' for Inactive)
REMARK    1  A    between atoms: S1_2  and  C2_3 
REMARK    2  A    between atoms: C2_3  and  C3_4 
REMARK    3  A    between atoms: C4_5  and  C5_6 
REMARK    4  A    between atoms: C5_6  and  O1_7 
REMARK    5  A    between atoms: C8_11  and  O2_12 
ROOT
HETATM    1  C5  UNL     1       2.277 -13.873  -2.767  1.00  0.00     0.175 C 
HETATM    2  C6  UNL     1       2.370 -13.505  -4.197  1.00  0.00     0.003 A 
HETATM    3  C7  UNL     1       1.698 -14.246  -5.175  1.00  0.00     0.049 A 
HETATM    4  C8  UNL     1       1.827 -13.854  -6.484  1.00  0.00     0.084 A 
HETATM    5  C9  UNL     1       2.600 -12.757  -6.812  1.00  0.00     0.050 A 
HETATM    6 BR1  UNL     1       2.739 -12.264  -8.634  1.00  0.00    -0.048 Br
HETATM    7  C10 UNL     1       3.266 -12.017  -5.857  1.00  0.00    -0.032 A 
HETATM    8  C11 UNL     1       4.099 -10.840  -6.177  1.00  0.00     0.050 C 
HETATM    9  C12 UNL     1       3.136 -12.413  -4.537  1.00  0.00    -0.012 A 
HETATM   10  C13 UNL     1       3.829 -11.648  -3.490  1.00  0.00     0.156 C 
HETATM   11  C14 UNL     1       2.868 -10.549  -3.006  1.00  0.00     0.039 C 
HETATM   12  C15 UNL     1       1.844 -11.436  -2.282  1.00  0.00     0.039 C 
HETATM   13  C16 UNL     1       2.638 -12.674  -1.942  1.00  0.00     0.174 C 
HETATM   14  O3  UNL     1       3.972 -12.360  -2.292  1.00  0.00    -0.371 OA
ENDROOT
BRANCH   1  15
HETATM   15  C4  UNL     1       0.930 -14.310  -2.400  1.00  0.00    -0.060 C 
HETATM   16  C3  UNL     1      -0.183 -14.662  -2.080  1.00  0.00    -0.093 C 
BRANCH  16  17
HETATM   17  C2  UNL     1      -1.548 -15.066  -1.684  1.00  0.00     0.167 C 
BRANCH  17  18
HETATM   18  S1  UNL     1      -1.501 -16.843  -1.317  1.00  0.00    -0.161 SA
HETATM   19  C1  UNL     1      -0.769 -17.672  -2.755  1.00  0.00     0.090 C 
ENDBRANCH  17  18
ENDBRANCH  16  17
ENDBRANCH   1  15
BRANCH   1  20
HETATM   20  O1  UNL     1       3.220 -14.876  -2.544  1.00  0.00    -0.371 OA
ATOM     21  H1  UNL     1       2.885 -15.547  -1.962  1.00  0.00     0.212 HD
ENDBRANCH   1  20
BRANCH   4  22
HETATM   22  O2  UNL     1       1.159 -14.591  -7.466  1.00  0.00    -0.359 OA
ATOM     23  H2  UNL     1       0.353 -14.238  -7.824  1.00  0.00     0.217 HD
ENDBRANCH   4  22
TORSDOF 5
ENDMDL
MODEL 4
REMARK VINA RESULT: -5.613683318      2.277      4.340
REMARK  5 active torsions:
REMARK  status: ('A' for Active; 'I' for Inactive)
REMARK    1  A    between atoms: S1_2  and  C2_3 
REMARK    2  A    between atoms: C2_3  and  C3_4 
REMARK    3  A    between atoms: C4_5  and  C5_6 
REMARK    4  A    between atoms: C5_6  and  O1_7 
REMARK    5  A    between atoms: C8_11  and  O2_12 
ROOT
HETATM    1  C5  UNL     1       3.289 -12.731  -7.505  1.00  0.00     0.175 C 
HETATM    2  C6  UNL     1       3.493 -12.179  -6.148  1.00  0.00     0.003 A 
HETATM    3  C7  UNL     1       4.428 -11.163  -5.918  1.00  0.00     0.049 A 
HETATM    4  C8  UNL     1       4.570 -10.695  -4.636  1.00  0.00     0.084 A 
HETATM    5  C9  UNL     1       3.808 -11.220  -3.612  1.00  0.00     0.050 A 
HETATM    6 BR1  UNL     1       4.049 -10.534  -1.864  1.00  0.00    -0.048 Br
HETATM    7  C10 UNL     1       2.882 -12.222  -3.825  1.00  0.00    -0.032 A 
HETATM    8  C11 UNL     1       2.052 -12.803  -2.749  1.00  0.00     0.050 C 
HETATM    9  C12 UNL     1       2.739 -12.693  -5.118  1.00  0.00    -0.012 A 
HETATM   10  C13 UNL     1       1.761 -13.758  -5.385  1.00  0.00     0.156 C 
HETATM   11  C14 UNL     1       0.425 -13.083  -5.737  1.00  0.00     0.039 C 
HETATM   12  C15 UNL     1       0.810 -12.500  -7.106  1.00  0.00     0.039 C 
HETATM   13  C16 UNL     1       1.943 -13.391  -7.553  1.00  0.00     0.174 C 
HETATM   14  O3  UNL     1       1.994 -14.428  -6.593  1.00  0.00    -0.371 OA
ENDROOT
BRANCH   1  15
HETATM   15  C4  UNL     1       3.343 -11.693  -8.534  1.00  0.00    -0.060 C 
HETATM   16  C3  UNL     1       3.394 -10.847  -9.397  1.00  0.00    -0.093 C 
BRANCH  16  17
HETATM   17  C2  UNL     1       3.441  -9.830 -10.469  1.00  0.00     0.167 C 
BRANCH  17  18
HETATM   18  S1  UNL     1       3.142 -10.686 -12.041  1.00  0.00    -0.161 SA
HETATM   19  C1  UNL     1       4.272 -12.104 -12.107  1.00  0.00     0.090 C 
ENDBRANCH  17  18
ENDBRANCH  16  17
ENDBRANCH   1  15
BRANCH   1  20
HETATM   20  O1  UNL     1       4.274 -13.699  -7.702  1.00  0.00    -0.371 OA
ATOM     21  H1  UNL     1       4.828 -13.488  -8.444  1.00  0.00     0.212 HD
ENDBRANCH   1  20
BRANCH   4  22
HETATM   22  O2  UNL     1       5.503  -9.681  -4.400  1.00  0.00    -0.359 OA
ATOM     23  H2  UNL     1       5.996  -9.341  -5.137  1.00  0.00     0.217 HD
ENDBRANCH   4  22
TORSDOF 5
ENDMDL
MODEL 5
REMARK VINA RESULT: -5.228293137      3.227      6.006
REMARK  5 active torsions:
REMARK  status: ('A' for Active; 'I' for Inactive)
REMARK    1  A    between atoms: S1_2  and  C2_3 
REMARK    2  A    between atoms: C2_3  and  C3_4 
REMARK    3  A    between atoms: C4_5  and  C5_6 
REMARK    4  A    between atoms: C5_6  and  O1_7 
REMARK    5  A    between atoms: C8_11  and  O2_12 
ROOT
HETATM    1  C5  UNL     1       2.848 -12.793  -1.592  1.00  0.00     0.175 C 
HETATM    2  C6  UNL     1       3.070 -12.400  -3.001  1.00  0.00     0.003 A 
HETATM    3  C7  UNL     1       4.027 -11.435  -3.337  1.00  0.00     0.049 A 
HETATM    4  C8  UNL     1       4.182 -11.115  -4.662  1.00  0.00     0.084 A 
HETATM    5  C9  UNL     1       3.412 -11.733  -5.626  1.00  0.00     0.050 A 
HETATM    6 BR1  UNL     1       3.672 -11.249  -7.438  1.00  0.00    -0.048 Br
HETATM    7  C10 UNL     1       2.465 -12.687  -5.309  1.00  0.00    -0.032 A 
HETATM    8  C11 UNL     1       1.627 -13.366  -6.318  1.00  0.00     0.050 C 
HETATM    9  C12 UNL     1       2.309 -13.010  -3.972  1.00  0.00    -0.012 A 
HETATM   10  C13 UNL     1       1.312 -14.023  -3.595  1.00  0.00     0.156 C 
HETATM   11  C14 UNL     1       2.017 -15.390  -3.597  1.00  0.00     0.039 C 
HETATM   12  C15 UNL     1       2.915 -15.191  -2.366  1.00  0.00     0.039 C 
HETATM   13  C16 UNL     1       2.184 -14.137  -1.571  1.00  0.00     0.174 C 
HETATM   14  O3  UNL     1       0.951 -13.963  -2.243  1.00  0.00    -0.371 OA
ENDROOT
BRANCH   1  15
HETATM   15  C4  UNL     1       4.101 -12.872  -0.841  1.00  0.00    -0.060 C 
HETATM   16  C3  UNL     1       5.147 -12.934  -0.237  1.00  0.00    -0.093 C 
BRANCH  16  17
HETATM   17  C2  UNL     1       6.432 -12.986   0.490  1.00  0.00     0.167 C 
BRANCH  17  18
HETATM   18  S1  UNL     1       7.758 -12.834  -0.741  1.00  0.00    -0.161 SA
HETATM   19  C1  UNL     1       7.441 -11.319  -1.689  1.00  0.00     0.090 C 
ENDBRANCH  17  18
ENDBRANCH  16  17
ENDBRANCH   1  15
BRANCH   1  20
HETATM   20  O1  UNL     1       1.979 -11.851  -1.041  1.00  0.00    -0.371 OA
ATOM     21  H1  UNL     1       2.005 -11.031  -1.518  1.00  0.00     0.212 HD
ENDBRANCH   1  20
BRANCH   4  22
HETATM   22  O2  UNL     1       5.136 -10.151  -5.003  1.00  0.00    -0.359 OA
ATOM     23  H2  UNL     1       6.054 -10.390  -4.960  1.00  0.00     0.217 HD
ENDBRANCH   4  22
TORSDOF 5
ENDMDL
