MODEL 1
REMARK VINA RESULT: -6.451175899      0.000      0.000
REMARK  4 active torsions:
REMARK  status: ('A' for Active; 'I' for Inactive)
REMARK    1  A    between atoms: C5_9  and  N2_10 
REMARK    2  A    between atoms: N2_10  and  C6_12 
REMARK    3  A    between atoms: C6_12  and  N3_14 
REMARK    4  A    between atoms: N3_14  and  C7_16 
ROOT
HETATM    1  C1  UNL     1       3.689 -10.527  -0.693  1.00  0.00     0.163 C 
HETATM    2  N1  UNL     1       3.265 -11.297  -1.856  1.00  0.00    -0.284 N 
HETATM    3  C2  UNL     1       2.488 -12.457  -1.815  1.00  0.00     0.268 A 
HETATM    4  O1  UNL     1       2.029 -13.021  -0.769  1.00  0.00    -0.266 OA
HETATM    5  C3  UNL     1       2.307 -12.889  -3.203  1.00  0.00     0.092 A 
HETATM    6  S1  UNL     1       1.600 -14.066  -4.212  1.00  0.00    -0.074 SA
HETATM    7  C4  UNL     1       2.110 -13.478  -5.730  1.00  0.00     0.080 A 
HETATM    8 BR1  UNL     1       1.765 -14.200  -7.487  1.00  0.00    -0.041 Br
HETATM    9  C5  UNL     1       2.831 -12.361  -5.396  1.00  0.00     0.076 A 
HETATM   10  C11 UNL     1       2.930 -12.059  -4.090  1.00  0.00     0.083 A 
HETATM   11  C12 UNL     1       3.552 -11.028  -3.223  1.00  0.00     0.264 A 
HETATM   12  O2  UNL     1       4.243 -10.030  -3.554  1.00  0.00    -0.267 OA
ENDROOT
BRANCH   9  13
HETATM   13  N2  UNL     1       3.431 -11.588  -6.476  1.00  0.00    -0.331 N 
ATOM     14  H2  UNL     1       4.350 -11.852  -6.830  1.00  0.00     0.168 HD
BRANCH  13  15
HETATM   15  C6  UNL     1       2.762 -10.476  -7.044  1.00  0.00     0.172 C 
HETATM   16  S2  UNL     1       1.555  -9.794  -6.185  1.00  0.00    -0.041 SA
BRANCH  15  17
HETATM   17  N3  UNL     1       3.141  -9.980  -8.321  1.00  0.00    -0.359 N 
ATOM     18  H3  UNL     1       3.608  -9.074  -8.365  1.00  0.00     0.162 HD
BRANCH  17  19
HETATM   19  C7  UNL     1       2.906 -10.677  -9.549  1.00  0.00     0.021 C 
HETATM   20  C8  UNL     1       3.190  -9.689 -10.678  1.00  0.00     0.037 C 
HETATM   21  C9  UNL     1       1.462 -11.114  -9.606  1.00  0.00     0.037 C 
HETATM   22  C10 UNL     1       3.839 -11.847  -9.751  1.00  0.00     0.037 C 
ENDBRANCH  17  19
ENDBRANCH  15  17
ENDBRANCH  13  15
ENDBRANCH   9  13
TORSDOF 4
ENDMDL
MODEL 2
REMARK VINA RESULT: -5.921724882      2.925      3.808
REMARK  4 active torsions:
REMARK  status: ('A' for Active; 'I' for Inactive)
REMARK    1  A    between atoms: C5_9  and  N2_10 
REMARK    2  A    between atoms: N2_10  and  C6_12 
REMARK    3  A    between atoms: C6_12  and  N3_14 
REMARK    4  A    between atoms: N3_14  and  C7_16 
ROOT
HETATM    1  C1  UNL     1       0.284 -16.606  -2.702  1.00  0.00     0.163 C 
HETATM    2  N1  UNL     1       0.881 -15.286  -2.535  1.00  0.00    -0.284 N 
HETATM    3  C2  UNL     1       0.895 -14.553  -1.346  1.00  0.00     0.268 A 
HETATM    4  O1  UNL     1       0.395 -14.914  -0.231  1.00  0.00    -0.266 OA
HETATM    5  C3  UNL     1       1.593 -13.298  -1.636  1.00  0.00     0.092 A 
HETATM    6  S1  UNL     1       2.126 -11.819  -0.979  1.00  0.00    -0.074 SA
HETATM    7  C4  UNL     1       2.858 -11.144  -2.364  1.00  0.00     0.080 A 
HETATM    8 BR1  UNL     1       3.747  -9.441  -2.556  1.00  0.00    -0.041 Br
HETATM    9  C5  UNL     1       2.660 -12.112  -3.315  1.00  0.00     0.076 A 
HETATM   10  C11 UNL     1       2.007 -13.223  -2.935  1.00  0.00     0.083 A 
HETATM   11  C12 UNL     1       1.547 -14.507  -3.520  1.00  0.00     0.264 A 
HETATM   12  O2  UNL     1       1.682 -14.931  -4.697  1.00  0.00    -0.267 OA
ENDROOT
BRANCH   9  13
HETATM   13  N2  UNL     1       3.170 -11.864  -4.657  1.00  0.00    -0.331 N 
ATOM     14  H2  UNL     1       4.168 -11.967  -4.840  1.00  0.00     0.168 HD
BRANCH  13  15
HETATM   15  C6  UNL     1       2.307 -11.481  -5.712  1.00  0.00     0.172 C 
HETATM   16  S2  UNL     1       2.060  -9.887  -5.954  1.00  0.00    -0.041 SA
BRANCH  15  17
HETATM   17  N3  UNL     1       1.683 -12.464  -6.528  1.00  0.00    -0.359 N 
ATOM     18  H3  UNL     1       0.785 -12.842  -6.225  1.00  0.00     0.162 HD
BRANCH  17  19
HETATM   19  C7  UNL     1       2.240 -12.956  -7.751  1.00  0.00     0.021 C 
HETATM   20  C8  UNL     1       1.483 -12.273  -8.887  1.00  0.00     0.037 C 
HETATM   21  C9  UNL     1       2.035 -14.450  -7.828  1.00  0.00     0.037 C 
HETATM   22  C10 UNL     1       3.697 -12.596  -7.922  1.00  0.00     0.037 C 
ENDBRANCH  17  19
ENDBRANCH  15  17
ENDBRANCH  13  15
ENDBRANCH   9  13
TORSDOF 4
ENDMDL
MODEL 3
REMARK VINA RESULT: -5.841189803      2.915      5.794
REMARK  4 active torsions:
REMARK  status: ('A' for Active; 'I' for Inactive)
REMARK    1  A    between atoms: C5_9  and  N2_10 
REMARK    2  A    between atoms: N2_10  and  C6_12 
REMARK    3  A    between atoms: C6_12  and  N3_14 
REMARK    4  A    between atoms: N3_14  and  C7_16 
ROOT
HETATM    1  C1  UNL     1       1.095 -10.331  -8.733  1.00  0.00     0.163 C 
HETATM    2  N1  UNL     1       1.382 -11.179  -7.582  1.00  0.00    -0.284 N 
HETATM    3  C2  UNL     1       1.308 -12.573  -7.569  1.00  0.00     0.268 A 
HETATM    4  O1  UNL     1       0.983 -13.320  -8.548  1.00  0.00    -0.266 OA
HETATM    5  C3  UNL     1       1.677 -13.000  -6.217  1.00  0.00     0.092 A 
HETATM    6  S1  UNL     1       1.899 -14.346  -5.195  1.00  0.00    -0.074 SA
HETATM    7  C4  UNL     1       2.360 -13.539  -3.765  1.00  0.00     0.080 A 
HETATM    8 BR1  UNL     1       2.817 -14.288  -2.045  1.00  0.00    -0.041 Br
HETATM    9  C5  UNL     1       2.325 -12.219  -4.136  1.00  0.00     0.076 A 
HETATM   10  C11 UNL     1       1.973 -11.945  -5.403  1.00  0.00     0.083 A 
HETATM   11  C12 UNL     1       1.783 -10.764  -6.282  1.00  0.00     0.264 A 
HETATM   12  O2  UNL     1       1.930  -9.545  -6.009  1.00  0.00    -0.267 OA
ENDROOT
BRANCH   9  13
HETATM   13  N2  UNL     1       2.672 -11.220  -3.133  1.00  0.00    -0.331 N 
ATOM     14  H2  UNL     1       2.183 -11.218  -2.238  1.00  0.00     0.168 HD
BRANCH  13  15
HETATM   15  C6  UNL     1       3.675 -10.251  -3.378  1.00  0.00     0.172 C 
HETATM   16  S2  UNL     1       5.136 -10.778  -3.878  1.00  0.00    -0.041 SA
BRANCH  15  17
HETATM   17  N3  UNL     1       3.405  -8.868  -3.192  1.00  0.00    -0.359 N 
ATOM     18  H3  UNL     1       3.340  -8.275  -4.020  1.00  0.00     0.162 HD
BRANCH  17  19
HETATM   19  C7  UNL     1       3.219  -8.257  -1.911  1.00  0.00     0.021 C 
HETATM   20  C8  UNL     1       3.366  -6.751  -2.114  1.00  0.00     0.037 C 
HETATM   21  C9  UNL     1       4.286  -8.750  -0.963  1.00  0.00     0.037 C 
HETATM   22  C10 UNL     1       1.838  -8.486  -1.343  1.00  0.00     0.037 C 
ENDBRANCH  17  19
ENDBRANCH  15  17
ENDBRANCH  13  15
ENDBRANCH   9  13
TORSDOF 4
ENDMDL
MODEL 4
REMARK VINA RESULT: -5.766405630      2.624      6.286
REMARK  4 active torsions:
REMARK  status: ('A' for Active; 'I' for Inactive)
REMARK    1  A    between atoms: C5_9  and  N2_10 
REMARK    2  A    between atoms: N2_10  and  C6_12 
REMARK    3  A    between atoms: C6_12  and  N3_14 
REMARK    4  A    between atoms: N3_14  and  C7_16 
ROOT
HETATM    1  C1  UNL     1       3.161  -9.590 -10.307  1.00  0.00     0.163 C 
HETATM    2  N1  UNL     1       2.846 -10.634  -9.339  1.00  0.00    -0.284 N 
HETATM    3  C2  UNL     1       2.541 -11.960  -9.654  1.00  0.00     0.268 A 
HETATM    4  O1  UNL     1       2.491 -12.465 -10.823  1.00  0.00    -0.266 OA
HETATM    5  C3  UNL     1       2.294 -12.646  -8.384  1.00  0.00     0.092 A 
HETATM    6  S1  UNL     1       1.884 -14.136  -7.665  1.00  0.00    -0.074 SA
HETATM    7  C4  UNL     1       1.896 -13.668  -6.025  1.00  0.00     0.080 A 
HETATM    8 BR1  UNL     1       1.535 -14.737  -4.458  1.00  0.00    -0.041 Br
HETATM    9  C5  UNL     1       2.224 -12.339  -6.090  1.00  0.00     0.076 A 
HETATM   10  C11 UNL     1       2.430 -11.815  -7.310  1.00  0.00     0.083 A 
HETATM   11  C12 UNL     1       2.786 -10.511  -7.924  1.00  0.00     0.264 A 
HETATM   12  O2  UNL     1       3.021  -9.411  -7.360  1.00  0.00    -0.267 OA
ENDROOT
BRANCH   9  13
HETATM   13  N2  UNL     1       2.327 -11.599  -4.839  1.00  0.00    -0.331 N 
ATOM     14  H2  UNL     1       1.525 -11.062  -4.508  1.00  0.00     0.168 HD
BRANCH  13  15
HETATM   15  C6  UNL     1       3.518 -11.611  -4.073  1.00  0.00     0.172 C 
HETATM   16  S2  UNL     1       4.821 -10.839  -4.680  1.00  0.00    -0.041 SA
BRANCH  15  17
HETATM   17  N3  UNL     1       3.563 -12.277  -2.817  1.00  0.00    -0.359 N 
ATOM     18  H3  UNL     1       4.050 -13.172  -2.765  1.00  0.00     0.162 HD
BRANCH  17  19
HETATM   19  C7  UNL     1       2.967 -11.765  -1.621  1.00  0.00     0.021 C 
HETATM   20  C8  UNL     1       4.037 -11.823  -0.534  1.00  0.00     0.037 C 
HETATM   21  C9  UNL     1       1.798 -12.639  -1.233  1.00  0.00     0.037 C 
HETATM   22  C10 UNL     1       2.549 -10.319  -1.743  1.00  0.00     0.037 C 
ENDBRANCH  17  19
ENDBRANCH  15  17
ENDBRANCH  13  15
ENDBRANCH   9  13
TORSDOF 4
ENDMDL
MODEL 5
REMARK VINA RESULT: -5.574640913      2.867      6.018
REMARK  4 active torsions:
REMARK  status: ('A' for Active; 'I' for Inactive)
REMARK    1  A    between atoms: C5_9  and  N2_10 
REMARK    2  A    between atoms: N2_10  and  C6_12 
REMARK    3  A    between atoms: C6_12  and  N3_14 
REMARK    4  A    between atoms: N3_14  and  C7_16 
ROOT
HETATM    1  C1  UNL     1       2.533 -12.168  -9.187  1.00  0.00     0.163 C 
HETATM    2  N1  UNL     1       2.389 -12.420  -7.758  1.00  0.00    -0.284 N 
HETATM    3  C2  UNL     1       2.014 -13.638  -7.188  1.00  0.00     0.268 A 
HETATM    4  O1  UNL     1       1.739 -14.712  -7.817  1.00  0.00    -0.266 OA
HETATM    5  C3  UNL     1       1.998 -13.436  -5.737  1.00  0.00     0.092 A 
HETATM    6  S1  UNL     1       1.710 -14.180  -4.232  1.00  0.00    -0.074 SA
HETATM    7  C4  UNL     1       2.034 -12.861  -3.200  1.00  0.00     0.080 A 
HETATM    8 BR1  UNL     1       1.959 -12.785  -1.272  1.00  0.00    -0.041 Br
HETATM    9  C5  UNL     1       2.363 -11.862  -4.079  1.00  0.00     0.076 A 
HETATM   10  C11 UNL     1       2.344 -12.162  -5.388  1.00  0.00     0.083 A 
HETATM   11  C12 UNL     1       2.597 -11.501  -6.693  1.00  0.00     0.264 A 
HETATM   12  O2  UNL     1       2.948 -10.315  -6.922  1.00  0.00    -0.267 OA
ENDROOT
BRANCH   9  13
HETATM   13  N2  UNL     1       2.707 -10.557  -3.529  1.00  0.00    -0.331 N 
ATOM     14  H2  UNL     1       2.005  -9.818  -3.515  1.00  0.00     0.168 HD
BRANCH  13  15
HETATM   15  C6  UNL     1       4.000 -10.294  -3.014  1.00  0.00     0.172 C 
HETATM   16  S2  UNL     1       5.279 -10.573  -3.988  1.00  0.00    -0.041 SA
BRANCH  15  17
HETATM   17  N3  UNL     1       4.165  -9.802  -1.690  1.00  0.00    -0.359 N 
ATOM     18  H3  UNL     1       4.729 -10.349  -1.040  1.00  0.00     0.162 HD
BRANCH  17  19
HETATM   19  C7  UNL     1       3.585  -8.582  -1.215  1.00  0.00     0.021 C 
HETATM   20  C8  UNL     1       4.552  -8.005  -0.185  1.00  0.00     0.037 C 
HETATM   21  C9  UNL     1       2.259  -8.884  -0.557  1.00  0.00     0.037 C 
HETATM   22  C10 UNL     1       3.431  -7.542  -2.299  1.00  0.00     0.037 C 
ENDBRANCH  17  19
ENDBRANCH  15  17
ENDBRANCH  13  15
ENDBRANCH   9  13
TORSDOF 4
ENDMDL
