MODEL 1
REMARK VINA RESULT: -8.118901663      0.000      0.000
REMARK  11 active torsions:
REMARK  status: ('A' for Active; 'I' for Inactive)
REMARK    1  A    between atoms: C2_2  and  N1_3 
REMARK       I    between atoms: N1_3  and  C3_5 
REMARK    2  A    between atoms: C3_5  and  C4_7 
REMARK    3  A    between atoms: C5_8  and  N2_9 
REMARK    4  A    between atoms: N2_9  and  C6_11 
REMARK    5  A    between atoms: C6_11  and  C7_12 
REMARK    6  A    between atoms: C7_12  and  C8_13 
REMARK    7  A    between atoms: C7_12  and  S1_26 
REMARK    8  A    between atoms: C8_13  and  C9_15 
REMARK    9  A    between atoms: C9_15  and  O3_16 
REMARK   10  A    between atoms: C9_15  and  N3_18 
REMARK   11  A    between atoms: N3_18  and  C10_20 
ROOT
HETATM    1  C6  UNL     1      -8.214 -25.100 -91.389  1.00  0.00     0.150 C 
ENDROOT
BRANCH   1   2
HETATM    2  N2  UNL     1      -7.906 -23.949 -92.138  1.00  0.00    -0.391 N 
ATOM      3  H2  UNL     1      -8.376 -23.074 -91.905  1.00  0.00     0.159 HD
BRANCH   2   4
HETATM    4  C5  UNL     1      -7.001 -23.955 -93.168  1.00  0.00     0.021 C 
HETATM    5  C4  UNL     1      -7.248 -24.364 -94.557  1.00  0.00     0.062 C 
HETATM    6  C20 UNL     1      -6.183 -23.758 -95.428  1.00  0.00     0.226 C 
HETATM    7  C19 UNL     1      -5.794 -22.354 -95.096  1.00  0.00     0.040 C 
HETATM    8  N4  UNL     1      -4.915 -24.460 -95.061  1.00  0.00    -0.062 N 
HETATM    9  C18 UNL     1      -4.786 -22.464 -93.967  1.00  0.00     0.036 C 
HETATM   10  C17 UNL     1      -4.640 -23.940 -93.736  1.00  0.00     0.192 C 
HETATM   11  C16 UNL     1      -5.638 -24.532 -92.758  1.00  0.00     0.090 C 
ATOM     12  H42 UNL     1      -4.154 -24.348 -95.731  1.00  0.00     0.278 HD
ATOM     13  H41 UNL     1      -4.955 -25.477 -95.122  1.00  0.00     0.278 HD
BRANCH   5  14
HETATM   14  C3  UNL     1      -8.543 -24.415 -95.153  1.00  0.00     0.251 C 
HETATM   15  N1  UNL     1      -8.857 -23.680 -96.334  1.00  0.00    -0.357 N 
ATOM     16  H1  UNL     1      -8.138 -23.096 -96.760  1.00  0.00     0.162 HD
HETATM   17  O1  UNL     1      -9.493 -25.101 -94.701  1.00  0.00    -0.268 OA
BRANCH  15  18
HETATM   18  C2  UNL     1     -10.172 -23.740 -96.950  1.00  0.00     0.118 C 
HETATM   19  C1  UNL     1     -10.141 -23.720 -98.437  1.00  0.00     0.026 C 
ENDBRANCH  15  18
ENDBRANCH   5  14
ENDBRANCH   2   4
ENDBRANCH   1   2
BRANCH   1  20
HETATM   20  C7  UNL     1      -8.704 -24.674 -89.959  1.00  0.00     0.222 C 
BRANCH  20  21
HETATM   21  C8  UNL     1      -7.549 -24.816 -89.060  1.00  0.00     0.197 C 
HETATM   22  O2  UNL     1      -6.839 -25.856 -89.246  1.00  0.00    -0.292 OA
BRANCH  21  23
HETATM   23  C9  UNL     1      -7.070 -23.957 -87.989  1.00  0.00     0.290 C 
BRANCH  23  24
HETATM   24  O3  UNL     1      -7.865 -24.187 -86.833  1.00  0.00    -0.370 OA
ATOM     25  H3  UNL     1      -7.964 -25.124 -86.714  1.00  0.00     0.212 HD
ENDBRANCH  23  24
BRANCH  23  26
HETATM   26  N3  UNL     1      -7.008 -22.555 -88.162  1.00  0.00    -0.358 N 
ATOM     27  H3  UNL     1      -7.719 -22.026 -87.657  1.00  0.00     0.162 HD
BRANCH  26  28
HETATM   28  C10 UNL     1      -6.118 -21.779 -88.923  1.00  0.00     0.030 A 
HETATM   29  C11 UNL     1      -6.271 -21.653 -90.308  1.00  0.00     0.029 A 
HETATM   30  C12 UNL     1      -5.415 -20.899 -91.076  1.00  0.00     0.002 A 
HETATM   31  C13 UNL     1      -4.364 -20.238 -90.495  1.00  0.00     0.000 A 
HETATM   32  C14 UNL     1      -4.191 -20.345 -89.138  1.00  0.00     0.002 A 
HETATM   33  C15 UNL     1      -5.069 -21.114 -88.368  1.00  0.00     0.029 A 
ENDBRANCH  26  28
ENDBRANCH  23  26
ENDBRANCH  21  23
ENDBRANCH  20  21
BRANCH  20  34
HETATM   34  S1  UNL     1     -10.062 -25.657 -89.484  1.00  0.00     0.115 S 
HETATM   35  O4  UNL     1     -10.265 -26.828 -90.365  1.00  0.00    -0.594 OA
HETATM   36  O5  UNL     1      -9.933 -26.004 -88.021  1.00  0.00    -0.594 OA
HETATM   37  O6  UNL     1     -11.517 -24.767 -89.566  1.00  0.00    -0.594 OA
ENDBRANCH  20  34
ENDBRANCH   1  20
TORSDOF 11
ENDMDL
MODEL 2
REMARK VINA RESULT: -7.640062360      1.393      3.205
REMARK  11 active torsions:
REMARK  status: ('A' for Active; 'I' for Inactive)
REMARK    1  A    between atoms: C2_2  and  N1_3 
REMARK       I    between atoms: N1_3  and  C3_5 
REMARK    2  A    between atoms: C3_5  and  C4_7 
REMARK    3  A    between atoms: C5_8  and  N2_9 
REMARK    4  A    between atoms: N2_9  and  C6_11 
REMARK    5  A    between atoms: C6_11  and  C7_12 
REMARK    6  A    between atoms: C7_12  and  C8_13 
REMARK    7  A    between atoms: C7_12  and  S1_26 
REMARK    8  A    between atoms: C8_13  and  C9_15 
REMARK    9  A    between atoms: C9_15  and  O3_16 
REMARK   10  A    between atoms: C9_15  and  N3_18 
REMARK   11  A    between atoms: N3_18  and  C10_20 
ROOT
HETATM    1  C6  UNL     1      -8.288 -25.522 -91.666  1.00  0.00     0.150 C 
ENDROOT
BRANCH   1   2
HETATM    2  N2  UNL     1      -7.191 -24.828 -92.211  1.00  0.00    -0.391 N 
ATOM      3  H2  UNL     1      -6.334 -24.760 -91.662  1.00  0.00     0.159 HD
BRANCH   2   4
HETATM    4  C5  UNL     1      -7.227 -24.240 -93.449  1.00  0.00     0.021 C 
HETATM    5  C4  UNL     1      -6.240 -23.308 -94.012  1.00  0.00     0.062 C 
HETATM    6  C20 UNL     1      -6.383 -23.309 -95.508  1.00  0.00     0.226 C 
HETATM    7  C19 UNL     1      -6.629 -24.643 -96.137  1.00  0.00     0.040 C 
HETATM    8  N4  UNL     1      -7.701 -22.659 -95.787  1.00  0.00    -0.062 N 
HETATM    9  C18 UNL     1      -8.121 -24.888 -96.008  1.00  0.00     0.036 C 
HETATM   10  C17 UNL     1      -8.648 -23.656 -95.330  1.00  0.00     0.192 C 
HETATM   11  C16 UNL     1      -8.619 -23.705 -93.814  1.00  0.00     0.090 C 
ATOM     12  H42 UNL     1      -7.832 -22.354 -96.751  1.00  0.00     0.278 HD
ATOM     13  H41 UNL     1      -7.819 -21.735 -95.371  1.00  0.00     0.278 HD
BRANCH   5  14
HETATM   14  C3  UNL     1      -4.897 -23.196 -93.545  1.00  0.00     0.251 C 
HETATM   15  N1  UNL     1      -3.982 -22.256 -94.106  1.00  0.00    -0.357 N 
ATOM     16  H1  UNL     1      -4.295 -21.654 -94.868  1.00  0.00     0.162 HD
HETATM   17  O1  UNL     1      -4.419 -23.893 -92.617  1.00  0.00    -0.268 OA
BRANCH  15  18
HETATM   18  C2  UNL     1      -2.617 -22.131 -93.624  1.00  0.00     0.118 C 
HETATM   19  C1  UNL     1      -1.779 -21.199 -94.427  1.00  0.00     0.026 C 
ENDBRANCH  15  18
ENDBRANCH   5  14
ENDBRANCH   2   4
ENDBRANCH   1   2
BRANCH   1  20
HETATM   20  C7  UNL     1      -8.695 -24.860 -90.301  1.00  0.00     0.222 C 
BRANCH  20  21
HETATM   21  C8  UNL     1      -7.511 -24.929 -89.432  1.00  0.00     0.197 C 
HETATM   22  O2  UNL     1      -6.845 -26.010 -89.505  1.00  0.00    -0.292 OA
BRANCH  21  23
HETATM   23  C9  UNL     1      -6.962 -23.958 -88.499  1.00  0.00     0.290 C 
BRANCH  23  24
HETATM   24  O3  UNL     1      -7.566 -24.159 -87.227  1.00  0.00    -0.370 OA
ATOM     25  H3  UNL     1      -7.680 -23.314 -86.809  1.00  0.00     0.212 HD
ENDBRANCH  23  24
BRANCH  23  26
HETATM   26  N3  UNL     1      -7.046 -22.572 -88.768  1.00  0.00    -0.358 N 
ATOM     27  H3  UNL     1      -7.940 -22.140 -88.537  1.00  0.00     0.162 HD
BRANCH  26  28
HETATM   28  C10 UNL     1      -6.084 -21.699 -89.304  1.00  0.00     0.030 A 
HETATM   29  C11 UNL     1      -6.083 -21.373 -90.664  1.00  0.00     0.029 A 
HETATM   30  C12 UNL     1      -5.154 -20.521 -91.215  1.00  0.00     0.002 A 
HETATM   31  C13 UNL     1      -4.182 -19.956 -90.430  1.00  0.00     0.000 A 
HETATM   32  C14 UNL     1      -4.161 -20.259 -89.092  1.00  0.00     0.002 A 
HETATM   33  C15 UNL     1      -5.112 -21.127 -88.544  1.00  0.00     0.029 A 
ENDBRANCH  26  28
ENDBRANCH  23  26
ENDBRANCH  21  23
ENDBRANCH  20  21
BRANCH  20  34
HETATM   34  S1  UNL     1     -10.078 -25.685 -89.636  1.00  0.00     0.115 S 
HETATM   35  O4  UNL     1     -10.449 -26.899 -90.395  1.00  0.00    -0.594 OA
HETATM   36  O5  UNL     1      -9.849 -25.927 -88.164  1.00  0.00    -0.594 OA
HETATM   37  O6  UNL     1     -11.462 -24.684 -89.674  1.00  0.00    -0.594 OA
ENDBRANCH  20  34
ENDBRANCH   1  20
TORSDOF 11
ENDMDL
MODEL 3
REMARK VINA RESULT: -7.586521014      2.377      3.788
REMARK  11 active torsions:
REMARK  status: ('A' for Active; 'I' for Inactive)
REMARK    1  A    between atoms: C2_2  and  N1_3 
REMARK       I    between atoms: N1_3  and  C3_5 
REMARK    2  A    between atoms: C3_5  and  C4_7 
REMARK    3  A    between atoms: C5_8  and  N2_9 
REMARK    4  A    between atoms: N2_9  and  C6_11 
REMARK    5  A    between atoms: C6_11  and  C7_12 
REMARK    6  A    between atoms: C7_12  and  C8_13 
REMARK    7  A    between atoms: C7_12  and  S1_26 
REMARK    8  A    between atoms: C8_13  and  C9_15 
REMARK    9  A    between atoms: C9_15  and  O3_16 
REMARK   10  A    between atoms: C9_15  and  N3_18 
REMARK   11  A    between atoms: N3_18  and  C10_20 
ROOT
HETATM    1  C6  UNL     1      -7.818 -24.478 -90.450  1.00  0.00     0.150 C 
ENDROOT
BRANCH   1   2
HETATM    2  N2  UNL     1      -8.764 -25.514 -90.563  1.00  0.00    -0.391 N 
ATOM      3  H2  UNL     1      -9.636 -25.440 -90.038  1.00  0.00     0.159 HD
BRANCH   2   4
HETATM    4  C5  UNL     1      -8.562 -26.619 -91.348  1.00  0.00     0.021 C 
HETATM    5  C4  UNL     1      -8.689 -26.698 -92.810  1.00  0.00     0.062 C 
HETATM    6  C20 UNL     1      -7.918 -27.895 -93.292  1.00  0.00     0.226 C 
HETATM    7  C19 UNL     1      -6.605 -28.136 -92.619  1.00  0.00     0.040 C 
HETATM    8  N4  UNL     1      -8.672 -29.087 -92.795  1.00  0.00    -0.062 N 
HETATM    9  C18 UNL     1      -6.932 -28.880 -91.337  1.00  0.00     0.036 C 
HETATM   10  C17 UNL     1      -8.424 -29.044 -91.368  1.00  0.00     0.192 C 
HETATM   11  C16 UNL     1      -9.202 -27.888 -90.766  1.00  0.00     0.090 C 
ATOM     12  H42 UNL     1      -8.427 -29.967 -93.246  1.00  0.00     0.278 HD
ATOM     13  H41 UNL     1      -9.657 -29.110 -93.057  1.00  0.00     0.278 HD
BRANCH   5  14
HETATM   14  C3  UNL     1      -8.627 -25.565 -93.675  1.00  0.00     0.251 C 
HETATM   15  N1  UNL     1      -7.759 -25.530 -94.806  1.00  0.00    -0.357 N 
ATOM     16  H1  UNL     1      -7.161 -26.333 -94.997  1.00  0.00     0.162 HD
HETATM   17  O1  UNL     1      -9.321 -24.530 -93.522  1.00  0.00    -0.268 OA
BRANCH  15  18
HETATM   18  C2  UNL     1      -7.703 -24.382 -95.696  1.00  0.00     0.118 C 
HETATM   19  C1  UNL     1      -6.559 -23.470 -95.429  1.00  0.00     0.026 C 
ENDBRANCH  15  18
ENDBRANCH   5  14
ENDBRANCH   2   4
ENDBRANCH   1   2
BRANCH   1  20
HETATM   20  C7  UNL     1      -7.889 -23.865 -89.006  1.00  0.00     0.222 C 
BRANCH  20  21
HETATM   21  C8  UNL     1      -6.670 -23.060 -88.832  1.00  0.00     0.197 C 
HETATM   22  O2  UNL     1      -6.800 -22.027 -88.102  1.00  0.00    -0.292 OA
BRANCH  21  23
HETATM   23  C9  UNL     1      -5.325 -23.252 -89.350  1.00  0.00     0.290 C 
BRANCH  23  24
HETATM   24  O3  UNL     1      -4.670 -24.236 -88.560  1.00  0.00    -0.370 OA
ATOM     25  H3  UNL     1      -3.858 -23.870 -88.231  1.00  0.00     0.212 HD
ENDBRANCH  23  24
BRANCH  23  26
HETATM   26  N3  UNL     1      -4.430 -22.162 -89.455  1.00  0.00    -0.358 N 
ATOM     27  H3  UNL     1      -3.814 -22.030 -88.654  1.00  0.00     0.162 HD
BRANCH  26  28
HETATM   28  C10 UNL     1      -4.260 -21.233 -90.496  1.00  0.00     0.030 A 
HETATM   29  C11 UNL     1      -4.133 -19.866 -90.231  1.00  0.00     0.029 A 
HETATM   30  C12 UNL     1      -3.965 -18.937 -91.230  1.00  0.00     0.002 A 
HETATM   31  C13 UNL     1      -3.918 -19.331 -92.542  1.00  0.00     0.000 A 
HETATM   32  C14 UNL     1      -4.040 -20.667 -92.831  1.00  0.00     0.002 A 
HETATM   33  C15 UNL     1      -4.211 -21.603 -91.804  1.00  0.00     0.029 A 
ENDBRANCH  26  28
ENDBRANCH  23  26
ENDBRANCH  21  23
ENDBRANCH  20  21
BRANCH  20  34
HETATM   34  S1  UNL     1      -8.035 -25.143 -87.830  1.00  0.00     0.115 S 
HETATM   35  O4  UNL     1      -7.092 -26.258 -88.067  1.00  0.00    -0.594 OA
HETATM   36  O5  UNL     1      -7.952 -24.551 -86.445  1.00  0.00    -0.594 OA
HETATM   37  O6  UNL     1      -9.592 -25.843 -87.882  1.00  0.00    -0.594 OA
ENDBRANCH  20  34
ENDBRANCH   1  20
TORSDOF 11
ENDMDL
MODEL 4
REMARK VINA RESULT: -7.572781131      3.594      5.652
REMARK  11 active torsions:
REMARK  status: ('A' for Active; 'I' for Inactive)
REMARK    1  A    between atoms: C2_2  and  N1_3 
REMARK       I    between atoms: N1_3  and  C3_5 
REMARK    2  A    between atoms: C3_5  and  C4_7 
REMARK    3  A    between atoms: C5_8  and  N2_9 
REMARK    4  A    between atoms: N2_9  and  C6_11 
REMARK    5  A    between atoms: C6_11  and  C7_12 
REMARK    6  A    between atoms: C7_12  and  C8_13 
REMARK    7  A    between atoms: C7_12  and  S1_26 
REMARK    8  A    between atoms: C8_13  and  C9_15 
REMARK    9  A    between atoms: C9_15  and  O3_16 
REMARK   10  A    between atoms: C9_15  and  N3_18 
REMARK   11  A    between atoms: N3_18  and  C10_20 
ROOT
HETATM    1  C6  UNL     1      -7.389 -23.585 -88.934  1.00  0.00     0.150 C 
ENDROOT
BRANCH   1   2
HETATM    2  N2  UNL     1      -8.517 -24.255 -88.425  1.00  0.00    -0.391 N 
ATOM      3  H2  UNL     1      -9.417 -23.775 -88.436  1.00  0.00     0.159 HD
BRANCH   2   4
HETATM    4  C5  UNL     1      -8.457 -25.526 -87.917  1.00  0.00     0.021 C 
HETATM    5  C4  UNL     1      -9.235 -26.692 -88.359  1.00  0.00     0.062 C 
HETATM    6  C20 UNL     1      -8.525 -27.938 -87.908  1.00  0.00     0.226 C 
HETATM    7  C19 UNL     1      -7.035 -27.916 -88.027  1.00  0.00     0.040 C 
HETATM    8  N4  UNL     1      -8.653 -27.957 -86.418  1.00  0.00    -0.062 N 
HETATM    9  C18 UNL     1      -6.535 -27.199 -86.786  1.00  0.00     0.036 C 
HETATM   10  C17 UNL     1      -7.780 -26.874 -86.012  1.00  0.00     0.192 C 
HETATM   11  C16 UNL     1      -8.429 -25.553 -86.382  1.00  0.00     0.090 C 
ATOM     12  H42 UNL     1      -8.451 -28.856 -85.982  1.00  0.00     0.278 HD
ATOM     13  H41 UNL     1      -9.609 -27.889 -86.069  1.00  0.00     0.278 HD
BRANCH   5  14
HETATM   14  C3  UNL     1      -9.855 -26.794 -89.639  1.00  0.00     0.251 C 
HETATM   15  N1  UNL     1      -9.737 -27.968 -90.441  1.00  0.00    -0.357 N 
ATOM     16  H1  UNL     1      -9.187 -28.753 -90.092  1.00  0.00     0.162 HD
HETATM   17  O1  UNL     1     -10.548 -25.882 -90.155  1.00  0.00    -0.268 OA
BRANCH  15  18
HETATM   18  C2  UNL     1     -10.378 -28.079 -91.740  1.00  0.00     0.118 C 
HETATM   19  C1  UNL     1      -9.457 -28.498 -92.831  1.00  0.00     0.026 C 
ENDBRANCH  15  18
ENDBRANCH   5  14
ENDBRANCH   2   4
ENDBRANCH   1   2
BRANCH   1  20
HETATM   20  C7  UNL     1      -6.407 -24.631 -89.572  1.00  0.00     0.222 C 
BRANCH  20  21
HETATM   21  C8  UNL     1      -5.046 -24.116 -89.354  1.00  0.00     0.197 C 
HETATM   22  O2  UNL     1      -4.182 -24.988 -89.022  1.00  0.00    -0.292 OA
BRANCH  21  23
HETATM   23  C9  UNL     1      -4.514 -22.768 -89.463  1.00  0.00     0.290 C 
BRANCH  23  24
HETATM   24  O3  UNL     1      -4.408 -22.214 -88.158  1.00  0.00    -0.370 OA
ATOM     25  H3  UNL     1      -4.191 -22.910 -87.550  1.00  0.00     0.212 HD
ENDBRANCH  23  24
BRANCH  23  26
HETATM   26  N3  UNL     1      -5.166 -21.796 -90.259  1.00  0.00    -0.358 N 
ATOM     27  H3  UNL     1      -6.184 -21.806 -90.205  1.00  0.00     0.162 HD
BRANCH  26  28
HETATM   28  C10 UNL     1      -4.624 -20.820 -91.112  1.00  0.00     0.030 A 
HETATM   29  C11 UNL     1      -4.028 -19.663 -90.600  1.00  0.00     0.029 A 
HETATM   30  C12 UNL     1      -3.490 -18.693 -91.413  1.00  0.00     0.002 A 
HETATM   31  C13 UNL     1      -3.522 -18.836 -92.776  1.00  0.00     0.000 A 
HETATM   32  C14 UNL     1      -4.101 -19.962 -93.305  1.00  0.00     0.002 A 
HETATM   33  C15 UNL     1      -4.645 -20.942 -92.467  1.00  0.00     0.029 A 
ENDBRANCH  26  28
ENDBRANCH  23  26
ENDBRANCH  21  23
ENDBRANCH  20  21
BRANCH  20  34
HETATM   34  S1  UNL     1      -6.791 -24.849 -91.257  1.00  0.00     0.115 S 
HETATM   35  O4  UNL     1      -5.759 -24.297 -92.162  1.00  0.00    -0.594 OA
HETATM   36  O5  UNL     1      -7.114 -26.301 -91.506  1.00  0.00    -0.594 OA
HETATM   37  O6  UNL     1      -8.236 -24.034 -91.663  1.00  0.00    -0.594 OA
ENDBRANCH  20  34
ENDBRANCH   1  20
TORSDOF 11
ENDMDL
MODEL 5
REMARK VINA RESULT: -7.541474003      2.706      3.766
REMARK  11 active torsions:
REMARK  status: ('A' for Active; 'I' for Inactive)
REMARK    1  A    between atoms: C2_2  and  N1_3 
REMARK       I    between atoms: N1_3  and  C3_5 
REMARK    2  A    between atoms: C3_5  and  C4_7 
REMARK    3  A    between atoms: C5_8  and  N2_9 
REMARK    4  A    between atoms: N2_9  and  C6_11 
REMARK    5  A    between atoms: C6_11  and  C7_12 
REMARK    6  A    between atoms: C7_12  and  C8_13 
REMARK    7  A    between atoms: C7_12  and  S1_26 
REMARK    8  A    between atoms: C8_13  and  C9_15 
REMARK    9  A    between atoms: C9_15  and  O3_16 
REMARK   10  A    between atoms: C9_15  and  N3_18 
REMARK   11  A    between atoms: N3_18  and  C10_20 
ROOT
HETATM    1  C6  UNL     1      -7.198 -27.053 -89.104  1.00  0.00     0.150 C 
ENDROOT
BRANCH   1   2
HETATM    2  N2  UNL     1      -7.520 -26.611 -90.401  1.00  0.00    -0.391 N 
ATOM      3  H2  UNL     1      -7.624 -25.609 -90.566  1.00  0.00     0.159 HD
BRANCH   2   4
HETATM    4  C5  UNL     1      -7.700 -27.471 -91.453  1.00  0.00     0.021 C 
HETATM    5  C4  UNL     1      -8.362 -27.176 -92.732  1.00  0.00     0.062 C 
HETATM    6  C20 UNL     1      -7.908 -28.186 -93.748  1.00  0.00     0.226 C 
HETATM    7  C19 UNL     1      -6.460 -28.554 -93.697  1.00  0.00     0.040 C 
HETATM    8  N4  UNL     1      -8.508 -29.487 -93.318  1.00  0.00    -0.062 N 
HETATM    9  C18 UNL     1      -6.344 -29.612 -92.614  1.00  0.00     0.036 C 
HETATM   10  C17 UNL     1      -7.750 -29.805 -92.125  1.00  0.00     0.192 C 
HETATM   11  C16 UNL     1      -8.168 -28.865 -91.010  1.00  0.00     0.090 C 
ATOM     12  H42 UNL     1      -8.509 -30.215 -94.032  1.00  0.00     0.278 HD
ATOM     13  H41 UNL     1      -9.520 -29.470 -93.190  1.00  0.00     0.278 HD
BRANCH   5  14
HETATM   14  C3  UNL     1      -8.543 -25.858 -93.247  1.00  0.00     0.251 C 
HETATM   15  N1  UNL     1      -8.267 -25.538 -94.609  1.00  0.00    -0.357 N 
ATOM     16  H1  UNL     1      -7.923 -26.271 -95.230  1.00  0.00     0.162 HD
HETATM   17  O1  UNL     1      -8.958 -24.891 -92.562  1.00  0.00    -0.268 OA
BRANCH  15  18
HETATM   18  C2  UNL     1      -8.462 -24.200 -95.139  1.00  0.00     0.118 C 
HETATM   19  C1  UNL     1      -7.201 -23.427 -95.301  1.00  0.00     0.026 C 
ENDBRANCH  15  18
ENDBRANCH   5  14
ENDBRANCH   2   4
ENDBRANCH   1   2
BRANCH   1  20
HETATM   20  C7  UNL     1      -8.310 -26.577 -88.103  1.00  0.00     0.222 C 
BRANCH  20  21
HETATM   21  C8  UNL     1      -8.454 -25.126 -88.293  1.00  0.00     0.197 C 
HETATM   22  O2  UNL     1      -9.584 -24.744 -88.734  1.00  0.00    -0.292 OA
BRANCH  21  23
HETATM   23  C9  UNL     1      -7.517 -24.041 -88.051  1.00  0.00     0.290 C 
BRANCH  23  24
HETATM   24  O3  UNL     1      -7.666 -23.603 -86.706  1.00  0.00    -0.370 OA
ATOM     25  H3  UNL     1      -7.187 -24.195 -86.139  1.00  0.00     0.212 HD
ENDBRANCH  23  24
BRANCH  23  26
HETATM   26  N3  UNL     1      -7.535 -22.878 -88.855  1.00  0.00    -0.358 N 
ATOM     27  H3  UNL     1      -8.461 -22.576 -89.157  1.00  0.00     0.162 HD
BRANCH  26  28
HETATM   28  C10 UNL     1      -6.472 -22.075 -89.303  1.00  0.00     0.030 A 
HETATM   29  C11 UNL     1      -6.277 -21.828 -90.665  1.00  0.00     0.029 A 
HETATM   30  C12 UNL     1      -5.245 -21.046 -91.129  1.00  0.00     0.002 A 
HETATM   31  C13 UNL     1      -4.360 -20.475 -90.252  1.00  0.00     0.000 A 
HETATM   32  C14 UNL     1      -4.529 -20.701 -88.909  1.00  0.00     0.002 A 
HETATM   33  C15 UNL     1      -5.583 -21.499 -88.449  1.00  0.00     0.029 A 
ENDBRANCH  26  28
ENDBRANCH  23  26
ENDBRANCH  21  23
ENDBRANCH  20  21
BRANCH  20  34
HETATM   34  S1  UNL     1      -7.862 -27.010 -86.476  1.00  0.00     0.115 S 
HETATM   35  O4  UNL     1      -6.413 -27.263 -86.322  1.00  0.00    -0.594 OA
HETATM   36  O5  UNL     1      -8.411 -25.979 -85.521  1.00  0.00    -0.594 OA
HETATM   37  O6  UNL     1      -8.631 -28.458 -85.996  1.00  0.00    -0.594 OA
ENDBRANCH  20  34
ENDBRANCH   1  20
TORSDOF 11
ENDMDL
