MODEL 1
REMARK VINA RESULT: -6.122702668      0.000      0.000
REMARK  7 active torsions:
REMARK  status: ('A' for Active; 'I' for Inactive)
REMARK    1  A    between atoms: O1_2  and  N1_3 
REMARK    2  A    between atoms: N1_3  and  C2_5 
REMARK    3  A    between atoms: C2_5  and  C3_6 
REMARK    4  A    between atoms: C3_6  and  N2_7 
REMARK    5  A    between atoms: N2_7  and  C4_9 
REMARK    6  A    between atoms: C5_12  and  N4_13 
REMARK    7  A    between atoms: C10_21  and  N6_22 
REMARK       I    between atoms: N6_22  and  C11_24 
ROOT
HETATM    1  C4  UNL     1      19.678  14.378  17.062  1.00  0.00     0.707 A 
HETATM    2  N3  UNL     1      20.701  14.632  16.202  1.00  0.00    -0.021 N 
ATOM      3  H3  UNL     1      20.895  13.986  15.438  1.00  0.00     0.203 HD
HETATM    4  C5  UNL     1      21.455  15.726  16.356  1.00  0.00     0.709 A 
HETATM    5  N5  UNL     1      21.175  16.547  17.364  1.00  0.00    -0.021 N 
ATOM      6  H5  UNL     1      21.756  17.378  17.473  1.00  0.00     0.203 HD
HETATM    7  C10 UNL     1      20.153  16.353  18.275  1.00  0.00     0.713 A 
HETATM    8  N9  UNL     1      19.421  15.227  18.071  1.00  0.00    -0.021 N 
ATOM      9  H9  UNL     1      18.650  15.019  18.705  1.00  0.00     0.203 HD
ENDROOT
BRANCH   1  10
HETATM   10  N2  UNL     1      19.006  13.332  16.843  1.00  0.00    -0.220 N 
ATOM     11  H2  UNL     1      19.549  12.530  16.524  1.00  0.00     0.178 HD
BRANCH  10  12
HETATM   12  C3  UNL     1      17.611  13.097  16.973  1.00  0.00     0.184 C 
BRANCH  12  13
HETATM   13  C2  UNL     1      17.455  11.600  17.037  1.00  0.00     0.107 C 
BRANCH  13  14
HETATM   14  N1  UNL     1      18.016  10.898  16.133  1.00  0.00    -0.281 N 
ATOM     15  H1  UNL     1      19.001  10.649  16.219  1.00  0.00     0.193 HD
BRANCH  14  16
HETATM   16  O1  UNL     1      17.296  10.481  15.048  1.00  0.00    -0.286 OA
HETATM   17  C1  UNL     1      15.931  10.140  15.298  1.00  0.00     0.237 C 
ENDBRANCH  14  16
ENDBRANCH  13  14
ENDBRANCH  12  13
ENDBRANCH  10  12
ENDBRANCH   1  10
BRANCH   4  18
HETATM   18  N4  UNL     1      22.539  16.006  15.470  1.00  0.00    -0.213 N 
HETATM   19  C6  UNL     1      22.390  15.614  14.088  1.00  0.00     0.167 C 
HETATM   20  C7  UNL     1      23.001  16.646  13.160  1.00  0.00     0.188 C 
HETATM   21  O2  UNL     1      23.597  17.680  13.886  1.00  0.00    -0.388 OA
HETATM   22  C8  UNL     1      24.518  17.141  14.784  1.00  0.00     0.188 C 
HETATM   23  C9  UNL     1      23.704  16.670  16.002  1.00  0.00     0.167 C 
ENDBRANCH   4  18
BRANCH   7  24
HETATM   24  N6  UNL     1      19.988  17.190  19.168  1.00  0.00    -0.163 N 
HETATM   25  C11 UNL     1      19.253  18.235  19.560  1.00  0.00     0.200 C 
HETATM   26  N7  UNL     1      18.415  18.894  18.885  1.00  0.00    -0.373 N 
HETATM   27  N8  UNL     1      19.441  18.675  20.960  1.00  0.00    -0.063 NA
ATOM     28  H72 UNL     1      18.285  18.591  17.920  1.00  0.00     0.158 HD
ATOM     29  H71 UNL     1      17.854  19.692  19.184  1.00  0.00     0.158 HD
ATOM     30  H6  UNL     1      20.688  17.016  19.890  1.00  0.00     0.187 HD
ENDBRANCH   7  24
TORSDOF 7
ENDMDL
MODEL 2
REMARK VINA RESULT: -6.087228346      0.544      1.164
REMARK  7 active torsions:
REMARK  status: ('A' for Active; 'I' for Inactive)
REMARK    1  A    between atoms: O1_2  and  N1_3 
REMARK    2  A    between atoms: N1_3  and  C2_5 
REMARK    3  A    between atoms: C2_5  and  C3_6 
REMARK    4  A    between atoms: C3_6  and  N2_7 
REMARK    5  A    between atoms: N2_7  and  C4_9 
REMARK    6  A    between atoms: C5_12  and  N4_13 
REMARK    7  A    between atoms: C10_21  and  N6_22 
REMARK       I    between atoms: N6_22  and  C11_24 
ROOT
HETATM    1  C4  UNL     1      19.791  14.540  16.968  1.00  0.00     0.707 A 
HETATM    2  N3  UNL     1      20.682  14.922  16.014  1.00  0.00    -0.021 N 
ATOM      3  H3  UNL     1      20.853  14.320  15.209  1.00  0.00     0.203 HD
HETATM    4  C5  UNL     1      21.335  16.084  16.129  1.00  0.00     0.709 A 
HETATM    5  N5  UNL     1      21.089  16.843  17.191  1.00  0.00    -0.021 N 
ATOM      6  H5  UNL     1      21.593  17.726  17.269  1.00  0.00     0.203 HD
HETATM    7  C10 UNL     1      20.199  16.520  18.199  1.00  0.00     0.713 A 
HETATM    8  N9  UNL     1      19.564  15.330  18.031  1.00  0.00    -0.021 N 
ATOM      9  H9  UNL     1      18.893  15.026  18.736  1.00  0.00     0.203 HD
ENDROOT
BRANCH   1  10
HETATM   10  N2  UNL     1      19.206  13.437  16.783  1.00  0.00    -0.220 N 
ATOM     11  H2  UNL     1      19.826  12.634  16.675  1.00  0.00     0.178 HD
BRANCH  10  12
HETATM   12  C3  UNL     1      17.820  13.138  16.702  1.00  0.00     0.184 C 
BRANCH  12  13
HETATM   13  C2  UNL     1      17.702  11.669  17.015  1.00  0.00     0.107 C 
BRANCH  13  14
HETATM   14  N1  UNL     1      18.044  10.834  16.115  1.00  0.00    -0.281 N 
ATOM     15  H1  UNL     1      18.944  10.358  16.178  1.00  0.00     0.193 HD
BRANCH  14  16
HETATM   16  O1  UNL     1      17.205  10.578  15.066  1.00  0.00    -0.286 OA
HETATM   17  C1  UNL     1      15.883  10.161  15.412  1.00  0.00     0.237 C 
ENDBRANCH  14  16
ENDBRANCH  13  14
ENDBRANCH  12  13
ENDBRANCH  10  12
ENDBRANCH   1  10
BRANCH   4  18
HETATM   18  N4  UNL     1      22.281  16.498  15.142  1.00  0.00    -0.213 N 
HETATM   19  C6  UNL     1      23.447  17.220  15.595  1.00  0.00     0.167 C 
HETATM   20  C7  UNL     1      24.678  16.815  14.809  1.00  0.00     0.188 C 
HETATM   21  O2  UNL     1      24.355  15.889  13.814  1.00  0.00    -0.388 OA
HETATM   22  C8  UNL     1      23.341  16.412  13.011  1.00  0.00     0.188 C 
HETATM   23  C9  UNL     1      22.024  16.159  13.763  1.00  0.00     0.167 C 
ENDBRANCH   4  18
BRANCH   7  24
HETATM   24  N6  UNL     1      20.051  17.311  19.136  1.00  0.00    -0.163 N 
HETATM   25  C11 UNL     1      19.272  18.274  19.636  1.00  0.00     0.200 C 
HETATM   26  N7  UNL     1      18.321  18.880  19.068  1.00  0.00    -0.373 N 
HETATM   27  N8  UNL     1      19.557  18.685  21.029  1.00  0.00    -0.063 NA
ATOM     28  H72 UNL     1      18.125  18.597  18.108  1.00  0.00     0.158 HD
ATOM     29  H71 UNL     1      17.726  19.616  19.450  1.00  0.00     0.158 HD
ATOM     30  H6  UNL     1      20.829  17.176  19.782  1.00  0.00     0.187 HD
ENDBRANCH   7  24
TORSDOF 7
ENDMDL
MODEL 3
REMARK VINA RESULT: -6.028764988      2.611      5.319
REMARK  7 active torsions:
REMARK  status: ('A' for Active; 'I' for Inactive)
REMARK    1  A    between atoms: O1_2  and  N1_3 
REMARK    2  A    between atoms: N1_3  and  C2_5 
REMARK    3  A    between atoms: C2_5  and  C3_6 
REMARK    4  A    between atoms: C3_6  and  N2_7 
REMARK    5  A    between atoms: N2_7  and  C4_9 
REMARK    6  A    between atoms: C5_12  and  N4_13 
REMARK    7  A    between atoms: C10_21  and  N6_22 
REMARK       I    between atoms: N6_22  and  C11_24 
ROOT
HETATM    1  C4  UNL     1      21.851  15.144  17.525  1.00  0.00     0.707 A 
HETATM    2  N3  UNL     1      22.045  15.729  16.313  1.00  0.00    -0.021 N 
ATOM      3  H3  UNL     1      22.946  16.152  16.091  1.00  0.00     0.203 HD
HETATM    4  C5  UNL     1      21.057  15.753  15.411  1.00  0.00     0.709 A 
HETATM    5  N5  UNL     1      19.895  15.194  15.734  1.00  0.00    -0.021 N 
ATOM      6  H5  UNL     1      19.149  15.218  15.039  1.00  0.00     0.203 HD
HETATM    7  C10 UNL     1      19.627  14.583  16.945  1.00  0.00     0.713 A 
HETATM    8  N9  UNL     1      20.665  14.588  17.822  1.00  0.00    -0.021 N 
ATOM      9  H9  UNL     1      20.539  14.154  18.737  1.00  0.00     0.203 HD
ENDROOT
BRANCH   1  10
HETATM   10  N2  UNL     1      22.834  15.152  18.318  1.00  0.00    -0.220 N 
ATOM     11  H2  UNL     1      22.994  14.274  18.813  1.00  0.00     0.178 HD
BRANCH  10  12
HETATM   12  C3  UNL     1      23.752  16.191  18.628  1.00  0.00     0.184 C 
BRANCH  12  13
HETATM   13  C2  UNL     1      23.096  17.001  19.716  1.00  0.00     0.107 C 
BRANCH  13  14
HETATM   14  N1  UNL     1      21.994  17.583  19.449  1.00  0.00    -0.281 N 
ATOM     15  H1  UNL     1      21.996  18.474  18.952  1.00  0.00     0.193 HD
BRANCH  14  16
HETATM   16  O1  UNL     1      20.810  17.013  19.830  1.00  0.00    -0.286 OA
HETATM   17  C1  UNL     1      19.673  17.878  19.831  1.00  0.00     0.237 C 
ENDBRANCH  14  16
ENDBRANCH  13  14
ENDBRANCH  12  13
ENDBRANCH  10  12
ENDBRANCH   1  10
BRANCH   4  18
HETATM   18  N4  UNL     1      21.238  16.370  14.136  1.00  0.00    -0.213 N 
HETATM   19  C6  UNL     1      22.438  17.148  13.935  1.00  0.00     0.167 C 
HETATM   20  C7  UNL     1      22.979  16.962  12.531  1.00  0.00     0.188 C 
HETATM   21  O2  UNL     1      22.145  16.130  11.780  1.00  0.00    -0.388 OA
HETATM   22  C8  UNL     1      20.846  16.638  11.802  1.00  0.00     0.188 C 
HETATM   23  C9  UNL     1      20.224  16.170  13.128  1.00  0.00     0.167 C 
ENDBRANCH   4  18
BRANCH   7  24
HETATM   24  N6  UNL     1      18.508  14.093  17.127  1.00  0.00    -0.163 N 
HETATM   25  C11 UNL     1      17.786  12.970  17.062  1.00  0.00     0.200 C 
HETATM   26  N7  UNL     1      18.101  11.872  16.528  1.00  0.00    -0.373 N 
HETATM   27  N8  UNL     1      16.449  13.019  17.694  1.00  0.00    -0.063 NA
ATOM     28  H72 UNL     1      19.023  11.838  16.091  1.00  0.00     0.158 HD
ATOM     29  H71 UNL     1      17.550  11.015  16.478  1.00  0.00     0.158 HD
ATOM     30  H6  UNL     1      17.893  14.837  17.456  1.00  0.00     0.187 HD
ENDBRANCH   7  24
TORSDOF 7
ENDMDL
MODEL 4
REMARK VINA RESULT: -5.912069075      4.256      7.347
REMARK  7 active torsions:
REMARK  status: ('A' for Active; 'I' for Inactive)
REMARK    1  A    between atoms: O1_2  and  N1_3 
REMARK    2  A    between atoms: N1_3  and  C2_5 
REMARK    3  A    between atoms: C2_5  and  C3_6 
REMARK    4  A    between atoms: C3_6  and  N2_7 
REMARK    5  A    between atoms: N2_7  and  C4_9 
REMARK    6  A    between atoms: C5_12  and  N4_13 
REMARK    7  A    between atoms: C10_21  and  N6_22 
REMARK       I    between atoms: N6_22  and  C11_24 
ROOT
HETATM    1  C4  UNL     1      23.869  16.696  13.533  1.00  0.00     0.707 A 
HETATM    2  N3  UNL     1      23.902  16.801  14.888  1.00  0.00    -0.021 N 
ATOM      3  H3  UNL     1      24.793  16.931  15.367  1.00  0.00     0.203 HD
HETATM    4  C5  UNL     1      22.769  16.734  15.596  1.00  0.00     0.709 A 
HETATM    5  N5  UNL     1      21.625  16.563  14.941  1.00  0.00    -0.021 N 
ATOM      6  H5  UNL     1      20.768  16.513  15.490  1.00  0.00     0.203 HD
HETATM    7  C10 UNL     1      21.517  16.448  13.567  1.00  0.00     0.713 A 
HETATM    8  N9  UNL     1      22.698  16.523  12.899  1.00  0.00    -0.021 N 
ATOM      9  H9  UNL     1      22.694  16.446  11.882  1.00  0.00     0.203 HD
ENDROOT
BRANCH   1  10
HETATM   10  N2  UNL     1      24.978  16.780  12.935  1.00  0.00    -0.220 N 
ATOM     11  H2  UNL     1      25.754  17.105  13.512  1.00  0.00     0.178 HD
BRANCH  10  12
HETATM   12  C3  UNL     1      25.314  16.495  11.584  1.00  0.00     0.184 C 
BRANCH  12  13
HETATM   13  C2  UNL     1      25.334  17.826  10.880  1.00  0.00     0.107 C 
BRANCH  13  14
HETATM   14  N1  UNL     1      24.369  18.104  10.095  1.00  0.00    -0.281 N 
ATOM     15  H1  UNL     1      24.544  18.233   9.099  1.00  0.00     0.193 HD
BRANCH  14  16
HETATM   16  O1  UNL     1      23.100  18.231  10.590  1.00  0.00    -0.286 OA
HETATM   17  C1  UNL     1      22.056  18.299   9.618  1.00  0.00     0.237 C 
ENDBRANCH  14  16
ENDBRANCH  13  14
ENDBRANCH  12  13
ENDBRANCH  10  12
ENDBRANCH   1  10
BRANCH   4  18
HETATM   18  N4  UNL     1      22.783  16.833  17.021  1.00  0.00    -0.213 N 
HETATM   19  C6  UNL     1      21.644  17.452  17.659  1.00  0.00     0.167 C 
HETATM   20  C7  UNL     1      21.298  16.747  18.956  1.00  0.00     0.188 C 
HETATM   21  O2  UNL     1      22.204  15.718  19.224  1.00  0.00    -0.388 OA
HETATM   22  C8  UNL     1      23.501  16.231  19.211  1.00  0.00     0.188 C 
HETATM   23  C9  UNL     1      23.920  16.301  17.733  1.00  0.00     0.167 C 
ENDBRANCH   4  18
BRANCH   7  24
HETATM   24  N6  UNL     1      20.395  16.297  13.071  1.00  0.00    -0.163 N 
HETATM   25  C11 UNL     1      19.726  15.834  12.012  1.00  0.00     0.200 C 
HETATM   26  N7  UNL     1      20.190  15.466  10.898  1.00  0.00    -0.373 N 
HETATM   27  N8  UNL     1      18.256  15.739  12.161  1.00  0.00    -0.063 NA
ATOM     28  H72 UNL     1      21.203  15.531  10.795  1.00  0.00     0.158 HD
ATOM     29  H71 UNL     1      19.679  15.113  10.089  1.00  0.00     0.158 HD
ATOM     30  H6  UNL     1      19.712  16.673  13.729  1.00  0.00     0.187 HD
ENDBRANCH   7  24
TORSDOF 7
ENDMDL
MODEL 5
REMARK VINA RESULT: -5.803625310      2.890      5.381
REMARK  7 active torsions:
REMARK  status: ('A' for Active; 'I' for Inactive)
REMARK    1  A    between atoms: O1_2  and  N1_3 
REMARK    2  A    between atoms: N1_3  and  C2_5 
REMARK    3  A    between atoms: C2_5  and  C3_6 
REMARK    4  A    between atoms: C3_6  and  N2_7 
REMARK    5  A    between atoms: N2_7  and  C4_9 
REMARK    6  A    between atoms: C5_12  and  N4_13 
REMARK    7  A    between atoms: C10_21  and  N6_22 
REMARK       I    between atoms: N6_22  and  C11_24 
ROOT
HETATM    1  C4  UNL     1      23.223  16.473  16.405  1.00  0.00     0.707 A 
HETATM    2  N3  UNL     1      23.439  16.752  15.091  1.00  0.00    -0.021 N 
ATOM      3  H3  UNL     1      24.234  17.330  14.819  1.00  0.00     0.203 HD
HETATM    4  C5  UNL     1      22.613  16.271  14.155  1.00  0.00     0.709 A 
HETATM    5  N5  UNL     1      21.587  15.522  14.546  1.00  0.00    -0.021 N 
ATOM      6  H5  UNL     1      20.963  15.161  13.824  1.00  0.00     0.203 HD
HETATM    7  C10 UNL     1      21.305  15.198  15.860  1.00  0.00     0.713 A 
HETATM    8  N9  UNL     1      22.176  15.713  16.767  1.00  0.00    -0.021 N 
ATOM      9  H9  UNL     1      22.030  15.516  17.757  1.00  0.00     0.203 HD
ENDROOT
BRANCH   1  10
HETATM   10  N2  UNL     1      24.052  16.953  17.226  1.00  0.00    -0.220 N 
ATOM     11  H2  UNL     1      24.819  17.478  16.806  1.00  0.00     0.178 HD
BRANCH  10  12
HETATM   12  C3  UNL     1      24.084  16.878  18.645  1.00  0.00     0.184 C 
BRANCH  12  13
HETATM   13  C2  UNL     1      22.924  17.712  19.123  1.00  0.00     0.107 C 
BRANCH  13  14
HETATM   14  N1  UNL     1      22.035  17.148  19.840  1.00  0.00    -0.281 N 
ATOM     15  H1  UNL     1      22.259  16.853  20.791  1.00  0.00     0.193 HD
BRANCH  14  16
HETATM   16  O1  UNL     1      20.781  16.938  19.336  1.00  0.00    -0.286 OA
HETATM   17  C1  UNL     1      19.761  17.814  19.817  1.00  0.00     0.237 C 
ENDBRANCH  14  16
ENDBRANCH  13  14
ENDBRANCH  12  13
ENDBRANCH  10  12
ENDBRANCH   1  10
BRANCH   4  18
HETATM   18  N4  UNL     1      22.819  16.560  12.772  1.00  0.00    -0.213 N 
HETATM   19  C6  UNL     1      21.689  16.414  11.884  1.00  0.00     0.167 C 
HETATM   20  C7  UNL     1      21.683  17.503  10.829  1.00  0.00     0.188 C 
HETATM   21  O2  UNL     1      22.801  18.331  10.956  1.00  0.00    -0.388 OA
HETATM   22  C8  UNL     1      23.957  17.551  10.929  1.00  0.00     0.188 C 
HETATM   23  C9  UNL     1      24.131  16.990  12.350  1.00  0.00     0.167 C 
ENDBRANCH   4  18
BRANCH   7  24
HETATM   24  N6  UNL     1      20.323  14.488  16.099  1.00  0.00    -0.163 N 
HETATM   25  C11 UNL     1      19.339  14.247  16.969  1.00  0.00     0.200 C 
HETATM   26  N7  UNL     1      19.206  14.701  18.139  1.00  0.00    -0.373 N 
HETATM   27  N8  UNL     1      18.270  13.333  16.507  1.00  0.00    -0.063 NA
ATOM     28  H72 UNL     1      19.942  15.331  18.458  1.00  0.00     0.158 HD
ATOM     29  H71 UNL     1      18.454  14.517  18.804  1.00  0.00     0.158 HD
ATOM     30  H6  UNL     1      20.225  13.826  15.329  1.00  0.00     0.187 HD
ENDBRANCH   7  24
TORSDOF 7
ENDMDL
