MODEL 1
REMARK VINA RESULT: -8.528537848      0.000      0.000
REMARK  5 active torsions:
REMARK  status: ('A' for Active; 'I' for Inactive)
REMARK    1  A    between atoms: C3_3  and  N1_4 
REMARK    2  A    between atoms: N1_4  and  C4_6 
REMARK    3  A    between atoms: C6_10  and  C7_11 
REMARK    4  A    between atoms: C7_11  and  O1_12 
REMARK    5  A    between atoms: O1_12  and  C8_13 
ROOT
HETATM    1  C1  UNL     1      59.989  38.618 163.258  1.00  0.00     0.014 C 
HETATM    2  C2  UNL     1      58.936  38.088 163.526  1.00  0.00    -0.097 C 
HETATM    3  C3  UNL     1      57.652  37.459 163.867  1.00  0.00     0.231 C 
ENDROOT
BRANCH   3   4
HETATM    4  N1  UNL     1      57.394  37.645 165.279  1.00  0.00    -0.216 N 
ATOM      5  H1  UNL     1      58.163  37.526 165.939  1.00  0.00     0.178 HD
BRANCH   4   6
HETATM    6  C4  UNL     1      56.236  37.954 165.732  1.00  0.00     0.678 A 
HETATM    7  N2  UNL     1      55.966  39.236 166.031  1.00  0.00    -0.201 N 
HETATM    8  C5  UNL     1      54.758  39.613 166.513  1.00  0.00     0.116 A 
ATOM      9  H2  UNL     1      56.688  39.943 165.893  1.00  0.00     0.183 HD
HETATM   10  C6  UNL     1      53.791  38.642 166.694  1.00  0.00    -0.002 A 
HETATM   11  C13 UNL     1      54.088  37.336 166.382  1.00  0.00     0.116 A 
HETATM   12  N9  UNL     1      55.318  36.992 165.899  1.00  0.00    -0.201 N 
ATOM     13  H9  UNL     1      55.534  36.022 165.669  1.00  0.00     0.183 HD
BRANCH  10  14
HETATM   14  C7  UNL     1      52.466  39.059 167.223  1.00  0.00     0.220 C 
BRANCH  14  15
HETATM   15  O1  UNL     1      51.893  40.094 166.473  1.00  0.00    -0.317 OA
BRANCH  15  16
HETATM   16  C8  UNL     1      52.038  41.401 166.915  1.00  0.00     0.227 A 
HETATM   17  N3  UNL     1      52.026  41.703 168.217  1.00  0.00    -0.306 N 
HETATM   18  C9  UNL     1      52.164  42.965 168.676  1.00  0.00     0.134 A 
ATOM     19  H3  UNL     1      51.908  40.948 168.892  1.00  0.00     0.171 HD
HETATM   20  N4  UNL     1      52.146  43.198 169.940  1.00  0.00    -0.383 N 
HETATM   21  C10 UNL     1      52.323  43.991 167.771  1.00  0.00     0.139 A 
ATOM     22  H42 UNL     1      52.027  42.439 170.610  1.00  0.00     0.157 HD
ATOM     23  H41 UNL     1      52.250  44.152 170.287  1.00  0.00     0.157 HD
HETATM   24  N5  UNL     1      52.484  45.322 167.867  1.00  0.00    -0.279 N 
HETATM   25  C12 UNL     1      52.338  43.695 166.421  1.00  0.00     0.158 A 
HETATM   26  N6  UNL     1      52.589  45.809 166.645  1.00  0.00    -0.239 N 
ATOM     27  H5  UNL     1      52.518  45.861 168.733  1.00  0.00     0.189 HD
HETATM   28  N7  UNL     1      52.507  44.860 165.739  1.00  0.00    -0.264 N 
ATOM     29  H6  UNL     1      52.718  46.798 166.430  1.00  0.00     0.208 HD
HETATM   30  C11 UNL     1      52.571  44.941 164.288  1.00  0.00     0.181 C 
HETATM   31  N8  UNL     1      52.194  42.411 166.046  1.00  0.00    -0.305 N 
ATOM     32  H8  UNL     1      52.205  42.194 165.049  1.00  0.00     0.171 HD
ENDBRANCH  15  16
ENDBRANCH  14  15
ENDBRANCH  10  14
ENDBRANCH   4   6
ENDBRANCH   3   4
TORSDOF 5
ENDMDL
MODEL 2
REMARK VINA RESULT: -8.197335924      1.027      1.431
REMARK  5 active torsions:
REMARK  status: ('A' for Active; 'I' for Inactive)
REMARK    1  A    between atoms: C3_3  and  N1_4 
REMARK    2  A    between atoms: N1_4  and  C4_6 
REMARK    3  A    between atoms: C6_10  and  C7_11 
REMARK    4  A    between atoms: C7_11  and  O1_12 
REMARK    5  A    between atoms: O1_12  and  C8_13 
ROOT
HETATM    1  C1  UNL     1      59.639  38.588 163.530  1.00  0.00     0.014 C 
HETATM    2  C2  UNL     1      58.656  37.905 163.695  1.00  0.00    -0.097 C 
HETATM    3  C3  UNL     1      57.453  37.089 163.912  1.00  0.00     0.231 C 
ENDROOT
BRANCH   3   4
HETATM    4  N1  UNL     1      57.069  37.171 165.305  1.00  0.00    -0.216 N 
ATOM      5  H1  UNL     1      57.684  36.760 166.008  1.00  0.00     0.178 HD
BRANCH   4   6
HETATM    6  C4  UNL     1      55.988  37.741 165.689  1.00  0.00     0.678 A 
HETATM    7  N2  UNL     1      54.952  36.986 166.091  1.00  0.00    -0.201 N 
HETATM    8  C5  UNL     1      53.788  37.540 166.505  1.00  0.00     0.116 A 
ATOM      9  H2  UNL     1      55.044  35.970 166.084  1.00  0.00     0.183 HD
HETATM   10  C6  UNL     1      53.681  38.919 166.508  1.00  0.00    -0.002 A 
HETATM   11  C13 UNL     1      54.754  39.673 166.093  1.00  0.00     0.116 A 
HETATM   12  N9  UNL     1      55.912  39.079 165.681  1.00  0.00    -0.201 N 
ATOM     13  H9  UNL     1      56.705  39.643 165.373  1.00  0.00     0.183 HD
BRANCH  10  14
HETATM   14  C7  UNL     1      52.403  39.523 166.964  1.00  0.00     0.220 C 
BRANCH  14  15
HETATM   15  O1  UNL     1      52.581  40.407 168.036  1.00  0.00    -0.317 OA
BRANCH  15  16
HETATM   16  C8  UNL     1      52.467  41.770 167.808  1.00  0.00     0.227 A 
HETATM   17  N3  UNL     1      51.623  42.527 168.516  1.00  0.00    -0.306 N 
HETATM   18  C9  UNL     1      51.491  43.856 168.317  1.00  0.00     0.134 A 
ATOM     19  H3  UNL     1      51.056  42.083 169.238  1.00  0.00     0.171 HD
HETATM   20  N4  UNL     1      50.663  44.536 169.028  1.00  0.00    -0.383 N 
HETATM   21  C10 UNL     1      52.252  44.465 167.345  1.00  0.00     0.139 A 
ATOM     22  H42 UNL     1      50.100  44.085 169.748  1.00  0.00     0.157 HD
ATOM     23  H41 UNL     1      50.563  45.540 168.877  1.00  0.00     0.157 HD
HETATM   24  N5  UNL     1      52.377  45.723 166.889  1.00  0.00    -0.279 N 
HETATM   25  C12 UNL     1      53.129  43.695 166.604  1.00  0.00     0.158 A 
HETATM   26  N6  UNL     1      53.278  45.720 165.924  1.00  0.00    -0.239 N 
ATOM     27  H5  UNL     1      51.865  46.538 167.228  1.00  0.00     0.189 HD
HETATM   28  N7  UNL     1      53.760  44.514 165.719  1.00  0.00    -0.264 N 
ATOM     29  H6  UNL     1      53.565  46.549 165.403  1.00  0.00     0.208 HD
HETATM   30  C11 UNL     1      54.759  44.053 164.768  1.00  0.00     0.181 C 
HETATM   31  N8  UNL     1      53.202  42.377 166.865  1.00  0.00    -0.305 N 
ATOM     32  H8  UNL     1      53.850  41.811 166.317  1.00  0.00     0.171 HD
ENDBRANCH  15  16
ENDBRANCH  14  15
ENDBRANCH  10  14
ENDBRANCH   4   6
ENDBRANCH   3   4
TORSDOF 5
ENDMDL
MODEL 3
REMARK VINA RESULT: -8.043889731      1.599      2.231
REMARK  5 active torsions:
REMARK  status: ('A' for Active; 'I' for Inactive)
REMARK    1  A    between atoms: C3_3  and  N1_4 
REMARK    2  A    between atoms: N1_4  and  C4_6 
REMARK    3  A    between atoms: C6_10  and  C7_11 
REMARK    4  A    between atoms: C7_11  and  O1_12 
REMARK    5  A    between atoms: O1_12  and  C8_13 
ROOT
HETATM    1  C1  UNL     1      58.929  37.064 163.560  1.00  0.00     0.014 C 
HETATM    2  C2  UNL     1      58.253  37.803 164.238  1.00  0.00    -0.097 C 
HETATM    3  C3  UNL     1      57.426  38.683 165.075  1.00  0.00     0.231 C 
ENDROOT
BRANCH   3   4
HETATM    4  N1  UNL     1      56.308  37.927 165.598  1.00  0.00    -0.216 N 
ATOM      5  H1  UNL     1      56.356  36.908 165.585  1.00  0.00     0.178 HD
BRANCH   4   6
HETATM    6  C4  UNL     1      55.261  38.488 166.077  1.00  0.00     0.678 A 
HETATM    7  N2  UNL     1      54.201  37.733 166.410  1.00  0.00    -0.201 N 
HETATM    8  C5  UNL     1      53.072  38.279 166.919  1.00  0.00     0.116 A 
ATOM      9  H2  UNL     1      54.248  36.723 166.276  1.00  0.00     0.183 HD
HETATM   10  C6  UNL     1      53.026  39.650 167.094  1.00  0.00    -0.002 A 
HETATM   11  C13 UNL     1      54.122  40.405 166.746  1.00  0.00     0.116 A 
HETATM   12  N9  UNL     1      55.244  39.820 166.235  1.00  0.00    -0.201 N 
ATOM     13  H9  UNL     1      56.054  40.384 165.978  1.00  0.00     0.183 HD
BRANCH  10  14
HETATM   14  C7  UNL     1      51.786  40.246 167.654  1.00  0.00     0.220 C 
BRANCH  14  15
HETATM   15  O1  UNL     1      52.006  41.509 168.218  1.00  0.00    -0.317 OA
BRANCH  15  16
HETATM   16  C8  UNL     1      51.806  42.637 167.436  1.00  0.00     0.227 A 
HETATM   17  N3  UNL     1      50.604  43.212 167.335  1.00  0.00    -0.306 N 
HETATM   18  C9  UNL     1      50.379  44.310 166.582  1.00  0.00     0.134 A 
ATOM     19  H3  UNL     1      49.822  42.804 167.849  1.00  0.00     0.171 HD
HETATM   20  N4  UNL     1      49.202  44.822 166.522  1.00  0.00    -0.383 N 
HETATM   21  C10 UNL     1      51.428  44.867 165.884  1.00  0.00     0.139 A 
ATOM     22  H42 UNL     1      48.425  44.409 167.038  1.00  0.00     0.157 HD
ATOM     23  H41 UNL     1      49.032  45.651 165.953  1.00  0.00     0.157 HD
HETATM   24  N5  UNL     1      51.565  45.923 165.065  1.00  0.00    -0.279 N 
HETATM   25  C12 UNL     1      52.677  44.283 165.979  1.00  0.00     0.158 A 
HETATM   26  N6  UNL     1      52.827  45.979 164.680  1.00  0.00    -0.239 N 
ATOM     27  H5  UNL     1      50.824  46.568 164.788  1.00  0.00     0.189 HD
HETATM   28  N7  UNL     1      53.535  45.007 165.210  1.00  0.00    -0.264 N 
ATOM     29  H6  UNL     1      53.204  46.689 164.052  1.00  0.00     0.208 HD
HETATM   30  C11 UNL     1      54.947  44.689 165.063  1.00  0.00     0.181 C 
HETATM   31  N8  UNL     1      52.818  43.191 166.751  1.00  0.00    -0.305 N 
ATOM     32  H8  UNL     1      53.740  42.762 166.819  1.00  0.00     0.171 HD
ENDBRANCH  15  16
ENDBRANCH  14  15
ENDBRANCH  10  14
ENDBRANCH   4   6
ENDBRANCH   3   4
TORSDOF 5
ENDMDL
MODEL 4
REMARK VINA RESULT: -7.725101750      1.813      7.817
REMARK  5 active torsions:
REMARK  status: ('A' for Active; 'I' for Inactive)
REMARK    1  A    between atoms: C3_3  and  N1_4 
REMARK    2  A    between atoms: N1_4  and  C4_6 
REMARK    3  A    between atoms: C6_10  and  C7_11 
REMARK    4  A    between atoms: C7_11  and  O1_12 
REMARK    5  A    between atoms: O1_12  and  C8_13 
ROOT
HETATM    1  C1  UNL     1      52.627  45.705 165.146  1.00  0.00     0.014 C 
HETATM    2  C2  UNL     1      51.546  45.331 165.535  1.00  0.00    -0.097 C 
HETATM    3  C3  UNL     1      50.238  44.874 166.028  1.00  0.00     0.231 C 
ENDROOT
BRANCH   3   4
HETATM    4  N1  UNL     1      50.442  43.956 167.128  1.00  0.00    -0.216 N 
ATOM      5  H1  UNL     1      49.763  43.945 167.890  1.00  0.00     0.178 HD
BRANCH   4   6
HETATM    6  C4  UNL     1      51.441  43.157 167.182  1.00  0.00     0.678 A 
HETATM    7  N2  UNL     1      52.308  43.252 168.205  1.00  0.00    -0.201 N 
HETATM    8  C5  UNL     1      53.379  42.431 168.305  1.00  0.00     0.116 A 
ATOM      9  H2  UNL     1      52.155  43.960 168.922  1.00  0.00     0.183 HD
HETATM   10  C6  UNL     1      53.571  41.476 167.324  1.00  0.00    -0.002 A 
HETATM   11  C13 UNL     1      52.673  41.396 166.285  1.00  0.00     0.116 A 
HETATM   12  N9  UNL     1      51.603  42.242 166.215  1.00  0.00    -0.201 N 
ATOM     13  H9  UNL     1      50.939  42.178 165.443  1.00  0.00     0.183 HD
BRANCH  10  14
HETATM   14  C7  UNL     1      54.748  40.577 167.438  1.00  0.00     0.220 C 
BRANCH  14  15
HETATM   15  O1  UNL     1      55.625  40.703 166.354  1.00  0.00    -0.317 OA
BRANCH  15  16
HETATM   16  C8  UNL     1      56.138  39.555 165.769  1.00  0.00     0.227 A 
HETATM   17  N3  UNL     1      55.510  38.379 165.871  1.00  0.00    -0.306 N 
HETATM   18  C9  UNL     1      55.984  37.245 165.313  1.00  0.00     0.134 A 
ATOM     19  H3  UNL     1      54.634  38.337 166.392  1.00  0.00     0.171 HD
HETATM   20  N4  UNL     1      55.337  36.142 165.442  1.00  0.00    -0.383 N 
HETATM   21  C10 UNL     1      57.166  37.292 164.608  1.00  0.00     0.139 A 
ATOM     22  H42 UNL     1      54.463  36.107 165.964  1.00  0.00     0.157 HD
ATOM     23  H41 UNL     1      55.696  35.286 165.020  1.00  0.00     0.157 HD
HETATM   24  N5  UNL     1      57.908  36.391 163.942  1.00  0.00    -0.279 N 
HETATM   25  C12 UNL     1      57.828  38.500 164.494  1.00  0.00     0.158 A 
HETATM   26  N6  UNL     1      58.963  37.014 163.451  1.00  0.00    -0.239 N 
ATOM     27  H5  UNL     1      57.694  35.399 163.835  1.00  0.00     0.189 HD
HETATM   28  N7  UNL     1      58.955  38.292 163.760  1.00  0.00    -0.264 N 
ATOM     29  H6  UNL     1      59.694  36.561 162.901  1.00  0.00     0.208 HD
HETATM   30  C11 UNL     1      59.907  39.342 163.433  1.00  0.00     0.181 C 
HETATM   31  N8  UNL     1      57.288  39.585 165.079  1.00  0.00    -0.305 N 
ATOM     32  H8  UNL     1      57.778  40.475 164.994  1.00  0.00     0.171 HD
ENDBRANCH  15  16
ENDBRANCH  14  15
ENDBRANCH  10  14
ENDBRANCH   4   6
ENDBRANCH   3   4
TORSDOF 5
ENDMDL
MODEL 5
REMARK VINA RESULT: -7.712378833      1.473      2.069
REMARK  5 active torsions:
REMARK  status: ('A' for Active; 'I' for Inactive)
REMARK    1  A    between atoms: C3_3  and  N1_4 
REMARK    2  A    between atoms: N1_4  and  C4_6 
REMARK    3  A    between atoms: C6_10  and  C7_11 
REMARK    4  A    between atoms: C7_11  and  O1_12 
REMARK    5  A    between atoms: O1_12  and  C8_13 
ROOT
HETATM    1  C1  UNL     1      59.563  38.559 163.545  1.00  0.00     0.014 C 
HETATM    2  C2  UNL     1      58.575  37.878 163.691  1.00  0.00    -0.097 C 
HETATM    3  C3  UNL     1      57.369  37.062 163.887  1.00  0.00     0.231 C 
ENDROOT
BRANCH   3   4
HETATM    4  N1  UNL     1      57.049  37.019 165.298  1.00  0.00    -0.216 N 
ATOM      5  H1  UNL     1      57.668  36.508 165.927  1.00  0.00     0.178 HD
BRANCH   4   6
HETATM    6  C4  UNL     1      56.017  37.600 165.787  1.00  0.00     0.678 A 
HETATM    7  N2  UNL     1      56.095  38.894 166.142  1.00  0.00    -0.201 N 
HETATM    8  C5  UNL     1      55.033  39.552 166.664  1.00  0.00     0.116 A 
ATOM      9  H2  UNL     1      56.976  39.393 166.015  1.00  0.00     0.183 HD
HETATM   10  C6  UNL     1      53.847  38.861 166.828  1.00  0.00    -0.002 A 
HETATM   11  C13 UNL     1      53.789  37.537 166.459  1.00  0.00     0.116 A 
HETATM   12  N9  UNL     1      54.881  36.905 165.936  1.00  0.00    -0.201 N 
ATOM     13  H9  UNL     1      54.832  35.923 165.664  1.00  0.00     0.183 HD
BRANCH  10  14
HETATM   14  C7  UNL     1      52.685  39.586 167.401  1.00  0.00     0.220 C 
BRANCH  14  15
HETATM   15  O1  UNL     1      51.927  40.241 166.421  1.00  0.00    -0.317 OA
BRANCH  15  16
HETATM   16  C8  UNL     1      52.297  41.518 166.029  1.00  0.00     0.227 A 
HETATM   17  N3  UNL     1      53.503  41.767 165.509  1.00  0.00    -0.306 N 
HETATM   18  C9  UNL     1      53.891  42.999 165.119  1.00  0.00     0.134 A 
ATOM     19  H3  UNL     1      54.158  40.992 165.402  1.00  0.00     0.171 HD
HETATM   20  N4  UNL     1      55.064  43.181 164.624  1.00  0.00    -0.383 N 
HETATM   21  C10 UNL     1      53.014  44.051 165.260  1.00  0.00     0.139 A 
ATOM     22  H42 UNL     1      55.713  42.402 164.520  1.00  0.00     0.157 HD
ATOM     23  H41 UNL     1      55.357  44.112 164.329  1.00  0.00     0.157 HD
HETATM   24  N5  UNL     1      53.061  45.367 164.987  1.00  0.00    -0.279 N 
HETATM   25  C12 UNL     1      51.763  43.811 165.796  1.00  0.00     0.158 A 
HETATM   26  N6  UNL     1      51.904  45.898 165.338  1.00  0.00    -0.239 N 
ATOM     27  H5  UNL     1      53.852  45.867 164.580  1.00  0.00     0.189 HD
HETATM   28  N7  UNL     1      51.089  44.992 165.832  1.00  0.00    -0.264 N 
ATOM     29  H6  UNL     1      51.673  46.886 165.239  1.00  0.00     0.208 HD
HETATM   30  C11 UNL     1      49.732  45.129 166.337  1.00  0.00     0.181 C 
HETATM   31  N8  UNL     1      51.454  42.553 166.160  1.00  0.00    -0.305 N 
ATOM     32  H8  UNL     1      50.530  42.378 166.556  1.00  0.00     0.171 HD
ENDBRANCH  15  16
ENDBRANCH  14  15
ENDBRANCH  10  14
ENDBRANCH   4   6
ENDBRANCH   3   4
TORSDOF 5
ENDMDL
