MODEL 1
REMARK VINA RESULT: -8.730253816      0.000      0.000
REMARK  6 active torsions:
REMARK  status: ('A' for Active; 'I' for Inactive)
REMARK    1  A    between atoms: C2_2  and  C3_3 
REMARK    2  A    between atoms: C5_10  and  C6_11 
REMARK    3  A    between atoms: C6_11  and  N4_13 
REMARK    4  A    between atoms: N7_22  and  C10_23 
REMARK    5  A    between atoms: C10_23  and  C12_25 
REMARK    6  A    between atoms: C12_25  and  O1_26 
ROOT
HETATM    1  N4  UNL     1      54.835  40.514 167.090  1.00  0.00    -0.214 N 
ATOM      2  H4  UNL     1      54.902  40.015 167.977  1.00  0.00     0.178 HD
HETATM    3  C8  UNL     1      54.058  41.529 166.979  1.00  0.00     0.709 A 
HETATM    4  N5  UNL     1      53.326  41.937 168.161  1.00  0.00    -0.020 N 
ATOM      5  H5  UNL     1      53.439  41.438 169.044  1.00  0.00     0.203 HD
HETATM    6  C9  UNL     1      52.456  43.037 168.061  1.00  0.00     0.709 A 
HETATM    7  N6  UNL     1      51.845  43.474 169.147  1.00  0.00    -0.233 N 
ATOM      8  H61 UNL     1      51.214  44.272 169.074  1.00  0.00     0.174 HD
ATOM      9  H62 UNL     1      51.964  42.979 170.030  1.00  0.00     0.174 HD
HETATM   10  N7  UNL     1      52.288  43.735 166.814  1.00  0.00    -0.100 N 
HETATM   11  N8  UNL     1      52.954  43.293 165.699  1.00  0.00    -0.207 N 
HETATM   12  C13 UNL     1      53.251  44.237 164.681  1.00  0.00     0.201 C 
HETATM   13  N9  UNL     1      53.838  42.266 165.805  1.00  0.00    -0.115 N 
ATOM     14  H9  UNL     1      54.378  42.014 164.976  1.00  0.00     0.207 HD
ENDROOT
BRANCH   1  15
HETATM   15  C6  UNL     1      55.629  40.073 165.926  1.00  0.00     0.149 C 
HETATM   16  C7  UNL     1      57.087  40.452 166.432  1.00  0.00     0.039 C 
BRANCH  15  17
HETATM   17  C5  UNL     1      55.619  38.627 165.740  1.00  0.00     0.076 A 
HETATM   18  C3  UNL     1      56.556  37.917 164.979  1.00  0.00     0.053 A 
HETATM   19  N1  UNL     1      56.179  36.634 164.943  1.00  0.00    -0.288 N 
HETATM   20  N2  UNL     1      55.082  36.535 165.630  1.00  0.00    -0.240 N 
ATOM     21  H1  UNL     1      56.663  35.875 164.464  1.00  0.00     0.188 HD
HETATM   22  N3  UNL     1      54.717  37.735 166.127  1.00  0.00    -0.282 N 
ATOM     23  H2  UNL     1      54.566  35.666 165.775  1.00  0.00     0.208 HD
HETATM   24  C4  UNL     1      53.490  37.815 166.886  1.00  0.00     0.179 C 
BRANCH  18  25
HETATM   25  C2  UNL     1      57.787  38.388 164.320  1.00  0.00     0.056 C 
HETATM   26  C1  UNL     1      58.563  37.201 163.794  1.00  0.00     0.011 C 
ENDBRANCH  18  25
ENDBRANCH  15  17
ENDBRANCH   1  15
BRANCH  10  27
HETATM   27  C10 UNL     1      51.430  44.893 166.679  1.00  0.00     0.148 C 
HETATM   28  C11 UNL     1      52.072  46.060 165.976  1.00  0.00     0.037 C 
BRANCH  27  29
HETATM   29  C12 UNL     1      50.056  44.586 166.133  1.00  0.00     0.191 C 
BRANCH  29  30
HETATM   30  O1  UNL     1      49.142  45.343 166.911  1.00  0.00    -0.399 OA
ATOM     31  H1  UNL     1      48.502  44.725 167.244  1.00  0.00     0.209 HD
ENDBRANCH  29  30
ENDBRANCH  27  29
ENDBRANCH  10  27
TORSDOF 6
ENDMDL
MODEL 2
REMARK VINA RESULT: -8.196767269      1.017      1.252
REMARK  6 active torsions:
REMARK  status: ('A' for Active; 'I' for Inactive)
REMARK    1  A    between atoms: C2_2  and  C3_3 
REMARK    2  A    between atoms: C5_10  and  C6_11 
REMARK    3  A    between atoms: C6_11  and  N4_13 
REMARK    4  A    between atoms: N7_22  and  C10_23 
REMARK    5  A    between atoms: C10_23  and  C12_25 
REMARK    6  A    between atoms: C12_25  and  O1_26 
ROOT
HETATM    1  N4  UNL     1      54.294  40.141 166.571  1.00  0.00    -0.214 N 
ATOM      2  H4  UNL     1      53.978  39.484 167.284  1.00  0.00     0.178 HD
HETATM    3  C8  UNL     1      53.656  41.237 166.375  1.00  0.00     0.709 A 
HETATM    4  N5  UNL     1      52.511  41.498 167.224  1.00  0.00    -0.020 N 
ATOM      5  H5  UNL     1      52.238  40.837 167.952  1.00  0.00     0.203 HD
HETATM    6  C9  UNL     1      51.785  42.685 167.019  1.00  0.00     0.709 A 
HETATM    7  N6  UNL     1      50.790  42.980 167.836  1.00  0.00    -0.233 N 
ATOM      8  H61 UNL     1      50.264  43.841 167.687  1.00  0.00     0.174 HD
ATOM      9  H62 UNL     1      50.523  42.321 168.568  1.00  0.00     0.174 HD
HETATM   10  N7  UNL     1      52.163  43.613 165.986  1.00  0.00    -0.100 N 
HETATM   11  N8  UNL     1      53.219  43.314 165.164  1.00  0.00    -0.207 N 
HETATM   12  C13 UNL     1      53.931  44.389 164.573  1.00  0.00     0.201 C 
HETATM   13  N9  UNL     1      53.957  42.196 165.395  1.00  0.00    -0.115 N 
ATOM     14  H9  UNL     1      54.785  42.043 164.818  1.00  0.00     0.207 HD
ENDROOT
BRANCH   1  15
HETATM   15  C6  UNL     1      55.488  39.837 165.757  1.00  0.00     0.149 C 
HETATM   16  C7  UNL     1      56.626  40.333 166.748  1.00  0.00     0.039 C 
BRANCH  15  17
HETATM   17  C5  UNL     1      55.700  38.408 165.562  1.00  0.00     0.076 A 
HETATM   18  C3  UNL     1      56.764  37.854 164.840  1.00  0.00     0.053 A 
HETATM   19  N1  UNL     1      56.584  36.530 164.780  1.00  0.00    -0.288 N 
HETATM   20  N2  UNL     1      55.486  36.261 165.419  1.00  0.00    -0.240 N 
ATOM     21  H1  UNL     1      57.196  35.857 164.320  1.00  0.00     0.188 HD
HETATM   22  N3  UNL     1      54.926  37.387 165.905  1.00  0.00    -0.282 N 
ATOM     23  H2  UNL     1      55.100  35.324 165.537  1.00  0.00     0.208 HD
HETATM   24  C4  UNL     1      53.669  37.276 166.611  1.00  0.00     0.179 C 
BRANCH  18  25
HETATM   25  C2  UNL     1      57.938  38.510 164.237  1.00  0.00     0.056 C 
HETATM   26  C1  UNL     1      58.846  37.463 163.634  1.00  0.00     0.011 C 
ENDBRANCH  18  25
ENDBRANCH  15  17
ENDBRANCH   1  15
BRANCH  10  27
HETATM   27  C10 UNL     1      51.464  44.862 165.767  1.00  0.00     0.148 C 
HETATM   28  C11 UNL     1      49.990  44.807 166.073  1.00  0.00     0.037 C 
BRANCH  27  29
HETATM   29  C12 UNL     1      52.130  46.063 166.396  1.00  0.00     0.191 C 
BRANCH  29  30
HETATM   30  O1  UNL     1      52.376  45.716 167.750  1.00  0.00    -0.399 OA
ATOM     31  H1  UNL     1      53.313  45.582 167.823  1.00  0.00     0.209 HD
ENDBRANCH  29  30
ENDBRANCH  27  29
ENDBRANCH  10  27
TORSDOF 6
ENDMDL
MODEL 3
REMARK VINA RESULT: -8.055094304      0.508      2.201
REMARK  6 active torsions:
REMARK  status: ('A' for Active; 'I' for Inactive)
REMARK    1  A    between atoms: C2_2  and  C3_3 
REMARK    2  A    between atoms: C5_10  and  C6_11 
REMARK    3  A    between atoms: C6_11  and  N4_13 
REMARK    4  A    between atoms: N7_22  and  C10_23 
REMARK    5  A    between atoms: C10_23  and  C12_25 
REMARK    6  A    between atoms: C12_25  and  O1_26 
ROOT
HETATM    1  N4  UNL     1      54.873  40.586 167.117  1.00  0.00    -0.214 N 
ATOM      2  H4  UNL     1      54.956  40.102 168.011  1.00  0.00     0.178 HD
HETATM    3  C8  UNL     1      54.085  41.592 167.000  1.00  0.00     0.709 A 
HETATM    4  N5  UNL     1      53.366  42.013 168.185  1.00  0.00    -0.020 N 
ATOM      5  H5  UNL     1      53.495  41.530 169.074  1.00  0.00     0.203 HD
HETATM    6  C9  UNL     1      52.485  43.103 168.079  1.00  0.00     0.709 A 
HETATM    7  N6  UNL     1      51.883  43.553 169.165  1.00  0.00    -0.233 N 
ATOM      8  H61 UNL     1      51.244  44.344 169.087  1.00  0.00     0.174 HD
ATOM      9  H62 UNL     1      52.019  43.073 170.055  1.00  0.00     0.174 HD
HETATM   10  N7  UNL     1      52.293  43.779 166.822  1.00  0.00    -0.100 N 
HETATM   11  N8  UNL     1      52.948  43.325 165.706  1.00  0.00    -0.207 N 
HETATM   12  C13 UNL     1      53.223  44.254 164.669  1.00  0.00     0.201 C 
HETATM   13  N9  UNL     1      53.843  42.308 165.817  1.00  0.00    -0.115 N 
ATOM     14  H9  UNL     1      54.374  42.047 164.985  1.00  0.00     0.207 HD
ENDROOT
BRANCH   1  15
HETATM   15  C6  UNL     1      55.656  40.132 165.950  1.00  0.00     0.149 C 
HETATM   16  C7  UNL     1      57.125  40.434 166.475  1.00  0.00     0.039 C 
BRANCH  15  17
HETATM   17  C5  UNL     1      55.580  38.693 165.733  1.00  0.00     0.076 A 
HETATM   18  C3  UNL     1      54.677  37.839 166.377  1.00  0.00     0.053 A 
HETATM   19  N1  UNL     1      54.961  36.582 166.018  1.00  0.00    -0.288 N 
HETATM   20  N2  UNL     1      55.971  36.633 165.205  1.00  0.00    -0.240 N 
ATOM     21  H1  UNL     1      54.474  35.741 166.325  1.00  0.00     0.188 HD
HETATM   22  N3  UNL     1      56.370  37.907 165.014  1.00  0.00    -0.282 N 
ATOM     23  H2  UNL     1      56.405  35.818 164.769  1.00  0.00     0.208 HD
HETATM   24  C4  UNL     1      57.516  38.145 164.165  1.00  0.00     0.179 C 
BRANCH  18  25
HETATM   25  C2  UNL     1      53.557  38.158 167.281  1.00  0.00     0.056 C 
HETATM   26  C1  UNL     1      52.278  38.262 166.482  1.00  0.00     0.011 C 
ENDBRANCH  18  25
ENDBRANCH  15  17
ENDBRANCH   1  15
BRANCH  10  27
HETATM   27  C10 UNL     1      51.423  44.927 166.681  1.00  0.00     0.148 C 
HETATM   28  C11 UNL     1      52.045  46.088 165.950  1.00  0.00     0.037 C 
BRANCH  27  29
HETATM   29  C12 UNL     1      50.045  44.599 166.157  1.00  0.00     0.191 C 
BRANCH  29  30
HETATM   30  O1  UNL     1      49.133  45.352 166.941  1.00  0.00    -0.399 OA
ATOM     31  H1  UNL     1      49.025  46.184 166.496  1.00  0.00     0.209 HD
ENDBRANCH  29  30
ENDBRANCH  27  29
ENDBRANCH  10  27
TORSDOF 6
ENDMDL
MODEL 4
REMARK VINA RESULT: -6.698330587      1.007      1.983
REMARK  6 active torsions:
REMARK  status: ('A' for Active; 'I' for Inactive)
REMARK    1  A    between atoms: C2_2  and  C3_3 
REMARK    2  A    between atoms: C5_10  and  C6_11 
REMARK    3  A    between atoms: C6_11  and  N4_13 
REMARK    4  A    between atoms: N7_22  and  C10_23 
REMARK    5  A    between atoms: C10_23  and  C12_25 
REMARK    6  A    between atoms: C12_25  and  O1_26 
ROOT
HETATM    1  N4  UNL     1      55.298  40.626 165.230  1.00  0.00    -0.214 N 
ATOM      2  H4  UNL     1      55.536  40.558 164.240  1.00  0.00     0.178 HD
HETATM    3  C8  UNL     1      54.497  41.542 165.639  1.00  0.00     0.709 A 
HETATM    4  N5  UNL     1      53.938  42.430 164.640  1.00  0.00    -0.020 N 
ATOM      5  H5  UNL     1      54.168  42.316 163.652  1.00  0.00     0.203 HD
HETATM    6  C9  UNL     1      53.071  43.451 165.065  1.00  0.00     0.709 A 
HETATM    7  N6  UNL     1      52.487  44.217 164.161  1.00  0.00    -0.233 N 
ATOM      8  H61 UNL     1      51.858  44.958 164.470  1.00  0.00     0.174 HD
ATOM      9  H62 UNL     1      52.713  44.097 163.174  1.00  0.00     0.174 HD
HETATM   10  N7  UNL     1      52.754  43.619 166.459  1.00  0.00    -0.100 N 
HETATM   11  N8  UNL     1      53.340  42.796 167.387  1.00  0.00    -0.207 N 
HETATM   12  C13 UNL     1      52.649  42.565 168.605  1.00  0.00     0.201 C 
HETATM   13  N9  UNL     1      54.134  41.773 166.975  1.00  0.00    -0.115 N 
ATOM     14  H9  UNL     1      54.489  41.130 167.684  1.00  0.00     0.207 HD
ENDROOT
BRANCH   1  15
HETATM   15  C6  UNL     1      55.873  39.673 166.199  1.00  0.00     0.149 C 
HETATM   16  C7  UNL     1      54.708  39.645 167.279  1.00  0.00     0.039 C 
BRANCH  15  17
HETATM   17  C5  UNL     1      55.985  38.318 165.674  1.00  0.00     0.076 A 
HETATM   18  C3  UNL     1      56.985  37.887 164.794  1.00  0.00     0.053 A 
HETATM   19  N1  UNL     1      56.717  36.625 164.442  1.00  0.00    -0.288 N 
HETATM   20  N2  UNL     1      55.626  36.277 165.054  1.00  0.00    -0.240 N 
ATOM     21  H1  UNL     1      57.267  36.043 163.812  1.00  0.00     0.188 HD
HETATM   22  N3  UNL     1      55.157  37.291 165.812  1.00  0.00    -0.282 N 
ATOM     23  H2  UNL     1      55.183  35.362 164.974  1.00  0.00     0.208 HD
HETATM   24  C4  UNL     1      53.921  37.090 166.533  1.00  0.00     0.179 C 
BRANCH  18  25
HETATM   25  C2  UNL     1      58.179  38.598 164.301  1.00  0.00     0.056 C 
HETATM   26  C1  UNL     1      59.056  37.636 163.533  1.00  0.00     0.011 C 
ENDBRANCH  18  25
ENDBRANCH  15  17
ENDBRANCH   1  15
BRANCH  10  27
HETATM   27  C10 UNL     1      51.838  44.635 166.932  1.00  0.00     0.148 C 
HETATM   28  C11 UNL     1      52.262  46.045 166.618  1.00  0.00     0.037 C 
BRANCH  27  29
HETATM   29  C12 UNL     1      50.393  44.382 166.571  1.00  0.00     0.191 C 
BRANCH  29  30
HETATM   30  O1  UNL     1      49.633  45.347 167.281  1.00  0.00    -0.399 OA
ATOM     31  H1  UNL     1      50.056  46.183 167.128  1.00  0.00     0.209 HD
ENDBRANCH  29  30
ENDBRANCH  27  29
ENDBRANCH  10  27
TORSDOF 6
ENDMDL
MODEL 5
REMARK VINA RESULT: -6.212802299      1.087      2.933
REMARK  6 active torsions:
REMARK  status: ('A' for Active; 'I' for Inactive)
REMARK    1  A    between atoms: C2_2  and  C3_3 
REMARK    2  A    between atoms: C5_10  and  C6_11 
REMARK    3  A    between atoms: C6_11  and  N4_13 
REMARK    4  A    between atoms: N7_22  and  C10_23 
REMARK    5  A    between atoms: C10_23  and  C12_25 
REMARK    6  A    between atoms: C12_25  and  O1_26 
ROOT
HETATM    1  N4  UNL     1      55.506  40.876 165.192  1.00  0.00    -0.214 N 
ATOM      2  H4  UNL     1      55.793  40.882 164.213  1.00  0.00     0.178 HD
HETATM    3  C8  UNL     1      54.631  41.715 165.613  1.00  0.00     0.709 A 
HETATM    4  N5  UNL     1      54.064  42.626 164.639  1.00  0.00    -0.020 N 
ATOM      5  H5  UNL     1      54.346  42.586 163.659  1.00  0.00     0.203 HD
HETATM    6  C9  UNL     1      53.115  43.566 165.079  1.00  0.00     0.709 A 
HETATM    7  N6  UNL     1      52.526  44.348 164.193  1.00  0.00    -0.233 N 
ATOM      8  H61 UNL     1      51.838  45.030 164.513  1.00  0.00     0.174 HD
ATOM      9  H62 UNL     1      52.804  44.302 163.213  1.00  0.00     0.174 HD
HETATM   10  N7  UNL     1      52.724  43.630 166.463  1.00  0.00    -0.100 N 
HETATM   11  N8  UNL     1      53.318  42.790 167.370  1.00  0.00    -0.207 N 
HETATM   12  C13 UNL     1      52.588  42.444 168.537  1.00  0.00     0.201 C 
HETATM   13  N9  UNL     1      54.193  41.842 166.940  1.00  0.00    -0.115 N 
ATOM     14  H9  UNL     1      54.555  41.180 167.627  1.00  0.00     0.207 HD
ENDROOT
BRANCH   1  15
HETATM   15  C6  UNL     1      56.095  39.902 166.132  1.00  0.00     0.149 C 
HETATM   16  C7  UNL     1      55.381  40.356 167.477  1.00  0.00     0.039 C 
BRANCH  15  17
HETATM   17  C5  UNL     1      55.671  38.531 165.879  1.00  0.00     0.076 A 
HETATM   18  C3  UNL     1      54.594  37.902 166.516  1.00  0.00     0.053 A 
HETATM   19  N1  UNL     1      54.560  36.625 166.119  1.00  0.00    -0.288 N 
HETATM   20  N2  UNL     1      55.544  36.454 165.290  1.00  0.00    -0.240 N 
ATOM     21  H1  UNL     1      53.888  35.918 166.413  1.00  0.00     0.188 HD
HETATM   22  N3  UNL     1      56.238  37.599 165.125  1.00  0.00    -0.282 N 
ATOM     23  H2  UNL     1      55.762  35.572 164.825  1.00  0.00     0.208 HD
HETATM   24  C4  UNL     1      57.398  37.578 164.263  1.00  0.00     0.179 C 
BRANCH  18  25
HETATM   25  C2  UNL     1      53.594  38.456 167.448  1.00  0.00     0.056 C 
HETATM   26  C1  UNL     1      52.301  38.710 166.708  1.00  0.00     0.011 C 
ENDBRANCH  18  25
ENDBRANCH  15  17
ENDBRANCH   1  15
BRANCH  10  27
HETATM   27  C10 UNL     1      51.725  44.558 166.948  1.00  0.00     0.148 C 
HETATM   28  C11 UNL     1      52.045  46.006 166.681  1.00  0.00     0.037 C 
BRANCH  27  29
HETATM   29  C12 UNL     1      50.310  44.206 166.554  1.00  0.00     0.191 C 
BRANCH  29  30
HETATM   30  O1  UNL     1      49.495  45.274 167.009  1.00  0.00    -0.399 OA
ATOM     31  H1  UNL     1      48.936  44.911 167.685  1.00  0.00     0.209 HD
ENDBRANCH  29  30
ENDBRANCH  27  29
ENDBRANCH  10  27
TORSDOF 6
ENDMDL
