MODEL 1
REMARK VINA RESULT: -6.168912670      0.000      0.000
REMARK  4 active torsions:
REMARK  status: ('A' for Active; 'I' for Inactive)
REMARK    1  A    between atoms: C2_2  and  N1_3 
REMARK    2  A    between atoms: N1_3  and  C3_4 
REMARK       I    between atoms: N1_3  and  C5_6 
REMARK    3  A    between atoms: C5_6  and  O2_8 
REMARK    4  A    between atoms: O2_8  and  C6_9 
ROOT
HETATM    1  C6  UNL     1     -18.309 -17.283  17.915  1.00  0.00     0.077 C 
HETATM    2  C7  UNL     1     -19.419 -17.645  18.831  1.00  0.00     0.078 C 
HETATM    3  C8  UNL     1     -17.383 -18.126  17.567  1.00  0.00     0.103 C 
HETATM    4  S1  UNL     1     -15.968 -17.900  16.485  1.00  0.00    -0.050 SA
HETATM    5  C9  UNL     1     -15.336 -19.592  16.609  1.00  0.00     0.246 C 
HETATM    6  N2  UNL     1     -16.463 -20.290  17.124  1.00  0.00    -0.306 N 
ATOM      7  H2  UNL     1     -16.672 -21.261  16.888  1.00  0.00     0.167 HD
HETATM    8  C10 UNL     1     -17.271 -19.518  17.996  1.00  0.00     0.264 C 
HETATM    9  O3  UNL     1     -17.822 -20.029  19.034  1.00  0.00    -0.267 OA
HETATM   10  O4  UNL     1     -14.841 -20.101  15.455  1.00  0.00    -0.342 OA
HETATM   11  C11 UNL     1     -13.604 -19.603  15.194  1.00  0.00     0.183 C 
HETATM   12  C12 UNL     1     -12.671 -19.987  16.354  1.00  0.00     0.106 C 
HETATM   13  S2  UNL     1     -13.877 -19.681  17.717  1.00  0.00    -0.095 SA
ENDROOT
BRANCH   1  14
HETATM   14  O2  UNL     1     -18.275 -15.988  17.422  1.00  0.00    -0.265 OA
BRANCH  14  15
HETATM   15  C5  UNL     1     -19.143 -15.604  16.396  1.00  0.00     0.367 C 
HETATM   16  N1  UNL     1     -19.527 -14.246  16.250  1.00  0.00    -0.328 N 
HETATM   17  O1  UNL     1     -19.546 -16.511  15.638  1.00  0.00    -0.238 OA
BRANCH  16  18
HETATM   18  C2  UNL     1     -20.429 -13.894  15.174  1.00  0.00     0.123 C 
HETATM   19  C1  UNL     1     -19.683 -12.979  14.193  1.00  0.00     0.026 C 
ENDBRANCH  16  18
BRANCH  16  20
HETATM   20  C3  UNL     1     -19.026 -13.249  17.160  1.00  0.00     0.123 C 
HETATM   21  C4  UNL     1     -19.854 -11.982  17.138  1.00  0.00     0.026 C 
ENDBRANCH  16  20
ENDBRANCH  14  15
ENDBRANCH   1  14
TORSDOF 4
ENDMDL
MODEL 2
REMARK VINA RESULT: -5.483719601      0.715      1.573
REMARK  4 active torsions:
REMARK  status: ('A' for Active; 'I' for Inactive)
REMARK    1  A    between atoms: C2_2  and  N1_3 
REMARK    2  A    between atoms: N1_3  and  C3_4 
REMARK       I    between atoms: N1_3  and  C5_6 
REMARK    3  A    between atoms: C5_6  and  O2_8 
REMARK    4  A    between atoms: O2_8  and  C6_9 
ROOT
HETATM    1  C6  UNL     1     -18.815 -17.576  17.939  1.00  0.00     0.077 C 
HETATM    2  C7  UNL     1     -19.712 -17.863  19.085  1.00  0.00     0.078 C 
HETATM    3  C8  UNL     1     -17.752 -18.279  17.686  1.00  0.00     0.103 C 
HETATM    4  S1  UNL     1     -16.544 -18.105  16.370  1.00  0.00    -0.050 SA
HETATM    5  C9  UNL     1     -15.514 -19.518  16.842  1.00  0.00     0.246 C 
HETATM    6  N2  UNL     1     -16.385 -20.243  17.702  1.00  0.00    -0.306 N 
ATOM      7  H2  UNL     1     -16.376 -21.261  17.773  1.00  0.00     0.167 HD
HETATM    8  C10 UNL     1     -17.268 -19.425  18.451  1.00  0.00     0.264 C 
HETATM    9  O3  UNL     1     -17.577 -19.703  19.664  1.00  0.00    -0.267 OA
HETATM   10  O4  UNL     1     -15.024 -20.238  15.804  1.00  0.00    -0.342 OA
HETATM   11  C11 UNL     1     -13.975 -19.601  15.222  1.00  0.00     0.183 C 
HETATM   12  C12 UNL     1     -12.869 -19.423  16.276  1.00  0.00     0.106 C 
HETATM   13  S2  UNL     1     -13.977 -18.974  17.682  1.00  0.00    -0.095 SA
ENDROOT
BRANCH   1  14
HETATM   14  O2  UNL     1     -19.141 -16.509  17.116  1.00  0.00    -0.265 OA
BRANCH  14  15
HETATM   15  C5  UNL     1     -18.939 -15.197  17.553  1.00  0.00     0.367 C 
HETATM   16  N1  UNL     1     -19.268 -14.101  16.714  1.00  0.00    -0.328 N 
HETATM   17  O1  UNL     1     -18.462 -15.059  18.699  1.00  0.00    -0.238 OA
BRANCH  16  18
HETATM   18  C2  UNL     1     -19.040 -12.759  17.208  1.00  0.00     0.123 C 
HETATM   19  C1  UNL     1     -20.344 -11.962  17.071  1.00  0.00     0.026 C 
ENDBRANCH  16  18
BRANCH  16  20
HETATM   20  C3  UNL     1     -19.814 -14.331  15.402  1.00  0.00     0.123 C 
HETATM   21  C4  UNL     1     -19.648 -13.133  14.492  1.00  0.00     0.026 C 
ENDBRANCH  16  20
ENDBRANCH  14  15
ENDBRANCH   1  14
TORSDOF 4
ENDMDL
MODEL 3
REMARK VINA RESULT: -5.171601750      3.522      5.582
REMARK  4 active torsions:
REMARK  status: ('A' for Active; 'I' for Inactive)
REMARK    1  A    between atoms: C2_2  and  N1_3 
REMARK    2  A    between atoms: N1_3  and  C3_4 
REMARK       I    between atoms: N1_3  and  C5_6 
REMARK    3  A    between atoms: C5_6  and  O2_8 
REMARK    4  A    between atoms: O2_8  and  C6_9 
ROOT
HETATM    1  C6  UNL     1     -15.624 -19.004  15.370  1.00  0.00     0.077 C 
HETATM    2  C7  UNL     1     -14.536 -18.099  15.814  1.00  0.00     0.078 C 
HETATM    3  C8  UNL     1     -15.458 -19.899  14.442  1.00  0.00     0.103 C 
HETATM    4  S1  UNL     1     -16.625 -21.080  13.760  1.00  0.00    -0.050 SA
HETATM    5  C9  UNL     1     -15.477 -21.867  12.603  1.00  0.00     0.246 C 
HETATM    6  N2  UNL     1     -14.215 -21.452  13.112  1.00  0.00    -0.306 N 
ATOM      7  H2  UNL     1     -13.376 -22.030  13.057  1.00  0.00     0.167 HD
HETATM    8  C10 UNL     1     -14.227 -20.163  13.702  1.00  0.00     0.264 C 
HETATM    9  O3  UNL     1     -13.241 -19.354  13.572  1.00  0.00    -0.267 OA
HETATM   10  O4  UNL     1     -15.618 -23.209  12.482  1.00  0.00    -0.342 OA
HETATM   11  C11 UNL     1     -16.692 -23.517  11.708  1.00  0.00     0.183 C 
HETATM   12  C12 UNL     1     -16.477 -22.908  10.313  1.00  0.00     0.106 C 
HETATM   13  S2  UNL     1     -15.770 -21.301  10.882  1.00  0.00    -0.095 SA
ENDROOT
BRANCH   1  14
HETATM   14  O2  UNL     1     -16.862 -18.873  15.980  1.00  0.00    -0.265 OA
BRANCH  14  15
HETATM   15  C5  UNL     1     -17.015 -19.188  17.333  1.00  0.00     0.367 C 
HETATM   16  N1  UNL     1     -17.339 -18.177  18.274  1.00  0.00    -0.328 N 
HETATM   17  O1  UNL     1     -16.853 -20.385  17.648  1.00  0.00    -0.238 OA
BRANCH  16  18
HETATM   18  C2  UNL     1     -17.487 -18.548  19.665  1.00  0.00     0.123 C 
HETATM   19  C1  UNL     1     -16.150 -18.311  20.379  1.00  0.00     0.026 C 
ENDBRANCH  16  18
BRANCH  16  20
HETATM   20  C3  UNL     1     -17.511 -16.814  17.843  1.00  0.00     0.123 C 
HETATM   21  C4  UNL     1     -18.578 -16.090  18.637  1.00  0.00     0.026 C 
ENDBRANCH  16  20
ENDBRANCH  14  15
ENDBRANCH   1  14
TORSDOF 4
ENDMDL
MODEL 4
REMARK VINA RESULT: -5.030842098      2.900      4.229
REMARK  4 active torsions:
REMARK  status: ('A' for Active; 'I' for Inactive)
REMARK    1  A    between atoms: C2_2  and  N1_3 
REMARK    2  A    between atoms: N1_3  and  C3_4 
REMARK       I    between atoms: N1_3  and  C5_6 
REMARK    3  A    between atoms: C5_6  and  O2_8 
REMARK    4  A    between atoms: O2_8  and  C6_9 
ROOT
HETATM    1  C6  UNL     1     -16.863 -18.233  17.912  1.00  0.00     0.077 C 
HETATM    2  C7  UNL     1     -16.080 -17.795  16.730  1.00  0.00     0.078 C 
HETATM    3  C8  UNL     1     -16.388 -19.046  18.807  1.00  0.00     0.103 C 
HETATM    4  S1  UNL     1     -17.155 -19.696  20.294  1.00  0.00    -0.050 SA
HETATM    5  C9  UNL     1     -15.734 -20.668  20.856  1.00  0.00     0.246 C 
HETATM    6  N2  UNL     1     -14.672 -20.102  20.097  1.00  0.00    -0.306 N 
ATOM      7  H2  UNL     1     -13.717 -20.028  20.448  1.00  0.00     0.167 HD
HETATM    8  C10 UNL     1     -15.059 -19.651  18.810  1.00  0.00     0.264 C 
HETATM    9  O3  UNL     1     -14.291 -19.782  17.792  1.00  0.00    -0.267 OA
HETATM   10  O4  UNL     1     -15.532 -20.662  22.195  1.00  0.00    -0.342 OA
HETATM   11  C11 UNL     1     -16.410 -21.485  22.824  1.00  0.00     0.183 C 
HETATM   12  C12 UNL     1     -16.204 -22.913  22.293  1.00  0.00     0.106 C 
HETATM   13  S2  UNL     1     -15.973 -22.456  20.520  1.00  0.00    -0.095 SA
ENDROOT
BRANCH   1  14
HETATM   14  O2  UNL     1     -18.153 -17.744  18.049  1.00  0.00    -0.265 OA
BRANCH  14  15
HETATM   15  C5  UNL     1     -18.366 -16.392  18.334  1.00  0.00     0.367 C 
HETATM   16  N1  UNL     1     -18.799 -15.502  17.317  1.00  0.00    -0.328 N 
HETATM   17  O1  UNL     1     -18.154 -16.031  19.511  1.00  0.00    -0.238 OA
BRANCH  16  18
HETATM   18  C2  UNL     1     -19.005 -14.110  17.658  1.00  0.00     0.123 C 
HETATM   19  C1  UNL     1     -18.979 -13.283  16.366  1.00  0.00     0.026 C 
ENDBRANCH  16  18
BRANCH  16  20
HETATM   20  C3  UNL     1     -19.023 -15.984  15.979  1.00  0.00     0.123 C 
HETATM   21  C4  UNL     1     -20.451 -16.438  15.763  1.00  0.00     0.026 C 
ENDBRANCH  16  20
ENDBRANCH  14  15
ENDBRANCH   1  14
TORSDOF 4
ENDMDL
MODEL 5
REMARK VINA RESULT: -5.018979491      3.731      5.347
REMARK  4 active torsions:
REMARK  status: ('A' for Active; 'I' for Inactive)
REMARK    1  A    between atoms: C2_2  and  N1_3 
REMARK    2  A    between atoms: N1_3  and  C3_4 
REMARK       I    between atoms: N1_3  and  C5_6 
REMARK    3  A    between atoms: C5_6  and  O2_8 
REMARK    4  A    between atoms: O2_8  and  C6_9 
ROOT
HETATM    1  C6  UNL     1     -14.580 -19.002  17.650  1.00  0.00     0.077 C 
HETATM    2  C7  UNL     1     -13.838 -18.394  16.519  1.00  0.00     0.078 C 
HETATM    3  C8  UNL     1     -14.052 -19.175  18.825  1.00  0.00     0.103 C 
HETATM    4  S1  UNL     1     -14.763 -19.883  20.314  1.00  0.00    -0.050 SA
HETATM    5  C9  UNL     1     -13.310 -19.654  21.370  1.00  0.00     0.246 C 
HETATM    6  N2  UNL     1     -12.557 -18.699  20.631  1.00  0.00    -0.306 N 
ATOM      7  H2  UNL     1     -11.970 -17.991  21.074  1.00  0.00     0.167 HD
HETATM    8  C10 UNL     1     -12.694 -18.820  19.225  1.00  0.00     0.264 C 
HETATM    9  O3  UNL     1     -11.704 -18.627  18.433  1.00  0.00    -0.267 OA
HETATM   10  O4  UNL     1     -13.584 -19.287  22.645  1.00  0.00    -0.342 OA
HETATM   11  C11 UNL     1     -14.012 -20.348  23.376  1.00  0.00     0.183 C 
HETATM   12  C12 UNL     1     -12.901 -21.411  23.387  1.00  0.00     0.106 C 
HETATM   13  S2  UNL     1     -12.409 -21.232  21.618  1.00  0.00    -0.095 SA
ENDROOT
BRANCH   1  14
HETATM   14  O2  UNL     1     -15.890 -19.398  17.425  1.00  0.00    -0.265 OA
BRANCH  14  15
HETATM   15  C5  UNL     1     -16.787 -18.531  16.792  1.00  0.00     0.367 C 
HETATM   16  N1  UNL     1     -17.572 -17.628  17.554  1.00  0.00    -0.328 N 
HETATM   17  O1  UNL     1     -16.848 -18.605  15.547  1.00  0.00    -0.238 OA
BRANCH  16  18
HETATM   18  C2  UNL     1     -18.487 -16.750  16.857  1.00  0.00     0.123 C 
HETATM   19  C1  UNL     1     -18.597 -15.437  17.642  1.00  0.00     0.026 C 
ENDBRANCH  16  18
BRANCH  16  20
HETATM   20  C3  UNL     1     -17.452 -17.595  18.988  1.00  0.00     0.123 C 
HETATM   21  C4  UNL     1     -18.335 -18.624  19.662  1.00  0.00     0.026 C 
ENDBRANCH  16  20
ENDBRANCH  14  15
ENDBRANCH   1  14
TORSDOF 4
ENDMDL
