MODEL 1
REMARK VINA RESULT: -7.043028943      0.000      0.000
REMARK  3 active torsions:
REMARK  status: ('A' for Active; 'I' for Inactive)
REMARK    1  A    between atoms: C3_5  and  N2_6 
REMARK    2  A    between atoms: N2_6  and  C4_8 
REMARK    3  A    between atoms: N3_11  and  C7_12 
ROOT
HETATM    1  C4  UNL     1      -2.879   3.511  12.224  1.00  0.00     0.085 C 
HETATM    2  C5  UNL     1      -3.284   4.450  13.353  1.00  0.00     0.055 C 
HETATM    3  C6  UNL     1      -3.092   3.761  14.664  1.00  0.00     0.275 C 
HETATM    4  N3  UNL     1      -3.879   2.553  14.777  1.00  0.00     0.093 N 
HETATM    5  C14 UNL     1      -4.574   2.331  13.550  1.00  0.00     0.275 C 
HETATM    6  C15 UNL     1      -3.545   2.193  12.448  1.00  0.00     0.055 C 
ENDROOT
BRANCH   1   7
HETATM    7  N2  UNL     1      -1.452   3.443  12.189  1.00  0.00    -0.383 N 
ATOM      8  H2  UNL     1      -0.973   3.328  13.083  1.00  0.00     0.160 HD
BRANCH   7   9
HETATM    9  C3  UNL     1      -0.642   3.520  11.035  1.00  0.00     0.059 A 
HETATM   10  C2  UNL     1       0.700   3.833  11.037  1.00  0.00     0.119 A 
HETATM   11  N1  UNL     1       1.418   3.891   9.883  1.00  0.00    -0.360 N 
HETATM   12  C1  UNL     1       0.848   3.644   8.694  1.00  0.00     0.180 A 
ATOM     13  H1  UNL     1       2.410   4.125   9.922  1.00  0.00     0.166 HD
HETATM   14  N4  UNL     1      -0.455   3.337   8.666  1.00  0.00    -0.360 N 
HETATM   15  C16 UNL     1      -1.186   3.274   9.792  1.00  0.00     0.119 A 
ATOM     16  H4  UNL     1      -0.904   3.147   7.770  1.00  0.00     0.166 HD
ENDBRANCH   7   9
ENDBRANCH   1   7
BRANCH   4  17
HETATM   17  C7  UNL     1      -4.742   2.592  15.937  1.00  0.00     0.223 C 
HETATM   18  C8  UNL     1      -4.674   1.369  16.777  1.00  0.00     0.036 C 
HETATM   19  C9  UNL     1      -5.876   0.490  16.753  1.00  0.00     0.002 C 
HETATM   20  C10 UNL     1      -7.090   1.057  17.397  1.00  0.00     0.000 C 
HETATM   21  C11 UNL     1      -6.936   2.456  17.905  1.00  0.00     0.000 C 
HETATM   22  C12 UNL     1      -6.827   3.477  16.807  1.00  0.00     0.002 C 
HETATM   23  C13 UNL     1      -6.183   2.859  15.565  1.00  0.00     0.036 C 
ENDBRANCH   4  17
TORSDOF 3
ENDMDL
MODEL 2
REMARK VINA RESULT: -7.014410927      0.086      1.037
REMARK  3 active torsions:
REMARK  status: ('A' for Active; 'I' for Inactive)
REMARK    1  A    between atoms: C3_5  and  N2_6 
REMARK    2  A    between atoms: N2_6  and  C4_8 
REMARK    3  A    between atoms: N3_11  and  C7_12 
ROOT
HETATM    1  C4  UNL     1      -2.891   3.552  12.172  1.00  0.00     0.085 C 
HETATM    2  C5  UNL     1      -3.296   4.488  13.304  1.00  0.00     0.055 C 
HETATM    3  C6  UNL     1      -3.092   3.800  14.613  1.00  0.00     0.275 C 
HETATM    4  N3  UNL     1      -3.871   2.587  14.729  1.00  0.00     0.093 N 
HETATM    5  C14 UNL     1      -4.572   2.362  13.507  1.00  0.00     0.275 C 
HETATM    6  C15 UNL     1      -3.549   2.230  12.398  1.00  0.00     0.055 C 
ENDROOT
BRANCH   1   7
HETATM    7  N2  UNL     1      -1.465   3.493  12.129  1.00  0.00    -0.383 N 
ATOM      8  H2  UNL     1      -0.978   3.412  13.022  1.00  0.00     0.160 HD
BRANCH   7   9
HETATM    9  C3  UNL     1      -0.663   3.536  10.967  1.00  0.00     0.059 A 
HETATM   10  C2  UNL     1      -1.114   3.274   9.691  1.00  0.00     0.119 A 
HETATM   11  N1  UNL     1      -0.281   3.333   8.617  1.00  0.00    -0.360 N 
HETATM   12  C1  UNL     1       1.014   3.648   8.756  1.00  0.00     0.180 A 
ATOM     13  H1  UNL     1      -0.650   3.133   7.687  1.00  0.00     0.166 HD
HETATM   14  N4  UNL     1       1.477   3.908   9.986  1.00  0.00    -0.360 N 
HETATM   15  C16 UNL     1       0.675   3.856  11.063  1.00  0.00     0.119 A 
ATOM     16  H4  UNL     1       2.460   4.149  10.108  1.00  0.00     0.166 HD
ENDBRANCH   7   9
ENDBRANCH   1   7
BRANCH   4  17
HETATM   17  C7  UNL     1      -4.728   2.621  15.894  1.00  0.00     0.223 C 
HETATM   18  C8  UNL     1      -4.636   1.405  16.743  1.00  0.00     0.036 C 
HETATM   19  C9  UNL     1      -5.824   0.507  16.732  1.00  0.00     0.002 C 
HETATM   20  C10 UNL     1      -7.043   1.059  17.379  1.00  0.00     0.000 C 
HETATM   21  C11 UNL     1      -6.909   2.464  17.876  1.00  0.00     0.000 C 
HETATM   22  C12 UNL     1      -6.823   3.479  16.771  1.00  0.00     0.002 C 
HETATM   23  C13 UNL     1      -6.175   2.862  15.529  1.00  0.00     0.036 C 
ENDBRANCH   4  17
TORSDOF 3
ENDMDL
MODEL 3
REMARK VINA RESULT: -6.986875327      2.246      3.061
REMARK  3 active torsions:
REMARK  status: ('A' for Active; 'I' for Inactive)
REMARK    1  A    between atoms: C3_5  and  N2_6 
REMARK    2  A    between atoms: N2_6  and  C4_8 
REMARK    3  A    between atoms: N3_11  and  C7_12 
ROOT
HETATM    1  C4  UNL     1      -3.230   4.897  12.604  1.00  0.00     0.085 C 
HETATM    2  C5  UNL     1      -2.615   4.290  13.859  1.00  0.00     0.055 C 
HETATM    3  C6  UNL     1      -3.412   3.098  14.274  1.00  0.00     0.275 C 
HETATM    4  N3  UNL     1      -4.792   3.425  14.560  1.00  0.00     0.093 N 
HETATM    5  C14 UNL     1      -5.011   4.809  14.291  1.00  0.00     0.275 C 
HETATM    6  C15 UNL     1      -4.698   5.057  12.830  1.00  0.00     0.055 C 
ENDROOT
BRANCH   1   7
HETATM    7  N2  UNL     1      -2.900   4.058  11.495  1.00  0.00    -0.383 N 
ATOM      8  H2  UNL     1      -2.267   4.446  10.795  1.00  0.00     0.160 HD
BRANCH   7   9
HETATM    9  C3  UNL     1      -3.367   2.744  11.276  1.00  0.00     0.059 A 
HETATM   10  C2  UNL     1      -4.685   2.404  11.057  1.00  0.00     0.119 A 
HETATM   11  N1  UNL     1      -5.062   1.113  10.855  1.00  0.00    -0.360 N 
HETATM   12  C1  UNL     1      -4.165   0.116  10.861  1.00  0.00     0.180 A 
ATOM     13  H1  UNL     1      -6.046   0.898  10.695  1.00  0.00     0.166 HD
HETATM   14  N4  UNL     1      -2.877   0.420  11.071  1.00  0.00    -0.360 N 
HETATM   15  C16 UNL     1      -2.480   1.688  11.273  1.00  0.00     0.119 A 
ATOM     16  H4  UNL     1      -2.183  -0.327  11.079  1.00  0.00     0.166 HD
ENDBRANCH   7   9
ENDBRANCH   1   7
BRANCH   4  17
HETATM   17  C7  UNL     1      -5.163   3.026  15.900  1.00  0.00     0.223 C 
HETATM   18  C8  UNL     1      -4.453   1.815  16.384  1.00  0.00     0.036 C 
HETATM   19  C9  UNL     1      -5.279   0.582  16.517  1.00  0.00     0.002 C 
HETATM   20  C10 UNL     1      -6.296   0.612  17.601  1.00  0.00     0.000 C 
HETATM   21  C11 UNL     1      -6.383   1.909  18.343  1.00  0.00     0.000 C 
HETATM   22  C12 UNL     1      -6.968   3.024  17.522  1.00  0.00     0.002 C 
HETATM   23  C13 UNL     1      -6.654   2.818  16.040  1.00  0.00     0.036 C 
ENDBRANCH   4  17
TORSDOF 3
ENDMDL
MODEL 4
REMARK VINA RESULT: -6.968059772      1.001      1.954
REMARK  3 active torsions:
REMARK  status: ('A' for Active; 'I' for Inactive)
REMARK    1  A    between atoms: C3_5  and  N2_6 
REMARK    2  A    between atoms: N2_6  and  C4_8 
REMARK    3  A    between atoms: N3_11  and  C7_12 
ROOT
HETATM    1  C4  UNL     1      -2.550   4.676  13.233  1.00  0.00     0.085 C 
HETATM    2  C5  UNL     1      -2.994   4.665  14.690  1.00  0.00     0.055 C 
HETATM    3  C6  UNL     1      -3.216   3.255  15.128  1.00  0.00     0.275 C 
HETATM    4  N3  UNL     1      -4.227   2.582  14.343  1.00  0.00     0.093 N 
HETATM    5  C14 UNL     1      -4.680   3.460  13.312  1.00  0.00     0.275 C 
HETATM    6  C15 UNL     1      -3.490   3.820  12.449  1.00  0.00     0.055 C 
ENDROOT
BRANCH   1   7
HETATM    7  N2  UNL     1      -1.188   4.248  13.177  1.00  0.00    -0.383 N 
ATOM      8  H2  UNL     1      -0.778   3.895  14.042  1.00  0.00     0.160 HD
BRANCH   7   9
HETATM    9  C3  UNL     1      -0.354   4.268  12.037  1.00  0.00     0.059 A 
HETATM   10  C2  UNL     1      -0.196   3.215  11.160  1.00  0.00     0.119 A 
HETATM   11  N1  UNL     1       0.628   3.306  10.082  1.00  0.00    -0.360 N 
HETATM   12  C1  UNL     1       1.321   4.424   9.827  1.00  0.00     0.180 A 
ATOM     13  H1  UNL     1       0.719   2.507   9.455  1.00  0.00     0.166 HD
HETATM   14  N4  UNL     1       1.185   5.462  10.664  1.00  0.00    -0.360 N 
HETATM   15  C16 UNL     1       0.377   5.397  11.736  1.00  0.00     0.119 A 
ATOM     16  H4  UNL     1       1.706   6.320  10.483  1.00  0.00     0.166 HD
ENDBRANCH   7   9
ENDBRANCH   1   7
BRANCH   4  17
HETATM   17  C7  UNL     1      -5.290   2.069  15.179  1.00  0.00     0.223 C 
HETATM   18  C8  UNL     1      -6.437   3.000  15.333  1.00  0.00     0.036 C 
HETATM   19  C9  UNL     1      -6.598   3.623  16.677  1.00  0.00     0.002 C 
HETATM   20  C10 UNL     1      -7.004   2.693  17.763  1.00  0.00     0.000 C 
HETATM   21  C11 UNL     1      -7.115   1.258  17.352  1.00  0.00     0.000 C 
HETATM   22  C12 UNL     1      -5.785   0.620  17.063  1.00  0.00     0.002 C 
HETATM   23  C13 UNL     1      -4.792   1.664  16.548  1.00  0.00     0.036 C 
ENDBRANCH   4  17
TORSDOF 3
ENDMDL
MODEL 5
REMARK VINA RESULT: -6.965502461      1.288      1.741
REMARK  3 active torsions:
REMARK  status: ('A' for Active; 'I' for Inactive)
REMARK    1  A    between atoms: C3_5  and  N2_6 
REMARK    2  A    between atoms: N2_6  and  C4_8 
REMARK    3  A    between atoms: N3_11  and  C7_12 
ROOT
HETATM    1  C4  UNL     1      -4.390   4.827  12.052  1.00  0.00     0.085 C 
HETATM    2  C5  UNL     1      -4.889   5.420  13.364  1.00  0.00     0.055 C 
HETATM    3  C6  UNL     1      -4.144   4.802  14.501  1.00  0.00     0.275 C 
HETATM    4  N3  UNL     1      -4.313   3.367  14.561  1.00  0.00     0.093 N 
HETATM    5  C14 UNL     1      -5.105   2.942  13.452  1.00  0.00     0.275 C 
HETATM    6  C15 UNL     1      -4.382   3.339  12.182  1.00  0.00     0.055 C 
ENDROOT
BRANCH   1   7
HETATM    7  N2  UNL     1      -3.110   5.392  11.764  1.00  0.00    -0.383 N 
ATOM      8  H2  UNL     1      -3.024   6.406  11.841  1.00  0.00     0.160 HD
BRANCH   7   9
HETATM    9  C3  UNL     1      -1.951   4.681  11.382  1.00  0.00     0.059 A 
HETATM   10  C2  UNL     1      -1.608   4.377  10.082  1.00  0.00     0.119 A 
HETATM   11  N1  UNL     1      -0.474   3.685   9.790  1.00  0.00    -0.360 N 
HETATM   12  C1  UNL     1       0.358   3.269  10.756  1.00  0.00     0.180 A 
ATOM     13  H1  UNL     1      -0.252   3.478   8.816  1.00  0.00     0.166 HD
HETATM   14  N4  UNL     1       0.047   3.553  12.028  1.00  0.00    -0.360 N 
HETATM   15  C16 UNL     1      -1.067   4.235  12.342  1.00  0.00     0.119 A 
ATOM     16  H4  UNL     1       0.670   3.244  12.774  1.00  0.00     0.166 HD
ENDBRANCH   7   9
ENDBRANCH   1   7
BRANCH   4  17
HETATM   17  C7  UNL     1      -4.836   2.950  15.843  1.00  0.00     0.223 C 
HETATM   18  C8  UNL     1      -4.260   1.675  16.341  1.00  0.00     0.036 C 
HETATM   19  C9  UNL     1      -5.176   0.500  16.346  1.00  0.00     0.002 C 
HETATM   20  C10 UNL     1      -6.287   0.565  17.331  1.00  0.00     0.000 C 
HETATM   21  C11 UNL     1      -6.357   1.838  18.115  1.00  0.00     0.000 C 
HETATM   22  C12 UNL     1      -6.783   3.020  17.290  1.00  0.00     0.002 C 
HETATM   23  C13 UNL     1      -6.344   2.843  15.836  1.00  0.00     0.036 C 
ENDBRANCH   4  17
TORSDOF 3
ENDMDL
