MODEL 1
REMARK VINA RESULT: -7.866514306      0.000      0.000
REMARK  7 active torsions:
REMARK  status: ('A' for Active; 'I' for Inactive)
REMARK    1  A    between atoms: C2_2  and  C3_3 
REMARK    2  A    between atoms: C3_3  and  N1_4 
REMARK    3  A    between atoms: C3_3  and  C4_8 
REMARK    4  A    between atoms: C13_17  and  N2_18 
REMARK    5  A    between atoms: N2_18  and  C14_20 
REMARK    6  A    between atoms: C14_20  and  C17_23 
REMARK    7  A    between atoms: C17_23  and  C18_24 
ROOT
HETATM    1  C4  UNL     1      10.368  -8.596  12.695  1.00  0.00     0.020 C 
HETATM    2  C5  UNL     1       9.054  -7.974  12.998  1.00  0.00     0.007 C 
HETATM    3  C6  UNL     1       8.511  -8.261  14.379  1.00  0.00     0.001 C 
HETATM    4  C7  UNL     1       9.580  -7.953  15.379  1.00  0.00     0.005 C 
HETATM    5  C8  UNL     1      10.751  -8.874  15.121  1.00  0.00    -0.005 C 
HETATM    6  C9  UNL     1      11.371  -8.585  13.799  1.00  0.00    -0.004 C 
HETATM    7  C10 UNL     1      12.476  -9.581  13.572  1.00  0.00     0.006 C 
HETATM    8  C11 UNL     1      12.792 -10.393  14.833  1.00  0.00     0.007 C 
HETATM    9  C12 UNL     1      11.565 -11.222  15.105  1.00  0.00     0.012 C 
HETATM   10  C13 UNL     1      11.679 -12.062  16.353  1.00  0.00     0.081 C 
HETATM   11  C21 UNL     1      10.243 -11.986  16.890  1.00  0.00     0.025 C 
HETATM   12  C22 UNL     1       9.866 -10.543  16.637  1.00  0.00     0.007 C 
HETATM   13  C23 UNL     1      10.393 -10.312  15.235  1.00  0.00    -0.004 C 
ENDROOT
BRANCH  10  14
HETATM   14  N2  UNL     1      12.003 -13.402  15.956  1.00  0.00    -0.409 N 
ATOM     15  H2  UNL     1      11.319 -14.026  15.528  1.00  0.00     0.154 HD
BRANCH  14  16
HETATM   16  C14 UNL     1      13.381 -13.805  16.211  1.00  0.00     0.019 C 
HETATM   17  C15 UNL     1      13.955 -13.012  17.355  1.00  0.00     0.037 C 
HETATM   18  C16 UNL     1      13.236 -15.234  16.775  1.00  0.00     0.037 C 
BRANCH  16  19
HETATM   19  C17 UNL     1      14.231 -13.769  15.015  1.00  0.00     0.033 C 
BRANCH  19  20
HETATM   20  C18 UNL     1      13.653 -13.736  13.663  1.00  0.00    -0.020 C 
HETATM   21  C19 UNL     1      13.562 -14.984  12.863  1.00  0.00     0.009 C 
HETATM   22  C20 UNL     1      14.466 -12.737  12.806  1.00  0.00     0.009 C 
ENDBRANCH  19  20
ENDBRANCH  16  19
ENDBRANCH  14  16
ENDBRANCH  10  14
BRANCH   1  23
HETATM   23  C3  UNL     1      10.894  -7.976  11.420  1.00  0.00     0.187 C 
BRANCH  23  24
HETATM   24  C2  UNL     1      11.238  -6.528  11.534  1.00  0.00     0.028 C 
HETATM   25  C1  UNL     1      11.541  -6.034  10.111  1.00  0.00     0.007 C 
ENDBRANCH  23  24
BRANCH  23  26
HETATM   26  N1  UNL     1       9.965  -8.146  10.324  1.00  0.00    -0.075 N 
ATOM     27  H13 UNL     1       9.225  -7.443  10.326  1.00  0.00     0.274 HD
ATOM     28  H12 UNL     1      10.378  -7.911   9.421  1.00  0.00     0.274 HD
ATOM     29  H11 UNL     1       9.599  -9.098  10.350  1.00  0.00     0.274 HD
ENDBRANCH  23  26
ENDBRANCH   1  23
TORSDOF 7
ENDMDL
MODEL 2
REMARK VINA RESULT: -7.783826702      1.271      1.468
REMARK  7 active torsions:
REMARK  status: ('A' for Active; 'I' for Inactive)
REMARK    1  A    between atoms: C2_2  and  C3_3 
REMARK    2  A    between atoms: C3_3  and  N1_4 
REMARK    3  A    between atoms: C3_3  and  C4_8 
REMARK    4  A    between atoms: C13_17  and  N2_18 
REMARK    5  A    between atoms: N2_18  and  C14_20 
REMARK    6  A    between atoms: C14_20  and  C17_23 
REMARK    7  A    between atoms: C17_23  and  C18_24 
ROOT
HETATM    1  C4  UNL     1      10.070  -9.412  11.737  1.00  0.00     0.020 C 
HETATM    2  C5  UNL     1       8.969  -8.498  12.134  1.00  0.00     0.007 C 
HETATM    3  C6  UNL     1       8.790  -8.317  13.625  1.00  0.00     0.001 C 
HETATM    4  C7  UNL     1      10.118  -7.972  14.220  1.00  0.00     0.005 C 
HETATM    5  C8  UNL     1      11.060  -9.131  13.985  1.00  0.00    -0.005 C 
HETATM    6  C9  UNL     1      11.329  -9.310  12.532  1.00  0.00    -0.004 C 
HETATM    7  C10 UNL     1      12.207 -10.519  12.363  1.00  0.00     0.006 C 
HETATM    8  C11 UNL     1      12.755 -11.029  13.700  1.00  0.00     0.007 C 
HETATM    9  C12 UNL     1      11.558 -11.516  14.475  1.00  0.00     0.012 C 
HETATM   10  C13 UNL     1      11.908 -12.017  15.854  1.00  0.00     0.081 C 
HETATM   11  C21 UNL     1      10.690 -11.539  16.657  1.00  0.00     0.025 C 
HETATM   12  C22 UNL     1      10.429 -10.163  16.084  1.00  0.00     0.007 C 
HETATM   13  C23 UNL     1      10.580 -10.399  14.594  1.00  0.00    -0.004 C 
ENDROOT
BRANCH  10  14
HETATM   14  N2  UNL     1      11.953 -13.450  15.806  1.00  0.00    -0.409 N 
ATOM     15  H2  UNL     1      11.110 -14.024  15.809  1.00  0.00     0.154 HD
BRANCH  14  16
HETATM   16  C14 UNL     1      13.292 -14.023  15.753  1.00  0.00     0.019 C 
HETATM   17  C15 UNL     1      14.278 -13.113  16.435  1.00  0.00     0.037 C 
HETATM   18  C16 UNL     1      13.194 -15.246  16.689  1.00  0.00     0.037 C 
BRANCH  16  19
HETATM   19  C17 UNL     1      13.714 -14.400  14.398  1.00  0.00     0.033 C 
BRANCH  19  20
HETATM   20  C18 UNL     1      12.976 -15.402  13.615  1.00  0.00    -0.020 C 
HETATM   21  C19 UNL     1      13.708 -16.498  12.932  1.00  0.00     0.009 C 
HETATM   22  C20 UNL     1      12.174 -14.671  12.513  1.00  0.00     0.009 C 
ENDBRANCH  19  20
ENDBRANCH  16  19
ENDBRANCH  14  16
ENDBRANCH  10  14
BRANCH   1  23
HETATM   23  C3  UNL     1      10.300  -9.247  10.252  1.00  0.00     0.187 C 
BRANCH  23  24
HETATM   24  C2  UNL     1      10.386  -7.828   9.795  1.00  0.00     0.028 C 
HETATM   25  C1  UNL     1      10.077  -7.831   8.291  1.00  0.00     0.007 C 
ENDBRANCH  23  24
BRANCH  23  26
HETATM   26  N1  UNL     1       9.280  -9.921   9.478  1.00  0.00    -0.075 N 
ATOM     27  H13 UNL     1       8.729  -9.276   8.912  1.00  0.00     0.274 HD
ATOM     28  H12 UNL     1       9.671 -10.476   8.717  1.00  0.00     0.274 HD
ATOM     29  H11 UNL     1       8.704 -10.476  10.111  1.00  0.00     0.274 HD
ENDBRANCH  23  26
ENDBRANCH   1  23
TORSDOF 7
ENDMDL
MODEL 3
REMARK VINA RESULT: -7.611195175      1.840      3.336
REMARK  7 active torsions:
REMARK  status: ('A' for Active; 'I' for Inactive)
REMARK    1  A    between atoms: C2_2  and  C3_3 
REMARK    2  A    between atoms: C3_3  and  N1_4 
REMARK    3  A    between atoms: C3_3  and  C4_8 
REMARK    4  A    between atoms: C13_17  and  N2_18 
REMARK    5  A    between atoms: N2_18  and  C14_20 
REMARK    6  A    between atoms: C14_20  and  C17_23 
REMARK    7  A    between atoms: C17_23  and  C18_24 
ROOT
HETATM    1  C4  UNL     1      11.382  -7.026  10.582  1.00  0.00     0.020 C 
HETATM    2  C5  UNL     1      10.917  -7.423   9.229  1.00  0.00     0.007 C 
HETATM    3  C6  UNL     1      10.331  -8.813   9.133  1.00  0.00     0.001 C 
HETATM    4  C7  UNL     1       9.297  -8.962  10.204  1.00  0.00     0.005 C 
HETATM    5  C8  UNL     1       9.979  -8.819  11.546  1.00  0.00    -0.005 C 
HETATM    6  C9  UNL     1      10.515  -7.441  11.723  1.00  0.00    -0.004 C 
HETATM    7  C10 UNL     1      11.243  -7.388  13.039  1.00  0.00     0.006 C 
HETATM    8  C11 UNL     1      10.999  -8.640  13.887  1.00  0.00     0.007 C 
HETATM    9  C12 UNL     1      11.635  -9.778  13.132  1.00  0.00     0.012 C 
HETATM   10  C13 UNL     1      11.451 -11.115  13.805  1.00  0.00     0.081 C 
HETATM   11  C21 UNL     1      11.266 -12.033  12.589  1.00  0.00     0.025 C 
HETATM   12  C22 UNL     1      10.398 -11.201  11.670  1.00  0.00     0.007 C 
HETATM   13  C23 UNL     1      11.043  -9.833  11.766  1.00  0.00    -0.004 C 
ENDROOT
BRANCH  10  14
HETATM   14  N2  UNL     1      12.664 -11.432  14.500  1.00  0.00    -0.409 N 
ATOM     15  H2  UNL     1      13.539 -10.937  14.327  1.00  0.00     0.154 HD
BRANCH  14  16
HETATM   16  C14 UNL     1      12.555 -12.515  15.471  1.00  0.00     0.019 C 
HETATM   17  C15 UNL     1      13.791 -12.577  16.327  1.00  0.00     0.037 C 
HETATM   18  C16 UNL     1      11.452 -12.022  16.431  1.00  0.00     0.037 C 
BRANCH  16  19
HETATM   19  C17 UNL     1      12.220 -13.810  14.866  1.00  0.00     0.033 C 
BRANCH  19  20
HETATM   20  C18 UNL     1      13.265 -14.756  14.449  1.00  0.00    -0.020 C 
HETATM   21  C19 UNL     1      13.451 -15.070  13.010  1.00  0.00     0.009 C 
HETATM   22  C20 UNL     1      13.011 -16.110  15.152  1.00  0.00     0.009 C 
ENDBRANCH  19  20
ENDBRANCH  16  19
ENDBRANCH  14  16
ENDBRANCH  10  14
BRANCH   1  23
HETATM   23  C3  UNL     1      11.653  -5.539  10.565  1.00  0.00     0.187 C 
BRANCH  23  24
HETATM   24  C2  UNL     1      11.985  -4.989   9.216  1.00  0.00     0.028 C 
HETATM   25  C1  UNL     1      13.506  -4.780   9.189  1.00  0.00     0.007 C 
ENDBRANCH  23  24
BRANCH  23  26
HETATM   26  N1  UNL     1      12.711  -5.180  11.484  1.00  0.00    -0.075 N 
ATOM     27  H13 UNL     1      13.335  -5.962  11.685  1.00  0.00     0.274 HD
ATOM     28  H12 UNL     1      13.400  -4.557  11.063  1.00  0.00     0.274 HD
ATOM     29  H11 UNL     1      12.293  -4.788  12.327  1.00  0.00     0.274 HD
ENDBRANCH  23  26
ENDBRANCH   1  23
TORSDOF 7
ENDMDL
MODEL 4
REMARK VINA RESULT: -7.555830792      1.835      3.833
REMARK  7 active torsions:
REMARK  status: ('A' for Active; 'I' for Inactive)
REMARK    1  A    between atoms: C2_2  and  C3_3 
REMARK    2  A    between atoms: C3_3  and  N1_4 
REMARK    3  A    between atoms: C3_3  and  C4_8 
REMARK    4  A    between atoms: C13_17  and  N2_18 
REMARK    5  A    between atoms: N2_18  and  C14_20 
REMARK    6  A    between atoms: C14_20  and  C17_23 
REMARK    7  A    between atoms: C17_23  and  C18_24 
ROOT
HETATM    1  C4  UNL     1      11.389  -7.046  10.620  1.00  0.00     0.020 C 
HETATM    2  C5  UNL     1      10.877  -7.420   9.277  1.00  0.00     0.007 C 
HETATM    3  C6  UNL     1      10.280  -8.806   9.181  1.00  0.00     0.001 C 
HETATM    4  C7  UNL     1       9.282  -8.966  10.284  1.00  0.00     0.005 C 
HETATM    5  C8  UNL     1      10.010  -8.846  11.604  1.00  0.00    -0.005 C 
HETATM    6  C9  UNL     1      10.559  -7.474  11.783  1.00  0.00    -0.004 C 
HETATM    7  C10 UNL     1      11.331  -7.445  13.074  1.00  0.00     0.006 C 
HETATM    8  C11 UNL     1      11.109  -8.708  13.912  1.00  0.00     0.007 C 
HETATM    9  C12 UNL     1      11.712  -9.837  13.118  1.00  0.00     0.012 C 
HETATM   10  C13 UNL     1      11.543 -11.184  13.778  1.00  0.00     0.081 C 
HETATM   11  C21 UNL     1      11.313 -12.082  12.554  1.00  0.00     0.025 C 
HETATM   12  C22 UNL     1      10.420 -11.233  11.678  1.00  0.00     0.007 C 
HETATM   13  C23 UNL     1      11.074  -9.869  11.772  1.00  0.00    -0.004 C 
ENDROOT
BRANCH  10  14
HETATM   14  N2  UNL     1      12.778 -11.517  14.426  1.00  0.00    -0.409 N 
ATOM     15  H2  UNL     1      13.640 -10.996  14.264  1.00  0.00     0.154 HD
BRANCH  14  16
HETATM   16  C14 UNL     1      12.710 -12.656  15.334  1.00  0.00     0.019 C 
HETATM   17  C15 UNL     1      13.124 -13.917  14.624  1.00  0.00     0.037 C 
HETATM   18  C16 UNL     1      13.857 -12.387  16.330  1.00  0.00     0.037 C 
BRANCH  16  19
HETATM   19  C17 UNL     1      11.414 -12.787  16.011  1.00  0.00     0.033 C 
BRANCH  19  20
HETATM   20  C18 UNL     1      11.177 -12.199  17.338  1.00  0.00    -0.020 C 
HETATM   21  C19 UNL     1      10.730 -13.058  18.463  1.00  0.00     0.009 C 
HETATM   22  C20 UNL     1      10.110 -11.087  17.198  1.00  0.00     0.009 C 
ENDBRANCH  19  20
ENDBRANCH  16  19
ENDBRANCH  14  16
ENDBRANCH  10  14
BRANCH   1  23
HETATM   23  C3  UNL     1      11.668  -5.560  10.615  1.00  0.00     0.187 C 
BRANCH  23  24
HETATM   24  C2  UNL     1      11.971  -4.994   9.267  1.00  0.00     0.028 C 
HETATM   25  C1  UNL     1      13.491  -4.775   9.214  1.00  0.00     0.007 C 
ENDBRANCH  23  24
BRANCH  23  26
HETATM   26  N1  UNL     1      12.749  -5.219  11.514  1.00  0.00    -0.075 N 
ATOM     27  H13 UNL     1      12.983  -4.227  11.485  1.00  0.00     0.274 HD
ATOM     28  H12 UNL     1      12.472  -5.268  12.495  1.00  0.00     0.274 HD
ATOM     29  H11 UNL     1      13.549  -5.816  11.304  1.00  0.00     0.274 HD
ENDBRANCH  23  26
ENDBRANCH   1  23
TORSDOF 7
ENDMDL
MODEL 5
REMARK VINA RESULT: -7.503694956      0.836      1.181
REMARK  7 active torsions:
REMARK  status: ('A' for Active; 'I' for Inactive)
REMARK    1  A    between atoms: C2_2  and  C3_3 
REMARK    2  A    between atoms: C3_3  and  N1_4 
REMARK    3  A    between atoms: C3_3  and  C4_8 
REMARK    4  A    between atoms: C13_17  and  N2_18 
REMARK    5  A    between atoms: N2_18  and  C14_20 
REMARK    6  A    between atoms: C14_20  and  C17_23 
REMARK    7  A    between atoms: C17_23  and  C18_24 
ROOT
HETATM    1  C4  UNL     1       9.994  -8.772  12.568  1.00  0.00     0.020 C 
HETATM    2  C5  UNL     1       8.730  -8.128  13.007  1.00  0.00     0.007 C 
HETATM    3  C6  UNL     1       8.399  -8.296  14.472  1.00  0.00     0.001 C 
HETATM    4  C7  UNL     1       9.599  -7.900  15.273  1.00  0.00     0.005 C 
HETATM    5  C8  UNL     1      10.732  -8.839  14.926  1.00  0.00    -0.005 C 
HETATM    6  C9  UNL     1      11.148  -8.665  13.507  1.00  0.00    -0.004 C 
HETATM    7  C10 UNL     1      12.221  -9.675  13.206  1.00  0.00     0.006 C 
HETATM    8  C11 UNL     1      12.730 -10.374  14.471  1.00  0.00     0.007 C 
HETATM    9  C12 UNL     1      11.568 -11.179  14.990  1.00  0.00     0.012 C 
HETATM   10  C13 UNL     1      11.876 -11.907  16.275  1.00  0.00     0.081 C 
HETATM   11  C21 UNL     1      10.533 -11.787  17.009  1.00  0.00     0.025 C 
HETATM   12  C22 UNL     1      10.103 -10.372  16.692  1.00  0.00     0.007 C 
HETATM   13  C23 UNL     1      10.414 -10.262  15.213  1.00  0.00    -0.004 C 
ENDROOT
BRANCH  10  14
HETATM   14  N2  UNL     1      12.156 -13.276  15.951  1.00  0.00    -0.409 N 
ATOM     15  H2  UNL     1      11.443 -13.911  15.592  1.00  0.00     0.154 HD
BRANCH  14  16
HETATM   16  C14 UNL     1      13.536 -13.692  16.173  1.00  0.00     0.019 C 
HETATM   17  C15 UNL     1      14.169 -12.851  17.249  1.00  0.00     0.037 C 
HETATM   18  C16 UNL     1      13.389 -15.086  16.818  1.00  0.00     0.037 C 
BRANCH  16  19
HETATM   19  C17 UNL     1      14.338 -13.736  14.944  1.00  0.00     0.033 C 
BRANCH  19  20
HETATM   20  C18 UNL     1      13.708 -13.741  13.616  1.00  0.00    -0.020 C 
HETATM   21  C19 UNL     1      13.612 -15.004  12.843  1.00  0.00     0.009 C 
HETATM   22  C20 UNL     1      14.466 -12.742  12.709  1.00  0.00     0.009 C 
ENDBRANCH  19  20
ENDBRANCH  16  19
ENDBRANCH  14  16
ENDBRANCH  10  14
BRANCH   1  23
HETATM   23  C3  UNL     1      10.318  -8.265  11.181  1.00  0.00     0.187 C 
BRANCH  23  24
HETATM   24  C2  UNL     1      10.833  -9.310  10.247  1.00  0.00     0.028 C 
HETATM   25  C1  UNL     1       9.605 -10.039   9.682  1.00  0.00     0.007 C 
ENDBRANCH  23  24
BRANCH  23  26
HETATM   26  N1  UNL     1      11.268  -7.174  11.223  1.00  0.00    -0.075 N 
ATOM     27  H13 UNL     1      11.922  -7.194  10.440  1.00  0.00     0.274 HD
ATOM     28  H12 UNL     1      10.836  -6.272  11.020  1.00  0.00     0.274 HD
ATOM     29  H11 UNL     1      11.740  -7.187  12.127  1.00  0.00     0.274 HD
ENDBRANCH  23  26
ENDBRANCH   1  23
TORSDOF 7
ENDMDL
