MODEL 1
REMARK VINA RESULT: -9.108932138      0.000      0.000
REMARK  14 active torsions:
REMARK  status: ('A' for Active; 'I' for Inactive)
REMARK    1  A    between atoms: N2_5  and  C4_6 
REMARK    2  A    between atoms: C4_6  and  C5_7 
REMARK    3  A    between atoms: C5_7  and  O1_8 
REMARK    4  A    between atoms: O1_8  and  C6_9 
REMARK    5  A    between atoms: C6_9  and  C7_10 
REMARK    6  A    between atoms: C7_10  and  O2_11 
REMARK    7  A    between atoms: O2_11  and  C8_12 
REMARK    8  A    between atoms: C10_14  and  N3_15 
REMARK    9  A    between atoms: N3_15  and  C11_17 
REMARK   10  A    between atoms: C11_17  and  C12_18 
REMARK   11  A    between atoms: C12_18  and  N4_19 
REMARK   12  A    between atoms: C18_26  and  N5_27 
REMARK   13  A    between atoms: N5_27  and  C19_29 
REMARK   14  A    between atoms: C26_37  and  N7_38 
ROOT
HETATM    1  C8  UNL     1      18.245  25.242  15.272  1.00  0.00     0.073 A 
HETATM    2  C9  UNL     1      19.058  24.837  16.295  1.00  0.00     0.067 A 
HETATM    3  C10 UNL     1      20.225  25.562  16.651  1.00  0.00     0.045 A 
HETATM    4  C17 UNL     1      20.547  26.686  15.953  1.00  0.00     0.045 A 
HETATM    5  C18 UNL     1      21.717  27.450  16.244  1.00  0.00     0.070 A 
HETATM    6  C31 UNL     1      21.905  28.557  15.452  1.00  0.00     0.087 A 
HETATM    7  C32 UNL     1      23.042  29.418  15.660  1.00  0.00     0.103 C 
HETATM    8  N8  UNL     1      23.915  30.125  15.800  1.00  0.00    -0.191 NA
HETATM    9  C33 UNL     1      21.011  28.887  14.439  1.00  0.00     0.113 A 
HETATM   10  N9  UNL     1      19.938  28.154  14.187  1.00  0.00    -0.363 N 
ATOM     11  H9  UNL     1      19.301  28.418  13.437  1.00  0.00     0.165 HD
HETATM   12  C34 UNL     1      19.697  27.067  14.921  1.00  0.00     0.049 A 
HETATM   13  C35 UNL     1      18.550  26.375  14.558  1.00  0.00     0.067 A 
ENDROOT
BRANCH   5  14
HETATM   14  N5  UNL     1      22.506  27.013  17.063  1.00  0.00    -0.352 N 
ATOM     15  H5  UNL     1      22.035  26.834  17.949  1.00  0.00     0.166 HD
BRANCH  14  16
HETATM   16  C19 UNL     1      23.834  26.688  17.156  1.00  0.00     0.063 A 
HETATM   17  C20 UNL     1      24.622  26.755  15.980  1.00  0.00     0.049 A 
HETATM   18  C21 UNL     1      25.932  26.399  15.916  1.00  0.00     0.099 A 
HETATM   19  N6  UNL     1      26.510  25.948  17.070  1.00  0.00    -0.331 N 
HETATM   20  C22 UNL     1      27.767  25.533  17.290  1.00  0.00     0.097 A 
HETATM   21  C25 UNL     1      25.799  25.869  18.206  1.00  0.00     0.067 A 
HETATM   22  C23 UNL     1      27.873  25.174  18.609  1.00  0.00     0.020 A 
HETATM   23  C24 UNL     1      26.648  25.377  19.202  1.00  0.00     0.034 A 
HETATM   24  C26 UNL     1      24.465  26.224  18.306  1.00  0.00     0.085 A 
BRANCH  24  25
HETATM   25  N7  UNL     1      23.800  26.115  19.534  1.00  0.00    -0.377 N 
HETATM   26  C27 UNL     1      23.191  27.159  20.370  1.00  0.00     0.123 C 
HETATM   27  C28 UNL     1      23.610  26.729  21.762  1.00  0.00     0.021 C 
HETATM   28  C29 UNL     1      23.861  25.225  21.682  1.00  0.00     0.021 C 
HETATM   29  C30 UNL     1      23.511  24.878  20.265  1.00  0.00     0.123 C 
ENDBRANCH  24  25
ENDBRANCH  14  16
ENDBRANCH   5  14
BRANCH   3  30
HETATM   30  N3  UNL     1      20.927  25.139  17.793  1.00  0.00    -0.387 N 
ATOM     31  H3  UNL     1      21.883  24.794  17.698  1.00  0.00     0.159 HD
BRANCH  30  32
HETATM   32  C11 UNL     1      20.293  25.188  19.146  1.00  0.00     0.150 C 
BRANCH  32  33
HETATM   33  C12 UNL     1      20.065  23.829  19.674  1.00  0.00     0.292 C 
BRANCH  33  34
HETATM   34  N4  UNL     1      18.828  23.636  20.345  1.00  0.00     0.094 N 
HETATM   35  C13 UNL     1      18.514  22.213  20.314  1.00  0.00     0.298 C 
HETATM   36  C14 UNL     1      18.167  21.676  18.976  1.00  0.00     0.198 C 
HETATM   37  O3  UNL     1      17.389  22.562  18.289  1.00  0.00    -0.388 OA
HETATM   38  C15 UNL     1      16.778  23.546  19.010  1.00  0.00     0.198 C 
HETATM   39  C16 UNL     1      17.734  24.415  19.794  1.00  0.00     0.298 C 
ENDBRANCH  33  34
ENDBRANCH  32  33
ENDBRANCH  30  32
ENDBRANCH   3  30
BRANCH   1  40
HETATM   40  O2  UNL     1      17.128  24.539  14.954  1.00  0.00    -0.349 OA
BRANCH  40  41
HETATM   41  C7  UNL     1      16.981  23.127  15.008  1.00  0.00     0.201 C 
BRANCH  41  42
HETATM   42  C6  UNL     1      15.607  22.682  14.642  1.00  0.00     0.194 C 
BRANCH  42  43
HETATM   43  O1  UNL     1      15.456  21.394  14.234  1.00  0.00    -0.387 OA
BRANCH  43  44
HETATM   44  C5  UNL     1      14.224  20.818  14.410  1.00  0.00     0.198 C 
BRANCH  44  45
HETATM   45  C4  UNL     1      13.561  21.458  15.584  1.00  0.00     0.298 C 
BRANCH  45  46
HETATM   46  N2  UNL     1      13.617  20.515  16.714  1.00  0.00     0.093 N 
HETATM   47  C3  UNL     1      13.962  21.302  17.891  1.00  0.00     0.302 C 
HETATM   48  C2  UNL     1      14.188  20.372  19.043  1.00  0.00     0.302 C 
HETATM   49  N1  UNL     1      13.255  19.285  19.070  1.00  0.00     0.087 N 
HETATM   50  C1  UNL     1      13.857  18.014  18.763  1.00  0.00     0.310 C 
HETATM   51  C37 UNL     1      12.043  19.539  18.329  1.00  0.00     0.302 C 
HETATM   52  C36 UNL     1      12.300  19.922  16.902  1.00  0.00     0.302 C 
ENDBRANCH  45  46
ENDBRANCH  44  45
ENDBRANCH  43  44
ENDBRANCH  42  43
ENDBRANCH  41  42
ENDBRANCH  40  41
ENDBRANCH   1  40
TORSDOF 14
ENDMDL
MODEL 2
REMARK VINA RESULT: -8.875731611      0.823      1.171
REMARK  14 active torsions:
REMARK  status: ('A' for Active; 'I' for Inactive)
REMARK    1  A    between atoms: N2_5  and  C4_6 
REMARK    2  A    between atoms: C4_6  and  C5_7 
REMARK    3  A    between atoms: C5_7  and  O1_8 
REMARK    4  A    between atoms: O1_8  and  C6_9 
REMARK    5  A    between atoms: C6_9  and  C7_10 
REMARK    6  A    between atoms: C7_10  and  O2_11 
REMARK    7  A    between atoms: O2_11  and  C8_12 
REMARK    8  A    between atoms: C10_14  and  N3_15 
REMARK    9  A    between atoms: N3_15  and  C11_17 
REMARK   10  A    between atoms: C11_17  and  C12_18 
REMARK   11  A    between atoms: C12_18  and  N4_19 
REMARK   12  A    between atoms: C18_26  and  N5_27 
REMARK   13  A    between atoms: N5_27  and  C19_29 
REMARK   14  A    between atoms: C26_37  and  N7_38 
ROOT
HETATM    1  C8  UNL     1      18.393  25.561  14.937  1.00  0.00     0.073 A 
HETATM    2  C9  UNL     1      19.112  25.112  16.011  1.00  0.00     0.067 A 
HETATM    3  C10 UNL     1      20.282  25.782  16.456  1.00  0.00     0.045 A 
HETATM    4  C17 UNL     1      20.702  26.895  15.794  1.00  0.00     0.045 A 
HETATM    5  C18 UNL     1      21.881  27.604  16.175  1.00  0.00     0.070 A 
HETATM    6  C31 UNL     1      22.173  28.707  15.409  1.00  0.00     0.087 A 
HETATM    7  C32 UNL     1      23.330  29.515  15.706  1.00  0.00     0.103 C 
HETATM    8  N8  UNL     1      24.221  30.181  15.915  1.00  0.00    -0.191 NA
HETATM    9  C33 UNL     1      21.369  29.084  14.339  1.00  0.00     0.113 A 
HETATM   10  N9  UNL     1      20.286  28.401  14.005  1.00  0.00    -0.363 N 
ATOM     11  H9  UNL     1      19.715  28.699  13.214  1.00  0.00     0.165 HD
HETATM   12  C34 UNL     1      19.945  27.322  14.709  1.00  0.00     0.049 A 
HETATM   13  C35 UNL     1      18.797  26.683  14.258  1.00  0.00     0.067 A 
ENDROOT
BRANCH   5  14
HETATM   14  N5  UNL     1      22.590  27.126  17.043  1.00  0.00    -0.352 N 
ATOM     15  H5  UNL     1      22.066  27.025  17.912  1.00  0.00     0.166 HD
BRANCH  14  16
HETATM   16  C19 UNL     1      23.876  26.683  17.208  1.00  0.00     0.063 A 
HETATM   17  C20 UNL     1      24.735  26.695  16.081  1.00  0.00     0.049 A 
HETATM   18  C21 UNL     1      26.011  26.225  16.087  1.00  0.00     0.099 A 
HETATM   19  N6  UNL     1      26.478  25.711  17.264  1.00  0.00    -0.331 N 
HETATM   20  C22 UNL     1      27.678  25.184  17.549  1.00  0.00     0.097 A 
HETATM   21  C25 UNL     1      25.696  25.681  18.355  1.00  0.00     0.067 A 
HETATM   22  C23 UNL     1      27.674  24.800  18.867  1.00  0.00     0.020 A 
HETATM   23  C24 UNL     1      26.438  25.105  19.391  1.00  0.00     0.034 A 
HETATM   24  C26 UNL     1      24.394  26.152  18.384  1.00  0.00     0.085 A 
BRANCH  24  25
HETATM   25  N7  UNL     1      23.651  26.088  19.569  1.00  0.00    -0.377 N 
HETATM   26  C27 UNL     1      23.083  27.172  20.383  1.00  0.00     0.123 C 
HETATM   27  C28 UNL     1      23.381  26.693  21.791  1.00  0.00     0.021 C 
HETATM   28  C29 UNL     1      23.509  25.174  21.703  1.00  0.00     0.021 C 
HETATM   29  C30 UNL     1      23.215  24.873  20.263  1.00  0.00     0.123 C 
ENDBRANCH  24  25
ENDBRANCH  14  16
ENDBRANCH   5  14
BRANCH   3  30
HETATM   30  N3  UNL     1      20.882  25.320  17.640  1.00  0.00    -0.387 N 
ATOM     31  H3  UNL     1      21.714  25.789  17.999  1.00  0.00     0.159 HD
BRANCH  30  32
HETATM   32  C11 UNL     1      20.318  24.151  18.381  1.00  0.00     0.150 C 
BRANCH  32  33
HETATM   33  C12 UNL     1      19.530  24.592  19.548  1.00  0.00     0.292 C 
BRANCH  33  34
HETATM   34  N4  UNL     1      18.196  24.107  19.600  1.00  0.00     0.094 N 
HETATM   35  C13 UNL     1      18.025  23.389  20.858  1.00  0.00     0.298 C 
HETATM   36  C14 UNL     1      18.769  22.111  20.956  1.00  0.00     0.198 C 
HETATM   37  O3  UNL     1      18.722  21.434  19.771  1.00  0.00    -0.388 OA
HETATM   38  C15 UNL     1      17.763  21.808  18.877  1.00  0.00     0.198 C 
HETATM   39  C16 UNL     1      17.834  23.263  18.475  1.00  0.00     0.298 C 
ENDBRANCH  33  34
ENDBRANCH  32  33
ENDBRANCH  30  32
ENDBRANCH   3  30
BRANCH   1  40
HETATM   40  O2  UNL     1      17.271  24.911  14.534  1.00  0.00    -0.349 OA
BRANCH  40  41
HETATM   41  C7  UNL     1      16.417  24.124  15.353  1.00  0.00     0.201 C 
BRANCH  41  42
HETATM   42  C6  UNL     1      16.144  22.781  14.767  1.00  0.00     0.194 C 
BRANCH  42  43
HETATM   43  O1  UNL     1      16.196  21.713  15.606  1.00  0.00    -0.387 OA
BRANCH  43  44
HETATM   44  C5  UNL     1      15.008  21.105  15.925  1.00  0.00     0.198 C 
BRANCH  44  45
HETATM   45  C4  UNL     1      14.439  21.773  17.131  1.00  0.00     0.298 C 
BRANCH  45  46
HETATM   46  N2  UNL     1      13.739  20.755  17.933  1.00  0.00     0.093 N 
HETATM   47  C3  UNL     1      12.614  20.296  17.127  1.00  0.00     0.302 C 
HETATM   48  C2  UNL     1      11.774  19.373  17.955  1.00  0.00     0.302 C 
HETATM   49  N1  UNL     1      12.555  18.502  18.782  1.00  0.00     0.087 N 
HETATM   50  C1  UNL     1      12.451  18.808  20.185  1.00  0.00     0.310 C 
HETATM   51  C37 UNL     1      13.916  18.336  18.331  1.00  0.00     0.302 C 
HETATM   52  C36 UNL     1      14.643  19.639  18.175  1.00  0.00     0.302 C 
ENDBRANCH  45  46
ENDBRANCH  44  45
ENDBRANCH  43  44
ENDBRANCH  42  43
ENDBRANCH  41  42
ENDBRANCH  40  41
ENDBRANCH   1  40
TORSDOF 14
ENDMDL
MODEL 3
REMARK VINA RESULT: -8.805942345      1.090      1.376
REMARK  14 active torsions:
REMARK  status: ('A' for Active; 'I' for Inactive)
REMARK    1  A    between atoms: N2_5  and  C4_6 
REMARK    2  A    between atoms: C4_6  and  C5_7 
REMARK    3  A    between atoms: C5_7  and  O1_8 
REMARK    4  A    between atoms: O1_8  and  C6_9 
REMARK    5  A    between atoms: C6_9  and  C7_10 
REMARK    6  A    between atoms: C7_10  and  O2_11 
REMARK    7  A    between atoms: O2_11  and  C8_12 
REMARK    8  A    between atoms: C10_14  and  N3_15 
REMARK    9  A    between atoms: N3_15  and  C11_17 
REMARK   10  A    between atoms: C11_17  and  C12_18 
REMARK   11  A    between atoms: C12_18  and  N4_19 
REMARK   12  A    between atoms: C18_26  and  N5_27 
REMARK   13  A    between atoms: N5_27  and  C19_29 
REMARK   14  A    between atoms: C26_37  and  N7_38 
ROOT
HETATM    1  C8  UNL     1      17.839  24.872  15.052  1.00  0.00     0.073 A 
HETATM    2  C9  UNL     1      18.708  24.303  15.943  1.00  0.00     0.067 A 
HETATM    3  C10 UNL     1      19.906  24.954  16.336  1.00  0.00     0.045 A 
HETATM    4  C17 UNL     1      20.201  26.175  15.809  1.00  0.00     0.045 A 
HETATM    5  C18 UNL     1      21.399  26.875  16.144  1.00  0.00     0.070 A 
HETATM    6  C31 UNL     1      21.554  28.095  15.530  1.00  0.00     0.087 A 
HETATM    7  C32 UNL     1      22.715  28.905  15.800  1.00  0.00     0.103 C 
HETATM    8  N8  UNL     1      23.606  29.576  15.997  1.00  0.00    -0.191 NA
HETATM    9  C33 UNL     1      20.605  28.589  14.642  1.00  0.00     0.113 A 
HETATM   10  N9  UNL     1      19.507  27.911  14.344  1.00  0.00    -0.363 N 
ATOM     11  H9  UNL     1      18.828  28.297  13.688  1.00  0.00     0.165 HD
HETATM   12  C34 UNL     1      19.295  26.722  14.908  1.00  0.00     0.049 A 
HETATM   13  C35 UNL     1      18.117  26.103  14.511  1.00  0.00     0.067 A 
ENDROOT
BRANCH   5  14
HETATM   14  N5  UNL     1      22.230  26.308  16.830  1.00  0.00    -0.352 N 
ATOM     15  H5  UNL     1      21.905  25.374  17.081  1.00  0.00     0.166 HD
BRANCH  14  16
HETATM   16  C19 UNL     1      23.469  26.541  17.368  1.00  0.00     0.063 A 
HETATM   17  C20 UNL     1      24.591  26.492  16.503  1.00  0.00     0.049 A 
HETATM   18  C21 UNL     1      25.879  26.638  16.913  1.00  0.00     0.099 A 
HETATM   19  N6  UNL     1      26.086  26.845  18.248  1.00  0.00    -0.331 N 
HETATM   20  C22 UNL     1      27.236  27.016  18.918  1.00  0.00     0.097 A 
HETATM   21  C25 UNL     1      25.050  26.898  19.101  1.00  0.00     0.067 A 
HETATM   22  C23 UNL     1      26.935  27.186  20.246  1.00  0.00     0.020 A 
HETATM   23  C24 UNL     1      25.568  27.115  20.382  1.00  0.00     0.034 A 
HETATM   24  C26 UNL     1      23.728  26.754  18.717  1.00  0.00     0.085 A 
BRANCH  24  25
HETATM   25  N7  UNL     1      22.707  26.829  19.674  1.00  0.00    -0.377 N 
HETATM   26  C27 UNL     1      21.552  27.735  19.747  1.00  0.00     0.123 C 
HETATM   27  C28 UNL     1      21.514  28.073  21.225  1.00  0.00     0.021 C 
HETATM   28  C29 UNL     1      22.199  26.912  21.942  1.00  0.00     0.021 C 
HETATM   29  C30 UNL     1      22.532  25.954  20.836  1.00  0.00     0.123 C 
ENDBRANCH  24  25
ENDBRANCH  14  16
ENDBRANCH   5  14
BRANCH   3  30
HETATM   30  N3  UNL     1      20.671  24.349  17.349  1.00  0.00    -0.387 N 
ATOM     31  H3  UNL     1      21.526  23.851  17.103  1.00  0.00     0.159 HD
BRANCH  30  32
HETATM   32  C11 UNL     1      20.247  24.426  18.780  1.00  0.00     0.150 C 
BRANCH  32  33
HETATM   33  C12 UNL     1      19.701  23.135  19.241  1.00  0.00     0.292 C 
BRANCH  33  34
HETATM   34  N4  UNL     1      18.471  23.211  19.946  1.00  0.00     0.094 N 
HETATM   35  C13 UNL     1      17.846  21.894  19.908  1.00  0.00     0.298 C 
HETATM   36  C14 UNL     1      17.355  21.472  18.575  1.00  0.00     0.198 C 
HETATM   37  O3  UNL     1      16.776  22.520  17.920  1.00  0.00    -0.388 OA
HETATM   38  C15 UNL     1      16.419  23.602  18.669  1.00  0.00     0.198 C 
HETATM   39  C16 UNL     1      17.564  24.223  19.435  1.00  0.00     0.298 C 
ENDBRANCH  33  34
ENDBRANCH  32  33
ENDBRANCH  30  32
ENDBRANCH   3  30
BRANCH   1  40
HETATM   40  O2  UNL     1      16.694  24.236  14.697  1.00  0.00    -0.349 OA
BRANCH  40  41
HETATM   41  C7  UNL     1      16.512  22.830  14.592  1.00  0.00     0.201 C 
BRANCH  41  42
HETATM   42  C6  UNL     1      15.090  22.424  14.775  1.00  0.00     0.194 C 
BRANCH  42  43
HETATM   43  O1  UNL     1      14.813  21.093  14.741  1.00  0.00    -0.387 OA
BRANCH  43  44
HETATM   44  C5  UNL     1      13.736  20.656  15.469  1.00  0.00     0.198 C 
BRANCH  44  45
HETATM   45  C4  UNL     1      13.714  21.383  16.772  1.00  0.00     0.298 C 
BRANCH  45  46
HETATM   46  N2  UNL     1      13.431  20.407  17.838  1.00  0.00     0.093 N 
HETATM   47  C3  UNL     1      12.125  19.834  17.536  1.00  0.00     0.302 C 
HETATM   48  C2  UNL     1      11.714  18.949  18.673  1.00  0.00     0.302 C 
HETATM   49  N1  UNL     1      12.803  18.186  19.205  1.00  0.00     0.087 N 
HETATM   50  C1  UNL     1      13.198  18.605  20.524  1.00  0.00     0.310 C 
HETATM   51  C37 UNL     1      13.913  18.041  18.293  1.00  0.00     0.302 C 
HETATM   52  C36 UNL     1      14.438  19.357  17.798  1.00  0.00     0.302 C 
ENDBRANCH  45  46
ENDBRANCH  44  45
ENDBRANCH  43  44
ENDBRANCH  42  43
ENDBRANCH  41  42
ENDBRANCH  40  41
ENDBRANCH   1  40
TORSDOF 14
ENDMDL
MODEL 4
REMARK VINA RESULT: -8.752839614      1.045      1.350
REMARK  14 active torsions:
REMARK  status: ('A' for Active; 'I' for Inactive)
REMARK    1  A    between atoms: N2_5  and  C4_6 
REMARK    2  A    between atoms: C4_6  and  C5_7 
REMARK    3  A    between atoms: C5_7  and  O1_8 
REMARK    4  A    between atoms: O1_8  and  C6_9 
REMARK    5  A    between atoms: C6_9  and  C7_10 
REMARK    6  A    between atoms: C7_10  and  O2_11 
REMARK    7  A    between atoms: O2_11  and  C8_12 
REMARK    8  A    between atoms: C10_14  and  N3_15 
REMARK    9  A    between atoms: N3_15  and  C11_17 
REMARK   10  A    between atoms: C11_17  and  C12_18 
REMARK   11  A    between atoms: C12_18  and  N4_19 
REMARK   12  A    between atoms: C18_26  and  N5_27 
REMARK   13  A    between atoms: N5_27  and  C19_29 
REMARK   14  A    between atoms: C26_37  and  N7_38 
ROOT
HETATM    1  C8  UNL     1      18.473  25.546  15.091  1.00  0.00     0.073 A 
HETATM    2  C9  UNL     1      19.224  25.090  16.140  1.00  0.00     0.067 A 
HETATM    3  C10 UNL     1      20.403  25.759  16.558  1.00  0.00     0.045 A 
HETATM    4  C17 UNL     1      20.802  26.880  15.895  1.00  0.00     0.045 A 
HETATM    5  C18 UNL     1      21.989  27.589  16.250  1.00  0.00     0.070 A 
HETATM    6  C31 UNL     1      22.256  28.700  15.487  1.00  0.00     0.087 A 
HETATM    7  C32 UNL     1      23.418  29.509  15.758  1.00  0.00     0.103 C 
HETATM    8  N8  UNL     1      24.313  30.176  15.949  1.00  0.00    -0.191 NA
HETATM    9  C33 UNL     1      21.421  29.084  14.443  1.00  0.00     0.113 A 
HETATM   10  N9  UNL     1      20.331  28.401  14.133  1.00  0.00    -0.363 N 
ATOM     11  H9  UNL     1      19.738  28.704  13.360  1.00  0.00     0.165 HD
HETATM   12  C34 UNL     1      20.014  27.314  14.835  1.00  0.00     0.049 A 
HETATM   13  C35 UNL     1      18.855  26.676  14.411  1.00  0.00     0.067 A 
ENDROOT
BRANCH   5  14
HETATM   14  N5  UNL     1      22.723  27.106  17.093  1.00  0.00    -0.352 N 
ATOM     15  H5  UNL     1      22.214  26.962  17.965  1.00  0.00     0.166 HD
BRANCH  14  16
HETATM   16  C19 UNL     1      24.024  26.696  17.228  1.00  0.00     0.063 A 
HETATM   17  C20 UNL     1      24.854  26.724  16.080  1.00  0.00     0.049 A 
HETATM   18  C21 UNL     1      26.140  26.285  16.056  1.00  0.00     0.099 A 
HETATM   19  N6  UNL     1      26.649  25.788  17.223  1.00  0.00    -0.331 N 
HETATM   20  C22 UNL     1      27.869  25.293  17.481  1.00  0.00     0.097 A 
HETATM   21  C25 UNL     1      25.896  25.744  18.334  1.00  0.00     0.067 A 
HETATM   22  C23 UNL     1      27.907  24.915  18.799  1.00  0.00     0.020 A 
HETATM   23  C24 UNL     1      26.677  25.191  19.353  1.00  0.00     0.034 A 
HETATM   24  C26 UNL     1      24.584  26.183  18.393  1.00  0.00     0.085 A 
BRANCH  24  25
HETATM   25  N7  UNL     1      23.871  26.106  19.597  1.00  0.00    -0.377 N 
HETATM   26  C27 UNL     1      23.266  27.175  20.401  1.00  0.00     0.123 C 
HETATM   27  C28 UNL     1      23.621  26.744  21.811  1.00  0.00     0.021 C 
HETATM   28  C29 UNL     1      23.826  25.232  21.751  1.00  0.00     0.021 C 
HETATM   29  C30 UNL     1      23.517  24.884  20.325  1.00  0.00     0.123 C 
ENDBRANCH  24  25
ENDBRANCH  14  16
ENDBRANCH   5  14
BRANCH   3  30
HETATM   30  N3  UNL     1      21.037  25.289  17.721  1.00  0.00    -0.387 N 
ATOM     31  H3  UNL     1      21.969  24.877  17.656  1.00  0.00     0.159 HD
BRANCH  30  32
HETATM   32  C11 UNL     1      20.366  25.382  19.054  1.00  0.00     0.150 C 
BRANCH  32  33
HETATM   33  C12 UNL     1      20.091  24.041  19.604  1.00  0.00     0.292 C 
BRANCH  33  34
HETATM   34  N4  UNL     1      18.841  23.898  20.263  1.00  0.00     0.094 N 
HETATM   35  C13 UNL     1      18.644  22.483  20.557  1.00  0.00     0.298 C 
HETATM   36  C14 UNL     1      18.410  21.625  19.371  1.00  0.00     0.198 C 
HETATM   37  O3  UNL     1      17.599  22.255  18.472  1.00  0.00    -0.388 OA
HETATM   38  C15 UNL     1      16.876  23.319  18.924  1.00  0.00     0.198 C 
HETATM   39  C16 UNL     1      17.717  24.427  19.512  1.00  0.00     0.298 C 
ENDBRANCH  33  34
ENDBRANCH  32  33
ENDBRANCH  30  32
ENDBRANCH   3  30
BRANCH   1  40
HETATM   40  O2  UNL     1      17.343  24.896  14.713  1.00  0.00    -0.349 OA
BRANCH  40  41
HETATM   41  C7  UNL     1      16.591  23.988  15.507  1.00  0.00     0.201 C 
BRANCH  41  42
HETATM   42  C6  UNL     1      16.125  22.805  14.731  1.00  0.00     0.194 C 
BRANCH  42  43
HETATM   43  O1  UNL     1      16.201  21.591  15.339  1.00  0.00    -0.387 OA
BRANCH  43  44
HETATM   44  C5  UNL     1      15.030  21.035  15.786  1.00  0.00     0.198 C 
BRANCH  44  45
HETATM   45  C4  UNL     1      14.131  20.812  14.615  1.00  0.00     0.298 C 
BRANCH  45  46
HETATM   46  N2  UNL     1      12.874  20.224  15.106  1.00  0.00     0.093 N 
HETATM   47  C3  UNL     1      12.781  20.571  16.520  1.00  0.00     0.302 C 
HETATM   48  C2  UNL     1      11.599  19.866  17.111  1.00  0.00     0.302 C 
HETATM   49  N1  UNL     1      10.469  19.841  16.231  1.00  0.00     0.087 N 
HETATM   50  C1  UNL     1      10.178  18.528  15.718  1.00  0.00     0.310 C 
HETATM   51  C37 UNL     1      10.503  20.862  15.211  1.00  0.00     0.302 C 
HETATM   52  C36 UNL     1      11.758  20.824  14.390  1.00  0.00     0.302 C 
ENDBRANCH  45  46
ENDBRANCH  44  45
ENDBRANCH  43  44
ENDBRANCH  42  43
ENDBRANCH  41  42
ENDBRANCH  40  41
ENDBRANCH   1  40
TORSDOF 14
ENDMDL
MODEL 5
REMARK VINA RESULT: -8.706466077      1.135      2.541
REMARK  14 active torsions:
REMARK  status: ('A' for Active; 'I' for Inactive)
REMARK    1  A    between atoms: N2_5  and  C4_6 
REMARK    2  A    between atoms: C4_6  and  C5_7 
REMARK    3  A    between atoms: C5_7  and  O1_8 
REMARK    4  A    between atoms: O1_8  and  C6_9 
REMARK    5  A    between atoms: C6_9  and  C7_10 
REMARK    6  A    between atoms: C7_10  and  O2_11 
REMARK    7  A    between atoms: O2_11  and  C8_12 
REMARK    8  A    between atoms: C10_14  and  N3_15 
REMARK    9  A    between atoms: N3_15  and  C11_17 
REMARK   10  A    between atoms: C11_17  and  C12_18 
REMARK   11  A    between atoms: C12_18  and  N4_19 
REMARK   12  A    between atoms: C18_26  and  N5_27 
REMARK   13  A    between atoms: N5_27  and  C19_29 
REMARK   14  A    between atoms: C26_37  and  N7_38 
ROOT
HETATM    1  C8  UNL     1      18.563  25.125  15.083  1.00  0.00     0.073 A 
HETATM    2  C9  UNL     1      19.184  24.548  16.157  1.00  0.00     0.067 A 
HETATM    3  C10 UNL     1      20.371  25.092  16.713  1.00  0.00     0.045 A 
HETATM    4  C17 UNL     1      20.909  26.215  16.160  1.00  0.00     0.045 A 
HETATM    5  C18 UNL     1      22.112  26.802  16.655  1.00  0.00     0.070 A 
HETATM    6  C31 UNL     1      22.527  27.931  15.991  1.00  0.00     0.087 A 
HETATM    7  C32 UNL     1      23.720  28.625  16.409  1.00  0.00     0.103 C 
HETATM    8  N8  UNL     1      24.643  29.205  16.715  1.00  0.00    -0.191 NA
HETATM    9  C33 UNL     1      21.817  28.443  14.911  1.00  0.00     0.113 A 
HETATM   10  N9  UNL     1      20.709  27.871  14.469  1.00  0.00    -0.363 N 
ATOM     11  H9  UNL     1      20.209  28.267  13.673  1.00  0.00     0.165 HD
HETATM   12  C34 UNL     1      20.250  26.773  15.070  1.00  0.00     0.049 A 
HETATM   13  C35 UNL     1      19.087  26.258  14.512  1.00  0.00     0.067 A 
ENDROOT
BRANCH   5  14
HETATM   14  N5  UNL     1      22.731  26.211  17.521  1.00  0.00    -0.352 N 
ATOM     15  H5  UNL     1      23.171  25.376  17.136  1.00  0.00     0.166 HD
BRANCH  14  16
HETATM   16  C19 UNL     1      23.019  26.326  18.856  1.00  0.00     0.063 A 
HETATM   17  C20 UNL     1      22.144  27.097  19.662  1.00  0.00     0.049 A 
HETATM   18  C21 UNL     1      22.344  27.348  20.984  1.00  0.00     0.099 A 
HETATM   19  N6  UNL     1      23.466  26.815  21.554  1.00  0.00    -0.331 N 
HETATM   20  C22 UNL     1      23.906  26.905  22.818  1.00  0.00     0.097 A 
HETATM   21  C25 UNL     1      24.321  26.079  20.825  1.00  0.00     0.067 A 
HETATM   22  C23 UNL     1      25.083  26.205  22.911  1.00  0.00     0.020 A 
HETATM   23  C24 UNL     1      25.360  25.679  21.670  1.00  0.00     0.034 A 
HETATM   24  C26 UNL     1      24.147  25.804  19.480  1.00  0.00     0.085 A 
BRANCH  24  25
HETATM   25  N7  UNL     1      25.086  25.021  18.796  1.00  0.00    -0.377 N 
HETATM   26  C27 UNL     1      25.421  23.600  18.957  1.00  0.00     0.123 C 
HETATM   27  C28 UNL     1      26.934  23.622  18.849  1.00  0.00     0.021 C 
HETATM   28  C29 UNL     1      27.282  24.872  18.044  1.00  0.00     0.021 C 
HETATM   29  C30 UNL     1      25.945  25.454  17.690  1.00  0.00     0.123 C 
ENDBRANCH  24  25
ENDBRANCH  14  16
ENDBRANCH   5  14
BRANCH   3  30
HETATM   30  N3  UNL     1      20.865  24.503  17.890  1.00  0.00    -0.387 N 
ATOM     31  H3  UNL     1      21.758  24.011  17.870  1.00  0.00     0.159 HD
BRANCH  30  32
HETATM   32  C11 UNL     1      20.099  24.589  19.171  1.00  0.00     0.150 C 
BRANCH  32  33
HETATM   33  C12 UNL     1      19.771  23.244  19.683  1.00  0.00     0.292 C 
BRANCH  33  34
HETATM   34  N4  UNL     1      18.496  23.121  20.295  1.00  0.00     0.094 N 
HETATM   35  C13 UNL     1      18.002  21.772  20.042  1.00  0.00     0.298 C 
HETATM   36  C14 UNL     1      17.640  21.492  18.632  1.00  0.00     0.198 C 
HETATM   37  O3  UNL     1      17.009  22.565  18.074  1.00  0.00    -0.388 OA
HETATM   38  C15 UNL     1      16.503  23.503  18.925  1.00  0.00     0.198 C 
HETATM   39  C16 UNL     1      17.533  24.111  19.849  1.00  0.00     0.298 C 
ENDBRANCH  33  34
ENDBRANCH  32  33
ENDBRANCH  30  32
ENDBRANCH   3  30
BRANCH   1  40
HETATM   40  O2  UNL     1      17.423  24.593  14.572  1.00  0.00    -0.349 OA
BRANCH  40  41
HETATM   41  C7  UNL     1      16.435  23.873  15.297  1.00  0.00     0.201 C 
BRANCH  41  42
HETATM   42  C6  UNL     1      15.925  22.692  14.546  1.00  0.00     0.194 C 
BRANCH  42  43
HETATM   43  O1  UNL     1      15.897  21.501  15.201  1.00  0.00    -0.387 OA
BRANCH  43  44
HETATM   44  C5  UNL     1      14.695  20.843  15.260  1.00  0.00     0.198 C 
BRANCH  44  45
HETATM   45  C4  UNL     1      14.068  21.113  16.587  1.00  0.00     0.298 C 
BRANCH  45  46
HETATM   46  N2  UNL     1      13.594  19.833  17.140  1.00  0.00     0.093 N 
HETATM   47  C3  UNL     1      14.727  19.240  17.840  1.00  0.00     0.302 C 
HETATM   48  C2  UNL     1      14.349  17.863  18.289  1.00  0.00     0.302 C 
HETATM   49  N1  UNL     1      13.001  17.786  18.769  1.00  0.00     0.087 N 
HETATM   50  C1  UNL     1      12.131  17.040  17.898  1.00  0.00     0.310 C 
HETATM   51  C37 UNL     1      12.453  19.058  19.174  1.00  0.00     0.302 C 
HETATM   52  C36 UNL     1      12.525  20.096  18.093  1.00  0.00     0.302 C 
ENDBRANCH  45  46
ENDBRANCH  44  45
ENDBRANCH  43  44
ENDBRANCH  42  43
ENDBRANCH  41  42
ENDBRANCH  40  41
ENDBRANCH   1  40
TORSDOF 14
ENDMDL
