MODEL 1
REMARK VINA RESULT: -8.218109702      0.000      0.000
REMARK  10 active torsions:
REMARK  status: ('A' for Active; 'I' for Inactive)
REMARK    1  A    between atoms: C2_2  and  C3_3 
REMARK    2  A    between atoms: C3_3  and  C4_4 
REMARK    3  A    between atoms: C4_4  and  C5_5 
REMARK    4  A    between atoms: C5_5  and  O1_6 
REMARK    5  A    between atoms: C11_13  and  C13_15 
REMARK    6  A    between atoms: C19_21  and  C20_22 
REMARK       I    between atoms: C20_22  and  N1_24 
REMARK    7  A    between atoms: N1_24  and  C21_26 
REMARK    8  A    between atoms: C21_26  and  C22_27 
REMARK       I    between atoms: C22_27  and  N2_29 
REMARK    9  A    between atoms: C23_31  and  C24_32 
REMARK   10  A    between atoms: C24_32  and  N3_33 
ROOT
HETATM    1  C13 UNL     1      -7.552  17.892  -1.492  1.00  0.00    -0.006 C 
HETATM    2  C14 UNL     1      -8.384  19.124  -1.293  1.00  0.00     0.006 C 
HETATM    3  C15 UNL     1      -8.204  20.005  -2.498  1.00  0.00     0.006 C 
HETATM    4  C16 UNL     1      -8.764  19.564  -3.770  1.00  0.00    -0.005 C 
HETATM    5  C17 UNL     1      -7.627  19.325  -4.777  1.00  0.00     0.006 C 
HETATM    6  C18 UNL     1      -8.170  18.354  -5.766  1.00  0.00     0.015 C 
HETATM    7  C19 UNL     1      -9.468  17.825  -5.218  1.00  0.00     0.086 C 
HETATM    8  C28 UNL     1      -9.675  18.426  -3.844  1.00  0.00    -0.028 C 
HETATM    9  C29 UNL     1     -11.126  18.944  -3.813  1.00  0.00     0.016 C 
HETATM   10  C30 UNL     1      -9.619  17.348  -2.842  1.00  0.00     0.011 C 
HETATM   11  C31 UNL     1      -8.285  16.925  -2.339  1.00  0.00     0.006 C 
ENDROOT
BRANCH   1  12
HETATM   12  C11 UNL     1      -7.007  17.345  -0.192  1.00  0.00    -0.036 C 
HETATM   13  C7  UNL     1      -5.578  17.521   0.037  1.00  0.00     0.002 C 
HETATM   14  C6  UNL     1      -4.579  16.527  -0.324  1.00  0.00     0.044 C 
HETATM   15  C8  UNL     1      -5.541  17.373   1.576  1.00  0.00     0.001 C 
HETATM   16  C5  UNL     1      -3.449  16.851   0.668  1.00  0.00     0.065 C 
HETATM   17  C32 UNL     1      -4.110  17.576   1.822  1.00  0.00    -0.013 C 
HETATM   18  C33 UNL     1      -3.749  16.926   3.156  1.00  0.00     0.018 C 
HETATM   19  C34 UNL     1      -3.673  19.018   1.897  1.00  0.00     0.018 C 
HETATM   20  C9  UNL     1      -6.494  18.423   1.943  1.00  0.00     0.007 C 
HETATM   21  C10 UNL     1      -7.584  18.273   0.897  1.00  0.00     0.010 C 
HETATM   22  C12 UNL     1      -7.540  15.971   0.133  1.00  0.00     0.016 C 
BRANCH  16  23
HETATM   23  C4  UNL     1      -2.767  15.575   1.084  1.00  0.00     0.038 C 
BRANCH  23  24
HETATM   24  C3  UNL     1      -1.271  15.805   0.913  1.00  0.00     0.002 C 
BRANCH  24  25
HETATM   25  C2  UNL     1      -0.493  14.987   1.933  1.00  0.00    -0.004 C 
HETATM   26  C1  UNL     1      -1.437  14.107   2.724  1.00  0.00     0.005 C 
ENDBRANCH  24  25
ENDBRANCH  23  24
ENDBRANCH  16  23
BRANCH  16  27
HETATM   27  O1  UNL     1      -2.542  17.739   0.075  1.00  0.00    -0.389 OA
ATOM     28  H1  UNL     1      -2.562  17.668  -0.872  1.00  0.00     0.210 HD
ENDBRANCH  16  27
ENDBRANCH   1  12
BRANCH   7  29
HETATM   29  C20 UNL     1     -10.601  18.028  -6.142  1.00  0.00     0.223 C 
HETATM   30  O2  UNL     1     -10.699  19.087  -6.817  1.00  0.00    -0.273 OA
HETATM   31  N1  UNL     1     -11.601  17.054  -6.298  1.00  0.00    -0.352 N 
ATOM     32  H1  UNL     1     -11.551  16.187  -5.764  1.00  0.00     0.162 HD
BRANCH  31  33
HETATM   33  C21 UNL     1     -12.692  17.274  -7.204  1.00  0.00     0.225 C 
BRANCH  33  34
HETATM   34  C22 UNL     1     -14.009  17.022  -6.575  1.00  0.00     0.238 C 
HETATM   35  O3  UNL     1     -14.358  17.758  -5.618  1.00  0.00    -0.271 OA
HETATM   36  N2  UNL     1     -14.836  15.979  -7.049  1.00  0.00    -0.338 N 
HETATM   37  C23 UNL     1     -14.417  15.209  -7.984  1.00  0.00     0.091 C 
ATOM     38  H2  UNL     1     -15.764  15.839  -6.649  1.00  0.00     0.167 HD
BRANCH  37  39
HETATM   39  C24 UNL     1     -15.296  14.112  -8.478  1.00  0.00     0.280 C 
BRANCH  39  40
HETATM   40  N3  UNL     1     -14.655  12.837  -8.372  1.00  0.00    -0.074 N 
HETATM   41  C25 UNL     1     -15.433  11.913  -9.211  1.00  0.00     0.272 C 
HETATM   42  C26 UNL     1     -14.683  12.370  -6.992  1.00  0.00     0.272 C 
HETATM   43  C27 UNL     1     -13.282  12.847  -8.803  1.00  0.00     0.272 C 
ENDBRANCH  39  40
ENDBRANCH  37  39
ENDBRANCH  33  34
ENDBRANCH  31  33
ENDBRANCH   7  29
TORSDOF 10
ENDMDL
MODEL 2
REMARK VINA RESULT: -8.209967235      2.088      2.746
REMARK  10 active torsions:
REMARK  status: ('A' for Active; 'I' for Inactive)
REMARK    1  A    between atoms: C2_2  and  C3_3 
REMARK    2  A    between atoms: C3_3  and  C4_4 
REMARK    3  A    between atoms: C4_4  and  C5_5 
REMARK    4  A    between atoms: C5_5  and  O1_6 
REMARK    5  A    between atoms: C11_13  and  C13_15 
REMARK    6  A    between atoms: C19_21  and  C20_22 
REMARK       I    between atoms: C20_22  and  N1_24 
REMARK    7  A    between atoms: N1_24  and  C21_26 
REMARK    8  A    between atoms: C21_26  and  C22_27 
REMARK       I    between atoms: C22_27  and  N2_29 
REMARK    9  A    between atoms: C23_31  and  C24_32 
REMARK   10  A    between atoms: C24_32  and  N3_33 
ROOT
HETATM    1  C13 UNL     1      -6.868  17.111  -2.443  1.00  0.00    -0.006 C 
HETATM    2  C14 UNL     1      -8.001  18.074  -2.637  1.00  0.00     0.006 C 
HETATM    3  C15 UNL     1      -7.680  18.936  -3.827  1.00  0.00     0.006 C 
HETATM    4  C16 UNL     1      -7.682  18.323  -5.149  1.00  0.00    -0.005 C 
HETATM    5  C17 UNL     1      -6.265  18.374  -5.743  1.00  0.00     0.006 C 
HETATM    6  C18 UNL     1      -6.209  17.265  -6.733  1.00  0.00     0.015 C 
HETATM    7  C19 UNL     1      -7.436  16.417  -6.536  1.00  0.00     0.086 C 
HETATM    8  C28 UNL     1      -8.208  16.977  -5.361  1.00  0.00    -0.028 C 
HETATM    9  C29 UNL     1      -9.676  17.080  -5.817  1.00  0.00     0.016 C 
HETATM   10  C30 UNL     1      -8.201  15.985  -4.272  1.00  0.00     0.011 C 
HETATM   11  C31 UNL     1      -7.031  15.957  -3.355  1.00  0.00     0.006 C 
ENDROOT
BRANCH   1  12
HETATM   12  C11 UNL     1      -6.639  16.772  -0.987  1.00  0.00    -0.036 C 
HETATM   13  C7  UNL     1      -5.365  17.190  -0.416  1.00  0.00     0.002 C 
HETATM   14  C6  UNL     1      -4.186  16.338  -0.375  1.00  0.00     0.044 C 
HETATM   15  C8  UNL     1      -5.738  17.183   1.084  1.00  0.00     0.001 C 
HETATM   16  C5  UNL     1      -3.427  16.921   0.830  1.00  0.00     0.065 C 
HETATM   17  C32 UNL     1      -4.470  17.630   1.669  1.00  0.00    -0.013 C 
HETATM   18  C33 UNL     1      -4.412  17.162   3.122  1.00  0.00     0.018 C 
HETATM   19  C34 UNL     1      -4.259  19.123   1.674  1.00  0.00     0.018 C 
HETATM   20  C9  UNL     1      -6.882  18.098   1.054  1.00  0.00     0.007 C 
HETATM   21  C10 UNL     1      -7.610  17.688  -0.213  1.00  0.00     0.010 C 
HETATM   22  C12 UNL     1      -7.062  15.365  -0.643  1.00  0.00     0.016 C 
BRANCH  16  23
HETATM   23  C4  UNL     1      -2.730  15.809   1.567  1.00  0.00     0.038 C 
BRANCH  23  24
HETATM   24  C3  UNL     1      -1.243  15.959   1.276  1.00  0.00     0.002 C 
BRANCH  24  25
HETATM   25  C2  UNL     1      -0.450  14.903   2.033  1.00  0.00    -0.004 C 
HETATM   26  C1  UNL     1      -1.368  14.115   2.942  1.00  0.00     0.005 C 
ENDBRANCH  24  25
ENDBRANCH  23  24
ENDBRANCH  16  23
BRANCH  16  27
HETATM   27  O1  UNL     1      -2.512  17.886   0.387  1.00  0.00    -0.389 OA
ATOM     28  H1  UNL     1      -1.976  17.550  -0.321  1.00  0.00     0.210 HD
ENDBRANCH  16  27
ENDBRANCH   1  12
BRANCH   7  29
HETATM   29  C20 UNL     1      -8.235  16.276  -7.770  1.00  0.00     0.223 C 
HETATM   30  O2  UNL     1      -8.367  17.244  -8.564  1.00  0.00    -0.273 OA
HETATM   31  N1  UNL     1      -8.869  15.066  -8.096  1.00  0.00    -0.352 N 
ATOM     32  H1  UNL     1      -8.782  14.264  -7.472  1.00  0.00     0.162 HD
BRANCH  31  33
HETATM   33  C21 UNL     1      -9.638  14.952  -9.302  1.00  0.00     0.225 C 
BRANCH  33  34
HETATM   34  C22 UNL     1      -9.813  13.546  -9.732  1.00  0.00     0.238 C 
HETATM   35  O3  UNL     1      -8.818  12.947 -10.210  1.00  0.00    -0.271 OA
HETATM   36  N2  UNL     1     -11.070  12.913  -9.601  1.00  0.00    -0.338 N 
HETATM   37  C23 UNL     1     -12.076  13.579  -9.168  1.00  0.00     0.091 C 
ATOM     38  H2  UNL     1     -11.176  11.929  -9.850  1.00  0.00     0.167 HD
BRANCH  37  39
HETATM   39  C24 UNL     1     -13.397  12.903  -9.032  1.00  0.00     0.280 C 
BRANCH  39  40
HETATM   40  N3  UNL     1     -14.249  13.596  -8.115  1.00  0.00    -0.074 N 
HETATM   41  C25 UNL     1     -13.583  14.874  -7.818  1.00  0.00     0.272 C 
HETATM   42  C26 UNL     1     -14.393  12.833  -6.882  1.00  0.00     0.272 C 
HETATM   43  C27 UNL     1     -15.569  13.844  -8.633  1.00  0.00     0.272 C 
ENDBRANCH  39  40
ENDBRANCH  37  39
ENDBRANCH  33  34
ENDBRANCH  31  33
ENDBRANCH   7  29
TORSDOF 10
ENDMDL
MODEL 3
REMARK VINA RESULT: -8.112768644      4.663      6.902
REMARK  10 active torsions:
REMARK  status: ('A' for Active; 'I' for Inactive)
REMARK    1  A    between atoms: C2_2  and  C3_3 
REMARK    2  A    between atoms: C3_3  and  C4_4 
REMARK    3  A    between atoms: C4_4  and  C5_5 
REMARK    4  A    between atoms: C5_5  and  O1_6 
REMARK    5  A    between atoms: C11_13  and  C13_15 
REMARK    6  A    between atoms: C19_21  and  C20_22 
REMARK       I    between atoms: C20_22  and  N1_24 
REMARK    7  A    between atoms: N1_24  and  C21_26 
REMARK    8  A    between atoms: C21_26  and  C22_27 
REMARK       I    between atoms: C22_27  and  N2_29 
REMARK    9  A    between atoms: C23_31  and  C24_32 
REMARK   10  A    between atoms: C24_32  and  N3_33 
ROOT
HETATM    1  C13 UNL     1      -7.457  18.119  -1.450  1.00  0.00    -0.006 C 
HETATM    2  C14 UNL     1      -6.429  18.261  -2.532  1.00  0.00     0.006 C 
HETATM    3  C15 UNL     1      -7.146  18.290  -3.854  1.00  0.00     0.006 C 
HETATM    4  C16 UNL     1      -7.966  19.452  -4.173  1.00  0.00    -0.005 C 
HETATM    5  C17 UNL     1      -9.438  19.026  -4.297  1.00  0.00     0.006 C 
HETATM    6  C18 UNL     1     -10.231  20.254  -4.020  1.00  0.00     0.015 C 
HETATM    7  C19 UNL     1      -9.287  21.294  -3.481  1.00  0.00     0.086 C 
HETATM    8  C28 UNL     1      -7.916  20.663  -3.359  1.00  0.00    -0.028 C 
HETATM    9  C29 UNL     1      -6.924  21.655  -3.996  1.00  0.00     0.016 C 
HETATM   10  C30 UNL     1      -7.550  20.598  -1.933  1.00  0.00     0.011 C 
HETATM   11  C31 UNL     1      -8.038  19.443  -1.134  1.00  0.00     0.006 C 
ENDROOT
BRANCH   1  12
HETATM   12  C11 UNL     1      -6.948  17.325  -0.268  1.00  0.00    -0.036 C 
HETATM   13  C7  UNL     1      -5.548  17.518   0.088  1.00  0.00     0.002 C 
HETATM   14  C6  UNL     1      -4.469  16.681  -0.415  1.00  0.00     0.044 C 
HETATM   15  C8  UNL     1      -5.583  17.034   1.556  1.00  0.00     0.001 C 
HETATM   16  C5  UNL     1      -3.416  16.833   0.696  1.00  0.00     0.065 C 
HETATM   17  C32 UNL     1      -4.183  17.250   1.934  1.00  0.00    -0.013 C 
HETATM   18  C33 UNL     1      -3.852  16.339   3.115  1.00  0.00     0.018 C 
HETATM   19  C34 UNL     1      -3.843  18.659   2.351  1.00  0.00     0.018 C 
HETATM   20  C9  UNL     1      -6.619  17.928   2.080  1.00  0.00     0.007 C 
HETATM   21  C10 UNL     1      -7.640  17.958   0.958  1.00  0.00     0.010 C 
HETATM   22  C12 UNL     1      -7.409  15.889  -0.287  1.00  0.00     0.016 C 
BRANCH  16  23
HETATM   23  C4  UNL     1      -2.678  15.533   0.868  1.00  0.00     0.038 C 
BRANCH  23  24
HETATM   24  C3  UNL     1      -1.193  15.860   0.774  1.00  0.00     0.002 C 
BRANCH  24  25
HETATM   25  C2  UNL     1      -0.434  15.191   1.911  1.00  0.00    -0.004 C 
HETATM   26  C1  UNL     1      -1.278  14.096   2.526  1.00  0.00     0.005 C 
ENDBRANCH  24  25
ENDBRANCH  23  24
ENDBRANCH  16  23
BRANCH  16  27
HETATM   27  O1  UNL     1      -2.537  17.875   0.372  1.00  0.00    -0.389 OA
ATOM     28  H1  UNL     1      -2.447  18.485   1.095  1.00  0.00     0.210 HD
ENDBRANCH  16  27
ENDBRANCH   1  12
BRANCH   7  29
HETATM   29  C20 UNL     1      -9.306  22.544  -4.267  1.00  0.00     0.223 C 
HETATM   30  O2  UNL     1      -9.493  22.517  -5.512  1.00  0.00    -0.273 OA
HETATM   31  N1  UNL     1      -9.119  23.794  -3.657  1.00  0.00    -0.352 N 
ATOM     32  H1  UNL     1      -8.964  23.849  -2.651  1.00  0.00     0.162 HD
BRANCH  31  33
HETATM   33  C21 UNL     1      -9.144  24.996  -4.442  1.00  0.00     0.225 C 
BRANCH  33  34
HETATM   34  C22 UNL     1      -7.973  25.865  -4.184  1.00  0.00     0.238 C 
HETATM   35  O3  UNL     1      -7.978  26.568  -3.142  1.00  0.00    -0.271 OA
HETATM   36  N2  UNL     1      -6.892  25.891  -5.093  1.00  0.00    -0.338 N 
HETATM   37  C23 UNL     1      -6.955  25.208  -6.176  1.00  0.00     0.091 C 
ATOM     38  H2  UNL     1      -6.064  26.452  -4.889  1.00  0.00     0.167 HD
BRANCH  37  39
HETATM   39  C24 UNL     1      -5.810  25.241  -7.129  1.00  0.00     0.280 C 
BRANCH  39  40
HETATM   40  N3  UNL     1      -5.341  23.924  -7.433  1.00  0.00    -0.074 N 
HETATM   41  C25 UNL     1      -6.534  23.063  -7.480  1.00  0.00     0.272 C 
HETATM   42  C26 UNL     1      -4.448  23.449  -6.384  1.00  0.00     0.272 C 
HETATM   43  C27 UNL     1      -4.632  23.841  -8.683  1.00  0.00     0.272 C 
ENDBRANCH  39  40
ENDBRANCH  37  39
ENDBRANCH  33  34
ENDBRANCH  31  33
ENDBRANCH   7  29
TORSDOF 10
ENDMDL
MODEL 4
REMARK VINA RESULT: -8.107137702      3.618      4.357
REMARK  10 active torsions:
REMARK  status: ('A' for Active; 'I' for Inactive)
REMARK    1  A    between atoms: C2_2  and  C3_3 
REMARK    2  A    between atoms: C3_3  and  C4_4 
REMARK    3  A    between atoms: C4_4  and  C5_5 
REMARK    4  A    between atoms: C5_5  and  O1_6 
REMARK    5  A    between atoms: C11_13  and  C13_15 
REMARK    6  A    between atoms: C19_21  and  C20_22 
REMARK       I    between atoms: C20_22  and  N1_24 
REMARK    7  A    between atoms: N1_24  and  C21_26 
REMARK    8  A    between atoms: C21_26  and  C22_27 
REMARK       I    between atoms: C22_27  and  N2_29 
REMARK    9  A    between atoms: C23_31  and  C24_32 
REMARK   10  A    between atoms: C24_32  and  N3_33 
ROOT
HETATM    1  C13 UNL     1      -6.915  17.168  -2.358  1.00  0.00    -0.006 C 
HETATM    2  C14 UNL     1      -8.115  18.048  -2.544  1.00  0.00     0.006 C 
HETATM    3  C15 UNL     1      -7.845  18.961  -3.709  1.00  0.00     0.006 C 
HETATM    4  C16 UNL     1      -7.786  18.383  -5.045  1.00  0.00    -0.005 C 
HETATM    5  C17 UNL     1      -6.370  18.554  -5.619  1.00  0.00     0.006 C 
HETATM    6  C18 UNL     1      -6.220  17.476  -6.634  1.00  0.00     0.015 C 
HETATM    7  C19 UNL     1      -7.383  16.535  -6.474  1.00  0.00     0.086 C 
HETATM    8  C28 UNL     1      -8.208  17.007  -5.295  1.00  0.00    -0.028 C 
HETATM    9  C29 UNL     1      -9.674  17.012  -5.768  1.00  0.00     0.016 C 
HETATM   10  C30 UNL     1      -8.139  15.992  -4.231  1.00  0.00     0.011 C 
HETATM   11  C31 UNL     1      -6.980  16.028  -3.299  1.00  0.00     0.006 C 
ENDROOT
BRANCH   1  12
HETATM   12  C11 UNL     1      -6.678  16.811  -0.908  1.00  0.00    -0.036 C 
HETATM   13  C7  UNL     1      -5.394  17.207  -0.343  1.00  0.00     0.002 C 
HETATM   14  C6  UNL     1      -4.225  16.342  -0.321  1.00  0.00     0.044 C 
HETATM   15  C8  UNL     1      -5.754  17.190   1.160  1.00  0.00     0.001 C 
HETATM   16  C5  UNL     1      -3.448  16.902   0.883  1.00  0.00     0.065 C 
HETATM   17  C32 UNL     1      -4.476  17.615   1.738  1.00  0.00    -0.013 C 
HETATM   18  C33 UNL     1      -4.411  17.132   3.186  1.00  0.00     0.018 C 
HETATM   19  C34 UNL     1      -4.247  19.105   1.757  1.00  0.00     0.018 C 
HETATM   20  C9  UNL     1      -6.886  18.119   1.149  1.00  0.00     0.007 C 
HETATM   21  C10 UNL     1      -7.631  17.730  -0.116  1.00  0.00     0.010 C 
HETATM   22  C12 UNL     1      -7.114  15.405  -0.575  1.00  0.00     0.016 C 
BRANCH  16  23
HETATM   23  C4  UNL     1      -2.759  15.775   1.603  1.00  0.00     0.038 C 
BRANCH  23  24
HETATM   24  C3  UNL     1      -1.269  15.927   1.325  1.00  0.00     0.002 C 
BRANCH  24  25
HETATM   25  C2  UNL     1      -0.478  14.901   2.122  1.00  0.00    -0.004 C 
HETATM   26  C1  UNL     1      -1.408  14.098   3.006  1.00  0.00     0.005 C 
ENDBRANCH  24  25
ENDBRANCH  23  24
ENDBRANCH  16  23
BRANCH  16  27
HETATM   27  O1  UNL     1      -2.526  17.861   0.443  1.00  0.00    -0.389 OA
ATOM     28  H1  UNL     1      -2.534  17.934  -0.504  1.00  0.00     0.210 HD
ENDBRANCH  16  27
ENDBRANCH   1  12
BRANCH   7  29
HETATM   29  C20 UNL     1      -8.155  16.365  -7.721  1.00  0.00     0.223 C 
HETATM   30  O2  UNL     1      -8.320  17.331  -8.511  1.00  0.00    -0.273 OA
HETATM   31  N1  UNL     1      -8.726  15.129  -8.064  1.00  0.00    -0.352 N 
ATOM     32  H1  UNL     1      -8.611  14.328  -7.445  1.00  0.00     0.162 HD
BRANCH  31  33
HETATM   33  C21 UNL     1      -9.471  14.988  -9.283  1.00  0.00     0.225 C 
BRANCH  33  34
HETATM   34  C22 UNL     1      -9.978  13.611  -9.480  1.00  0.00     0.238 C 
HETATM   35  O3  UNL     1     -11.199  13.397  -9.278  1.00  0.00    -0.271 OA
HETATM   36  N2  UNL     1      -9.099  12.581  -9.884  1.00  0.00    -0.338 N 
HETATM   37  C23 UNL     1      -7.849  12.827 -10.018  1.00  0.00     0.091 C 
ATOM     38  H2  UNL     1      -9.460  11.644 -10.069  1.00  0.00     0.167 HD
BRANCH  37  39
HETATM   39  C24 UNL     1      -6.930  11.734 -10.445  1.00  0.00     0.280 C 
BRANCH  39  40
HETATM   40  N3  UNL     1      -5.560  12.138 -10.360  1.00  0.00    -0.074 N 
HETATM   41  C25 UNL     1      -5.446  12.958  -9.144  1.00  0.00     0.272 C 
HETATM   42  C26 UNL     1      -5.196  12.945 -11.518  1.00  0.00     0.272 C 
HETATM   43  C27 UNL     1      -4.639  11.033 -10.289  1.00  0.00     0.272 C 
ENDBRANCH  39  40
ENDBRANCH  37  39
ENDBRANCH  33  34
ENDBRANCH  31  33
ENDBRANCH   7  29
TORSDOF 10
ENDMDL
MODEL 5
REMARK VINA RESULT: -8.092810716      2.420      2.957
REMARK  10 active torsions:
REMARK  status: ('A' for Active; 'I' for Inactive)
REMARK    1  A    between atoms: C2_2  and  C3_3 
REMARK    2  A    between atoms: C3_3  and  C4_4 
REMARK    3  A    between atoms: C4_4  and  C5_5 
REMARK    4  A    between atoms: C5_5  and  O1_6 
REMARK    5  A    between atoms: C11_13  and  C13_15 
REMARK    6  A    between atoms: C19_21  and  C20_22 
REMARK       I    between atoms: C20_22  and  N1_24 
REMARK    7  A    between atoms: N1_24  and  C21_26 
REMARK    8  A    between atoms: C21_26  and  C22_27 
REMARK       I    between atoms: C22_27  and  N2_29 
REMARK    9  A    between atoms: C23_31  and  C24_32 
REMARK   10  A    between atoms: C24_32  and  N3_33 
ROOT
HETATM    1  C13 UNL     1      -7.112  17.615  -2.028  1.00  0.00    -0.006 C 
HETATM    2  C14 UNL     1      -8.392  18.395  -1.987  1.00  0.00     0.006 C 
HETATM    3  C15 UNL     1      -8.283  19.518  -2.982  1.00  0.00     0.006 C 
HETATM    4  C16 UNL     1      -8.269  19.189  -4.402  1.00  0.00    -0.005 C 
HETATM    5  C17 UNL     1      -6.916  19.592  -5.011  1.00  0.00     0.006 C 
HETATM    6  C18 UNL     1      -6.747  18.727  -6.209  1.00  0.00     0.015 C 
HETATM    7  C19 UNL     1      -7.812  17.665  -6.159  1.00  0.00     0.086 C 
HETATM    8  C28 UNL     1      -8.589  17.844  -4.872  1.00  0.00    -0.028 C 
HETATM    9  C29 UNL     1     -10.080  17.790  -5.257  1.00  0.00     0.016 C 
HETATM   10  C30 UNL     1      -8.360  16.671  -4.012  1.00  0.00     0.011 C 
HETATM   11  C31 UNL     1      -7.147  16.655  -3.153  1.00  0.00     0.006 C 
ENDROOT
BRANCH   1  12
HETATM   12  C11 UNL     1      -6.745  17.035  -0.680  1.00  0.00    -0.036 C 
HETATM   13  C7  UNL     1      -5.405  17.333  -0.189  1.00  0.00     0.002 C 
HETATM   14  C6  UNL     1      -4.257  16.468  -0.415  1.00  0.00     0.044 C 
HETATM   15  C8  UNL     1      -5.620  17.083   1.321  1.00  0.00     0.001 C 
HETATM   16  C5  UNL     1      -3.358  16.831   0.780  1.00  0.00     0.065 C 
HETATM   17  C32 UNL     1      -4.284  17.407   1.831  1.00  0.00    -0.013 C 
HETATM   18  C33 UNL     1      -4.091  16.704   3.173  1.00  0.00     0.018 C 
HETATM   19  C34 UNL     1      -4.024  18.875   2.057  1.00  0.00     0.018 C 
HETATM   20  C9  UNL     1      -6.729  18.008   1.565  1.00  0.00     0.007 C 
HETATM   21  C10 UNL     1      -7.599  17.825   0.334  1.00  0.00     0.010 C 
HETATM   22  C12 UNL     1      -7.176  15.597  -0.527  1.00  0.00     0.016 C 
BRANCH  16  23
HETATM   23  C4  UNL     1      -2.626  15.601   1.246  1.00  0.00     0.038 C 
BRANCH  23  24
HETATM   24  C3  UNL     1      -1.144  15.955   1.257  1.00  0.00     0.002 C 
BRANCH  24  25
HETATM   25  C2  UNL     1      -0.371  14.955   2.104  1.00  0.00    -0.004 C 
HETATM   26  C1  UNL     1      -1.329  14.102   2.908  1.00  0.00     0.005 C 
ENDBRANCH  24  25
ENDBRANCH  23  24
ENDBRANCH  16  23
BRANCH  16  27
HETATM   27  O1  UNL     1      -2.463  17.841   0.405  1.00  0.00    -0.389 OA
ATOM     28  H1  UNL     1      -1.826  18.007   1.090  1.00  0.00     0.210 HD
ENDBRANCH  16  27
ENDBRANCH   1  12
BRANCH   7  29
HETATM   29  C20 UNL     1      -8.652  17.642  -7.372  1.00  0.00     0.223 C 
HETATM   30  O2  UNL     1      -8.901  18.704  -8.002  1.00  0.00    -0.273 OA
HETATM   31  N1  UNL     1      -9.197  16.444  -7.861  1.00  0.00    -0.352 N 
ATOM     32  H1  UNL     1      -9.015  15.568  -7.373  1.00  0.00     0.162 HD
BRANCH  31  33
HETATM   33  C21 UNL     1     -10.009  16.446  -9.044  1.00  0.00     0.225 C 
BRANCH  33  34
HETATM   34  C22 UNL     1     -11.225  15.614  -8.897  1.00  0.00     0.238 C 
HETATM   35  O3  UNL     1     -12.270  16.165  -8.471  1.00  0.00    -0.271 OA
HETATM   36  N2  UNL     1     -11.192  14.241  -9.231  1.00  0.00    -0.338 N 
HETATM   37  C23 UNL     1     -10.090  13.703  -9.602  1.00  0.00     0.091 C 
ATOM     38  H2  UNL     1     -12.043  13.680  -9.178  1.00  0.00     0.167 HD
BRANCH  37  39
HETATM   39  C24 UNL     1     -10.064  12.255  -9.953  1.00  0.00     0.280 C 
BRANCH  39  40
HETATM   40  N3  UNL     1      -8.725  11.775 -10.105  1.00  0.00    -0.074 N 
HETATM   41  C25 UNL     1      -7.970  12.285  -8.949  1.00  0.00     0.272 C 
HETATM   42  C26 UNL     1      -8.135  12.298 -11.331  1.00  0.00     0.272 C 
HETATM   43  C27 UNL     1      -8.631  10.339 -10.151  1.00  0.00     0.272 C 
ENDBRANCH  39  40
ENDBRANCH  37  39
ENDBRANCH  33  34
ENDBRANCH  31  33
ENDBRANCH   7  29
TORSDOF 10
ENDMDL
