MODEL 1
REMARK VINA RESULT: -6.989834122      0.000      0.000
REMARK  11 active torsions:
REMARK  status: ('A' for Active; 'I' for Inactive)
REMARK    1  A    between atoms: C2_2  and  C29_36 
REMARK    2  A    between atoms: C3_3  and  C4_4 
REMARK    3  A    between atoms: C15_15  and  N1_16 
REMARK       I    between atoms: N1_16  and  C16_18 
REMARK    4  A    between atoms: C16_18  and  C17_20 
REMARK    5  A    between atoms: C17_20  and  C18_21 
REMARK    6  A    between atoms: C18_21  and  C19_22 
REMARK    7  A    between atoms: C19_22  and  C20_23 
REMARK    8  A    between atoms: C20_23  and  C21_24 
REMARK    9  A    between atoms: C21_24  and  N2_25 
REMARK   10  A    between atoms: C26_31  and  C28_33 
REMARK   11  A    between atoms: C28_33  and  O2_34 
ROOT
HETATM    1  C4  UNL     1      -6.381  17.158   0.879  1.00  0.00     0.004 C 
HETATM    2  C5  UNL     1      -7.041  17.010  -0.228  1.00  0.00    -0.067 C 
HETATM    3  C6  UNL     1      -7.891  15.772  -0.456  1.00  0.00     0.037 C 
HETATM    4  C7  UNL     1      -7.775  15.578  -1.953  1.00  0.00     0.047 C 
HETATM    5  C8  UNL     1      -8.018  16.987  -2.432  1.00  0.00     0.174 C 
HETATM    6  C9  UNL     1      -9.478  17.304  -2.252  1.00  0.00     0.043 C 
HETATM    7  C10 UNL     1     -10.333  16.330  -3.077  1.00  0.00     0.009 C 
HETATM    8  C11 UNL     1      -9.888  16.328  -4.500  1.00  0.00     0.022 C 
HETATM    9  C12 UNL     1     -11.011  16.882  -5.393  1.00  0.00     0.012 C 
HETATM   10  C13 UNL     1      -8.683  17.174  -4.771  1.00  0.00     0.182 C 
HETATM   11  C14 UNL     1      -8.936  18.498  -5.415  1.00  0.00     0.052 C 
HETATM   12  C15 UNL     1      -7.722  16.352  -5.677  1.00  0.00     0.151 C 
HETATM   13  C25 UNL     1      -6.955  16.074  -4.428  1.00  0.00     0.302 C 
HETATM   14  N3  UNL     1      -7.657  17.175  -3.800  1.00  0.00     0.113 N 
HETATM   15  C26 UNL     1      -7.202  17.820  -1.468  1.00  0.00     0.037 C 
HETATM   16  C27 UNL     1      -5.835  18.129  -2.001  1.00  0.00     0.025 C 
ENDROOT
BRANCH  15  17
HETATM   17  C28 UNL     1      -7.895  19.133  -1.154  1.00  0.00     0.180 C 
BRANCH  17  18
HETATM   18  O2  UNL     1      -7.530  20.079  -2.067  1.00  0.00    -0.400 OA
ATOM     19  H2  UNL     1      -7.898  20.920  -1.824  1.00  0.00     0.209 HD
ENDBRANCH  17  18
ENDBRANCH  15  17
BRANCH  12  20
HETATM   20  N1  UNL     1      -7.100  17.194  -6.670  1.00  0.00    -0.352 N 
HETATM   21  C16 UNL     1      -6.041  16.837  -7.502  1.00  0.00     0.217 C 
HETATM   22  O1  UNL     1      -5.557  15.663  -7.406  1.00  0.00    -0.274 OA
ATOM     23  H1  UNL     1      -7.470  18.139  -6.771  1.00  0.00     0.163 HD
BRANCH  21  24
HETATM   24  C17 UNL     1      -5.481  17.786  -8.478  1.00  0.00     0.103 C 
BRANCH  24  25
HETATM   25  C18 UNL     1      -5.072  19.059  -7.757  1.00  0.00     0.009 C 
BRANCH  25  26
HETATM   26  C19 UNL     1      -3.953  18.831  -6.769  1.00  0.00     0.002 C 
BRANCH  26  27
HETATM   27  C20 UNL     1      -4.226  19.628  -5.532  1.00  0.00     0.028 C 
BRANCH  27  28
HETATM   28  C21 UNL     1      -3.615  20.982  -5.462  1.00  0.00     0.236 C 
BRANCH  28  29
HETATM   29  N2  UNL     1      -4.495  22.093  -5.332  1.00  0.00    -0.079 N 
HETATM   30  C22 UNL     1      -5.854  21.762  -4.967  1.00  0.00     0.271 C 
HETATM   31  C23 UNL     1      -3.996  23.170  -4.491  1.00  0.00     0.271 C 
HETATM   32  C24 UNL     1      -4.609  22.662  -6.705  1.00  0.00     0.271 C 
ENDBRANCH  28  29
ENDBRANCH  27  28
ENDBRANCH  26  27
ENDBRANCH  25  26
ENDBRANCH  24  25
ENDBRANCH  21  24
ENDBRANCH  12  20
BRANCH   1  33
HETATM   33  C3  UNL     1      -5.527  18.224   1.308  1.00  0.00     0.007 C 
HETATM   34  C2  UNL     1      -4.423  18.114   2.050  1.00  0.00    -0.062 C 
HETATM   35  C1  UNL     1      -3.724  19.400   2.350  1.00  0.00     0.048 C 
BRANCH  34  36
HETATM   36  C29 UNL     1      -3.903  16.879   2.533  1.00  0.00     0.011 C 
HETATM   37  C30 UNL     1      -2.997  16.064   2.075  1.00  0.00    -0.056 C 
HETATM   38  C31 UNL     1      -2.203  16.238   0.822  1.00  0.00     0.038 C 
HETATM   39  C34 UNL     1      -2.744  14.804   2.897  1.00  0.00     0.202 C 
HETATM   40  C32 UNL     1      -1.022  15.262   0.922  1.00  0.00     0.030 C 
HETATM   41  C33 UNL     1      -0.576  15.302   2.387  1.00  0.00     0.168 C 
HETATM   42  O3  UNL     1      -1.439  14.510   3.089  1.00  0.00    -0.387 OA
ENDBRANCH  34  36
ENDBRANCH   1  33
TORSDOF 11
ENDMDL
MODEL 2
REMARK VINA RESULT: -6.891530473      1.451      2.099
REMARK  11 active torsions:
REMARK  status: ('A' for Active; 'I' for Inactive)
REMARK    1  A    between atoms: C2_2  and  C29_36 
REMARK    2  A    between atoms: C3_3  and  C4_4 
REMARK    3  A    between atoms: C15_15  and  N1_16 
REMARK       I    between atoms: N1_16  and  C16_18 
REMARK    4  A    between atoms: C16_18  and  C17_20 
REMARK    5  A    between atoms: C17_20  and  C18_21 
REMARK    6  A    between atoms: C18_21  and  C19_22 
REMARK    7  A    between atoms: C19_22  and  C20_23 
REMARK    8  A    between atoms: C20_23  and  C21_24 
REMARK    9  A    between atoms: C21_24  and  N2_25 
REMARK   10  A    between atoms: C26_31  and  C28_33 
REMARK   11  A    between atoms: C28_33  and  O2_34 
ROOT
HETATM    1  C4  UNL     1      -6.292  17.067   0.859  1.00  0.00     0.004 C 
HETATM    2  C5  UNL     1      -6.975  16.930  -0.235  1.00  0.00    -0.067 C 
HETATM    3  C6  UNL     1      -7.837  15.699  -0.454  1.00  0.00     0.037 C 
HETATM    4  C7  UNL     1      -7.751  15.514  -1.955  1.00  0.00     0.047 C 
HETATM    5  C8  UNL     1      -7.995  16.928  -2.420  1.00  0.00     0.174 C 
HETATM    6  C9  UNL     1      -9.449  17.253  -2.209  1.00  0.00     0.043 C 
HETATM    7  C10 UNL     1     -10.327  16.290  -3.023  1.00  0.00     0.009 C 
HETATM    8  C11 UNL     1      -9.910  16.294  -4.455  1.00  0.00     0.022 C 
HETATM    9  C12 UNL     1     -11.046  16.861  -5.322  1.00  0.00     0.012 C 
HETATM   10  C13 UNL     1      -8.705  17.134  -4.744  1.00  0.00     0.182 C 
HETATM   11  C14 UNL     1      -8.961  18.464  -5.374  1.00  0.00     0.052 C 
HETATM   12  C15 UNL     1      -7.767  16.311  -5.674  1.00  0.00     0.151 C 
HETATM   13  C25 UNL     1      -6.977  16.020  -4.442  1.00  0.00     0.302 C 
HETATM   14  N3  UNL     1      -7.660  17.122  -3.794  1.00  0.00     0.113 N 
HETATM   15  C26 UNL     1      -7.155  17.749  -1.467  1.00  0.00     0.037 C 
HETATM   16  C27 UNL     1      -5.796  18.053  -2.024  1.00  0.00     0.025 C 
ENDROOT
BRANCH  15  17
HETATM   17  C28 UNL     1      -7.833  19.065  -1.131  1.00  0.00     0.180 C 
BRANCH  17  18
HETATM   18  O2  UNL     1      -7.428  20.030  -2.006  1.00  0.00    -0.400 OA
ATOM     19  H2  UNL     1      -7.633  20.889  -1.656  1.00  0.00     0.209 HD
ENDBRANCH  17  18
ENDBRANCH  15  17
BRANCH  12  20
HETATM   20  N1  UNL     1      -7.159  17.155  -6.673  1.00  0.00    -0.352 N 
HETATM   21  C16 UNL     1      -5.934  16.935  -7.299  1.00  0.00     0.217 C 
HETATM   22  O1  UNL     1      -5.265  15.898  -6.986  1.00  0.00    -0.274 OA
ATOM     23  H1  UNL     1      -7.674  17.992  -6.947  1.00  0.00     0.163 HD
BRANCH  21  24
HETATM   24  C17 UNL     1      -5.407  17.874  -8.305  1.00  0.00     0.103 C 
BRANCH  24  25
HETATM   25  C18 UNL     1      -4.107  18.472  -7.796  1.00  0.00     0.009 C 
BRANCH  25  26
HETATM   26  C19 UNL     1      -4.310  19.352  -6.587  1.00  0.00     0.002 C 
BRANCH  26  27
HETATM   27  C20 UNL     1      -3.020  19.449  -5.834  1.00  0.00     0.028 C 
BRANCH  27  28
HETATM   28  C21 UNL     1      -2.380  18.166  -5.438  1.00  0.00     0.236 C 
BRANCH  28  29
HETATM   29  N2  UNL     1      -1.020  17.970  -5.807  1.00  0.00    -0.079 N 
HETATM   30  C22 UNL     1      -0.489  18.939  -6.738  1.00  0.00     0.271 C 
HETATM   31  C23 UNL     1      -0.106  17.791  -4.690  1.00  0.00     0.271 C 
HETATM   32  C24 UNL     1      -1.003  16.685  -6.562  1.00  0.00     0.271 C 
ENDBRANCH  28  29
ENDBRANCH  27  28
ENDBRANCH  26  27
ENDBRANCH  25  26
ENDBRANCH  24  25
ENDBRANCH  21  24
ENDBRANCH  12  20
BRANCH   1  33
HETATM   33  C3  UNL     1      -5.423  18.125   1.278  1.00  0.00     0.007 C 
HETATM   34  C2  UNL     1      -4.355  18.014   2.072  1.00  0.00    -0.062 C 
HETATM   35  C1  UNL     1      -3.629  19.291   2.346  1.00  0.00     0.048 C 
BRANCH  34  36
HETATM   36  C29 UNL     1      -3.897  16.787   2.632  1.00  0.00     0.011 C 
HETATM   37  C30 UNL     1      -2.969  15.947   2.274  1.00  0.00    -0.056 C 
HETATM   38  C31 UNL     1      -2.072  16.073   1.087  1.00  0.00     0.038 C 
HETATM   39  C34 UNL     1      -2.805  14.708   3.149  1.00  0.00     0.202 C 
HETATM   40  C32 UNL     1      -0.919  15.085   1.313  1.00  0.00     0.030 C 
HETATM   41  C33 UNL     1      -0.596  15.161   2.808  1.00  0.00     0.168 C 
HETATM   42  O3  UNL     1      -1.526  14.403   3.458  1.00  0.00    -0.387 OA
ENDBRANCH  34  36
ENDBRANCH   1  33
TORSDOF 11
ENDMDL
MODEL 3
REMARK VINA RESULT: -6.865486149      2.210      3.764
REMARK  11 active torsions:
REMARK  status: ('A' for Active; 'I' for Inactive)
REMARK    1  A    between atoms: C2_2  and  C29_36 
REMARK    2  A    between atoms: C3_3  and  C4_4 
REMARK    3  A    between atoms: C15_15  and  N1_16 
REMARK       I    between atoms: N1_16  and  C16_18 
REMARK    4  A    between atoms: C16_18  and  C17_20 
REMARK    5  A    between atoms: C17_20  and  C18_21 
REMARK    6  A    between atoms: C18_21  and  C19_22 
REMARK    7  A    between atoms: C19_22  and  C20_23 
REMARK    8  A    between atoms: C20_23  and  C21_24 
REMARK    9  A    between atoms: C21_24  and  N2_25 
REMARK   10  A    between atoms: C26_31  and  C28_33 
REMARK   11  A    between atoms: C28_33  and  O2_34 
ROOT
HETATM    1  C4  UNL     1      -6.319  17.087   0.859  1.00  0.00     0.004 C 
HETATM    2  C5  UNL     1      -7.027  16.938  -0.217  1.00  0.00    -0.067 C 
HETATM    3  C6  UNL     1      -7.886  15.700  -0.407  1.00  0.00     0.037 C 
HETATM    4  C7  UNL     1      -7.837  15.505  -1.908  1.00  0.00     0.047 C 
HETATM    5  C8  UNL     1      -8.100  16.914  -2.376  1.00  0.00     0.174 C 
HETATM    6  C9  UNL     1      -9.550  17.232  -2.132  1.00  0.00     0.043 C 
HETATM    7  C10 UNL     1     -10.442  16.259  -2.918  1.00  0.00     0.009 C 
HETATM    8  C11 UNL     1     -10.060  16.255  -4.360  1.00  0.00     0.022 C 
HETATM    9  C12 UNL     1     -11.220  16.808  -5.203  1.00  0.00     0.012 C 
HETATM   10  C13 UNL     1      -8.867  17.099  -4.684  1.00  0.00     0.182 C 
HETATM   11  C14 UNL     1      -9.147  18.423  -5.317  1.00  0.00     0.052 C 
HETATM   12  C15 UNL     1      -7.948  16.275  -5.631  1.00  0.00     0.151 C 
HETATM   13  C25 UNL     1      -7.126  15.998  -4.417  1.00  0.00     0.302 C 
HETATM   14  N3  UNL     1      -7.799  17.101  -3.760  1.00  0.00     0.113 N 
HETATM   15  C26 UNL     1      -7.242  17.747  -1.450  1.00  0.00     0.037 C 
HETATM   16  C27 UNL     1      -5.899  18.054  -2.043  1.00  0.00     0.025 C 
ENDROOT
BRANCH  15  17
HETATM   17  C28 UNL     1      -7.919  19.061  -1.107  1.00  0.00     0.180 C 
BRANCH  17  18
HETATM   18  O2  UNL     1      -7.486  20.040  -1.954  1.00  0.00    -0.400 OA
ATOM     19  H2  UNL     1      -7.184  20.788  -1.453  1.00  0.00     0.209 HD
ENDBRANCH  17  18
ENDBRANCH  15  17
BRANCH  12  20
HETATM   20  N1  UNL     1      -7.369  17.116  -6.651  1.00  0.00    -0.352 N 
HETATM   21  C16 UNL     1      -7.604  17.023  -8.021  1.00  0.00     0.217 C 
HETATM   22  O1  UNL     1      -8.401  16.126  -8.445  1.00  0.00    -0.274 OA
ATOM     23  H1  UNL     1      -6.729  17.846  -6.340  1.00  0.00     0.163 HD
BRANCH  21  24
HETATM   24  C17 UNL     1      -6.948  17.936  -8.973  1.00  0.00     0.103 C 
BRANCH  24  25
HETATM   25  C18 UNL     1      -5.485  17.551  -9.106  1.00  0.00     0.009 C 
BRANCH  25  26
HETATM   26  C19 UNL     1      -5.197  16.806 -10.387  1.00  0.00     0.002 C 
BRANCH  26  27
HETATM   27  C20 UNL     1      -4.821  15.396 -10.055  1.00  0.00     0.028 C 
BRANCH  27  28
HETATM   28  C21 UNL     1      -5.888  14.369 -10.203  1.00  0.00     0.236 C 
BRANCH  28  29
HETATM   29  N2  UNL     1      -6.025  13.412  -9.159  1.00  0.00    -0.079 N 
HETATM   30  C22 UNL     1      -5.540  13.837  -7.866  1.00  0.00     0.271 C 
HETATM   31  C23 UNL     1      -7.355  12.835  -9.033  1.00  0.00     0.271 C 
HETATM   32  C24 UNL     1      -5.123  12.288  -9.540  1.00  0.00     0.271 C 
ENDBRANCH  28  29
ENDBRANCH  27  28
ENDBRANCH  26  27
ENDBRANCH  25  26
ENDBRANCH  24  25
ENDBRANCH  21  24
ENDBRANCH  12  20
BRANCH   1  33
HETATM   33  C3  UNL     1      -5.445  18.152   1.249  1.00  0.00     0.007 C 
HETATM   34  C2  UNL     1      -4.346  18.051   1.999  1.00  0.00    -0.062 C 
HETATM   35  C1  UNL     1      -3.624  19.334   2.251  1.00  0.00     0.048 C 
BRANCH  34  36
HETATM   36  C29 UNL     1      -3.851  16.826   2.532  1.00  0.00     0.011 C 
HETATM   37  C30 UNL     1      -2.930  15.998   2.132  1.00  0.00    -0.056 C 
HETATM   38  C31 UNL     1      -2.085  16.139   0.908  1.00  0.00     0.038 C 
HETATM   39  C34 UNL     1      -2.716  14.757   2.993  1.00  0.00     0.202 C 
HETATM   40  C32 UNL     1      -0.913  15.162   1.080  1.00  0.00     0.030 C 
HETATM   41  C33 UNL     1      -0.528  15.235   2.561  1.00  0.00     0.168 C 
HETATM   42  O3  UNL     1      -1.422  14.464   3.245  1.00  0.00    -0.387 OA
ENDBRANCH  34  36
ENDBRANCH   1  33
TORSDOF 11
ENDMDL
MODEL 4
REMARK VINA RESULT: -6.855391803      1.230      1.771
REMARK  11 active torsions:
REMARK  status: ('A' for Active; 'I' for Inactive)
REMARK    1  A    between atoms: C2_2  and  C29_36 
REMARK    2  A    between atoms: C3_3  and  C4_4 
REMARK    3  A    between atoms: C15_15  and  N1_16 
REMARK       I    between atoms: N1_16  and  C16_18 
REMARK    4  A    between atoms: C16_18  and  C17_20 
REMARK    5  A    between atoms: C17_20  and  C18_21 
REMARK    6  A    between atoms: C18_21  and  C19_22 
REMARK    7  A    between atoms: C19_22  and  C20_23 
REMARK    8  A    between atoms: C20_23  and  C21_24 
REMARK    9  A    between atoms: C21_24  and  N2_25 
REMARK   10  A    between atoms: C26_31  and  C28_33 
REMARK   11  A    between atoms: C28_33  and  O2_34 
ROOT
HETATM    1  C4  UNL     1      -6.218  17.019   0.756  1.00  0.00     0.004 C 
HETATM    2  C5  UNL     1      -6.945  16.907  -0.312  1.00  0.00    -0.067 C 
HETATM    3  C6  UNL     1      -7.763  15.652  -0.557  1.00  0.00     0.037 C 
HETATM    4  C7  UNL     1      -7.740  15.547  -2.068  1.00  0.00     0.047 C 
HETATM    5  C8  UNL     1      -8.065  16.970  -2.446  1.00  0.00     0.174 C 
HETATM    6  C9  UNL     1      -9.520  17.219  -2.153  1.00  0.00     0.043 C 
HETATM    7  C10 UNL     1     -10.394  16.260  -2.977  1.00  0.00     0.009 C 
HETATM    8  C11 UNL     1     -10.045  16.355  -4.424  1.00  0.00     0.022 C 
HETATM    9  C12 UNL     1     -11.244  16.913  -5.208  1.00  0.00     0.012 C 
HETATM   10  C13 UNL     1      -8.892  17.261  -4.722  1.00  0.00     0.182 C 
HETATM   11  C14 UNL     1      -9.234  18.609  -5.270  1.00  0.00     0.052 C 
HETATM   12  C15 UNL     1      -7.965  16.530  -5.735  1.00  0.00     0.151 C 
HETATM   13  C25 UNL     1      -7.106  16.213  -4.557  1.00  0.00     0.302 C 
HETATM   14  N3  UNL     1      -7.804  17.249  -3.822  1.00  0.00     0.113 N 
HETATM   15  C26 UNL     1      -7.217  17.779  -1.490  1.00  0.00     0.037 C 
HETATM   16  C27 UNL     1      -5.900  18.171  -2.091  1.00  0.00     0.025 C 
ENDROOT
BRANCH  15  17
HETATM   17  C28 UNL     1      -7.934  19.044  -1.055  1.00  0.00     0.180 C 
BRANCH  17  18
HETATM   18  O2  UNL     1      -7.662  20.054  -1.931  1.00  0.00    -0.400 OA
ATOM     19  H2  UNL     1      -7.995  20.875  -1.589  1.00  0.00     0.209 HD
ENDBRANCH  17  18
ENDBRANCH  15  17
BRANCH  12  20
HETATM   20  N1  UNL     1      -7.441  17.450  -6.715  1.00  0.00    -0.352 N 
HETATM   21  C16 UNL     1      -6.656  17.117  -7.817  1.00  0.00     0.217 C 
HETATM   22  O1  UNL     1      -6.358  15.894  -8.008  1.00  0.00    -0.274 OA
ATOM     23  H1  UNL     1      -7.666  18.437  -6.589  1.00  0.00     0.163 HD
BRANCH  21  24
HETATM   24  C17 UNL     1      -6.170  18.147  -8.751  1.00  0.00     0.103 C 
BRANCH  24  25
HETATM   25  C18 UNL     1      -6.342  19.517  -8.115  1.00  0.00     0.009 C 
BRANCH  25  26
HETATM   26  C19 UNL     1      -5.076  20.338  -8.159  1.00  0.00     0.002 C 
BRANCH  26  27
HETATM   27  C20 UNL     1      -4.337  20.162  -6.869  1.00  0.00     0.028 C 
BRANCH  27  28
HETATM   28  C21 UNL     1      -3.005  19.504  -6.947  1.00  0.00     0.236 C 
BRANCH  28  29
HETATM   29  N2  UNL     1      -2.851  18.255  -6.282  1.00  0.00    -0.079 N 
HETATM   30  C22 UNL     1      -2.991  17.089  -7.122  1.00  0.00     0.271 C 
HETATM   31  C23 UNL     1      -1.654  18.146  -5.463  1.00  0.00     0.271 C 
HETATM   32  C24 UNL     1      -4.003  18.173  -5.339  1.00  0.00     0.271 C 
ENDBRANCH  28  29
ENDBRANCH  27  28
ENDBRANCH  26  27
ENDBRANCH  25  26
ENDBRANCH  24  25
ENDBRANCH  21  24
ENDBRANCH  12  20
BRANCH   1  33
HETATM   33  C3  UNL     1      -5.375  18.092   1.191  1.00  0.00     0.007 C 
HETATM   34  C2  UNL     1      -4.330  18.003   2.017  1.00  0.00    -0.062 C 
HETATM   35  C1  UNL     1      -3.629  19.292   2.300  1.00  0.00     0.048 C 
BRANCH  34  36
HETATM   36  C29 UNL     1      -3.872  16.787   2.600  1.00  0.00     0.011 C 
HETATM   37  C30 UNL     1      -2.946  15.939   2.258  1.00  0.00    -0.056 C 
HETATM   38  C31 UNL     1      -2.051  16.039   1.067  1.00  0.00     0.038 C 
HETATM   39  C34 UNL     1      -2.781  14.718   3.158  1.00  0.00     0.202 C 
HETATM   40  C32 UNL     1      -0.899  15.055   1.309  1.00  0.00     0.030 C 
HETATM   41  C33 UNL     1      -0.572  15.162   2.803  1.00  0.00     0.168 C 
HETATM   42  O3  UNL     1      -1.502  14.418   3.469  1.00  0.00    -0.387 OA
ENDBRANCH  34  36
ENDBRANCH   1  33
TORSDOF 11
ENDMDL
MODEL 5
REMARK VINA RESULT: -6.773341177      0.837      1.240
REMARK  11 active torsions:
REMARK  status: ('A' for Active; 'I' for Inactive)
REMARK    1  A    between atoms: C2_2  and  C29_36 
REMARK    2  A    between atoms: C3_3  and  C4_4 
REMARK    3  A    between atoms: C15_15  and  N1_16 
REMARK       I    between atoms: N1_16  and  C16_18 
REMARK    4  A    between atoms: C16_18  and  C17_20 
REMARK    5  A    between atoms: C17_20  and  C18_21 
REMARK    6  A    between atoms: C18_21  and  C19_22 
REMARK    7  A    between atoms: C19_22  and  C20_23 
REMARK    8  A    between atoms: C20_23  and  C21_24 
REMARK    9  A    between atoms: C21_24  and  N2_25 
REMARK   10  A    between atoms: C26_31  and  C28_33 
REMARK   11  A    between atoms: C28_33  and  O2_34 
ROOT
HETATM    1  C4  UNL     1      -6.383  17.205   0.871  1.00  0.00     0.004 C 
HETATM    2  C5  UNL     1      -7.047  17.034  -0.229  1.00  0.00    -0.067 C 
HETATM    3  C6  UNL     1      -7.937  15.816  -0.408  1.00  0.00     0.037 C 
HETATM    4  C7  UNL     1      -7.828  15.558  -1.896  1.00  0.00     0.047 C 
HETATM    5  C8  UNL     1      -8.025  16.953  -2.432  1.00  0.00     0.174 C 
HETATM    6  C9  UNL     1      -9.474  17.325  -2.267  1.00  0.00     0.043 C 
HETATM    7  C10 UNL     1     -10.361  16.347  -3.053  1.00  0.00     0.009 C 
HETATM    8  C11 UNL     1      -9.916  16.272  -4.474  1.00  0.00     0.022 C 
HETATM    9  C12 UNL     1     -11.020  16.825  -5.390  1.00  0.00     0.012 C 
HETATM   10  C13 UNL     1      -8.684  17.066  -4.777  1.00  0.00     0.182 C 
HETATM   11  C14 UNL     1      -8.893  18.370  -5.475  1.00  0.00     0.052 C 
HETATM   12  C15 UNL     1      -7.750  16.176  -5.648  1.00  0.00     0.151 C 
HETATM   13  C25 UNL     1      -6.992  15.925  -4.388  1.00  0.00     0.302 C 
HETATM   14  N3  UNL     1      -7.658  17.073  -3.807  1.00  0.00     0.113 N 
HETATM   15  C26 UNL     1      -7.182  17.797  -1.502  1.00  0.00     0.037 C 
HETATM   16  C27 UNL     1      -5.805  18.039  -2.045  1.00  0.00     0.025 C 
ENDROOT
BRANCH  15  17
HETATM   17  C28 UNL     1      -7.832  19.144  -1.242  1.00  0.00     0.180 C 
BRANCH  17  18
HETATM   18  O2  UNL     1      -7.467  20.029  -2.216  1.00  0.00    -0.400 OA
ATOM     19  H2  UNL     1      -8.238  20.463  -2.561  1.00  0.00     0.209 HD
ENDBRANCH  17  18
ENDBRANCH  15  17
BRANCH  12  20
HETATM   20  N1  UNL     1      -7.101  16.956  -6.674  1.00  0.00    -0.352 N 
HETATM   21  C16 UNL     1      -6.550  16.463  -7.854  1.00  0.00     0.217 C 
HETATM   22  O1  UNL     1      -6.611  15.212  -8.082  1.00  0.00    -0.274 OA
ATOM     23  H1  UNL     1      -7.040  17.963  -6.520  1.00  0.00     0.163 HD
BRANCH  21  24
HETATM   24  C17 UNL     1      -5.903  17.358  -8.829  1.00  0.00     0.103 C 
BRANCH  24  25
HETATM   25  C18 UNL     1      -4.488  16.869  -9.092  1.00  0.00     0.009 C 
BRANCH  25  26
HETATM   26  C19 UNL     1      -3.649  16.826  -7.838  1.00  0.00     0.002 C 
BRANCH  26  27
HETATM   27  C20 UNL     1      -3.192  18.214  -7.511  1.00  0.00     0.028 C 
BRANCH  27  28
HETATM   28  C21 UNL     1      -3.567  18.742  -6.172  1.00  0.00     0.236 C 
BRANCH  28  29
HETATM   29  N2  UNL     1      -4.306  19.958  -6.131  1.00  0.00    -0.079 N 
HETATM   30  C22 UNL     1      -4.612  20.536  -7.419  1.00  0.00     0.271 C 
HETATM   31  C23 UNL     1      -5.500  19.916  -5.301  1.00  0.00     0.271 C 
HETATM   32  C24 UNL     1      -3.393  20.946  -5.489  1.00  0.00     0.271 C 
ENDBRANCH  28  29
ENDBRANCH  27  28
ENDBRANCH  26  27
ENDBRANCH  25  26
ENDBRANCH  24  25
ENDBRANCH  21  24
ENDBRANCH  12  20
BRANCH   1  33
HETATM   33  C3  UNL     1      -5.494  18.259   1.257  1.00  0.00     0.007 C 
HETATM   34  C2  UNL     1      -4.388  18.142   1.996  1.00  0.00    -0.062 C 
HETATM   35  C1  UNL     1      -3.649  19.416   2.247  1.00  0.00     0.048 C 
BRANCH  34  36
HETATM   36  C29 UNL     1      -3.902  16.909   2.519  1.00  0.00     0.011 C 
HETATM   37  C30 UNL     1      -2.997  16.071   2.103  1.00  0.00    -0.056 C 
HETATM   38  C31 UNL     1      -2.167  16.205   0.869  1.00  0.00     0.038 C 
HETATM   39  C34 UNL     1      -2.787  14.824   2.957  1.00  0.00     0.202 C 
HETATM   40  C32 UNL     1      -1.005  15.213   1.021  1.00  0.00     0.030 C 
HETATM   41  C33 UNL     1      -0.599  15.277   2.497  1.00  0.00     0.168 C 
HETATM   42  O3  UNL     1      -1.493  14.514   3.191  1.00  0.00    -0.387 OA
ENDBRANCH  34  36
ENDBRANCH   1  33
TORSDOF 11
ENDMDL
