MODEL 1
REMARK VINA RESULT: -8.465316201      0.000      0.000
REMARK  10 active torsions:
REMARK  status: ('A' for Active; 'I' for Inactive)
REMARK    1  A    between atoms: S1_2  and  C2_3 
REMARK    2  A    between atoms: C2_3  and  C3_4 
REMARK    3  A    between atoms: C3_4  and  C4_5 
REMARK    4  A    between atoms: C4_5  and  N1_6 
REMARK    5  A    between atoms: C4_5  and  C22_28 
REMARK       I    between atoms: N1_6  and  C5_8 
REMARK    6  A    between atoms: C5_8  and  C6_10 
REMARK    7  A    between atoms: C10_14  and  C11_15 
REMARK       I    between atoms: C11_15  and  N2_17 
REMARK    8  A    between atoms: N2_17  and  C12_18 
REMARK    9  A    between atoms: N2_17  and  C18_24 
REMARK       I    between atoms: C22_28  and  N3_30 
REMARK   10  A    between atoms: N3_30  and  C23_32 
ROOT
HETATM    1  N1  UNL     1      -8.288  17.275  -0.698  1.00  0.00    -0.347 N 
ATOM      2  H1  UNL     1      -9.291  17.229  -0.514  1.00  0.00     0.163 HD
HETATM    3  C5  UNL     1      -7.785  18.331  -1.489  1.00  0.00     0.223 C 
HETATM    4  O1  UNL     1      -6.527  18.402  -1.733  1.00  0.00    -0.273 OA
ENDROOT
BRANCH   1   5
HETATM    5  C4  UNL     1      -7.414  16.239  -0.130  1.00  0.00     0.177 C 
BRANCH   5   6
HETATM    6  C3  UNL     1      -6.709  15.510  -1.213  1.00  0.00     0.045 C 
BRANCH   6   7
HETATM    7  C2  UNL     1      -7.512  14.468  -1.927  1.00  0.00     0.076 C 
BRANCH   7   8
HETATM    8  S1  UNL     1      -8.135  15.129  -3.521  1.00  0.00    -0.173 SA
HETATM    9  C1  UNL     1      -6.897  16.073  -4.405  1.00  0.00     0.089 C 
ENDBRANCH   7   8
ENDBRANCH   6   7
ENDBRANCH   5   6
BRANCH   5  10
HETATM   10  C22 UNL     1      -6.538  16.882   0.878  1.00  0.00     0.241 C 
HETATM   11  O3  UNL     1      -7.063  17.530   1.809  1.00  0.00    -0.271 OA
HETATM   12  N3  UNL     1      -5.133  16.735   0.754  1.00  0.00    -0.351 N 
ATOM     13  H3  UNL     1      -4.730  16.198  -0.014  1.00  0.00     0.163 HD
BRANCH  12  14
HETATM   14  C23 UNL     1      -4.280  17.365   1.745  1.00  0.00     0.118 C 
HETATM   15  C24 UNL     1      -3.217  18.206   1.146  1.00  0.00     0.030 C 
HETATM   16  C25 UNL     1      -2.078  17.450   0.552  1.00  0.00     0.007 C 
HETATM   17  C26 UNL     1      -2.055  15.984   0.816  1.00  0.00     0.039 C 
HETATM   18  C27 UNL     1      -2.607  15.609   2.134  1.00  0.00    -0.050 A 
HETATM   19  C28 UNL     1      -2.005  14.587   2.859  1.00  0.00     0.007 A 
HETATM   20  C32 UNL     1      -3.704  16.287   2.603  1.00  0.00    -0.029 A 
HETATM   21  C29 UNL     1      -2.560  14.281   4.080  1.00  0.00     0.001 A 
HETATM   22  C30 UNL     1      -3.678  14.964   4.571  1.00  0.00     0.001 A 
HETATM   23  C31 UNL     1      -4.251  15.969   3.832  1.00  0.00     0.010 A 
ENDBRANCH  12  14
ENDBRANCH   5  10
ENDBRANCH   1   5
BRANCH   3  24
HETATM   24  C6  UNL     1      -8.680  19.368  -2.048  1.00  0.00     0.091 C 
HETATM   25  C7  UNL     1      -7.835  20.619  -2.302  1.00  0.00     0.015 C 
HETATM   26  C8  UNL     1      -7.721  21.247  -0.964  1.00  0.00     0.002 C 
HETATM   27  C9  UNL     1      -8.859  20.730  -0.149  1.00  0.00     0.015 C 
HETATM   28  C10 UNL     1      -9.703  19.875  -1.086  1.00  0.00     0.091 C 
BRANCH  28  29
HETATM   29  C11 UNL     1     -10.724  20.677  -1.763  1.00  0.00     0.225 C 
HETATM   30  O2  UNL     1     -10.854  21.913  -1.429  1.00  0.00    -0.273 OA
HETATM   31  N2  UNL     1     -11.625  20.230  -2.790  1.00  0.00    -0.342 N 
BRANCH  31  32
HETATM   32  C12 UNL     1     -11.518  18.867  -3.183  1.00  0.00     0.087 C 
HETATM   33  C13 UNL     1     -11.514  18.599  -4.666  1.00  0.00     0.025 C 
HETATM   34  C14 UNL     1     -12.502  17.524  -5.068  1.00  0.00     0.002 C 
HETATM   35  C15 UNL     1     -12.298  16.246  -4.300  1.00  0.00     0.000 C 
HETATM   36  C16 UNL     1     -11.949  16.499  -2.847  1.00  0.00     0.002 C 
HETATM   37  C17 UNL     1     -12.500  17.908  -2.539  1.00  0.00     0.025 C 
ENDBRANCH  31  32
BRANCH  31  38
HETATM   38  C18 UNL     1     -12.513  21.206  -3.302  1.00  0.00     0.087 C 
HETATM   39  C19 UNL     1     -12.571  21.639  -4.698  1.00  0.00     0.025 C 
HETATM   40  C20 UNL     1     -14.017  22.104  -4.361  1.00  0.00     0.004 C 
HETATM   41  C21 UNL     1     -13.995  20.869  -3.419  1.00  0.00     0.025 C 
ENDBRANCH  31  38
ENDBRANCH  28  29
ENDBRANCH   3  24
TORSDOF 10
ENDMDL
MODEL 2
REMARK VINA RESULT: -8.029429033      3.210      4.948
REMARK  10 active torsions:
REMARK  status: ('A' for Active; 'I' for Inactive)
REMARK    1  A    between atoms: S1_2  and  C2_3 
REMARK    2  A    between atoms: C2_3  and  C3_4 
REMARK    3  A    between atoms: C3_4  and  C4_5 
REMARK    4  A    between atoms: C4_5  and  N1_6 
REMARK    5  A    between atoms: C4_5  and  C22_28 
REMARK       I    between atoms: N1_6  and  C5_8 
REMARK    6  A    between atoms: C5_8  and  C6_10 
REMARK    7  A    between atoms: C10_14  and  C11_15 
REMARK       I    between atoms: C11_15  and  N2_17 
REMARK    8  A    between atoms: N2_17  and  C12_18 
REMARK    9  A    between atoms: N2_17  and  C18_24 
REMARK       I    between atoms: C22_28  and  N3_30 
REMARK   10  A    between atoms: N3_30  and  C23_32 
ROOT
HETATM    1  N1  UNL     1      -7.109  18.560  -1.607  1.00  0.00    -0.347 N 
ATOM      2  H1  UNL     1      -6.346  19.193  -1.848  1.00  0.00     0.163 HD
HETATM    3  C5  UNL     1      -8.392  18.798  -2.148  1.00  0.00     0.223 C 
HETATM    4  O1  UNL     1      -9.364  18.014  -1.853  1.00  0.00    -0.273 OA
ENDROOT
BRANCH   1   5
HETATM    5  C4  UNL     1      -6.837  17.429  -0.710  1.00  0.00     0.177 C 
BRANCH   5   6
HETATM    6  C3  UNL     1      -6.381  16.251  -1.489  1.00  0.00     0.045 C 
BRANCH   6   7
HETATM    7  C2  UNL     1      -7.329  15.095  -1.538  1.00  0.00     0.076 C 
BRANCH   7   8
HETATM    8  S1  UNL     1      -8.158  15.022  -3.173  1.00  0.00    -0.173 SA
HETATM    9  C1  UNL     1      -7.084  15.530  -4.511  1.00  0.00     0.089 C 
ENDBRANCH   7   8
ENDBRANCH   6   7
ENDBRANCH   5   6
BRANCH   5  10
HETATM   10  C22 UNL     1      -5.904  17.894   0.343  1.00  0.00     0.241 C 
HETATM   11  O3  UNL     1      -5.994  19.072   0.753  1.00  0.00    -0.271 OA
HETATM   12  N3  UNL     1      -4.944  16.984   0.856  1.00  0.00    -0.351 N 
ATOM     13  H3  UNL     1      -4.894  16.027   0.506  1.00  0.00     0.163 HD
BRANCH  12  14
HETATM   14  C23 UNL     1      -4.034  17.444   1.889  1.00  0.00     0.118 C 
HETATM   15  C24 UNL     1      -2.853  18.156   1.347  1.00  0.00     0.030 C 
HETATM   16  C25 UNL     1      -1.817  17.277   0.736  1.00  0.00     0.007 C 
HETATM   17  C26 UNL     1      -2.001  15.812   0.929  1.00  0.00     0.039 C 
HETATM   18  C27 UNL     1      -2.629  15.458   2.219  1.00  0.00    -0.050 A 
HETATM   19  C28 UNL     1      -2.188  14.331   2.903  1.00  0.00     0.007 A 
HETATM   20  C32 UNL     1      -3.632  16.259   2.703  1.00  0.00    -0.029 A 
HETATM   21  C29 UNL     1      -2.807  14.050   4.100  1.00  0.00     0.001 A 
HETATM   22  C30 UNL     1      -3.831  14.858   4.605  1.00  0.00     0.001 A 
HETATM   23  C31 UNL     1      -4.244  15.965   3.906  1.00  0.00     0.010 A 
ENDBRANCH  12  14
ENDBRANCH   5  10
ENDBRANCH   1   5
BRANCH   3  24
HETATM   24  C6  UNL     1      -8.646  19.940  -3.053  1.00  0.00     0.091 C 
HETATM   25  C7  UNL     1      -9.583  19.450  -4.161  1.00  0.00     0.015 C 
HETATM   26  C8  UNL     1      -8.683  18.734  -5.096  1.00  0.00     0.002 C 
HETATM   27  C9  UNL     1      -7.307  19.257  -4.853  1.00  0.00     0.015 C 
HETATM   28  C10 UNL     1      -7.450  20.380  -3.831  1.00  0.00     0.091 C 
BRANCH  28  29
HETATM   29  C11 UNL     1      -7.682  21.668  -4.488  1.00  0.00     0.225 C 
HETATM   30  O2  UNL     1      -8.896  22.065  -4.649  1.00  0.00    -0.273 OA
HETATM   31  N2  UNL     1      -6.680  22.569  -4.988  1.00  0.00    -0.342 N 
BRANCH  31  32
HETATM   32  C12 UNL     1      -5.325  22.163  -4.835  1.00  0.00     0.087 C 
HETATM   33  C13 UNL     1      -4.376  23.198  -4.286  1.00  0.00     0.025 C 
HETATM   34  C14 UNL     1      -3.121  23.339  -5.120  1.00  0.00     0.002 C 
HETATM   35  C15 UNL     1      -2.413  22.026  -5.314  1.00  0.00     0.000 C 
HETATM   36  C16 UNL     1      -3.381  20.879  -5.528  1.00  0.00     0.002 C 
HETATM   37  C17 UNL     1      -4.675  21.536  -6.054  1.00  0.00     0.025 C 
ENDBRANCH  31  32
BRANCH  31  38
HETATM   38  C18 UNL     1      -7.159  23.767  -5.569  1.00  0.00     0.087 C 
HETATM   39  C19 UNL     1      -7.031  25.098  -4.975  1.00  0.00     0.025 C 
HETATM   40  C20 UNL     1      -7.221  25.624  -6.426  1.00  0.00     0.004 C 
HETATM   41  C21 UNL     1      -6.454  24.327  -6.799  1.00  0.00     0.025 C 
ENDBRANCH  31  38
ENDBRANCH  28  29
ENDBRANCH   3  24
TORSDOF 10
ENDMDL
MODEL 3
REMARK VINA RESULT: -7.999563270      2.461      4.119
REMARK  10 active torsions:
REMARK  status: ('A' for Active; 'I' for Inactive)
REMARK    1  A    between atoms: S1_2  and  C2_3 
REMARK    2  A    between atoms: C2_3  and  C3_4 
REMARK    3  A    between atoms: C3_4  and  C4_5 
REMARK    4  A    between atoms: C4_5  and  N1_6 
REMARK    5  A    between atoms: C4_5  and  C22_28 
REMARK       I    between atoms: N1_6  and  C5_8 
REMARK    6  A    between atoms: C5_8  and  C6_10 
REMARK    7  A    between atoms: C10_14  and  C11_15 
REMARK       I    between atoms: C11_15  and  N2_17 
REMARK    8  A    between atoms: N2_17  and  C12_18 
REMARK    9  A    between atoms: N2_17  and  C18_24 
REMARK       I    between atoms: C22_28  and  N3_30 
REMARK   10  A    between atoms: N3_30  and  C23_32 
ROOT
HETATM    1  N1  UNL     1      -7.932  17.828  -0.645  1.00  0.00    -0.347 N 
ATOM      2  H1  UNL     1      -8.807  18.093  -0.192  1.00  0.00     0.163 HD
HETATM    3  C5  UNL     1      -7.499  18.557  -1.776  1.00  0.00     0.223 C 
HETATM    4  O1  UNL     1      -6.402  18.236  -2.360  1.00  0.00    -0.273 OA
ENDROOT
BRANCH   1   5
HETATM    5  C4  UNL     1      -7.162  16.702  -0.101  1.00  0.00     0.177 C 
BRANCH   5   6
HETATM    6  C3  UNL     1      -6.566  15.905  -1.202  1.00  0.00     0.045 C 
BRANCH   6   7
HETATM    7  C2  UNL     1      -7.380  14.744  -1.681  1.00  0.00     0.076 C 
BRANCH   7   8
HETATM    8  S1  UNL     1      -8.221  15.166  -3.256  1.00  0.00    -0.173 SA
HETATM    9  C1  UNL     1      -7.070  15.613  -4.552  1.00  0.00     0.089 C 
ENDBRANCH   7   8
ENDBRANCH   6   7
ENDBRANCH   5   6
BRANCH   5  10
HETATM   10  C22 UNL     1      -6.198  17.242   0.887  1.00  0.00     0.241 C 
HETATM   11  O3  UNL     1      -6.581  18.125   1.685  1.00  0.00    -0.271 OA
HETATM   12  N3  UNL     1      -4.874  16.732   0.898  1.00  0.00    -0.351 N 
ATOM     13  H3  UNL     1      -4.589  16.008   0.239  1.00  0.00     0.163 HD
BRANCH  12  14
HETATM   14  C23 UNL     1      -3.935  17.262   1.870  1.00  0.00     0.118 C 
HETATM   15  C24 UNL     1      -2.777  17.944   1.245  1.00  0.00     0.030 C 
HETATM   16  C25 UNL     1      -1.755  17.034   0.657  1.00  0.00     0.007 C 
HETATM   17  C26 UNL     1      -1.922  15.583   0.950  1.00  0.00     0.039 C 
HETATM   18  C27 UNL     1      -2.505  15.309   2.280  1.00  0.00    -0.050 A 
HETATM   19  C28 UNL     1      -2.034  14.230   3.020  1.00  0.00     0.007 A 
HETATM   20  C32 UNL     1      -3.498  16.134   2.745  1.00  0.00    -0.029 A 
HETATM   21  C29 UNL     1      -2.611  14.023   4.252  1.00  0.00     0.001 A 
HETATM   22  C30 UNL     1      -3.624  14.857   4.738  1.00  0.00     0.001 A 
HETATM   23  C31 UNL     1      -4.068  15.914   3.983  1.00  0.00     0.010 A 
ENDBRANCH  12  14
ENDBRANCH   5  10
ENDBRANCH   1   5
BRANCH   3  24
HETATM   24  C6  UNL     1      -8.285  19.692  -2.307  1.00  0.00     0.091 C 
HETATM   25  C7  UNL     1      -9.733  19.506  -1.847  1.00  0.00     0.015 C 
HETATM   26  C8  UNL     1     -10.281  18.507  -2.795  1.00  0.00     0.002 C 
HETATM   27  C9  UNL     1      -9.421  18.556  -4.014  1.00  0.00     0.015 C 
HETATM   28  C10 UNL     1      -8.429  19.692  -3.793  1.00  0.00     0.091 C 
BRANCH  28  29
HETATM   29  C11 UNL     1      -8.964  20.965  -4.279  1.00  0.00     0.225 C 
HETATM   30  O2  UNL     1     -10.235  21.071  -4.456  1.00  0.00    -0.273 OA
HETATM   31  N2  UNL     1      -8.210  22.149  -4.591  1.00  0.00    -0.342 N 
BRANCH  31  32
HETATM   32  C12 UNL     1      -6.801  22.072  -4.415  1.00  0.00     0.087 C 
HETATM   33  C13 UNL     1      -6.167  23.179  -3.614  1.00  0.00     0.025 C 
HETATM   34  C14 UNL     1      -4.971  23.793  -4.310  1.00  0.00     0.002 C 
HETATM   35  C15 UNL     1      -3.942  22.764  -4.692  1.00  0.00     0.000 C 
HETATM   36  C16 UNL     1      -4.574  21.478  -5.188  1.00  0.00     0.002 C 
HETATM   37  C17 UNL     1      -5.981  21.883  -5.678  1.00  0.00     0.025 C 
ENDBRANCH  31  32
BRANCH  31  38
HETATM   38  C18 UNL     1      -8.963  23.264  -5.030  1.00  0.00     0.087 C 
HETATM   39  C19 UNL     1      -9.194  24.481  -4.251  1.00  0.00     0.025 C 
HETATM   40  C20 UNL     1      -9.473  25.155  -5.624  1.00  0.00     0.004 C 
HETATM   41  C21 UNL     1      -8.392  24.159  -6.123  1.00  0.00     0.025 C 
ENDBRANCH  31  38
ENDBRANCH  28  29
ENDBRANCH   3  24
TORSDOF 10
ENDMDL
MODEL 4
REMARK VINA RESULT: -7.843032800      1.770      2.606
REMARK  10 active torsions:
REMARK  status: ('A' for Active; 'I' for Inactive)
REMARK    1  A    between atoms: S1_2  and  C2_3 
REMARK    2  A    between atoms: C2_3  and  C3_4 
REMARK    3  A    between atoms: C3_4  and  C4_5 
REMARK    4  A    between atoms: C4_5  and  N1_6 
REMARK    5  A    between atoms: C4_5  and  C22_28 
REMARK       I    between atoms: N1_6  and  C5_8 
REMARK    6  A    between atoms: C5_8  and  C6_10 
REMARK    7  A    between atoms: C10_14  and  C11_15 
REMARK       I    between atoms: C11_15  and  N2_17 
REMARK    8  A    between atoms: N2_17  and  C12_18 
REMARK    9  A    between atoms: N2_17  and  C18_24 
REMARK       I    between atoms: C22_28  and  N3_30 
REMARK   10  A    between atoms: N3_30  and  C23_32 
ROOT
HETATM    1  N1  UNL     1      -7.272  18.289  -1.410  1.00  0.00    -0.347 N 
ATOM      2  H1  UNL     1      -6.578  18.994  -1.659  1.00  0.00     0.163 HD
HETATM    3  C5  UNL     1      -8.596  18.435  -1.882  1.00  0.00     0.223 C 
HETATM    4  O1  UNL     1      -9.482  17.559  -1.575  1.00  0.00    -0.273 OA
ENDROOT
BRANCH   1   5
HETATM    5  C4  UNL     1      -6.863  17.154  -0.571  1.00  0.00     0.177 C 
BRANCH   5   6
HETATM    6  C3  UNL     1      -6.361  16.043  -1.417  1.00  0.00     0.045 C 
BRANCH   6   7
HETATM    7  C2  UNL     1      -7.313  14.908  -1.633  1.00  0.00     0.076 C 
BRANCH   7   8
HETATM    8  S1  UNL     1      -8.008  14.976  -3.329  1.00  0.00    -0.173 SA
HETATM    9  C1  UNL     1      -7.098  16.084  -4.401  1.00  0.00     0.089 C 
ENDBRANCH   7   8
ENDBRANCH   6   7
ENDBRANCH   5   6
BRANCH   5  10
HETATM   10  C22 UNL     1      -5.910  17.658   0.447  1.00  0.00     0.241 C 
HETATM   11  O3  UNL     1      -6.065  18.812   0.901  1.00  0.00    -0.271 OA
HETATM   12  N3  UNL     1      -4.858  16.808   0.876  1.00  0.00    -0.351 N 
ATOM     13  H3  UNL     1      -4.756  15.869   0.492  1.00  0.00     0.163 HD
BRANCH  12  14
HETATM   14  C23 UNL     1      -3.930  17.305   1.875  1.00  0.00     0.118 C 
HETATM   15  C24 UNL     1      -2.747  17.977   1.285  1.00  0.00     0.030 C 
HETATM   16  C25 UNL     1      -1.730  17.058   0.703  1.00  0.00     0.007 C 
HETATM   17  C26 UNL     1      -1.928  15.605   0.967  1.00  0.00     0.039 C 
HETATM   18  C27 UNL     1      -2.543  15.320   2.280  1.00  0.00    -0.050 A 
HETATM   19  C28 UNL     1      -2.106  14.221   3.011  1.00  0.00     0.007 A 
HETATM   20  C32 UNL     1      -3.530  16.155   2.739  1.00  0.00    -0.029 A 
HETATM   21  C29 UNL     1      -2.712  14.003   4.228  1.00  0.00     0.001 A 
HETATM   22  C30 UNL     1      -3.720  14.847   4.707  1.00  0.00     0.001 A 
HETATM   23  C31 UNL     1      -4.129  15.925   3.962  1.00  0.00     0.010 A 
ENDBRANCH  12  14
ENDBRANCH   5  10
ENDBRANCH   1   5
BRANCH   3  24
HETATM   24  C6  UNL     1      -8.989  19.581  -2.729  1.00  0.00     0.091 C 
HETATM   25  C7  UNL     1      -8.025  20.732  -2.425  1.00  0.00     0.015 C 
HETATM   26  C8  UNL     1      -8.549  21.310  -1.165  1.00  0.00     0.002 C 
HETATM   27  C9  UNL     1      -9.984  20.910  -1.074  1.00  0.00     0.015 C 
HETATM   28  C10 UNL     1     -10.309  20.181  -2.372  1.00  0.00     0.091 C 
BRANCH  28  29
HETATM   29  C11 UNL     1     -10.770  21.113  -3.403  1.00  0.00     0.225 C 
HETATM   30  O2  UNL     1     -10.027  21.304  -4.436  1.00  0.00    -0.273 OA
HETATM   31  N2  UNL     1     -11.997  21.862  -3.394  1.00  0.00    -0.342 N 
BRANCH  31  32
HETATM   32  C12 UNL     1     -12.845  21.684  -2.266  1.00  0.00     0.087 C 
HETATM   33  C13 UNL     1     -14.148  20.969  -2.517  1.00  0.00     0.025 C 
HETATM   34  C14 UNL     1     -15.340  21.712  -1.951  1.00  0.00     0.002 C 
HETATM   35  C15 UNL     1     -15.180  22.018  -0.486  1.00  0.00     0.000 C 
HETATM   36  C16 UNL     1     -13.759  22.414  -0.135  1.00  0.00     0.002 C 
HETATM   37  C17 UNL     1     -13.146  22.930  -1.455  1.00  0.00     0.025 C 
ENDBRANCH  31  32
BRANCH  31  38
HETATM   38  C18 UNL     1     -12.226  22.688  -4.521  1.00  0.00     0.087 C 
HETATM   39  C19 UNL     1     -13.539  22.971  -5.101  1.00  0.00     0.025 C 
HETATM   40  C20 UNL     1     -12.858  24.233  -5.704  1.00  0.00     0.004 C 
HETATM   41  C21 UNL     1     -12.040  24.194  -4.384  1.00  0.00     0.025 C 
ENDBRANCH  31  38
ENDBRANCH  28  29
ENDBRANCH   3  24
TORSDOF 10
ENDMDL
MODEL 5
REMARK VINA RESULT: -7.838688709      2.649      4.004
REMARK  10 active torsions:
REMARK  status: ('A' for Active; 'I' for Inactive)
REMARK    1  A    between atoms: S1_2  and  C2_3 
REMARK    2  A    between atoms: C2_3  and  C3_4 
REMARK    3  A    between atoms: C3_4  and  C4_5 
REMARK    4  A    between atoms: C4_5  and  N1_6 
REMARK    5  A    between atoms: C4_5  and  C22_28 
REMARK       I    between atoms: N1_6  and  C5_8 
REMARK    6  A    between atoms: C5_8  and  C6_10 
REMARK    7  A    between atoms: C10_14  and  C11_15 
REMARK       I    between atoms: C11_15  and  N2_17 
REMARK    8  A    between atoms: N2_17  and  C12_18 
REMARK    9  A    between atoms: N2_17  and  C18_24 
REMARK       I    between atoms: C22_28  and  N3_30 
REMARK   10  A    between atoms: N3_30  and  C23_32 
ROOT
HETATM    1  N1  UNL     1      -7.492  18.944  -0.172  1.00  0.00    -0.347 N 
ATOM      2  H1  UNL     1      -7.012  18.837  -1.065  1.00  0.00     0.163 HD
HETATM    3  C5  UNL     1      -8.267  20.103   0.055  1.00  0.00     0.223 C 
HETATM    4  O1  UNL     1      -8.875  20.254   1.174  1.00  0.00    -0.273 OA
ENDROOT
BRANCH   1   5
HETATM    5  C4  UNL     1      -7.355  17.886   0.840  1.00  0.00     0.177 C 
BRANCH   5   6
HETATM    6  C3  UNL     1      -7.402  16.550   0.197  1.00  0.00     0.045 C 
BRANCH   6   7
HETATM    7  C2  UNL     1      -8.158  16.473  -1.093  1.00  0.00     0.076 C 
BRANCH   7   8
HETATM    8  S1  UNL     1      -7.026  16.030  -2.466  1.00  0.00    -0.173 SA
HETATM    9  C1  UNL     1      -5.918  17.367  -2.902  1.00  0.00     0.089 C 
ENDBRANCH   7   8
ENDBRANCH   6   7
ENDBRANCH   5   6
BRANCH   5  10
HETATM   10  C22 UNL     1      -6.135  18.167   1.632  1.00  0.00     0.241 C 
HETATM   11  O3  UNL     1      -6.097  19.197   2.340  1.00  0.00    -0.271 OA
HETATM   12  N3  UNL     1      -5.052  17.253   1.566  1.00  0.00    -0.351 N 
ATOM     13  H3  UNL     1      -5.110  16.417   0.983  1.00  0.00     0.163 HD
BRANCH  12  14
HETATM   14  C23 UNL     1      -3.860  17.531   2.346  1.00  0.00     0.118 C 
HETATM   15  C24 UNL     1      -2.828  18.273   1.585  1.00  0.00     0.030 C 
HETATM   16  C25 UNL     1      -2.069  17.457   0.597  1.00  0.00     0.007 C 
HETATM   17  C26 UNL     1      -2.297  15.986   0.647  1.00  0.00     0.039 C 
HETATM   18  C27 UNL     1      -2.565  15.473   2.007  1.00  0.00    -0.050 A 
HETATM   19  C28 UNL     1      -2.034  14.246   2.388  1.00  0.00     0.007 A 
HETATM   20  C32 UNL     1      -3.333  16.230   2.855  1.00  0.00    -0.029 A 
HETATM   21  C29 UNL     1      -2.313  13.818   3.666  1.00  0.00     0.001 A 
HETATM   22  C30 UNL     1      -3.096  14.580   4.541  1.00  0.00     0.001 A 
HETATM   23  C31 UNL     1      -3.606  15.788   4.135  1.00  0.00     0.010 A 
ENDBRANCH  12  14
ENDBRANCH   5  10
ENDBRANCH   1   5
BRANCH   3  24
HETATM   24  C6  UNL     1      -8.398  21.155  -0.976  1.00  0.00     0.091 C 
HETATM   25  C7  UNL     1      -9.889  21.319  -1.282  1.00  0.00     0.015 C 
HETATM   26  C8  UNL     1     -10.189  20.193  -2.199  1.00  0.00     0.002 C 
HETATM   27  C9  UNL     1      -8.892  19.781  -2.810  1.00  0.00     0.015 C 
HETATM   28  C10 UNL     1      -7.848  20.773  -2.311  1.00  0.00     0.091 C 
BRANCH  28  29
HETATM   29  C11 UNL     1      -7.749  21.932  -3.201  1.00  0.00     0.225 C 
HETATM   30  O2  UNL     1      -8.239  23.054  -2.805  1.00  0.00    -0.273 OA
HETATM   31  N2  UNL     1      -7.148  21.961  -4.507  1.00  0.00    -0.342 N 
BRANCH  31  32
HETATM   32  C12 UNL     1      -6.600  20.739  -4.984  1.00  0.00     0.087 C 
HETATM   33  C13 UNL     1      -5.111  20.719  -5.213  1.00  0.00     0.025 C 
HETATM   34  C14 UNL     1      -4.737  20.179  -6.577  1.00  0.00     0.002 C 
HETATM   35  C15 UNL     1      -5.327  18.820  -6.835  1.00  0.00     0.000 C 
HETATM   36  C16 UNL     1      -6.738  18.695  -6.293  1.00  0.00     0.002 C 
HETATM   37  C17 UNL     1      -7.267  20.143  -6.209  1.00  0.00     0.025 C 
ENDBRANCH  31  32
BRANCH  31  38
HETATM   38  C18 UNL     1      -7.162  23.214  -5.166  1.00  0.00     0.087 C 
HETATM   39  C19 UNL     1      -6.159  23.667  -6.129  1.00  0.00     0.025 C 
HETATM   40  C20 UNL     1      -7.263  24.641  -6.629  1.00  0.00     0.004 C 
HETATM   41  C21 UNL     1      -8.209  23.472  -6.242  1.00  0.00     0.025 C 
ENDBRANCH  31  38
ENDBRANCH  28  29
ENDBRANCH   3  24
TORSDOF 10
ENDMDL
