MODEL 1
REMARK VINA RESULT: -4.544781100      0.000      0.000
REMARK  1 active torsions:
REMARK  status: ('A' for Active; 'I' for Inactive)
REMARK    1  A    between atoms: O1_1  and  C1_3 
ROOT
HETATM    1  C1  UNL     1     -33.909 -38.850  57.597  1.00  0.00     0.122 C 
HETATM    2  C2  UNL     1     -34.438 -38.509  56.209  1.00  0.00     0.032 C 
HETATM    3  C3  UNL     1     -35.365 -39.664  55.834  1.00  0.00     0.007 C 
HETATM    4  C4  UNL     1     -35.738 -40.170  57.169  1.00  0.00    -0.008 C 
HETATM    5  C5  UNL     1     -36.422 -41.465  57.262  1.00  0.00     0.005 C 
HETATM    6  C6  UNL     1     -36.656 -41.699  58.756  1.00  0.00     0.000 C 
HETATM    7  C7  UNL     1     -35.369 -41.812  59.498  1.00  0.00     0.000 C 
HETATM    8  C8  UNL     1     -34.379 -40.728  59.202  1.00  0.00     0.007 C 
HETATM    9  C9  UNL     1     -34.339 -40.289  57.789  1.00  0.00     0.018 C 
ENDROOT
BRANCH   1  10
HETATM   10  O1  UNL     1     -34.627 -38.100  58.555  1.00  0.00    -0.395 OA
ATOM     11  H1  UNL     1     -35.512 -38.442  58.612  1.00  0.00     0.210 HD
ENDBRANCH   1  10
TORSDOF 1
ENDMDL
MODEL 2
REMARK VINA RESULT: -4.528163524      1.568      3.844
REMARK  1 active torsions:
REMARK  status: ('A' for Active; 'I' for Inactive)
REMARK    1  A    between atoms: O1_1  and  C1_3 
ROOT
HETATM    1  C1  UNL     1     -36.367 -41.261  56.694  1.00  0.00     0.122 C 
HETATM    2  C2  UNL     1     -36.326 -41.570  58.185  1.00  0.00     0.032 C 
HETATM    3  C3  UNL     1     -35.213 -40.691  58.751  1.00  0.00     0.007 C 
HETATM    4  C4  UNL     1     -35.173 -39.608  57.749  1.00  0.00    -0.008 C 
HETATM    5  C5  UNL     1     -34.043 -38.673  57.773  1.00  0.00     0.005 C 
HETATM    6  C6  UNL     1     -34.294 -37.697  56.621  1.00  0.00     0.000 C 
HETATM    7  C7  UNL     1     -34.279 -38.392  55.304  1.00  0.00     0.000 C 
HETATM    8  C8  UNL     1     -35.117 -39.632  55.242  1.00  0.00     0.007 C 
HETATM    9  C9  UNL     1     -35.104 -40.456  56.471  1.00  0.00     0.018 C 
ENDROOT
BRANCH   1  10
HETATM   10  O1  UNL     1     -37.439 -40.378  56.441  1.00  0.00    -0.395 OA
ATOM     11  H1  UNL     1     -37.904 -40.674  55.666  1.00  0.00     0.210 HD
ENDBRANCH   1  10
TORSDOF 1
ENDMDL
MODEL 3
REMARK VINA RESULT: -4.464948868      1.973      3.936
REMARK  1 active torsions:
REMARK  status: ('A' for Active; 'I' for Inactive)
REMARK    1  A    between atoms: O1_1  and  C1_3 
ROOT
HETATM    1  C1  UNL     1     -35.452 -40.609  55.995  1.00  0.00     0.122 C 
HETATM    2  C2  UNL     1     -35.772 -41.269  57.330  1.00  0.00     0.032 C 
HETATM    3  C3  UNL     1     -35.599 -40.170  58.377  1.00  0.00     0.007 C 
HETATM    4  C4  UNL     1     -35.809 -38.963  57.555  1.00  0.00    -0.008 C 
HETATM    5  C5  UNL     1     -35.465 -37.657  58.127  1.00  0.00     0.005 C 
HETATM    6  C6  UNL     1     -35.786 -36.633  57.036  1.00  0.00     0.000 C 
HETATM    7  C7  UNL     1     -34.937 -36.837  55.829  1.00  0.00     0.000 C 
HETATM    8  C8  UNL     1     -34.879 -38.250  55.337  1.00  0.00     0.007 C 
HETATM    9  C9  UNL     1     -34.849 -39.280  56.400  1.00  0.00     0.018 C 
ENDROOT
BRANCH   1  10
HETATM   10  O1  UNL     1     -36.662 -40.301  55.336  1.00  0.00    -0.395 OA
ATOM     11  H1  UNL     1     -36.844 -39.375  55.446  1.00  0.00     0.210 HD
ENDBRANCH   1  10
TORSDOF 1
ENDMDL
MODEL 4
REMARK VINA RESULT: -4.459961672      1.486      2.442
REMARK  1 active torsions:
REMARK  status: ('A' for Active; 'I' for Inactive)
REMARK    1  A    between atoms: O1_1  and  C1_3 
ROOT
HETATM    1  C1  UNL     1     -34.999 -39.964  55.648  1.00  0.00     0.122 C 
HETATM    2  C2  UNL     1     -33.815 -39.060  55.965  1.00  0.00     0.032 C 
HETATM    3  C3  UNL     1     -33.749 -38.998  57.490  1.00  0.00     0.007 C 
HETATM    4  C4  UNL     1     -34.427 -40.258  57.852  1.00  0.00    -0.008 C 
HETATM    5  C5  UNL     1     -34.818 -40.466  59.251  1.00  0.00     0.005 C 
HETATM    6  C6  UNL     1     -35.493 -41.839  59.288  1.00  0.00     0.000 C 
HETATM    7  C7  UNL     1     -36.733 -41.860  58.464  1.00  0.00     0.000 C 
HETATM    8  C8  UNL     1     -36.576 -41.298  57.084  1.00  0.00     0.007 C 
HETATM    9  C9  UNL     1     -35.689 -40.118  56.988  1.00  0.00     0.018 C 
ENDROOT
BRANCH   1  10
HETATM   10  O1  UNL     1     -34.516 -41.248  55.312  1.00  0.00    -0.395 OA
ATOM     11  H1  UNL     1     -34.330 -41.272  54.381  1.00  0.00     0.210 HD
ENDBRANCH   1  10
TORSDOF 1
ENDMDL
MODEL 5
REMARK VINA RESULT: -4.439423638      1.352      3.212
REMARK  1 active torsions:
REMARK  status: ('A' for Active; 'I' for Inactive)
REMARK    1  A    between atoms: O1_1  and  C1_3 
ROOT
HETATM    1  C1  UNL     1     -35.578 -40.596  59.447  1.00  0.00     0.122 C 
HETATM    2  C2  UNL     1     -36.534 -41.741  59.141  1.00  0.00     0.032 C 
HETATM    3  C3  UNL     1     -36.710 -41.728  57.624  1.00  0.00     0.007 C 
HETATM    4  C4  UNL     1     -35.463 -41.062  57.202  1.00  0.00    -0.008 C 
HETATM    5  C5  UNL     1     -35.348 -40.606  55.812  1.00  0.00     0.005 C 
HETATM    6  C6  UNL     1     -33.963 -39.962  55.705  1.00  0.00     0.000 C 
HETATM    7  C7  UNL     1     -33.849 -38.766  56.586  1.00  0.00     0.000 C 
HETATM    8  C8  UNL     1     -34.312 -38.979  57.994  1.00  0.00     0.007 C 
HETATM    9  C9  UNL     1     -35.505 -39.843  58.134  1.00  0.00     0.018 C 
ENDROOT
BRANCH   1  10
HETATM   10  O1  UNL     1     -34.286 -41.125  59.662  1.00  0.00    -0.395 OA
ATOM     11  H1  UNL     1     -33.747 -40.936  58.902  1.00  0.00     0.210 HD
ENDBRANCH   1  10
TORSDOF 1
ENDMDL
