MODEL 1
REMARK VINA RESULT: -5.495928137      0.000      0.000
REMARK  2 active torsions:
REMARK  status: ('A' for Active; 'I' for Inactive)
REMARK    1  A    between atoms: N1_1  and  C1_5 
REMARK    2  A    between atoms: C5_9  and  C6_10 
ROOT
HETATM    1  C1  UNL     1     -35.573  36.796  56.193  1.00  0.00     0.188 C 
HETATM    2  C2  UNL     1     -36.916  37.097  56.876  1.00  0.00     0.033 C 
HETATM    3  C3  UNL     1     -37.172  35.824  57.619  1.00  0.00     0.002 C 
HETATM    4  C4  UNL     1     -36.781  34.771  56.605  1.00  0.00     0.007 C 
HETATM    5  C5  UNL     1     -35.810  35.434  55.649  1.00  0.00     0.020 C 
ENDROOT
BRANCH   5   6
HETATM    6  C6  UNL     1     -34.546  34.565  55.656  1.00  0.00    -0.008 C 
HETATM    7  C7  UNL     1     -33.302  35.381  55.478  1.00  0.00     0.005 C 
HETATM    8  C8  UNL     1     -32.899  35.567  54.040  1.00  0.00     0.000 C 
HETATM    9  C9  UNL     1     -32.610  34.168  53.551  1.00  0.00     0.000 C 
HETATM   10  C10 UNL     1     -33.872  33.393  53.513  1.00  0.00     0.000 C 
HETATM   11  C11 UNL     1     -34.719  33.437  54.729  1.00  0.00     0.005 C 
ENDBRANCH   5   6
BRANCH   1  12
HETATM   12  N1  UNL     1     -35.467  37.817  55.138  1.00  0.00    -0.075 N 
ATOM     13  H13 UNL     1     -35.952  38.689  55.350  1.00  0.00     0.274 HD
ATOM     14  H12 UNL     1     -34.537  38.227  55.045  1.00  0.00     0.274 HD
ATOM     15  H11 UNL     1     -35.802  37.345  54.298  1.00  0.00     0.274 HD
ENDBRANCH   1  12
TORSDOF 2
ENDMDL
MODEL 2
REMARK VINA RESULT: -5.417895622      1.491      2.442
REMARK  2 active torsions:
REMARK  status: ('A' for Active; 'I' for Inactive)
REMARK    1  A    between atoms: N1_1  and  C1_5 
REMARK    2  A    between atoms: C5_9  and  C6_10 
ROOT
HETATM    1  C1  UNL     1     -36.538  35.855  55.904  1.00  0.00     0.188 C 
HETATM    2  C2  UNL     1     -37.028  37.013  56.788  1.00  0.00     0.033 C 
HETATM    3  C3  UNL     1     -36.605  38.205  55.989  1.00  0.00     0.002 C 
HETATM    4  C4  UNL     1     -35.216  37.815  55.532  1.00  0.00     0.007 C 
HETATM    5  C5  UNL     1     -35.165  36.301  55.556  1.00  0.00     0.020 C 
ENDROOT
BRANCH   5   6
HETATM    6  C6  UNL     1     -34.740  35.867  54.147  1.00  0.00    -0.008 C 
HETATM    7  C7  UNL     1     -35.456  34.630  53.700  1.00  0.00     0.005 C 
HETATM    8  C8  UNL     1     -34.748  33.353  54.066  1.00  0.00     0.000 C 
HETATM    9  C9  UNL     1     -33.439  33.427  53.319  1.00  0.00     0.000 C 
HETATM   10  C10 UNL     1     -32.612  34.517  53.887  1.00  0.00     0.000 C 
HETATM   11  C11 UNL     1     -33.273  35.832  54.064  1.00  0.00     0.005 C 
ENDBRANCH   5   6
BRANCH   1  12
HETATM   12  N1  UNL     1     -36.545  34.688  56.801  1.00  0.00    -0.075 N 
ATOM     13  H13 UNL     1     -37.418  34.160  56.794  1.00  0.00     0.274 HD
ATOM     14  H12 UNL     1     -35.949  33.920  56.492  1.00  0.00     0.274 HD
ATOM     15  H11 UNL     1     -36.295  35.071  57.713  1.00  0.00     0.274 HD
ENDBRANCH   1  12
TORSDOF 2
ENDMDL
MODEL 3
REMARK VINA RESULT: -5.318314321      2.156      4.834
REMARK  2 active torsions:
REMARK  status: ('A' for Active; 'I' for Inactive)
REMARK    1  A    between atoms: N1_1  and  C1_5 
REMARK    2  A    between atoms: C5_9  and  C6_10 
ROOT
HETATM    1  C1  UNL     1     -35.543  35.585  55.032  1.00  0.00     0.188 C 
HETATM    2  C2  UNL     1     -34.998  36.952  54.591  1.00  0.00     0.033 C 
HETATM    3  C3  UNL     1     -35.129  37.753  55.848  1.00  0.00     0.002 C 
HETATM    4  C4  UNL     1     -36.492  37.338  56.357  1.00  0.00     0.007 C 
HETATM    5  C5  UNL     1     -36.777  35.974  55.762  1.00  0.00     0.020 C 
ENDROOT
BRANCH   5   6
HETATM    6  C6  UNL     1     -37.082  35.048  56.947  1.00  0.00    -0.008 C 
HETATM    7  C7  UNL     1     -38.046  33.962  56.577  1.00  0.00     0.005 C 
HETATM    8  C8  UNL     1     -39.489  34.336  56.784  1.00  0.00     0.000 C 
HETATM    9  C9  UNL     1     -39.603  34.572  58.271  1.00  0.00     0.000 C 
HETATM   10  C10 UNL     1     -38.824  35.778  58.636  1.00  0.00     0.000 C 
HETATM   11  C11 UNL     1     -37.434  35.854  58.124  1.00  0.00     0.005 C 
ENDBRANCH   5   6
BRANCH   1  12
HETATM   12  N1  UNL     1     -35.828  34.884  53.770  1.00  0.00    -0.075 N 
ATOM     13  H13 UNL     1     -35.014  34.441  53.344  1.00  0.00     0.274 HD
ATOM     14  H12 UNL     1     -36.375  34.030  53.880  1.00  0.00     0.274 HD
ATOM     15  H11 UNL     1     -36.273  35.592  53.185  1.00  0.00     0.274 HD
ENDBRANCH   1  12
TORSDOF 2
ENDMDL
MODEL 4
REMARK VINA RESULT: -5.309401694      3.909      5.250
REMARK  2 active torsions:
REMARK  status: ('A' for Active; 'I' for Inactive)
REMARK    1  A    between atoms: N1_1  and  C1_5 
REMARK    2  A    between atoms: C5_9  and  C6_10 
ROOT
HETATM    1  C1  UNL     1     -39.409  35.116  57.921  1.00  0.00     0.188 C 
HETATM    2  C2  UNL     1     -38.282  35.852  58.664  1.00  0.00     0.033 C 
HETATM    3  C3  UNL     1     -37.238  35.964  57.598  1.00  0.00     0.002 C 
HETATM    4  C4  UNL     1     -37.282  34.595  56.955  1.00  0.00     0.007 C 
HETATM    5  C5  UNL     1     -38.660  34.031  57.236  1.00  0.00     0.020 C 
ENDROOT
BRANCH   5   6
HETATM    6  C6  UNL     1     -39.258  33.668  55.871  1.00  0.00    -0.008 C 
HETATM    7  C7  UNL     1     -40.392  32.696  55.996  1.00  0.00     0.005 C 
HETATM    8  C8  UNL     1     -39.963  31.254  55.944  1.00  0.00     0.000 C 
HETATM    9  C9  UNL     1     -39.364  31.094  54.567  1.00  0.00     0.000 C 
HETATM   10  C10 UNL     1     -38.113  31.884  54.484  1.00  0.00     0.000 C 
HETATM   11  C11 UNL     1     -38.181  33.291  54.946  1.00  0.00     0.005 C 
ENDBRANCH   5   6
BRANCH   1  12
HETATM   12  N1  UNL     1     -40.281  34.613  58.994  1.00  0.00    -0.075 N 
ATOM     13  H13 UNL     1     -41.199  35.055  59.029  1.00  0.00     0.274 HD
ATOM     14  H12 UNL     1     -40.621  33.663  58.846  1.00  0.00     0.274 HD
ATOM     15  H11 UNL     1     -39.728  34.731  59.843  1.00  0.00     0.274 HD
ENDBRANCH   1  12
TORSDOF 2
ENDMDL
MODEL 5
REMARK VINA RESULT: -5.278626209      2.644      4.238
REMARK  2 active torsions:
REMARK  status: ('A' for Active; 'I' for Inactive)
REMARK    1  A    between atoms: N1_1  and  C1_5 
REMARK    2  A    between atoms: C5_9  and  C6_10 
ROOT
HETATM    1  C1  UNL     1     -33.394  34.357  54.231  1.00  0.00     0.188 C 
HETATM    2  C2  UNL     1     -33.477  35.881  54.050  1.00  0.00     0.033 C 
HETATM    3  C3  UNL     1     -34.894  36.158  54.443  1.00  0.00     0.002 C 
HETATM    4  C4  UNL     1     -35.644  35.029  53.769  1.00  0.00     0.007 C 
HETATM    5  C5  UNL     1     -34.646  33.906  53.571  1.00  0.00     0.020 C 
ENDROOT
BRANCH   5   6
HETATM    6  C6  UNL     1     -35.258  32.670  54.242  1.00  0.00    -0.008 C 
HETATM    7  C7  UNL     1     -35.505  31.564  53.262  1.00  0.00     0.005 C 
HETATM    8  C8  UNL     1     -36.865  31.614  52.620  1.00  0.00     0.000 C 
HETATM    9  C9  UNL     1     -37.826  31.438  53.770  1.00  0.00     0.000 C 
HETATM   10  C10 UNL     1     -37.758  32.628  54.651  1.00  0.00     0.000 C 
HETATM   11  C11 UNL     1     -36.406  33.074  55.065  1.00  0.00     0.005 C 
ENDBRANCH   5   6
BRANCH   1  12
HETATM   12  N1  UNL     1     -32.187  33.969  53.484  1.00  0.00    -0.075 N 
ATOM     13  H13 UNL     1     -31.638  34.756  53.138  1.00  0.00     0.274 HD
ATOM     14  H12 UNL     1     -31.450  33.565  54.061  1.00  0.00     0.274 HD
ATOM     15  H11 UNL     1     -32.534  33.348  52.752  1.00  0.00     0.274 HD
ENDBRANCH   1  12
TORSDOF 2
ENDMDL
