MODEL 1
REMARK VINA RESULT: -7.935101019      0.000      0.000
REMARK  5 active torsions:
REMARK  status: ('A' for Active; 'I' for Inactive)
REMARK    1  A    between atoms: C1_4  and  S1_6 
REMARK    2  A    between atoms: S1_6  and  C2_7 
REMARK    3  A    between atoms: C2_7  and  C3_9 
REMARK    4  A    between atoms: C3_9  and  C4_11 
REMARK    5  A    between atoms: C4_11  and  C5_13 
ROOT
HETATM    1  C4  UNL     1      30.799  -4.852  13.634  1.00  0.00     0.187 C 
HETATM    2  O2  UNL     1      31.184  -3.622  13.577  1.00  0.00    -0.290 OA
ENDROOT
BRANCH   1   3
HETATM    3  C3  UNL     1      29.394  -5.095  13.972  1.00  0.00     0.238 C 
HETATM    4 CL1  UNL     1      28.399  -3.758  13.245  1.00  0.00    -0.107 Cl
BRANCH   3   5
HETATM    5  C2  UNL     1      29.069  -5.068  15.411  1.00  0.00     0.219 C 
HETATM    6  O1  UNL     1      29.601  -5.805  16.184  1.00  0.00    -0.283 OA
BRANCH   5   7
HETATM    7  S1  UNL     1      27.851  -3.902  15.981  1.00  0.00    -0.018 SA
BRANCH   7   8
HETATM    8  C1  UNL     1      28.277  -3.192  17.562  1.00  0.00     0.155 C 
HETATM    9  N1  UNL     1      28.549  -1.942  17.608  1.00  0.00    -0.382 N 
ATOM     10  H12 UNL     1      28.792  -1.537  18.511  1.00  0.00     0.157 HD
ATOM     11  H11 UNL     1      28.460  -1.403  16.747  1.00  0.00     0.157 HD
HETATM   12  N2  UNL     1      28.400  -3.937  18.752  1.00  0.00    -0.075 NA
ENDBRANCH   7   8
ENDBRANCH   5   7
ENDBRANCH   3   5
ENDBRANCH   1   3
BRANCH   1  13
HETATM   13  C5  UNL     1      31.821  -5.833  13.354  1.00  0.00     0.035 A 
HETATM   14  C6  UNL     1      32.721  -6.180  14.328  1.00  0.00     0.042 A 
HETATM   15  C7  UNL     1      33.696  -7.128  14.101  1.00  0.00     0.056 A 
HETATM   16 CL2  UNL     1      34.831  -7.543  15.392  1.00  0.00    -0.083 Cl
HETATM   17  C8  UNL     1      33.806  -7.764  12.889  1.00  0.00     0.057 A 
HETATM   18 CL3  UNL     1      35.059  -8.981  12.616  1.00  0.00    -0.082 Cl
HETATM   19  C9  UNL     1      32.908  -7.426  11.900  1.00  0.00     0.050 A 
HETATM   20  C10 UNL     1      31.920  -6.461  12.141  1.00  0.00     0.049 A 
HETATM   21 CL4  UNL     1      30.797  -6.083  10.852  1.00  0.00    -0.083 Cl
ENDBRANCH   1  13
TORSDOF 5
ENDMDL
MODEL 2
REMARK VINA RESULT: -7.838018312      1.399      1.454
REMARK  5 active torsions:
REMARK  status: ('A' for Active; 'I' for Inactive)
REMARK    1  A    between atoms: C1_4  and  S1_6 
REMARK    2  A    between atoms: S1_6  and  C2_7 
REMARK    3  A    between atoms: C2_7  and  C3_9 
REMARK    4  A    between atoms: C3_9  and  C4_11 
REMARK    5  A    between atoms: C4_11  and  C5_13 
ROOT
HETATM    1  C4  UNL     1      30.191  -4.742  14.599  1.00  0.00     0.187 C 
HETATM    2  O2  UNL     1      30.398  -3.469  14.610  1.00  0.00    -0.290 OA
ENDROOT
BRANCH   1   3
HETATM    3  C3  UNL     1      28.930  -5.216  15.173  1.00  0.00     0.238 C 
HETATM    4 CL1  UNL     1      28.545  -6.833  14.435  1.00  0.00    -0.107 Cl
BRANCH   3   5
HETATM    5  C2  UNL     1      27.746  -4.382  14.891  1.00  0.00     0.219 C 
HETATM    6  O1  UNL     1      27.259  -4.337  13.803  1.00  0.00    -0.283 OA
BRANCH   5   7
HETATM    7  S1  UNL     1      27.049  -3.426  16.222  1.00  0.00    -0.018 SA
BRANCH   7   8
HETATM    8  C1  UNL     1      28.246  -3.056  17.493  1.00  0.00     0.155 C 
HETATM    9  N1  UNL     1      29.069  -2.098  17.284  1.00  0.00    -0.382 N 
ATOM     10  H12 UNL     1      29.753  -1.886  18.010  1.00  0.00     0.157 HD
ATOM     11  H11 UNL     1      28.967  -1.561  16.423  1.00  0.00     0.157 HD
HETATM   12  N2  UNL     1      28.386  -3.797  18.682  1.00  0.00    -0.075 NA
ENDBRANCH   7   8
ENDBRANCH   5   7
ENDBRANCH   3   5
ENDBRANCH   1   3
BRANCH   1  13
HETATM   13  C5  UNL     1      31.248  -5.535  14.015  1.00  0.00     0.035 A 
HETATM   14  C6  UNL     1      32.270  -5.999  14.803  1.00  0.00     0.042 A 
HETATM   15  C7  UNL     1      33.282  -6.776  14.282  1.00  0.00     0.056 A 
HETATM   16 CL2  UNL     1      34.576  -7.352  15.341  1.00  0.00    -0.083 Cl
HETATM   17  C8  UNL     1      33.310  -7.117  12.952  1.00  0.00     0.057 A 
HETATM   18 CL3  UNL     1      34.613  -8.118  12.302  1.00  0.00    -0.082 Cl
HETATM   19  C9  UNL     1      32.289  -6.659  12.148  1.00  0.00     0.050 A 
HETATM   20  C10 UNL     1      31.264  -5.870  12.687  1.00  0.00     0.049 A 
HETATM   21 CL4  UNL     1      29.985  -5.327  11.621  1.00  0.00    -0.083 Cl
ENDBRANCH   1  13
TORSDOF 5
ENDMDL
MODEL 3
REMARK VINA RESULT: -7.691070469      1.694      2.622
REMARK  5 active torsions:
REMARK  status: ('A' for Active; 'I' for Inactive)
REMARK    1  A    between atoms: C1_4  and  S1_6 
REMARK    2  A    between atoms: S1_6  and  C2_7 
REMARK    3  A    between atoms: C2_7  and  C3_9 
REMARK    4  A    between atoms: C3_9  and  C4_11 
REMARK    5  A    between atoms: C4_11  and  C5_13 
ROOT
HETATM    1  C4  UNL     1      29.990  -4.714  14.660  1.00  0.00     0.187 C 
HETATM    2  O2  UNL     1      30.131  -3.434  14.582  1.00  0.00    -0.290 OA
ENDROOT
BRANCH   1   3
HETATM    3  C3  UNL     1      28.730  -5.213  15.217  1.00  0.00     0.238 C 
HETATM    4 CL1  UNL     1      28.341  -6.794  14.408  1.00  0.00    -0.107 Cl
BRANCH   3   5
HETATM    5  C2  UNL     1      27.546  -4.365  14.977  1.00  0.00     0.219 C 
HETATM    6  O1  UNL     1      27.003  -4.339  13.916  1.00  0.00    -0.283 OA
BRANCH   5   7
HETATM    7  S1  UNL     1      26.936  -3.366  16.318  1.00  0.00    -0.018 SA
BRANCH   7   8
HETATM    8  C1  UNL     1      28.192  -3.029  17.541  1.00  0.00     0.155 C 
HETATM    9  N1  UNL     1      29.016  -2.077  17.311  1.00  0.00    -0.382 N 
ATOM     10  H12 UNL     1      29.733  -1.885  18.010  1.00  0.00     0.157 HD
ATOM     11  H11 UNL     1      28.883  -1.525  16.465  1.00  0.00     0.157 HD
HETATM   12  N2  UNL     1      28.376  -3.792  18.711  1.00  0.00    -0.075 NA
ENDBRANCH   7   8
ENDBRANCH   5   7
ENDBRANCH   3   5
ENDBRANCH   1   3
BRANCH   1  13
HETATM   13  C5  UNL     1      31.111  -5.490  14.183  1.00  0.00     0.035 A 
HETATM   14  C6  UNL     1      31.169  -5.871  12.867  1.00  0.00     0.042 A 
HETATM   15  C7  UNL     1      32.234  -6.593  12.373  1.00  0.00     0.056 A 
HETATM   16 CL2  UNL     1      32.262  -7.056  10.667  1.00  0.00    -0.083 Cl
HETATM   17  C8  UNL     1      33.282  -6.961  13.180  1.00  0.00     0.057 A 
HETATM   18 CL3  UNL     1      34.644  -7.883  12.530  1.00  0.00    -0.082 Cl
HETATM   19  C9  UNL     1      33.239  -6.585  14.505  1.00  0.00     0.050 A 
HETATM   20  C10 UNL     1      32.152  -5.851  14.997  1.00  0.00     0.049 A 
HETATM   21 CL4  UNL     1      32.157  -5.388  16.686  1.00  0.00    -0.083 Cl
ENDBRANCH   1  13
TORSDOF 5
ENDMDL
MODEL 4
REMARK VINA RESULT: -7.648286628      2.161      3.085
REMARK  5 active torsions:
REMARK  status: ('A' for Active; 'I' for Inactive)
REMARK    1  A    between atoms: C1_4  and  S1_6 
REMARK    2  A    between atoms: S1_6  and  C2_7 
REMARK    3  A    between atoms: C2_7  and  C3_9 
REMARK    4  A    between atoms: C3_9  and  C4_11 
REMARK    5  A    between atoms: C4_11  and  C5_13 
ROOT
HETATM    1  C4  UNL     1      29.616  -4.893  14.844  1.00  0.00     0.187 C 
HETATM    2  O2  UNL     1      28.753  -5.653  15.428  1.00  0.00    -0.290 OA
ENDROOT
BRANCH   1   3
HETATM    3  C3  UNL     1      29.264  -3.479  14.693  1.00  0.00     0.238 C 
HETATM    4 CL1  UNL     1      30.755  -2.576  14.178  1.00  0.00    -0.107 Cl
BRANCH   3   5
HETATM    5  C2  UNL     1      28.816  -2.797  15.923  1.00  0.00     0.219 C 
HETATM    6  O1  UNL     1      29.591  -2.451  16.761  1.00  0.00    -0.283 OA
BRANCH   5   7
HETATM    7  S1  UNL     1      27.074  -2.499  16.138  1.00  0.00    -0.018 SA
BRANCH   7   8
HETATM    8  C1  UNL     1      26.175  -3.986  16.545  1.00  0.00     0.155 C 
HETATM    9  N1  UNL     1      25.805  -4.747  15.586  1.00  0.00    -0.382 N 
ATOM     10  H12 UNL     1      25.291  -5.596  15.818  1.00  0.00     0.157 HD
ATOM     11  H11 UNL     1      26.086  -4.492  14.639  1.00  0.00     0.157 HD
HETATM   12  N2  UNL     1      25.787  -4.337  17.853  1.00  0.00    -0.075 NA
ENDBRANCH   7   8
ENDBRANCH   5   7
ENDBRANCH   3   5
ENDBRANCH   1   3
BRANCH   1  13
HETATM   13  C5  UNL     1      30.827  -5.551  14.412  1.00  0.00     0.035 A 
HETATM   14  C6  UNL     1      30.949  -5.978  13.115  1.00  0.00     0.042 A 
HETATM   15  C7  UNL     1      32.098  -6.591  12.665  1.00  0.00     0.056 A 
HETATM   16 CL2  UNL     1      32.207  -7.120  10.981  1.00  0.00    -0.083 Cl
HETATM   17  C8  UNL     1      33.170  -6.799  13.498  1.00  0.00     0.057 A 
HETATM   18 CL3  UNL     1      34.639  -7.582  12.904  1.00  0.00    -0.082 Cl
HETATM   19  C9  UNL     1      33.063  -6.375  14.805  1.00  0.00     0.050 A 
HETATM   20  C10 UNL     1      31.890  -5.753  15.253  1.00  0.00     0.049 A 
HETATM   21 CL4  UNL     1      31.815  -5.222  16.920  1.00  0.00    -0.083 Cl
ENDBRANCH   1  13
TORSDOF 5
ENDMDL
MODEL 5
REMARK VINA RESULT: -7.614107192      1.264      1.264
REMARK  5 active torsions:
REMARK  status: ('A' for Active; 'I' for Inactive)
REMARK    1  A    between atoms: C1_4  and  S1_6 
REMARK    2  A    between atoms: S1_6  and  C2_7 
REMARK    3  A    between atoms: C2_7  and  C3_9 
REMARK    4  A    between atoms: C3_9  and  C4_11 
REMARK    5  A    between atoms: C4_11  and  C5_13 
ROOT
HETATM    1  C4  UNL     1      30.180  -4.901  13.559  1.00  0.00     0.187 C 
HETATM    2  O2  UNL     1      30.378  -3.629  13.467  1.00  0.00    -0.290 OA
ENDROOT
BRANCH   1   3
HETATM    3  C3  UNL     1      28.835  -5.339  13.940  1.00  0.00     0.238 C 
HETATM    4 CL1  UNL     1      27.679  -4.813  12.639  1.00  0.00    -0.107 Cl
BRANCH   3   5
HETATM    5  C2  UNL     1      28.299  -4.749  15.182  1.00  0.00     0.219 C 
HETATM    6  O1  UNL     1      28.897  -4.815  16.212  1.00  0.00    -0.283 OA
BRANCH   5   7
HETATM    7  S1  UNL     1      26.720  -3.929  15.116  1.00  0.00    -0.018 SA
BRANCH   7   8
HETATM    8  C1  UNL     1      26.106  -3.504  16.737  1.00  0.00     0.155 C 
HETATM    9  N1  UNL     1      25.930  -2.266  17.009  1.00  0.00    -0.382 N 
ATOM     10  H12 UNL     1      25.580  -2.024  17.935  1.00  0.00     0.157 HD
ATOM     11  H11 UNL     1      26.102  -1.587  16.268  1.00  0.00     0.157 HD
HETATM   12  N2  UNL     1      25.869  -4.444  17.760  1.00  0.00    -0.075 NA
ENDBRANCH   7   8
ENDBRANCH   5   7
ENDBRANCH   3   5
ENDBRANCH   1   3
BRANCH   1  13
HETATM   13  C5  UNL     1      31.328  -5.727  13.271  1.00  0.00     0.035 A 
HETATM   14  C6  UNL     1      32.227  -6.020  14.264  1.00  0.00     0.042 A 
HETATM   15  C7  UNL     1      33.322  -6.823  14.029  1.00  0.00     0.056 A 
HETATM   16 CL2  UNL     1      34.449  -7.175  15.345  1.00  0.00    -0.083 Cl
HETATM   17  C8  UNL     1      33.559  -7.363  12.789  1.00  0.00     0.057 A 
HETATM   18 CL3  UNL     1      34.966  -8.395  12.505  1.00  0.00    -0.082 Cl
HETATM   19  C9  UNL     1      32.665  -7.078  11.780  1.00  0.00     0.050 A 
HETATM   20  C10 UNL     1      31.554  -6.260  12.029  1.00  0.00     0.049 A 
HETATM   21 CL4  UNL     1      30.443  -5.943  10.714  1.00  0.00    -0.083 Cl
ENDBRANCH   1  13
TORSDOF 5
ENDMDL
