MODEL 1
REMARK VINA RESULT: -6.409451912      0.000      0.000
REMARK  13 active torsions:
REMARK  status: ('A' for Active; 'I' for Inactive)
REMARK    1  A    between atoms: C2_2  and  C3_4 
REMARK    2  A    between atoms: C3_4  and  N1_5 
REMARK    3  A    between atoms: N1_5  and  C4_6 
REMARK    4  A    between atoms: N1_5  and  C6_12 
REMARK    5  A    between atoms: C4_6  and  C5_7 
REMARK    6  A    between atoms: C5_7  and  O2_8 
REMARK    7  A    between atoms: O2_8  and  N2_9 
REMARK    8  A    between atoms: C6_12  and  C7_13 
REMARK    9  A    between atoms: C7_13  and  N3_14 
REMARK   10  A    between atoms: N3_14  and  C9_16 
REMARK   11  A    between atoms: C9_16  and  C10_17 
REMARK   12  A    between atoms: C12_22  and  N5_23 
REMARK       I    between atoms: N5_23  and  C13_25 
REMARK   13  A    between atoms: C16_29  and  O7_30 
ROOT
HETATM    1  C9  UNL     1     -28.714  12.737 -14.820  1.00  0.00     0.092 C 
ENDROOT
BRANCH   1   2
HETATM    2  N3  UNL     1     -27.707  12.194 -13.927  1.00  0.00    -0.290 NA
HETATM    3  C8  UNL     1     -27.988  12.621 -12.545  1.00  0.00     0.116 C 
BRANCH   2   4
HETATM    4  C7  UNL     1     -27.803  10.732 -13.977  1.00  0.00     0.139 C 
BRANCH   4   5
HETATM    5  C6  UNL     1     -26.436  10.065 -13.886  1.00  0.00     0.078 C 
BRANCH   5   6
HETATM    6  N1  UNL     1     -26.501   9.008 -12.992  1.00  0.00    -0.364 N 
BRANCH   6   7
HETATM    7  C3  UNL     1     -27.784   8.889 -12.362  1.00  0.00     0.205 C 
BRANCH   7   8
HETATM    8  C2  UNL     1     -28.560   7.686 -12.696  1.00  0.00     0.141 C 
HETATM    9  C1  UNL     1     -29.679   7.321 -11.792  1.00  0.00     0.092 C 
HETATM   10  O1  UNL     1     -28.309   7.014 -13.659  1.00  0.00    -0.297 OA
ENDBRANCH   7   8
ENDBRANCH   6   7
BRANCH   6  11
HETATM   11  C4  UNL     1     -25.486   8.575 -12.169  1.00  0.00     0.092 C 
BRANCH  11  12
HETATM   12  C5  UNL     1     -24.668   7.375 -12.526  1.00  0.00     0.252 C 
BRANCH  12  13
HETATM   13  O2  UNL     1     -25.217   6.267 -11.848  1.00  0.00    -0.216 OA
BRANCH  13  14
HETATM   14  N2  UNL     1     -25.033   5.999 -10.527  1.00  0.00     0.005 N 
HETATM   15  O3  UNL     1     -25.959   5.504  -9.871  1.00  0.00    -0.511 OA
HETATM   16  O4  UNL     1     -23.826   6.282  -9.953  1.00  0.00    -0.511 OA
ENDBRANCH  13  14
ENDBRANCH  12  13
ENDBRANCH  11  12
ENDBRANCH   6  11
ENDBRANCH   5   6
ENDBRANCH   4   5
ENDBRANCH   2   4
ENDBRANCH   1   2
BRANCH   1  17
HETATM   17  C10 UNL     1     -28.302  13.091 -16.155  1.00  0.00     0.079 A 
HETATM   18  N4  UNL     1     -28.904  12.670 -17.271  1.00  0.00    -0.319 N 
HETATM   19  C11 UNL     1     -28.516  13.037 -18.501  1.00  0.00     0.273 A 
ATOM     20  H4  UNL     1     -29.699  12.038 -17.182  1.00  0.00     0.169 HD
HETATM   21  O5  UNL     1     -29.138  12.593 -19.496  1.00  0.00    -0.266 OA
HETATM   22  C12 UNL     1     -27.426  13.906 -18.681  1.00  0.00     0.106 A 
HETATM   23  C15 UNL     1     -26.793  14.349 -17.546  1.00  0.00     0.074 A 
HETATM   24  C16 UNL     1     -27.206  13.962 -16.274  1.00  0.00     0.095 A 
BRANCH  22  25
HETATM   25  N5  UNL     1     -27.093  14.246 -19.995  1.00  0.00    -0.323 N 
HETATM   26  C13 UNL     1     -26.177  13.579 -20.816  1.00  0.00     0.218 C 
HETATM   27  C14 UNL     1     -25.913  14.059 -22.218  1.00  0.00     0.117 C 
HETATM   28  O6  UNL     1     -25.541  12.573 -20.460  1.00  0.00    -0.274 OA
ATOM     29  H5  UNL     1     -27.563  15.059 -20.393  1.00  0.00     0.169 HD
ENDBRANCH  22  25
BRANCH  24  30
HETATM   30  O7  UNL     1     -26.555  14.420 -15.163  1.00  0.00    -0.358 OA
ATOM     31  H7  UNL     1     -25.791  14.977 -15.245  1.00  0.00     0.217 HD
ENDBRANCH  24  30
ENDBRANCH   1  17
TORSDOF 13
ENDMDL
MODEL 2
REMARK VINA RESULT: -6.343201633      1.496      2.207
REMARK  13 active torsions:
REMARK  status: ('A' for Active; 'I' for Inactive)
REMARK    1  A    between atoms: C2_2  and  C3_4 
REMARK    2  A    between atoms: C3_4  and  N1_5 
REMARK    3  A    between atoms: N1_5  and  C4_6 
REMARK    4  A    between atoms: N1_5  and  C6_12 
REMARK    5  A    between atoms: C4_6  and  C5_7 
REMARK    6  A    between atoms: C5_7  and  O2_8 
REMARK    7  A    between atoms: O2_8  and  N2_9 
REMARK    8  A    between atoms: C6_12  and  C7_13 
REMARK    9  A    between atoms: C7_13  and  N3_14 
REMARK   10  A    between atoms: N3_14  and  C9_16 
REMARK   11  A    between atoms: C9_16  and  C10_17 
REMARK   12  A    between atoms: C12_22  and  N5_23 
REMARK       I    between atoms: N5_23  and  C13_25 
REMARK   13  A    between atoms: C16_29  and  O7_30 
ROOT
HETATM    1  C9  UNL     1     -29.603  12.655 -15.021  1.00  0.00     0.092 C 
ENDROOT
BRANCH   1   2
HETATM    2  N3  UNL     1     -28.897  11.859 -14.034  1.00  0.00    -0.290 NA
HETATM    3  C8  UNL     1     -29.314  12.265 -12.680  1.00  0.00     0.116 C 
BRANCH   2   4
HETATM    4  C7  UNL     1     -29.285  10.458 -14.226  1.00  0.00     0.139 C 
BRANCH   4   5
HETATM    5  C6  UNL     1     -29.694   9.794 -12.917  1.00  0.00     0.078 C 
BRANCH   5   6
HETATM    6  N1  UNL     1     -28.844   8.730 -12.658  1.00  0.00    -0.364 N 
BRANCH   6   7
HETATM    7  C3  UNL     1     -27.767   8.635 -13.602  1.00  0.00     0.205 C 
BRANCH   7   8
HETATM    8  C2  UNL     1     -26.421   8.909 -13.078  1.00  0.00     0.141 C 
HETATM    9  C1  UNL     1     -25.497   7.758 -12.930  1.00  0.00     0.092 C 
HETATM   10  O1  UNL     1     -26.070  10.018 -12.778  1.00  0.00    -0.297 OA
ENDBRANCH   7   8
ENDBRANCH   6   7
BRANCH   6  11
HETATM   11  C4  UNL     1     -29.210   7.494 -12.175  1.00  0.00     0.092 C 
BRANCH  11  12
HETATM   12  C5  UNL     1     -29.049   7.157 -10.727  1.00  0.00     0.252 C 
BRANCH  12  13
HETATM   13  O2  UNL     1     -27.763   6.601 -10.559  1.00  0.00    -0.216 OA
BRANCH  13  14
HETATM   14  N2  UNL     1     -27.262   6.158  -9.376  1.00  0.00     0.005 N 
HETATM   15  O3  UNL     1     -27.123   4.941  -9.190  1.00  0.00    -0.511 OA
HETATM   16  O4  UNL     1     -26.919   7.067  -8.416  1.00  0.00    -0.511 OA
ENDBRANCH  13  14
ENDBRANCH  12  13
ENDBRANCH  11  12
ENDBRANCH   6  11
ENDBRANCH   5   6
ENDBRANCH   4   5
ENDBRANCH   2   4
ENDBRANCH   1   2
BRANCH   1  17
HETATM   17  C10 UNL     1     -28.926  12.936 -16.261  1.00  0.00     0.079 A 
HETATM   18  N4  UNL     1     -29.401  12.631 -17.471  1.00  0.00    -0.319 N 
HETATM   19  C11 UNL     1     -28.761  12.928 -18.612  1.00  0.00     0.273 A 
ATOM     20  H4  UNL     1     -30.296  12.146 -17.531  1.00  0.00     0.169 HD
HETATM   21  O5  UNL     1     -29.280  12.603 -19.707  1.00  0.00    -0.266 OA
HETATM   22  C12 UNL     1     -27.524  13.595 -18.589  1.00  0.00     0.106 A 
HETATM   23  C15 UNL     1     -27.018  13.917 -17.354  1.00  0.00     0.074 A 
HETATM   24  C16 UNL     1     -27.692  13.603 -16.177  1.00  0.00     0.095 A 
BRANCH  22  25
HETATM   25  N5  UNL     1     -26.929  13.877 -19.821  1.00  0.00    -0.323 N 
HETATM   26  C13 UNL     1     -26.032  13.055 -20.514  1.00  0.00     0.218 C 
HETATM   27  C14 UNL     1     -25.464  13.488 -21.839  1.00  0.00     0.117 C 
HETATM   28  O6  UNL     1     -25.658  11.945 -20.101  1.00  0.00    -0.274 OA
ATOM     29  H5  UNL     1     -27.171  14.767 -20.257  1.00  0.00     0.169 HD
ENDBRANCH  22  25
BRANCH  24  30
HETATM   30  O7  UNL     1     -27.161  13.938 -14.962  1.00  0.00    -0.358 OA
ATOM     31  H7  UNL     1     -26.331  13.574 -14.680  1.00  0.00     0.217 HD
ENDBRANCH  24  30
ENDBRANCH   1  17
TORSDOF 13
ENDMDL
MODEL 3
REMARK VINA RESULT: -6.316357578      1.271      2.384
REMARK  13 active torsions:
REMARK  status: ('A' for Active; 'I' for Inactive)
REMARK    1  A    between atoms: C2_2  and  C3_4 
REMARK    2  A    between atoms: C3_4  and  N1_5 
REMARK    3  A    between atoms: N1_5  and  C4_6 
REMARK    4  A    between atoms: N1_5  and  C6_12 
REMARK    5  A    between atoms: C4_6  and  C5_7 
REMARK    6  A    between atoms: C5_7  and  O2_8 
REMARK    7  A    between atoms: O2_8  and  N2_9 
REMARK    8  A    between atoms: C6_12  and  C7_13 
REMARK    9  A    between atoms: C7_13  and  N3_14 
REMARK   10  A    between atoms: N3_14  and  C9_16 
REMARK   11  A    between atoms: C9_16  and  C10_17 
REMARK   12  A    between atoms: C12_22  and  N5_23 
REMARK       I    between atoms: N5_23  and  C13_25 
REMARK   13  A    between atoms: C16_29  and  O7_30 
ROOT
HETATM    1  C9  UNL     1     -28.762  12.696 -14.820  1.00  0.00     0.092 C 
ENDROOT
BRANCH   1   2
HETATM    2  N3  UNL     1     -27.737  12.217 -13.911  1.00  0.00    -0.290 NA
HETATM    3  C8  UNL     1     -28.068  12.624 -12.533  1.00  0.00     0.116 C 
BRANCH   2   4
HETATM    4  C7  UNL     1     -27.738  10.753 -13.963  1.00  0.00     0.139 C 
BRANCH   4   5
HETATM    5  C6  UNL     1     -26.705  10.146 -13.021  1.00  0.00     0.078 C 
BRANCH   5   6
HETATM    6  N1  UNL     1     -26.797   8.764 -13.068  1.00  0.00    -0.364 N 
BRANCH   6   7
HETATM    7  C3  UNL     1     -25.580   8.139 -13.501  1.00  0.00     0.205 C 
BRANCH   7   8
HETATM    8  C2  UNL     1     -24.809   7.435 -12.466  1.00  0.00     0.141 C 
HETATM    9  C1  UNL     1     -23.680   8.166 -11.839  1.00  0.00     0.092 C 
HETATM   10  O1  UNL     1     -25.072   6.312 -12.131  1.00  0.00    -0.297 OA
ENDBRANCH   7   8
ENDBRANCH   6   7
BRANCH   6  11
HETATM   11  C4  UNL     1     -27.904   8.034 -13.435  1.00  0.00     0.092 C 
BRANCH  11  12
HETATM   12  C5  UNL     1     -28.834   7.478 -12.404  1.00  0.00     0.252 C 
BRANCH  12  13
HETATM   13  O2  UNL     1     -28.078   7.226 -11.240  1.00  0.00    -0.216 OA
BRANCH  13  14
HETATM   14  N2  UNL     1     -28.537   6.552 -10.152  1.00  0.00     0.005 N 
HETATM   15  O3  UNL     1     -27.772   5.799  -9.534  1.00  0.00    -0.511 OA
HETATM   16  O4  UNL     1     -29.835   6.722  -9.761  1.00  0.00    -0.511 OA
ENDBRANCH  13  14
ENDBRANCH  12  13
ENDBRANCH  11  12
ENDBRANCH   6  11
ENDBRANCH   5   6
ENDBRANCH   4   5
ENDBRANCH   2   4
ENDBRANCH   1   2
BRANCH   1  17
HETATM   17  C10 UNL     1     -28.354  13.067 -16.151  1.00  0.00     0.079 A 
HETATM   18  N4  UNL     1     -28.942  12.642 -17.272  1.00  0.00    -0.319 N 
HETATM   19  C11 UNL     1     -28.559  13.025 -18.498  1.00  0.00     0.273 A 
ATOM     20  H4  UNL     1     -29.724  11.992 -17.190  1.00  0.00     0.169 HD
HETATM   21  O5  UNL     1     -29.168  12.575 -19.499  1.00  0.00    -0.266 OA
HETATM   22  C12 UNL     1     -27.487  13.919 -18.669  1.00  0.00     0.106 A 
HETATM   23  C15 UNL     1     -26.868  14.369 -17.528  1.00  0.00     0.074 A 
HETATM   24  C16 UNL     1     -27.277  13.963 -16.261  1.00  0.00     0.095 A 
BRANCH  22  25
HETATM   25  N5  UNL     1     -27.158  14.277 -19.979  1.00  0.00    -0.323 N 
HETATM   26  C13 UNL     1     -26.227  13.633 -20.802  1.00  0.00     0.218 C 
HETATM   27  C14 UNL     1     -25.969  14.130 -22.200  1.00  0.00     0.117 C 
HETATM   28  O6  UNL     1     -25.573  12.637 -20.452  1.00  0.00    -0.274 OA
ATOM     29  H5  UNL     1     -27.642  15.083 -20.372  1.00  0.00     0.169 HD
ENDBRANCH  22  25
BRANCH  24  30
HETATM   30  O7  UNL     1     -26.640  14.428 -15.143  1.00  0.00    -0.358 OA
ATOM     31  H7  UNL     1     -26.620  15.357 -14.949  1.00  0.00     0.217 HD
ENDBRANCH  24  30
ENDBRANCH   1  17
TORSDOF 13
ENDMDL
MODEL 4
REMARK VINA RESULT: -6.312554029      2.523      9.401
REMARK  13 active torsions:
REMARK  status: ('A' for Active; 'I' for Inactive)
REMARK    1  A    between atoms: C2_2  and  C3_4 
REMARK    2  A    between atoms: C3_4  and  N1_5 
REMARK    3  A    between atoms: N1_5  and  C4_6 
REMARK    4  A    between atoms: N1_5  and  C6_12 
REMARK    5  A    between atoms: C4_6  and  C5_7 
REMARK    6  A    between atoms: C5_7  and  O2_8 
REMARK    7  A    between atoms: O2_8  and  N2_9 
REMARK    8  A    between atoms: C6_12  and  C7_13 
REMARK    9  A    between atoms: C7_13  and  N3_14 
REMARK   10  A    between atoms: N3_14  and  C9_16 
REMARK   11  A    between atoms: C9_16  and  C10_17 
REMARK   12  A    between atoms: C12_22  and  N5_23 
REMARK       I    between atoms: N5_23  and  C13_25 
REMARK   13  A    between atoms: C16_29  and  O7_30 
ROOT
HETATM    1  C9  UNL     1     -28.880  12.423 -14.765  1.00  0.00     0.092 C 
ENDROOT
BRANCH   1   2
HETATM    2  N3  UNL     1     -29.407  12.495 -16.116  1.00  0.00    -0.290 NA
HETATM    3  C8  UNL     1     -30.668  13.258 -16.115  1.00  0.00     0.116 C 
BRANCH   2   4
HETATM    4  C7  UNL     1     -28.437  13.224 -16.938  1.00  0.00     0.139 C 
BRANCH   4   5
HETATM    5  C6  UNL     1     -28.854  13.276 -18.403  1.00  0.00     0.078 C 
BRANCH   5   6
HETATM    6  N1  UNL     1     -28.518  14.512 -18.932  1.00  0.00    -0.364 N 
BRANCH   6   7
HETATM    7  C3  UNL     1     -27.187  14.546 -19.468  1.00  0.00     0.205 C 
BRANCH   7   8
HETATM    8  C2  UNL     1     -26.983  13.835 -20.738  1.00  0.00     0.141 C 
HETATM    9  C1  UNL     1     -25.905  12.817 -20.787  1.00  0.00     0.092 C 
HETATM   10  O1  UNL     1     -27.656  14.059 -21.708  1.00  0.00    -0.297 OA
ENDBRANCH   7   8
ENDBRANCH   6   7
BRANCH   6  11
HETATM   11  C4  UNL     1     -28.901  15.739 -18.441  1.00  0.00     0.092 C 
BRANCH  11  12
HETATM   12  C5  UNL     1     -29.214  16.873 -19.365  1.00  0.00     0.252 C 
BRANCH  12  13
HETATM   13  O2  UNL     1     -30.561  16.738 -19.763  1.00  0.00    -0.216 OA
BRANCH  13  14
HETATM   14  N2  UNL     1     -31.566  16.307 -18.956  1.00  0.00     0.005 N 
HETATM   15  O3  UNL     1     -31.932  17.016 -18.008  1.00  0.00    -0.511 OA
HETATM   16  O4  UNL     1     -32.154  15.101 -19.210  1.00  0.00    -0.511 OA
ENDBRANCH  13  14
ENDBRANCH  12  13
ENDBRANCH  11  12
ENDBRANCH   6  11
ENDBRANCH   5   6
ENDBRANCH   4   5
ENDBRANCH   2   4
ENDBRANCH   1   2
BRANCH   1  17
HETATM   17  C10 UNL     1     -28.129  11.248 -14.402  1.00  0.00     0.079 A 
HETATM   18  N4  UNL     1     -26.796  11.166 -14.408  1.00  0.00    -0.319 N 
HETATM   19  C11 UNL     1     -26.122  10.068 -14.040  1.00  0.00     0.273 A 
ATOM     20  H4  UNL     1     -26.264  11.983 -14.709  1.00  0.00     0.169 HD
HETATM   21  O5  UNL     1     -24.868  10.078 -14.077  1.00  0.00    -0.266 OA
HETATM   22  C12 UNL     1     -26.805   8.914 -13.618  1.00  0.00     0.106 A 
HETATM   23  C15 UNL     1     -28.177   8.977 -13.604  1.00  0.00     0.074 A 
HETATM   24  C16 UNL     1     -28.865  10.124 -13.989  1.00  0.00     0.095 A 
BRANCH  22  25
HETATM   25  N5  UNL     1     -26.028   7.816 -13.240  1.00  0.00    -0.323 N 
HETATM   26  C13 UNL     1     -25.581   7.524 -11.946  1.00  0.00     0.218 C 
HETATM   27  C14 UNL     1     -24.745   6.301 -11.682  1.00  0.00     0.117 C 
HETATM   28  O6  UNL     1     -25.839   8.228 -10.955  1.00  0.00    -0.274 OA
ATOM     29  H5  UNL     1     -25.761   7.165 -13.978  1.00  0.00     0.169 HD
ENDBRANCH  22  25
BRANCH  24  30
HETATM   30  O7  UNL     1     -30.232  10.155 -13.966  1.00  0.00    -0.358 OA
ATOM     31  H7  UNL     1     -30.708   9.934 -13.174  1.00  0.00     0.217 HD
ENDBRANCH  24  30
ENDBRANCH   1  17
TORSDOF 13
ENDMDL
MODEL 5
REMARK VINA RESULT: -6.309627310      1.399      1.582
REMARK  13 active torsions:
REMARK  status: ('A' for Active; 'I' for Inactive)
REMARK    1  A    between atoms: C2_2  and  C3_4 
REMARK    2  A    between atoms: C3_4  and  N1_5 
REMARK    3  A    between atoms: N1_5  and  C4_6 
REMARK    4  A    between atoms: N1_5  and  C6_12 
REMARK    5  A    between atoms: C4_6  and  C5_7 
REMARK    6  A    between atoms: C5_7  and  O2_8 
REMARK    7  A    between atoms: O2_8  and  N2_9 
REMARK    8  A    between atoms: C6_12  and  C7_13 
REMARK    9  A    between atoms: C7_13  and  N3_14 
REMARK   10  A    between atoms: N3_14  and  C9_16 
REMARK   11  A    between atoms: C9_16  and  C10_17 
REMARK   12  A    between atoms: C12_22  and  N5_23 
REMARK       I    between atoms: N5_23  and  C13_25 
REMARK   13  A    between atoms: C16_29  and  O7_30 
ROOT
HETATM    1  C9  UNL     1     -29.053  12.656 -15.009  1.00  0.00     0.092 C 
ENDROOT
BRANCH   1   2
HETATM    2  N3  UNL     1     -28.243  11.781 -14.182  1.00  0.00    -0.290 NA
HETATM    3  C8  UNL     1     -28.088  12.372 -12.841  1.00  0.00     0.116 C 
BRANCH   2   4
HETATM    4  C7  UNL     1     -28.958  10.510 -14.037  1.00  0.00     0.139 C 
BRANCH   4   5
HETATM    5  C6  UNL     1     -28.012   9.353 -13.739  1.00  0.00     0.078 C 
BRANCH   5   6
HETATM    6  N1  UNL     1     -28.208   8.926 -12.435  1.00  0.00    -0.364 N 
BRANCH   6   7
HETATM    7  C3  UNL     1     -29.529   9.208 -11.949  1.00  0.00     0.205 C 
BRANCH   7   8
HETATM    8  C2  UNL     1     -30.287   8.060 -11.433  1.00  0.00     0.141 C 
HETATM    9  C1  UNL     1     -31.122   8.279 -10.226  1.00  0.00     0.092 C 
HETATM   10  O1  UNL     1     -30.243   6.980 -11.957  1.00  0.00    -0.297 OA
ENDBRANCH   7   8
ENDBRANCH   6   7
BRANCH   6  11
HETATM   11  C4  UNL     1     -27.277   8.946 -11.423  1.00  0.00     0.092 C 
BRANCH  11  12
HETATM   12  C5  UNL     1     -26.396   7.764 -11.165  1.00  0.00     0.252 C 
BRANCH  12  13
HETATM   13  O2  UNL     1     -27.228   6.680 -10.818  1.00  0.00    -0.216 OA
BRANCH  13  14
HETATM   14  N2  UNL     1     -27.460   6.260  -9.546  1.00  0.00     0.005 N 
HETATM   15  O3  UNL     1     -28.143   6.962  -8.788  1.00  0.00    -0.511 OA
HETATM   16  O4  UNL     1     -26.936   5.069  -9.132  1.00  0.00    -0.511 OA
ENDBRANCH  13  14
ENDBRANCH  12  13
ENDBRANCH  11  12
ENDBRANCH   6  11
ENDBRANCH   5   6
ENDBRANCH   4   5
ENDBRANCH   2   4
ENDBRANCH   1   2
BRANCH   1  17
HETATM   17  C10 UNL     1     -28.535  13.022 -16.303  1.00  0.00     0.079 A 
HETATM   18  N4  UNL     1     -29.078  12.659 -17.468  1.00  0.00    -0.319 N 
HETATM   19  C11 UNL     1     -28.590  13.036 -18.659  1.00  0.00     0.273 A 
ATOM     20  H4  UNL     1     -29.907  12.065 -17.451  1.00  0.00     0.169 HD
HETATM   21  O5  UNL     1     -29.163  12.649 -19.706  1.00  0.00    -0.266 OA
HETATM   22  C12 UNL     1     -27.449  13.854 -18.742  1.00  0.00     0.106 A 
HETATM   23  C15 UNL     1     -26.876  14.237 -17.554  1.00  0.00     0.074 A 
HETATM   24  C16 UNL     1     -27.393  13.840 -16.324  1.00  0.00     0.095 A 
BRANCH  22  25
HETATM   25  N5  UNL     1     -27.012  14.210 -20.020  1.00  0.00    -0.323 N 
HETATM   26  C13 UNL     1     -26.080  13.515 -20.798  1.00  0.00     0.218 C 
HETATM   27  C14 UNL     1     -25.697  14.017 -22.165  1.00  0.00     0.117 C 
HETATM   28  O6  UNL     1     -25.524  12.467 -20.431  1.00  0.00    -0.274 OA
ATOM     29  H5  UNL     1     -27.410  15.058 -20.424  1.00  0.00     0.169 HD
ENDBRANCH  22  25
BRANCH  24  30
HETATM   30  O7  UNL     1     -26.798  14.238 -15.159  1.00  0.00    -0.358 OA
ATOM     31  H7  UNL     1     -25.986  14.729 -15.173  1.00  0.00     0.217 HD
ENDBRANCH  24  30
ENDBRANCH   1  17
TORSDOF 13
ENDMDL
