MODEL 1
REMARK VINA RESULT: -8.552449562      0.000      0.000
REMARK  10 active torsions:
REMARK  status: ('A' for Active; 'I' for Inactive)
REMARK    1  A    between atoms: C6_6  and  O1_7 
REMARK    2  A    between atoms: C16_20  and  O4_21 
REMARK    3  A    between atoms: O4_21  and  C17_22 
REMARK    4  A    between atoms: C18_24  and  C19_25 
REMARK    5  A    between atoms: C19_25  and  O6_26 
REMARK    6  A    between atoms: C20_28  and  O7_29 
REMARK    7  A    between atoms: C21_31  and  O8_32 
REMARK    8  A    between atoms: N1_35  and  O9_37 
REMARK    9  A    between atoms: C23_39  and  C24_40 
REMARK   10  A    between atoms: C24_40  and  O10_41 
ROOT
HETATM    1  C1  UNL     1     -12.066  -1.786   9.190  1.00  0.00     0.013 C 
HETATM    2  C2  UNL     1     -11.512  -2.558   7.989  1.00  0.00     0.019 C 
HETATM    3  C3  UNL     1     -12.693  -3.122   7.261  1.00  0.00     0.007 C 
HETATM    4  C4  UNL     1     -12.214  -4.119   6.274  1.00  0.00     0.004 C 
HETATM    5  C5  UNL     1     -10.669  -4.165   6.202  1.00  0.00     0.044 C 
HETATM    6  C6  UNL     1     -10.204  -4.666   7.507  1.00  0.00     0.123 C 
HETATM    7  C7  UNL     1     -10.729  -3.712   8.577  1.00  0.00     0.095 C 
HETATM    8  C8  UNL     1     -11.556  -4.432   9.631  1.00  0.00     0.050 C 
HETATM    9  O2  UNL     1      -9.641  -3.177   9.224  1.00  0.00    -0.368 OA
HETATM   10  C9  UNL     1      -8.511  -3.833   8.867  1.00  0.00     0.161 C 
HETATM   11  C10 UNL     1      -7.880  -3.114   7.647  1.00  0.00     0.043 C 
HETATM   12  C11 UNL     1      -7.610  -4.469   7.201  1.00  0.00     0.029 C 
HETATM   13  C12 UNL     1      -7.523  -4.997   5.862  1.00  0.00     0.020 C 
HETATM   14  C13 UNL     1      -7.904  -6.450   5.898  1.00  0.00     0.051 C 
HETATM   15  C14 UNL     1      -6.795  -7.432   5.765  1.00  0.00    -0.020 C 
HETATM   16  C15 UNL     1      -5.975  -7.992   4.908  1.00  0.00     0.144 C 
HETATM   17  O3  UNL     1      -4.995  -8.952   5.191  1.00  0.00    -0.329 OA
HETATM   18  C16 UNL     1      -5.120  -9.946   6.240  1.00  0.00     0.299 C 
HETATM   19  C23 UNL     1      -5.373  -9.287   7.546  1.00  0.00     0.201 C 
HETATM   20  O11 UNL     1      -6.769  -9.017   7.561  1.00  0.00    -0.366 OA
HETATM   21  C25 UNL     1      -6.859  -7.667   7.231  1.00  0.00     0.183 C 
HETATM   22  C26 UNL     1      -8.218  -7.047   7.209  1.00  0.00     0.164 C 
HETATM   23  O12 UNL     1      -8.586  -6.232   8.234  1.00  0.00    -0.365 OA
HETATM   24  C27 UNL     1      -8.862  -4.919   7.871  1.00  0.00     0.125 C 
ENDROOT
BRANCH  18  25
HETATM   25  O4  UNL     1      -3.964 -10.680   6.197  1.00  0.00    -0.323 OA
BRANCH  25  26
HETATM   26  C17 UNL     1      -3.143 -10.188   5.189  1.00  0.00     0.315 C 
HETATM   27  O5  UNL     1      -2.795 -11.227   4.342  1.00  0.00    -0.345 OA
HETATM   28  C18 UNL     1      -1.755 -11.934   4.944  1.00  0.00     0.180 C 
HETATM   29  C20 UNL     1      -0.463 -11.216   4.554  1.00  0.00     0.183 C 
HETATM   30  C21 UNL     1      -0.552  -9.850   5.242  1.00  0.00     0.202 C 
HETATM   31  C22 UNL     1      -1.898  -9.641   5.821  1.00  0.00     0.095 C 
HETATM   32  N1  UNL     1      -2.051  -8.969   6.910  1.00  0.00    -0.270 N 
ATOM     33  H1  UNL     1      -2.982  -8.829   7.302  1.00  0.00     0.193 HD
BRANCH  28  34
HETATM   34  C19 UNL     1      -1.722 -13.380   4.501  1.00  0.00     0.198 C 
BRANCH  34  35
HETATM   35  O6  UNL     1      -1.253 -13.404   3.190  1.00  0.00    -0.398 OA
ATOM     36  H6  UNL     1      -1.251 -14.310   2.905  1.00  0.00     0.209 HD
ENDBRANCH  34  35
ENDBRANCH  28  34
BRANCH  29  37
HETATM   37  O7  UNL     1       0.648 -11.895   5.009  1.00  0.00    -0.390 OA
ATOM     38  H7  UNL     1       1.117 -12.312   4.296  1.00  0.00     0.210 HD
ENDBRANCH  29  37
BRANCH  30  39
HETATM   39  O8  UNL     1      -0.307  -8.852   4.301  1.00  0.00    -0.387 OA
ATOM     40  H8  UNL     1       0.553  -8.481   4.462  1.00  0.00     0.210 HD
ENDBRANCH  30  39
BRANCH  32  41
HETATM   41  O9  UNL     1      -0.943  -8.439   7.540  1.00  0.00    -0.290 OA
ATOM     42  H9  UNL     1      -0.957  -7.533   7.825  1.00  0.00     0.244 HD
ENDBRANCH  32  41
ENDBRANCH  25  26
ENDBRANCH  18  25
BRANCH  19  43
HETATM   43  C24 UNL     1      -4.927 -10.096   8.702  1.00  0.00     0.201 C 
BRANCH  43  44
HETATM   44  O10 UNL     1      -3.677  -9.659   9.126  1.00  0.00    -0.398 OA
ATOM     45  H10 UNL     1      -3.700  -9.477  10.059  1.00  0.00     0.209 HD
ENDBRANCH  43  44
ENDBRANCH  19  43
BRANCH   6  46
HETATM   46  O1  UNL     1     -10.981  -5.851   7.701  1.00  0.00    -0.383 OA
ATOM     47  H1  UNL     1     -10.511  -6.506   7.197  1.00  0.00     0.210 HD
ENDBRANCH   6  46
TORSDOF 10
ENDMDL
MODEL 2
REMARK VINA RESULT: -8.348707067      6.165     13.847
REMARK  10 active torsions:
REMARK  status: ('A' for Active; 'I' for Inactive)
REMARK    1  A    between atoms: C6_6  and  O1_7 
REMARK    2  A    between atoms: C16_20  and  O4_21 
REMARK    3  A    between atoms: O4_21  and  C17_22 
REMARK    4  A    between atoms: C18_24  and  C19_25 
REMARK    5  A    between atoms: C19_25  and  O6_26 
REMARK    6  A    between atoms: C20_28  and  O7_29 
REMARK    7  A    between atoms: C21_31  and  O8_32 
REMARK    8  A    between atoms: N1_35  and  O9_37 
REMARK    9  A    between atoms: C23_39  and  C24_40 
REMARK   10  A    between atoms: C24_40  and  O10_41 
ROOT
HETATM    1  C1  UNL     1      -8.512  -8.730   7.427  1.00  0.00     0.013 C 
HETATM    2  C2  UNL     1      -8.967  -7.651   8.414  1.00  0.00     0.019 C 
HETATM    3  C3  UNL     1      -9.631  -8.363   9.552  1.00  0.00     0.007 C 
HETATM    4  C4  UNL     1     -10.351  -7.369  10.383  1.00  0.00     0.004 C 
HETATM    5  C5  UNL     1     -10.083  -5.920   9.912  1.00  0.00     0.044 C 
HETATM    6  C6  UNL     1     -10.679  -5.798   8.571  1.00  0.00     0.123 C 
HETATM    7  C7  UNL     1     -10.022  -6.851   7.681  1.00  0.00     0.095 C 
HETATM    8  C8  UNL     1     -11.043  -7.780   7.044  1.00  0.00     0.050 C 
HETATM    9  O2  UNL     1      -9.392  -6.191   6.655  1.00  0.00    -0.368 OA
HETATM   10  C9  UNL     1      -9.751  -4.885   6.643  1.00  0.00     0.161 C 
HETATM   11  C10 UNL     1      -8.743  -4.082   7.504  1.00  0.00     0.043 C 
HETATM   12  C11 UNL     1      -9.933  -3.369   7.932  1.00  0.00     0.029 C 
HETATM   13  C12 UNL     1     -10.222  -2.731   9.193  1.00  0.00     0.020 C 
HETATM   14  C13 UNL     1     -11.709  -2.748   9.405  1.00  0.00     0.051 C 
HETATM   15  C14 UNL     1     -12.423  -1.457   9.218  1.00  0.00    -0.020 C 
HETATM   16  C15 UNL     1     -12.673  -0.295   9.774  1.00  0.00     0.144 C 
HETATM   17  O3  UNL     1     -13.455   0.737   9.242  1.00  0.00    -0.329 OA
HETATM   18  C16 UNL     1     -14.603   0.517   8.384  1.00  0.00     0.299 C 
HETATM   19  C23 UNL     1     -14.217  -0.293   7.203  1.00  0.00     0.201 C 
HETATM   20  O11 UNL     1     -14.230  -1.641   7.656  1.00  0.00    -0.366 OA
HETATM   21  C25 UNL     1     -12.889  -1.935   7.891  1.00  0.00     0.183 C 
HETATM   22  C26 UNL     1     -12.551  -3.319   8.339  1.00  0.00     0.164 C 
HETATM   23  O12 UNL     1     -11.992  -4.181   7.447  1.00  0.00    -0.365 OA
HETATM   24  C27 UNL     1     -10.718  -4.627   7.780  1.00  0.00     0.125 C 
ENDROOT
BRANCH  18  25
HETATM   25  O4  UNL     1     -15.082   1.765   8.077  1.00  0.00    -0.323 OA
BRANCH  25  26
HETATM   26  C17 UNL     1     -16.050   2.128   9.004  1.00  0.00     0.315 C 
HETATM   27  O5  UNL     1     -17.279   1.645   8.587  1.00  0.00    -0.345 OA
HETATM   28  C18 UNL     1     -17.773   2.520   7.620  1.00  0.00     0.180 C 
HETATM   29  C20 UNL     1     -18.495   3.636   8.376  1.00  0.00     0.183 C 
HETATM   30  C21 UNL     1     -17.389   4.369   9.142  1.00  0.00     0.202 C 
HETATM   31  C22 UNL     1     -16.112   3.625   9.058  1.00  0.00     0.095 C 
HETATM   32  N1  UNL     1     -14.985   4.251   9.027  1.00  0.00    -0.270 N 
ATOM     33  H1  UNL     1     -14.109   3.732   8.969  1.00  0.00     0.193 HD
BRANCH  28  34
HETATM   34  C19 UNL     1     -18.711   1.829   6.656  1.00  0.00     0.198 C 
BRANCH  34  35
HETATM   35  O6  UNL     1     -18.808   0.497   7.051  1.00  0.00    -0.398 OA
ATOM     36  H6  UNL     1     -19.029  -0.013   6.280  1.00  0.00     0.209 HD
ENDBRANCH  34  35
ENDBRANCH  28  34
BRANCH  29  37
HETATM   37  O7  UNL     1     -19.120   4.509   7.511  1.00  0.00    -0.390 OA
ATOM     38  H7  UNL     1     -19.365   5.316   7.948  1.00  0.00     0.210 HD
ENDBRANCH  29  37
BRANCH  30  39
HETATM   39  O8  UNL     1     -17.759   4.477  10.481  1.00  0.00    -0.387 OA
ATOM     40  H8  UNL     1     -17.597   3.647  10.913  1.00  0.00     0.210 HD
ENDBRANCH  30  39
BRANCH  32  41
HETATM   41  O9  UNL     1     -14.975   5.631   9.074  1.00  0.00    -0.290 OA
ATOM     42  H9  UNL     1     -15.644   6.117   8.606  1.00  0.00     0.244 HD
ENDBRANCH  32  41
ENDBRANCH  25  26
ENDBRANCH  18  25
BRANCH  19  43
HETATM   43  C24 UNL     1     -15.092  -0.068   6.030  1.00  0.00     0.201 C 
BRANCH  43  44
HETATM   44  O10 UNL     1     -16.390  -0.467   6.330  1.00  0.00    -0.398 OA
ATOM     45  H10 UNL     1     -16.803  -0.823   5.552  1.00  0.00     0.209 HD
ENDBRANCH  43  44
ENDBRANCH  19  43
BRANCH   6  46
HETATM   46  O1  UNL     1     -12.008  -6.292   8.754  1.00  0.00    -0.383 OA
ATOM     47  H1  UNL     1     -12.545  -5.646   8.311  1.00  0.00     0.210 HD
ENDBRANCH   6  46
TORSDOF 10
ENDMDL
MODEL 3
REMARK VINA RESULT: -7.974136207      4.892     12.559
REMARK  10 active torsions:
REMARK  status: ('A' for Active; 'I' for Inactive)
REMARK    1  A    between atoms: C6_6  and  O1_7 
REMARK    2  A    between atoms: C16_20  and  O4_21 
REMARK    3  A    between atoms: O4_21  and  C17_22 
REMARK    4  A    between atoms: C18_24  and  C19_25 
REMARK    5  A    between atoms: C19_25  and  O6_26 
REMARK    6  A    between atoms: C20_28  and  O7_29 
REMARK    7  A    between atoms: C21_31  and  O8_32 
REMARK    8  A    between atoms: N1_35  and  O9_37 
REMARK    9  A    between atoms: C23_39  and  C24_40 
REMARK   10  A    between atoms: C24_40  and  O10_41 
ROOT
HETATM    1  C1  UNL     1      -5.881  -9.465   7.083  1.00  0.00     0.013 C 
HETATM    2  C2  UNL     1      -6.956  -8.690   6.315  1.00  0.00     0.019 C 
HETATM    3  C3  UNL     1      -6.307  -8.181   5.065  1.00  0.00     0.007 C 
HETATM    4  C4  UNL     1      -7.202  -7.181   4.435  1.00  0.00     0.004 C 
HETATM    5  C5  UNL     1      -8.561  -7.079   5.168  1.00  0.00     0.044 C 
HETATM    6  C6  UNL     1      -8.273  -6.542   6.509  1.00  0.00     0.123 C 
HETATM    7  C7  UNL     1      -7.295  -7.500   7.185  1.00  0.00     0.095 C 
HETATM    8  C8  UNL     1      -6.026  -6.796   7.639  1.00  0.00     0.050 C 
HETATM    9  O2  UNL     1      -7.905  -7.984   8.317  1.00  0.00    -0.368 OA
HETATM   10  C9  UNL     1      -9.041  -7.291   8.573  1.00  0.00     0.161 C 
HETATM   11  C10 UNL     1     -10.229  -8.004   7.877  1.00  0.00     0.043 C 
HETATM   12  C11 UNL     1     -10.657  -6.647   7.591  1.00  0.00     0.029 C 
HETATM   13  C12 UNL     1     -11.410  -6.135   6.472  1.00  0.00     0.020 C 
HETATM   14  C13 UNL     1     -11.030  -4.697   6.261  1.00  0.00     0.051 C 
HETATM   15  C14 UNL     1     -12.024  -3.676   6.687  1.00  0.00    -0.020 C 
HETATM   16  C15 UNL     1     -13.155  -3.099   6.358  1.00  0.00     0.144 C 
HETATM   17  O3  UNL     1     -13.824  -2.099   7.075  1.00  0.00    -0.329 OA
HETATM   18  C16 UNL     1     -13.151  -1.096   7.878  1.00  0.00     0.299 C 
HETATM   19  C23 UNL     1     -12.277  -1.744   8.886  1.00  0.00     0.201 C 
HETATM   20  O11 UNL     1     -11.080  -2.066   8.189  1.00  0.00    -0.366 OA
HETATM   21  C25 UNL     1     -11.207  -3.422   7.902  1.00  0.00     0.183 C 
HETATM   22  C26 UNL     1     -10.070  -4.093   7.202  1.00  0.00     0.164 C 
HETATM   23  O12 UNL     1      -9.246  -4.906   7.916  1.00  0.00    -0.365 OA
HETATM   24  C27 UNL     1      -9.228  -6.234   7.505  1.00  0.00     0.125 C 
ENDROOT
BRANCH  18  25
HETATM   25  O4  UNL     1     -14.146  -0.320   8.413  1.00  0.00    -0.323 OA
BRANCH  25  26
HETATM   26  C17 UNL     1     -14.311   0.819   7.635  1.00  0.00     0.315 C 
HETATM   27  O5  UNL     1     -13.915   1.927   8.366  1.00  0.00    -0.345 OA
HETATM   28  C18 UNL     1     -14.963   2.269   9.219  1.00  0.00     0.180 C 
HETATM   29  C20 UNL     1     -15.901   3.168   8.412  1.00  0.00     0.183 C 
HETATM   30  C21 UNL     1     -16.472   2.256   7.320  1.00  0.00     0.202 C 
HETATM   31  C22 UNL     1     -15.767   0.955   7.302  1.00  0.00     0.095 C 
HETATM   32  N1  UNL     1     -16.392  -0.130   6.994  1.00  0.00    -0.270 N 
ATOM     33  H1  UNL     1     -15.899  -1.022   6.983  1.00  0.00     0.193 HD
BRANCH  28  34
HETATM   34  C19 UNL     1     -14.474   2.980  10.462  1.00  0.00     0.198 C 
BRANCH  34  35
HETATM   35  O6  UNL     1     -14.056   4.252  10.077  1.00  0.00    -0.398 OA
ATOM     36  H6  UNL     1     -14.798   4.684   9.669  1.00  0.00     0.209 HD
ENDBRANCH  34  35
ENDBRANCH  28  34
BRANCH  29  37
HETATM   37  O7  UNL     1     -16.927   3.657   9.193  1.00  0.00    -0.390 OA
ATOM     38  H7  UNL     1     -17.017   3.163   9.999  1.00  0.00     0.210 HD
ENDBRANCH  29  37
BRANCH  30  39
HETATM   39  O8  UNL     1     -16.307   2.874   6.082  1.00  0.00    -0.387 OA
ATOM     40  H8  UNL     1     -15.747   2.332   5.539  1.00  0.00     0.210 HD
ENDBRANCH  30  39
BRANCH  32  41
HETATM   41  O9  UNL     1     -17.734  -0.071   6.677  1.00  0.00    -0.290 OA
ATOM     42  H9  UNL     1     -18.367   0.111   7.362  1.00  0.00     0.244 HD
ENDBRANCH  32  41
ENDBRANCH  25  26
ENDBRANCH  18  25
BRANCH  19  43
HETATM   43  C24 UNL     1     -12.042  -0.902  10.081  1.00  0.00     0.201 C 
BRANCH  43  44
HETATM   44  O10 UNL     1     -10.917  -1.356  10.761  1.00  0.00    -0.398 OA
ATOM     45  H10 UNL     1     -11.105  -1.413  11.690  1.00  0.00     0.209 HD
ENDBRANCH  43  44
ENDBRANCH  19  43
BRANCH   6  46
HETATM   46  O1  UNL     1      -7.480  -5.384   6.238  1.00  0.00    -0.383 OA
ATOM     47  H1  UNL     1      -7.150  -5.138   7.094  1.00  0.00     0.210 HD
ENDBRANCH   6  46
TORSDOF 10
ENDMDL
MODEL 4
REMARK VINA RESULT: -7.824161990      1.660      2.479
REMARK  10 active torsions:
REMARK  status: ('A' for Active; 'I' for Inactive)
REMARK    1  A    between atoms: C6_6  and  O1_7 
REMARK    2  A    between atoms: C16_20  and  O4_21 
REMARK    3  A    between atoms: O4_21  and  C17_22 
REMARK    4  A    between atoms: C18_24  and  C19_25 
REMARK    5  A    between atoms: C19_25  and  O6_26 
REMARK    6  A    between atoms: C20_28  and  O7_29 
REMARK    7  A    between atoms: C21_31  and  O8_32 
REMARK    8  A    between atoms: N1_35  and  O9_37 
REMARK    9  A    between atoms: C23_39  and  C24_40 
REMARK   10  A    between atoms: C24_40  and  O10_41 
ROOT
HETATM    1  C1  UNL     1     -12.050  -1.718   9.345  1.00  0.00     0.013 C 
HETATM    2  C2  UNL     1     -11.542  -2.440   8.093  1.00  0.00     0.019 C 
HETATM    3  C3  UNL     1     -12.753  -2.891   7.338  1.00  0.00     0.007 C 
HETATM    4  C4  UNL     1     -12.332  -3.848   6.286  1.00  0.00     0.004 C 
HETATM    5  C5  UNL     1     -10.792  -3.972   6.202  1.00  0.00     0.044 C 
HETATM    6  C6  UNL     1     -10.352  -4.580   7.469  1.00  0.00     0.123 C 
HETATM    7  C7  UNL     1     -10.821  -3.670   8.601  1.00  0.00     0.095 C 
HETATM    8  C8  UNL     1     -11.683  -4.410   9.612  1.00  0.00     0.050 C 
HETATM    9  O2  UNL     1      -9.704  -3.237   9.275  1.00  0.00    -0.368 OA
HETATM   10  C9  UNL     1      -8.612  -3.929   8.870  1.00  0.00     0.161 C 
HETATM   11  C10 UNL     1      -7.946  -3.168   7.695  1.00  0.00     0.043 C 
HETATM   12  C11 UNL     1      -7.751  -4.504   7.161  1.00  0.00     0.029 C 
HETATM   13  C12 UNL     1      -7.697  -4.950   5.790  1.00  0.00     0.020 C 
HETATM   14  C13 UNL     1      -8.155  -6.379   5.736  1.00  0.00     0.051 C 
HETATM   15  C14 UNL     1      -7.102  -7.409   5.533  1.00  0.00    -0.020 C 
HETATM   16  C15 UNL     1      -6.315  -7.956   4.637  1.00  0.00     0.144 C 
HETATM   17  O3  UNL     1      -5.388  -8.983   4.852  1.00  0.00    -0.329 OA
HETATM   18  C16 UNL     1      -5.565 -10.034   5.837  1.00  0.00     0.299 C 
HETATM   19  C23 UNL     1      -5.778  -9.448   7.183  1.00  0.00     0.201 C 
HETATM   20  O11 UNL     1      -7.157  -9.104   7.225  1.00  0.00    -0.366 OA
HETATM   21  C25 UNL     1      -7.174  -7.734   6.982  1.00  0.00     0.183 C 
HETATM   22  C26 UNL     1      -8.498  -7.041   7.008  1.00  0.00     0.164 C 
HETATM   23  O12 UNL     1      -8.818  -6.275   8.085  1.00  0.00    -0.365 OA
HETATM   24  C27 UNL     1      -9.024  -4.928   7.808  1.00  0.00     0.125 C 
ENDROOT
BRANCH  18  25
HETATM   25  O4  UNL     1      -4.450 -10.826   5.739  1.00  0.00    -0.323 OA
BRANCH  25  26
HETATM   26  C17 UNL     1      -4.346 -11.319   4.445  1.00  0.00     0.315 C 
HETATM   27  O5  UNL     1      -5.381 -12.210   4.217  1.00  0.00    -0.345 OA
HETATM   28  C18 UNL     1      -5.023 -13.430   4.788  1.00  0.00     0.180 C 
HETATM   29  C20 UNL     1      -4.188 -14.169   3.741  1.00  0.00     0.183 C 
HETATM   30  C21 UNL     1      -2.912 -13.333   3.597  1.00  0.00     0.202 C 
HETATM   31  C22 UNL     1      -3.043 -12.049   4.322  1.00  0.00     0.095 C 
HETATM   32  N1  UNL     1      -2.019 -11.502   4.885  1.00  0.00    -0.270 N 
ATOM     33  H1  UNL     1      -2.117 -10.618   5.382  1.00  0.00     0.193 HD
BRANCH  28  34
HETATM   34  C19 UNL     1      -6.232 -14.248   5.186  1.00  0.00     0.198 C 
BRANCH  34  35
HETATM   35  O6  UNL     1      -6.958 -13.497   6.107  1.00  0.00    -0.398 OA
ATOM     36  H6  UNL     1      -7.140 -14.059   6.852  1.00  0.00     0.209 HD
ENDBRANCH  34  35
ENDBRANCH  28  34
BRANCH  29  37
HETATM   37  O7  UNL     1      -3.866 -15.443   4.159  1.00  0.00    -0.390 OA
ATOM     38  H7  UNL     1      -2.988 -15.478   4.520  1.00  0.00     0.210 HD
ENDBRANCH  29  37
BRANCH  30  39
HETATM   39  O8  UNL     1      -2.693 -13.067   2.247  1.00  0.00    -0.387 OA
ATOM     40  H8  UNL     1      -1.801 -12.764   2.133  1.00  0.00     0.210 HD
ENDBRANCH  30  39
BRANCH  32  41
HETATM   41  O9  UNL     1      -0.790 -12.126   4.807  1.00  0.00    -0.290 OA
ATOM     42  H9  UNL     1      -0.241 -12.171   5.581  1.00  0.00     0.244 HD
ENDBRANCH  32  41
ENDBRANCH  25  26
ENDBRANCH  18  25
BRANCH  19  43
HETATM   43  C24 UNL     1      -5.374 -10.353   8.283  1.00  0.00     0.201 C 
BRANCH  43  44
HETATM   44  O10 UNL     1      -5.913 -11.617   8.073  1.00  0.00    -0.398 OA
ATOM     45  H10 UNL     1      -5.382 -12.270   8.515  1.00  0.00     0.209 HD
ENDBRANCH  43  44
ENDBRANCH  19  43
BRANCH   6  46
HETATM   46  O1  UNL     1     -11.191  -5.732   7.592  1.00  0.00    -0.383 OA
ATOM     47  H1  UNL     1     -11.031  -6.026   8.481  1.00  0.00     0.210 HD
ENDBRANCH   6  46
TORSDOF 10
ENDMDL
MODEL 5
REMARK VINA RESULT: -7.393723295      6.473      9.965
REMARK  10 active torsions:
REMARK  status: ('A' for Active; 'I' for Inactive)
REMARK    1  A    between atoms: C6_6  and  O1_7 
REMARK    2  A    between atoms: C16_20  and  O4_21 
REMARK    3  A    between atoms: O4_21  and  C17_22 
REMARK    4  A    between atoms: C18_24  and  C19_25 
REMARK    5  A    between atoms: C19_25  and  O6_26 
REMARK    6  A    between atoms: C20_28  and  O7_29 
REMARK    7  A    between atoms: C21_31  and  O8_32 
REMARK    8  A    between atoms: N1_35  and  O9_37 
REMARK    9  A    between atoms: C23_39  and  C24_40 
REMARK   10  A    between atoms: C24_40  and  O10_41 
ROOT
HETATM    1  C1  UNL     1      -8.798  -1.998   4.589  1.00  0.00     0.013 C 
HETATM    2  C2  UNL     1      -8.829  -2.455   6.051  1.00  0.00     0.019 C 
HETATM    3  C3  UNL     1      -7.406  -2.681   6.459  1.00  0.00     0.007 C 
HETATM    4  C4  UNL     1      -7.390  -3.406   7.753  1.00  0.00     0.004 C 
HETATM    5  C5  UNL     1      -8.812  -3.574   8.338  1.00  0.00     0.044 C 
HETATM    6  C6  UNL     1      -9.543  -4.459   7.415  1.00  0.00     0.123 C 
HETATM    7  C7  UNL     1      -9.533  -3.794   6.041  1.00  0.00     0.095 C 
HETATM    8  C8  UNL     1      -8.938  -4.698   4.972  1.00  0.00     0.050 C 
HETATM    9  O2  UNL     1     -10.839  -3.565   5.683  1.00  0.00    -0.368 OA
HETATM   10  C9  UNL     1     -11.680  -4.199   6.535  1.00  0.00     0.161 C 
HETATM   11  C10 UNL     1     -12.042  -3.232   7.691  1.00  0.00     0.043 C 
HETATM   12  C11 UNL     1     -11.925  -4.428   8.504  1.00  0.00     0.029 C 
HETATM   13  C12 UNL     1     -11.520  -4.570   9.881  1.00  0.00     0.020 C 
HETATM   14  C13 UNL     1     -10.916  -5.934  10.061  1.00  0.00     0.051 C 
HETATM   15  C14 UNL     1     -11.744  -6.939  10.778  1.00  0.00    -0.020 C 
HETATM   16  C15 UNL     1     -12.164  -7.313  11.963  1.00  0.00     0.144 C 
HETATM   17  O3  UNL     1     -12.998  -8.401  12.252  1.00  0.00    -0.329 OA
HETATM   18  C16 UNL     1     -13.012  -9.631  11.482  1.00  0.00     0.299 C 
HETATM   19  C23 UNL     1     -13.274  -9.340  10.051  1.00  0.00     0.201 C 
HETATM   20  O11 UNL     1     -12.015  -8.955   9.513  1.00  0.00    -0.366 OA
HETATM   21  C25 UNL     1     -12.073  -7.565   9.471  1.00  0.00     0.183 C 
HETATM   22  C26 UNL     1     -10.899  -6.839   8.898  1.00  0.00     0.164 C 
HETATM   23  O12 UNL     1     -10.999  -6.310   7.649  1.00  0.00    -0.365 OA
HETATM   24  C27 UNL     1     -10.865  -4.928   7.584  1.00  0.00     0.125 C 
ENDROOT
BRANCH  18  25
HETATM   25  O4  UNL     1     -13.955 -10.429  12.075  1.00  0.00    -0.323 OA
BRANCH  25  26
HETATM   26  C17 UNL     1     -13.643 -10.592  13.419  1.00  0.00     0.315 C 
HETATM   27  O5  UNL     1     -12.455 -11.295  13.524  1.00  0.00    -0.345 OA
HETATM   28  C18 UNL     1     -12.746 -12.648  13.353  1.00  0.00     0.180 C 
HETATM   29  C20 UNL     1     -13.154 -13.179  14.727  1.00  0.00     0.183 C 
HETATM   30  C21 UNL     1     -14.469 -12.460  15.050  1.00  0.00     0.202 C 
HETATM   31  C22 UNL     1     -14.737 -11.391  14.062  1.00  0.00     0.095 C 
HETATM   32  N1  UNL     1     -15.944 -11.102  13.714  1.00  0.00    -0.270 N 
ATOM     33  H1  UNL     1     -16.121 -10.364  13.034  1.00  0.00     0.193 HD
BRANCH  28  34
HETATM   34  C19 UNL     1     -11.563 -13.418  12.808  1.00  0.00     0.198 C 
BRANCH  34  35
HETATM   35  O6  UNL     1     -11.281 -12.909  11.543  1.00  0.00    -0.398 OA
ATOM     36  H6  UNL     1     -12.004 -12.345  11.295  1.00  0.00     0.209 HD
ENDBRANCH  34  35
ENDBRANCH  28  34
BRANCH  29  37
HETATM   37  O7  UNL     1     -13.364 -14.542  14.699  1.00  0.00    -0.390 OA
ATOM     38  H7  UNL     1     -13.604 -14.874  15.556  1.00  0.00     0.210 HD
ENDBRANCH  29  37
BRANCH  30  39
HETATM   39  O8  UNL     1     -14.374 -11.889  16.317  1.00  0.00    -0.387 OA
ATOM     40  H8  UNL     1     -15.161 -11.385  16.488  1.00  0.00     0.210 HD
ENDBRANCH  30  39
BRANCH  32  41
HETATM   41  O9  UNL     1     -16.995 -11.802  14.272  1.00  0.00    -0.290 OA
ATOM     42  H9  UNL     1     -16.872 -12.243  15.104  1.00  0.00     0.244 HD
ENDBRANCH  32  41
ENDBRANCH  25  26
ENDBRANCH  18  25
BRANCH  19  43
HETATM   43  C24 UNL     1     -13.889 -10.476   9.329  1.00  0.00     0.201 C 
BRANCH  43  44
HETATM   44  O10 UNL     1     -13.189 -11.645   9.610  1.00  0.00    -0.398 OA
ATOM     45  H10 UNL     1     -12.789 -11.978   8.815  1.00  0.00     0.209 HD
ENDBRANCH  43  44
ENDBRANCH  19  43
BRANCH   6  46
HETATM   46  O1  UNL     1      -8.660  -5.573   7.258  1.00  0.00    -0.383 OA
ATOM     47  H1  UNL     1      -8.342  -5.477   6.368  1.00  0.00     0.210 HD
ENDBRANCH   6  46
TORSDOF 10
ENDMDL
