MODEL 1
REMARK VINA RESULT: -6.997194741      0.000      0.000
REMARK  11 active torsions:
REMARK  status: ('A' for Active; 'I' for Inactive)
REMARK    1  A    between atoms: C3_4  and  O2_5 
REMARK    2  A    between atoms: O2_5  and  C4_6 
REMARK    3  A    between atoms: C12_14  and  O3_15 
REMARK    4  A    between atoms: C17_21  and  O4_23 
REMARK    5  A    between atoms: C20_26  and  O5_27 
REMARK    6  A    between atoms: C21_29  and  O6_30 
REMARK    7  A    between atoms: C25_36  and  C26_37 
REMARK    8  A    between atoms: C26_37  and  O8_38 
REMARK    9  A    between atoms: C27_40  and  O9_41 
REMARK   10  A    between atoms: O9_41  and  C28_42 
REMARK       I    between atoms: C28_42  and  N1_44 
REMARK   11  A    between atoms: N1_44  and  N2_46 
ROOT
HETATM    1  C4  UNL     1     -11.476  -7.098   9.739  1.00  0.00     0.127 C 
HETATM    2  C5  UNL     1     -11.152  -8.574   9.747  1.00  0.00     0.033 C 
HETATM    3  C6  UNL     1     -11.062  -9.063  11.137  1.00  0.00     0.012 C 
HETATM    4  C7  UNL     1     -12.338  -8.815  11.936  1.00  0.00    -0.034 C 
HETATM    5  C8  UNL     1     -13.323  -9.867  11.427  1.00  0.00     0.016 C 
HETATM    6  C9  UNL     1     -12.859  -7.434  11.816  1.00  0.00    -0.001 C 
HETATM    7  C10 UNL     1     -12.737  -6.784  10.485  1.00  0.00     0.037 C 
HETATM    8  C11 UNL     1     -12.120  -6.706  12.913  1.00  0.00     0.043 C 
HETATM    9  C12 UNL     1     -12.364  -7.685  14.095  1.00  0.00     0.062 C 
HETATM   10  C13 UNL     1     -13.586  -7.357  14.814  1.00  0.00     0.038 C 
HETATM   11  C14 UNL     1     -14.759  -8.234  14.842  1.00  0.00     0.011 C 
HETATM   12  C15 UNL     1     -14.812  -9.312  15.879  1.00  0.00     0.025 C 
HETATM   13  C16 UNL     1     -15.904 -10.251  15.395  1.00  0.00     0.045 C 
HETATM   14  C17 UNL     1     -15.880 -11.625  15.914  1.00  0.00     0.057 C 
HETATM   15  C18 UNL     1     -16.887 -11.775  17.065  1.00  0.00     0.045 C 
HETATM   16  C19 UNL     1     -14.534 -12.134  16.346  1.00  0.00     0.072 C 
HETATM   17  C20 UNL     1     -13.962 -11.091  17.256  1.00  0.00     0.155 C 
HETATM   18  C21 UNL     1     -13.563  -9.907  16.342  1.00  0.00     0.087 C 
HETATM   19  C22 UNL     1     -12.489 -10.306  15.447  1.00  0.00     0.041 C 
HETATM   20  C23 UNL     1     -12.686 -10.223  13.975  1.00  0.00     0.011 C 
HETATM   21  C24 UNL     1     -12.101  -8.955  13.437  1.00  0.00     0.028 C 
ENDROOT
BRANCH   1  22
HETATM   22  O2  UNL     1     -11.681  -6.746   8.405  1.00  0.00    -0.334 OA
BRANCH  22  23
HETATM   23  C3  UNL     1     -10.465  -6.363   7.796  1.00  0.00     0.414 C 
HETATM   24  O1  UNL     1     -10.032  -5.246   8.529  1.00  0.00    -0.331 OA
HETATM   25  C2  UNL     1      -8.889  -4.691   8.013  1.00  0.00     0.155 C 
HETATM   26  C1  UNL     1      -7.657  -5.525   8.199  1.00  0.00     0.042 C 
HETATM   27  C27 UNL     1      -9.080  -4.322   6.539  1.00  0.00     0.193 C 
HETATM   28  C25 UNL     1      -9.593  -5.573   5.875  1.00  0.00     0.182 C 
HETATM   29  O7  UNL     1     -10.778  -6.011   6.488  1.00  0.00    -0.329 OA
BRANCH  27  30
HETATM   30  O9  UNL     1      -7.867  -3.945   5.969  1.00  0.00    -0.292 OA
BRANCH  30  31
HETATM   31  C28 UNL     1      -7.482  -2.624   5.758  1.00  0.00     0.379 C 
HETATM   32  O10 UNL     1      -6.444  -2.227   6.338  1.00  0.00    -0.237 OA
HETATM   33  N1  UNL     1      -8.274  -1.815   4.914  1.00  0.00    -0.252 N 
ATOM     34  H1  UNL     1      -9.110  -2.193   4.468  1.00  0.00     0.191 HD
BRANCH  33  35
HETATM   35  N2  UNL     1      -7.893  -0.489   4.699  1.00  0.00    -0.341 N 
ATOM     36  H22 UNL     1      -7.153  -0.280   4.030  1.00  0.00     0.177 HD
ATOM     37  H21 UNL     1      -8.366   0.250   5.220  1.00  0.00     0.177 HD
ENDBRANCH  33  35
ENDBRANCH  30  31
ENDBRANCH  27  30
BRANCH  28  38
HETATM   38  C26 UNL     1      -9.782  -5.350   4.415  1.00  0.00     0.199 C 
BRANCH  38  39
HETATM   39  O8  UNL     1     -10.201  -4.081   4.079  1.00  0.00    -0.398 OA
ATOM     40  H8  UNL     1     -10.250  -3.916   3.145  1.00  0.00     0.209 HD
ENDBRANCH  38  39
ENDBRANCH  28  38
ENDBRANCH  22  23
ENDBRANCH   1  22
BRANCH   9  41
HETATM   41  O3  UNL     1     -11.280  -7.313  14.952  1.00  0.00    -0.389 OA
ATOM     42  H3  UNL     1     -10.650  -7.984  14.719  1.00  0.00     0.210 HD
ENDBRANCH   9  41
BRANCH  18  43
HETATM   43  O6  UNL     1     -12.993  -9.037  17.324  1.00  0.00    -0.387 OA
ATOM     44  H6  UNL     1     -12.086  -9.288  17.450  1.00  0.00     0.210 HD
ENDBRANCH  18  43
BRANCH  17  45
HETATM   45  O5  UNL     1     -12.841 -11.517  17.956  1.00  0.00    -0.392 OA
ATOM     46  H5  UNL     1     -13.016 -11.720  18.867  1.00  0.00     0.210 HD
ENDBRANCH  17  45
BRANCH  14  47
HETATM   47  O4  UNL     1     -16.342 -12.532  14.933  1.00  0.00    -0.390 OA
ATOM     48  H4  UNL     1     -16.197 -13.428  15.214  1.00  0.00     0.210 HD
ENDBRANCH  14  47
TORSDOF 11
ENDMDL
MODEL 2
REMARK VINA RESULT: -6.989830709      6.277     10.582
REMARK  11 active torsions:
REMARK  status: ('A' for Active; 'I' for Inactive)
REMARK    1  A    between atoms: C3_4  and  O2_5 
REMARK    2  A    between atoms: O2_5  and  C4_6 
REMARK    3  A    between atoms: C12_14  and  O3_15 
REMARK    4  A    between atoms: C17_21  and  O4_23 
REMARK    5  A    between atoms: C20_26  and  O5_27 
REMARK    6  A    between atoms: C21_29  and  O6_30 
REMARK    7  A    between atoms: C25_36  and  C26_37 
REMARK    8  A    between atoms: C26_37  and  O8_38 
REMARK    9  A    between atoms: C27_40  and  O9_41 
REMARK   10  A    between atoms: O9_41  and  C28_42 
REMARK       I    between atoms: C28_42  and  N1_44 
REMARK   11  A    between atoms: N1_44  and  N2_46 
ROOT
HETATM    1  C4  UNL     1      -8.733  -7.104   5.761  1.00  0.00     0.127 C 
HETATM    2  C5  UNL     1      -8.726  -7.616   7.183  1.00  0.00     0.033 C 
HETATM    3  C6  UNL     1      -7.897  -8.834   7.276  1.00  0.00     0.012 C 
HETATM    4  C7  UNL     1      -6.462  -8.612   6.805  1.00  0.00    -0.034 C 
HETATM    5  C8  UNL     1      -5.797  -7.841   7.944  1.00  0.00     0.016 C 
HETATM    6  C9  UNL     1      -6.363  -7.914   5.503  1.00  0.00    -0.001 C 
HETATM    7  C10 UNL     1      -7.353  -6.837   5.241  1.00  0.00     0.037 C 
HETATM    8  C11 UNL     1      -6.433  -9.051   4.512  1.00  0.00     0.043 C 
HETATM    9  C12 UNL     1      -5.375 -10.009   5.129  1.00  0.00     0.062 C 
HETATM   10  C13 UNL     1      -4.045  -9.742   4.604  1.00  0.00     0.038 C 
HETATM   11  C14 UNL     1      -2.947  -9.229   5.427  1.00  0.00     0.011 C 
HETATM   12  C15 UNL     1      -2.108 -10.213   6.180  1.00  0.00     0.025 C 
HETATM   13  C16 UNL     1      -1.363  -9.372   7.202  1.00  0.00     0.045 C 
HETATM   14  C17 UNL     1      -0.837 -10.070   8.384  1.00  0.00     0.057 C 
HETATM   15  C18 UNL     1       0.661 -10.363   8.202  1.00  0.00     0.045 C 
HETATM   16  C19 UNL     1      -1.559 -11.329   8.772  1.00  0.00     0.072 C 
HETATM   17  C20 UNL     1      -1.661 -12.155   7.527  1.00  0.00     0.155 C 
HETATM   18  C21 UNL     1      -2.721 -11.454   6.641  1.00  0.00     0.087 C 
HETATM   19  C22 UNL     1      -4.025 -11.511   7.281  1.00  0.00     0.041 C 
HETATM   20  C23 UNL     1      -4.746 -10.250   7.600  1.00  0.00     0.011 C 
HETATM   21  C24 UNL     1      -5.747  -9.933   6.533  1.00  0.00     0.028 C 
ENDROOT
BRANCH   1  22
HETATM   22  O2  UNL     1      -9.414  -5.887   5.784  1.00  0.00    -0.334 OA
BRANCH  22  23
HETATM   23  C3  UNL     1      -9.659  -5.476   7.113  1.00  0.00     0.414 C 
HETATM   24  O1  UNL     1     -10.952  -4.928   7.088  1.00  0.00    -0.331 OA
HETATM   25  C2  UNL     1     -11.321  -4.400   8.299  1.00  0.00     0.155 C 
HETATM   26  C1  UNL     1     -11.572  -5.420   9.368  1.00  0.00     0.042 C 
HETATM   27  C27 UNL     1     -10.307  -3.354   8.769  1.00  0.00     0.193 C 
HETATM   28  C25 UNL     1      -8.966  -4.037   8.702  1.00  0.00     0.182 C 
HETATM   29  O7  UNL     1      -8.709  -4.502   7.401  1.00  0.00    -0.329 OA
BRANCH  27  30
HETATM   30  O9  UNL     1     -10.576  -2.967  10.079  1.00  0.00    -0.292 OA
BRANCH  30  31
HETATM   31  C28 UNL     1     -10.979  -1.685  10.445  1.00  0.00     0.379 C 
HETATM   32  O10 UNL     1     -10.316  -1.105  11.336  1.00  0.00    -0.237 OA
HETATM   33  N1  UNL     1     -12.100  -1.118   9.799  1.00  0.00    -0.252 N 
ATOM     34  H1  UNL     1     -12.602  -1.638   9.080  1.00  0.00     0.191 HD
BRANCH  33  35
HETATM   35  N2  UNL     1     -12.509   0.166  10.162  1.00  0.00    -0.341 N 
ATOM     36  H22 UNL     1     -12.030   0.651  10.920  1.00  0.00     0.177 HD
ATOM     37  H21 UNL     1     -13.285   0.597   9.658  1.00  0.00     0.177 HD
ENDBRANCH  33  35
ENDBRANCH  30  31
ENDBRANCH  27  30
BRANCH  28  38
HETATM   38  C26 UNL     1      -7.889  -3.125   9.178  1.00  0.00     0.199 C 
BRANCH  38  39
HETATM   39  O8  UNL     1      -6.705  -3.755   9.496  1.00  0.00    -0.398 OA
ATOM     40  H8  UNL     1      -6.337  -3.503  10.335  1.00  0.00     0.209 HD
ENDBRANCH  38  39
ENDBRANCH  28  38
ENDBRANCH  22  23
ENDBRANCH   1  22
BRANCH   9  41
HETATM   41  O3  UNL     1      -5.797 -11.248   4.551  1.00  0.00    -0.389 OA
ATOM     42  H3  UNL     1      -6.122 -11.689   5.327  1.00  0.00     0.210 HD
ENDBRANCH   9  41
BRANCH  18  43
HETATM   43  O6  UNL     1      -2.749 -12.371   5.543  1.00  0.00    -0.387 OA
ATOM     44  H6  UNL     1      -2.766 -11.866   4.738  1.00  0.00     0.210 HD
ENDBRANCH  18  43
BRANCH  17  45
HETATM   45  O5  UNL     1      -2.064 -13.463   7.760  1.00  0.00    -0.392 OA
ATOM     46  H5  UNL     1      -2.826 -13.532   8.323  1.00  0.00     0.210 HD
ENDBRANCH  17  45
BRANCH  14  47
HETATM   47  O4  UNL     1      -0.887  -9.227   9.518  1.00  0.00    -0.390 OA
ATOM     48  H4  UNL     1      -0.808  -9.738  10.315  1.00  0.00     0.210 HD
ENDBRANCH  14  47
TORSDOF 11
ENDMDL
MODEL 3
REMARK VINA RESULT: -6.912618731      7.407     10.432
REMARK  11 active torsions:
REMARK  status: ('A' for Active; 'I' for Inactive)
REMARK    1  A    between atoms: C3_4  and  O2_5 
REMARK    2  A    between atoms: O2_5  and  C4_6 
REMARK    3  A    between atoms: C12_14  and  O3_15 
REMARK    4  A    between atoms: C17_21  and  O4_23 
REMARK    5  A    between atoms: C20_26  and  O5_27 
REMARK    6  A    between atoms: C21_29  and  O6_30 
REMARK    7  A    between atoms: C25_36  and  C26_37 
REMARK    8  A    between atoms: C26_37  and  O8_38 
REMARK    9  A    between atoms: C27_40  and  O9_41 
REMARK   10  A    between atoms: O9_41  and  C28_42 
REMARK       I    between atoms: C28_42  and  N1_44 
REMARK   11  A    between atoms: N1_44  and  N2_46 
ROOT
HETATM    1  C4  UNL     1      -8.279  -7.831   4.726  1.00  0.00     0.127 C 
HETATM    2  C5  UNL     1      -8.496  -7.772   6.221  1.00  0.00     0.033 C 
HETATM    3  C6  UNL     1      -7.606  -8.737   6.898  1.00  0.00     0.012 C 
HETATM    4  C7  UNL     1      -6.131  -8.504   6.585  1.00  0.00    -0.034 C 
HETATM    5  C8  UNL     1      -5.749  -7.279   7.414  1.00  0.00     0.016 C 
HETATM    6  C9  UNL     1      -5.846  -8.334   5.142  1.00  0.00    -0.001 C 
HETATM    7  C10 UNL     1      -6.851  -7.583   4.343  1.00  0.00     0.037 C 
HETATM    8  C11 UNL     1      -5.644  -9.755   4.675  1.00  0.00     0.043 C 
HETATM    9  C12 UNL     1      -4.648 -10.254   5.759  1.00  0.00     0.062 C 
HETATM   10  C13 UNL     1      -3.269 -10.015   5.364  1.00  0.00     0.038 C 
HETATM   11  C14 UNL     1      -2.384  -9.082   6.067  1.00  0.00     0.011 C 
HETATM   12  C15 UNL     1      -1.626  -9.585   7.256  1.00  0.00     0.025 C 
HETATM   13  C16 UNL     1      -1.150  -8.328   7.962  1.00  0.00     0.045 C 
HETATM   14  C17 UNL     1      -0.799  -8.455   9.384  1.00  0.00     0.057 C 
HETATM   15  C18 UNL     1       0.724  -8.578   9.545  1.00  0.00     0.045 C 
HETATM   16  C19 UNL     1      -1.482  -9.568  10.126  1.00  0.00     0.072 C 
HETATM   17  C20 UNL     1      -1.288 -10.804   9.302  1.00  0.00     0.155 C 
HETATM   18  C21 UNL     1      -2.216 -10.640   8.073  1.00  0.00     0.087 C 
HETATM   19  C22 UNL     1      -3.608 -10.641   8.494  1.00  0.00     0.041 C 
HETATM   20  C23 UNL     1      -4.470  -9.467   8.190  1.00  0.00     0.011 C 
HETATM   21  C24 UNL     1      -5.278  -9.715   6.954  1.00  0.00     0.028 C 
ENDROOT
BRANCH   1  22
HETATM   22  O2  UNL     1      -9.043  -6.803   4.176  1.00  0.00    -0.334 OA
BRANCH  22  23
HETATM   23  C3  UNL     1      -9.394  -5.856   5.164  1.00  0.00     0.414 C 
HETATM   24  O1  UNL     1     -10.781  -6.001   5.327  1.00  0.00    -0.331 OA
HETATM   25  C2  UNL     1     -11.305  -5.087   6.205  1.00  0.00     0.155 C 
HETATM   26  C1  UNL     1     -10.925  -5.317   7.637  1.00  0.00     0.042 C 
HETATM   27  C27 UNL     1     -10.963  -3.658   5.773  1.00  0.00     0.193 C 
HETATM   28  C25 UNL     1      -9.470  -3.643   5.580  1.00  0.00     0.182 C 
HETATM   29  O7  UNL     1      -9.080  -4.608   4.637  1.00  0.00    -0.329 OA
BRANCH  27  30
HETATM   30  O9  UNL     1     -11.323  -2.749   6.764  1.00  0.00    -0.292 OA
BRANCH  30  31
HETATM   31  C28 UNL     1     -12.543  -2.081   6.802  1.00  0.00     0.379 C 
HETATM   32  O10 UNL     1     -12.732  -1.175   5.958  1.00  0.00    -0.237 OA
HETATM   33  N1  UNL     1     -13.490  -2.456   7.781  1.00  0.00    -0.252 N 
ATOM     34  H1  UNL     1     -13.281  -3.203   8.445  1.00  0.00     0.191 HD
BRANCH  33  35
HETATM   35  N2  UNL     1     -14.716  -1.790   7.826  1.00  0.00    -0.341 N 
ATOM     36  H22 UNL     1     -15.503  -2.149   7.287  1.00  0.00     0.177 HD
ATOM     37  H21 UNL     1     -14.800  -0.951   8.400  1.00  0.00     0.177 HD
ENDBRANCH  33  35
ENDBRANCH  30  31
ENDBRANCH  27  30
BRANCH  28  38
HETATM   38  C26 UNL     1      -9.005  -2.282   5.193  1.00  0.00     0.199 C 
BRANCH  38  39
HETATM   39  O8  UNL     1      -7.645  -2.088   5.306  1.00  0.00    -0.398 OA
ATOM     40  H8  UNL     1      -7.370  -1.181   5.247  1.00  0.00     0.209 HD
ENDBRANCH  38  39
ENDBRANCH  28  38
ENDBRANCH  22  23
ENDBRANCH   1  22
BRANCH   9  41
HETATM   41  O3  UNL     1      -4.859 -11.665   5.657  1.00  0.00    -0.389 OA
ATOM     42  H3  UNL     1      -4.712 -11.919   6.560  1.00  0.00     0.210 HD
ENDBRANCH   9  41
BRANCH  18  43
HETATM   43  O6  UNL     1      -1.970 -11.893   7.428  1.00  0.00    -0.387 OA
ATOM     44  H6  UNL     1      -2.607 -12.521   7.750  1.00  0.00     0.210 HD
ENDBRANCH  18  43
BRANCH  17  45
HETATM   45  O5  UNL     1      -1.625 -11.975   9.967  1.00  0.00    -0.392 OA
ATOM     46  H5  UNL     1      -1.929 -12.666   9.391  1.00  0.00     0.210 HD
ENDBRANCH  17  45
BRANCH  14  47
HETATM   47  O4  UNL     1      -1.123  -7.267  10.080  1.00  0.00    -0.390 OA
ATOM     48  H4  UNL     1      -0.656  -7.229  10.907  1.00  0.00     0.210 HD
ENDBRANCH  14  47
TORSDOF 11
ENDMDL
MODEL 4
REMARK VINA RESULT: -6.892910631      6.868     10.112
REMARK  11 active torsions:
REMARK  status: ('A' for Active; 'I' for Inactive)
REMARK    1  A    between atoms: C3_4  and  O2_5 
REMARK    2  A    between atoms: O2_5  and  C4_6 
REMARK    3  A    between atoms: C12_14  and  O3_15 
REMARK    4  A    between atoms: C17_21  and  O4_23 
REMARK    5  A    between atoms: C20_26  and  O5_27 
REMARK    6  A    between atoms: C21_29  and  O6_30 
REMARK    7  A    between atoms: C25_36  and  C26_37 
REMARK    8  A    between atoms: C26_37  and  O8_38 
REMARK    9  A    between atoms: C27_40  and  O9_41 
REMARK   10  A    between atoms: O9_41  and  C28_42 
REMARK       I    between atoms: C28_42  and  N1_44 
REMARK   11  A    between atoms: N1_44  and  N2_46 
ROOT
HETATM    1  C4  UNL     1     -14.061  -1.013   7.299  1.00  0.00     0.127 C 
HETATM    2  C5  UNL     1     -13.259  -1.074   6.019  1.00  0.00     0.033 C 
HETATM    3  C6  UNL     1     -11.866  -1.463   6.317  1.00  0.00     0.012 C 
HETATM    4  C7  UNL     1     -11.767  -2.799   7.047  1.00  0.00    -0.034 C 
HETATM    5  C8  UNL     1     -12.032  -3.850   5.970  1.00  0.00     0.016 C 
HETATM    6  C9  UNL     1     -12.684  -2.917   8.204  1.00  0.00    -0.001 C 
HETATM    7  C10 UNL     1     -14.032  -2.305   8.057  1.00  0.00     0.037 C 
HETATM    8  C11 UNL     1     -11.873  -2.325   9.331  1.00  0.00     0.043 C 
HETATM    9  C12 UNL     1     -10.537  -3.094   9.131  1.00  0.00     0.062 C 
HETATM   10  C13 UNL     1     -10.521  -4.339   9.884  1.00  0.00     0.038 C 
HETATM   11  C14 UNL     1     -10.494  -5.659   9.249  1.00  0.00     0.011 C 
HETATM   12  C15 UNL     1      -9.166  -6.236   8.873  1.00  0.00     0.025 C 
HETATM   13  C16 UNL     1      -9.500  -7.366   7.914  1.00  0.00     0.045 C 
HETATM   14  C17 UNL     1      -8.430  -7.812   7.012  1.00  0.00     0.057 C 
HETATM   15  C18 UNL     1      -7.767  -9.083   7.564  1.00  0.00     0.045 C 
HETATM   16  C19 UNL     1      -7.379  -6.788   6.691  1.00  0.00     0.072 C 
HETATM   17  C20 UNL     1      -6.923  -6.228   8.003  1.00  0.00     0.155 C 
HETATM   18  C21 UNL     1      -8.083  -5.331   8.504  1.00  0.00     0.087 C 
HETATM   19  C22 UNL     1      -8.259  -4.197   7.611  1.00  0.00     0.041 C 
HETATM   20  C23 UNL     1      -9.567  -3.987   6.935  1.00  0.00     0.011 C 
HETATM   21  C24 UNL     1     -10.395  -2.992   7.687  1.00  0.00     0.028 C 
ENDROOT
BRANCH   1  22
HETATM   22  O2  UNL     1     -15.385  -0.781   6.923  1.00  0.00    -0.334 OA
BRANCH  22  23
HETATM   23  C3  UNL     1     -15.949   0.257   7.699  1.00  0.00     0.414 C 
HETATM   24  O1  UNL     1     -16.628   1.069   6.776  1.00  0.00    -0.331 OA
HETATM   25  C2  UNL     1     -17.173   2.184   7.360  1.00  0.00     0.155 C 
HETATM   26  C1  UNL     1     -18.341   1.905   8.257  1.00  0.00     0.042 C 
HETATM   27  C27 UNL     1     -16.101   2.993   8.095  1.00  0.00     0.193 C 
HETATM   28  C25 UNL     1     -15.412   2.012   9.006  1.00  0.00     0.182 C 
HETATM   29  O7  UNL     1     -14.880   0.939   8.272  1.00  0.00    -0.329 OA
BRANCH  27  30
HETATM   30  O9  UNL     1     -16.685   4.009   8.846  1.00  0.00    -0.292 OA
BRANCH  30  31
HETATM   31  C28 UNL     1     -16.727   5.344   8.452  1.00  0.00     0.379 C 
HETATM   32  O10 UNL     1     -17.855   5.857   8.269  1.00  0.00    -0.237 OA
HETATM   33  N1  UNL     1     -15.508   6.038   8.284  1.00  0.00    -0.252 N 
ATOM     34  H1  UNL     1     -14.617   5.568   8.448  1.00  0.00     0.191 HD
BRANCH  33  35
HETATM   35  N2  UNL     1     -15.542   7.376   7.889  1.00  0.00    -0.341 N 
ATOM     36  H22 UNL     1     -16.203   8.014   8.331  1.00  0.00     0.177 HD
ATOM     37  H21 UNL     1     -14.901   7.692   7.161  1.00  0.00     0.177 HD
ENDBRANCH  33  35
ENDBRANCH  30  31
ENDBRANCH  27  30
BRANCH  28  38
HETATM   38  C26 UNL     1     -14.363   2.695   9.813  1.00  0.00     0.199 C 
BRANCH  38  39
HETATM   39  O8  UNL     1     -13.953   3.910   9.308  1.00  0.00    -0.398 OA
ATOM     40  H8  UNL     1     -14.373   4.664   9.704  1.00  0.00     0.209 HD
ENDBRANCH  38  39
ENDBRANCH  28  38
ENDBRANCH  22  23
ENDBRANCH   1  22
BRANCH   9  41
HETATM   41  O3  UNL     1      -9.638  -2.205   9.802  1.00  0.00    -0.389 OA
ATOM     42  H3  UNL     1      -9.677  -1.459   9.215  1.00  0.00     0.210 HD
ENDBRANCH   9  41
BRANCH  18  43
HETATM   43  O6  UNL     1      -7.489  -4.833   9.706  1.00  0.00    -0.387 OA
ATOM     44  H6  UNL     1      -7.465  -3.885   9.653  1.00  0.00     0.210 HD
ENDBRANCH  18  43
BRANCH  17  45
HETATM   45  O5  UNL     1      -5.770  -5.461   7.910  1.00  0.00    -0.392 OA
ATOM     46  H5  UNL     1      -5.466  -5.128   8.746  1.00  0.00     0.210 HD
ENDBRANCH  17  45
BRANCH  14  47
HETATM   47  O4  UNL     1      -8.969  -8.218   5.769  1.00  0.00    -0.390 OA
ATOM     48  H4  UNL     1      -9.699  -8.813   5.902  1.00  0.00     0.210 HD
ENDBRANCH  14  47
TORSDOF 11
ENDMDL
MODEL 5
REMARK VINA RESULT: -6.723153497      4.285     11.029
REMARK  11 active torsions:
REMARK  status: ('A' for Active; 'I' for Inactive)
REMARK    1  A    between atoms: C3_4  and  O2_5 
REMARK    2  A    between atoms: O2_5  and  C4_6 
REMARK    3  A    between atoms: C12_14  and  O3_15 
REMARK    4  A    between atoms: C17_21  and  O4_23 
REMARK    5  A    between atoms: C20_26  and  O5_27 
REMARK    6  A    between atoms: C21_29  and  O6_30 
REMARK    7  A    between atoms: C25_36  and  C26_37 
REMARK    8  A    between atoms: C26_37  and  O8_38 
REMARK    9  A    between atoms: C27_40  and  O9_41 
REMARK   10  A    between atoms: O9_41  and  C28_42 
REMARK       I    between atoms: C28_42  and  N1_44 
REMARK   11  A    between atoms: N1_44  and  N2_46 
ROOT
HETATM    1  C4  UNL     1     -11.253  -9.559  11.420  1.00  0.00     0.127 C 
HETATM    2  C5  UNL     1     -11.137 -10.022   9.986  1.00  0.00     0.033 C 
HETATM    3  C6  UNL     1     -11.515  -8.927   9.071  1.00  0.00     0.012 C 
HETATM    4  C7  UNL     1     -10.676  -7.669   9.272  1.00  0.00    -0.034 C 
HETATM    5  C8  UNL     1      -9.328  -7.996   8.630  1.00  0.00     0.016 C 
HETATM    6  C9  UNL     1     -10.552  -7.254  10.688  1.00  0.00    -0.001 C 
HETATM    7  C10 UNL     1     -10.428  -8.339  11.698  1.00  0.00     0.037 C 
HETATM    8  C11 UNL     1     -11.769  -6.383  10.885  1.00  0.00     0.043 C 
HETATM    9  C12 UNL     1     -11.643  -5.462   9.639  1.00  0.00     0.062 C 
HETATM   10  C13 UNL     1     -10.850  -4.277   9.931  1.00  0.00     0.038 C 
HETATM   11  C14 UNL     1      -9.548  -4.013   9.313  1.00  0.00     0.011 C 
HETATM   12  C15 UNL     1      -9.522  -3.318   7.988  1.00  0.00     0.025 C 
HETATM   13  C16 UNL     1      -8.117  -3.555   7.462  1.00  0.00     0.045 C 
HETATM   14  C17 UNL     1      -7.917  -3.423   6.013  1.00  0.00     0.057 C 
HETATM   15  C18 UNL     1      -7.319  -2.045   5.684  1.00  0.00     0.045 C 
HETATM   16  C19 UNL     1      -9.131  -3.667   5.162  1.00  0.00     0.072 C 
HETATM   17  C20 UNL     1     -10.226  -2.825   5.742  1.00  0.00     0.155 C 
HETATM   18  C21 UNL     1     -10.634  -3.518   7.066  1.00  0.00     0.087 C 
HETATM   19  C22 UNL     1     -11.219  -4.820   6.790  1.00  0.00     0.041 C 
HETATM   20  C23 UNL     1     -10.603  -6.042   7.372  1.00  0.00     0.011 C 
HETATM   21  C24 UNL     1     -11.321  -6.449   8.621  1.00  0.00     0.028 C 
ENDROOT
BRANCH   1  22
HETATM   22  O2  UNL     1     -10.748 -10.592  12.210  1.00  0.00    -0.334 OA
BRANCH  22  23
HETATM   23  C3  UNL     1     -11.607 -10.851  13.302  1.00  0.00     0.414 C 
HETATM   24  O1  UNL     1     -12.186 -12.098  13.017  1.00  0.00    -0.331 OA
HETATM   25  C2  UNL     1     -13.121 -12.467  13.950  1.00  0.00     0.155 C 
HETATM   26  C1  UNL     1     -12.551 -12.829  15.288  1.00  0.00     0.042 C 
HETATM   27  C27 UNL     1     -14.204 -11.394  14.090  1.00  0.00     0.193 C 
HETATM   28  C25 UNL     1     -13.464 -10.106  14.337  1.00  0.00     0.182 C 
HETATM   29  O7  UNL     1     -12.564  -9.842  13.292  1.00  0.00    -0.329 OA
BRANCH  27  30
HETATM   30  O9  UNL     1     -15.036 -11.678  15.170  1.00  0.00    -0.292 OA
BRANCH  30  31
HETATM   31  C28 UNL     1     -16.268 -12.317  15.058  1.00  0.00     0.379 C 
HETATM   32  O10 UNL     1     -16.406 -13.411  15.653  1.00  0.00    -0.237 OA
HETATM   33  N1  UNL     1     -17.281 -11.703  14.289  1.00  0.00    -0.252 N 
ATOM     34  H1  UNL     1     -17.112 -10.810  13.826  1.00  0.00     0.191 HD
BRANCH  33  35
HETATM   35  N2  UNL     1     -18.518 -12.338  14.172  1.00  0.00    -0.341 N 
ATOM     36  H22 UNL     1     -19.193 -12.269  14.933  1.00  0.00     0.177 HD
ATOM     37  H21 UNL     1     -18.724 -12.864  13.323  1.00  0.00     0.177 HD
ENDBRANCH  33  35
ENDBRANCH  30  31
ENDBRANCH  27  30
BRANCH  28  38
HETATM   38  C26 UNL     1     -14.421  -8.981  14.532  1.00  0.00     0.199 C 
BRANCH  38  39
HETATM   39  O8  UNL     1     -15.631  -9.143  13.893  1.00  0.00    -0.398 OA
ATOM     40  H8  UNL     1     -15.679  -8.745  13.031  1.00  0.00     0.209 HD
ENDBRANCH  38  39
ENDBRANCH  28  38
ENDBRANCH  22  23
ENDBRANCH   1  22
BRANCH   9  41
HETATM   41  O3  UNL     1     -12.999  -5.020   9.520  1.00  0.00    -0.389 OA
ATOM     42  H3  UNL     1     -13.354  -5.723   8.989  1.00  0.00     0.210 HD
ENDBRANCH   9  41
BRANCH  18  43
HETATM   43  O6  UNL     1     -11.701  -2.651   7.461  1.00  0.00    -0.387 OA
ATOM     44  H6  UNL     1     -12.026  -2.949   8.303  1.00  0.00     0.210 HD
ENDBRANCH  18  43
BRANCH  17  45
HETATM   45  O5  UNL     1     -11.343  -2.726   4.923  1.00  0.00    -0.392 OA
ATOM     46  H5  UNL     1     -12.164  -2.721   5.400  1.00  0.00     0.210 HD
ENDBRANCH  17  45
BRANCH  14  47
HETATM   47  O4  UNL     1      -6.937  -4.338   5.563  1.00  0.00    -0.390 OA
ATOM     48  H4  UNL     1      -7.014  -4.474   4.626  1.00  0.00     0.210 HD
ENDBRANCH  14  47
TORSDOF 11
ENDMDL
