MODEL 1
REMARK VINA RESULT: -7.631444737      0.000      0.000
REMARK  11 active torsions:
REMARK  status: ('A' for Active; 'I' for Inactive)
REMARK    1  A    between atoms: C2_2  and  O1_3 
REMARK    2  A    between atoms: C2_2  and  N1_5 
REMARK    3  A    between atoms: C4_10  and  N3_11 
REMARK    4  A    between atoms: N3_11  and  N4_13 
REMARK    5  A    between atoms: N4_13  and  C5_15 
REMARK    6  A    between atoms: N5_16  and  O2_18 
REMARK    7  A    between atoms: O2_18  and  C6_19 
REMARK    8  A    between atoms: C6_19  and  C7_20 
REMARK    9  A    between atoms: C7_20  and  O3_21 
REMARK   10  A    between atoms: O3_21  and  N6_22 
REMARK   11  A    between atoms: N6_22  and  C8_24 
ROOT
HETATM    1  N1  UNL     1      -7.022  21.511 -15.125  1.00  0.00    -0.175 N 
ATOM      2  H1  UNL     1      -6.026  21.383 -15.300  1.00  0.00     0.186 HD
HETATM    3  C3  UNL     1      -7.654  20.419 -15.065  1.00  0.00     0.687 A 
HETATM    4  N2  UNL     1      -6.934  19.245 -15.245  1.00  0.00    -0.174 N 
ATOM      5  H2  UNL     1      -5.934  19.308 -15.440  1.00  0.00     0.186 HD
HETATM    6  C4  UNL     1      -7.499  18.032 -15.171  1.00  0.00     0.155 A 
HETATM    7  C9  UNL     1      -8.900  17.924 -14.900  1.00  0.00     0.123 A 
HETATM    8  C10 UNL     1      -9.455  16.666 -14.849  1.00  0.00     0.267 A 
HETATM    9  O4  UNL     1      -8.855  15.575 -14.962  1.00  0.00    -0.267 OA
HETATM   10  N8  UNL     1     -10.819  16.552 -14.625  1.00  0.00    -0.274 N 
ATOM     11  H8  UNL     1     -11.290  15.649 -14.577  1.00  0.00     0.173 HD
HETATM   12  C11 UNL     1     -11.474  17.707 -14.478  1.00  0.00     0.330 A 
HETATM   13  O5  UNL     1     -12.734  17.644 -14.253  1.00  0.00    -0.246 OA
HETATM   14  N9  UNL     1     -10.935  18.927 -14.530  1.00  0.00    -0.288 N 
HETATM   15  C12 UNL     1     -11.744  20.099 -14.597  1.00  0.00     0.163 C 
HETATM   16  C13 UNL     1      -9.580  19.090 -14.742  1.00  0.00     0.146 A 
HETATM   17  N10 UNL     1      -8.976  20.284 -14.826  1.00  0.00    -0.175 N 
ATOM     18  H10 UNL     1      -9.540  21.125 -14.704  1.00  0.00     0.186 HD
ENDROOT
BRANCH   6  19
HETATM   19  N3  UNL     1      -7.039  16.984 -15.549  1.00  0.00    -0.283 N 
ATOM     20  H3  UNL     1      -7.328  16.230 -14.927  1.00  0.00     0.188 HD
BRANCH  19  21
HETATM   21  N4  UNL     1      -6.254  16.493 -16.549  1.00  0.00    -0.293 N 
ATOM     22  H4  UNL     1      -6.164  16.932 -17.465  1.00  0.00     0.187 HD
BRANCH  21  23
HETATM   23  C5  UNL     1      -5.557  15.274 -16.165  1.00  0.00     0.220 C 
HETATM   24  N5  UNL     1      -5.619  14.165 -16.658  1.00  0.00    -0.261 N 
ATOM     25  H5  UNL     1      -5.026  13.442 -16.250  1.00  0.00     0.195 HD
BRANCH  24  26
HETATM   26  O2  UNL     1      -6.443  13.782 -17.751  1.00  0.00    -0.277 OA
BRANCH  26  27
HETATM   27  C6  UNL     1      -7.034  12.526 -17.327  1.00  0.00     0.230 C 
BRANCH  27  28
HETATM   28  C7  UNL     1      -8.577  12.863 -17.582  1.00  0.00     0.230 C 
BRANCH  28  29
HETATM   29  O3  UNL     1      -8.467  14.045 -18.254  1.00  0.00    -0.277 OA
BRANCH  29  30
HETATM   30  N6  UNL     1      -9.380  14.953 -17.943  1.00  0.00    -0.263 N 
ATOM     31  H6  UNL     1     -10.063  14.679 -17.236  1.00  0.00     0.195 HD
BRANCH  30  32
HETATM   32  C8  UNL     1      -9.517  16.228 -18.461  1.00  0.00     0.197 C 
HETATM   33  N7  UNL     1     -10.294  16.584 -19.450  1.00  0.00    -0.394 N 
ATOM     34  H72 UNL     1     -10.846  15.835 -19.869  1.00  0.00     0.156 HD
ATOM     35  H71 UNL     1     -10.395  17.523 -19.832  1.00  0.00     0.156 HD
ENDBRANCH  30  32
ENDBRANCH  29  30
ENDBRANCH  28  29
ENDBRANCH  27  28
ENDBRANCH  26  27
ENDBRANCH  24  26
ENDBRANCH  21  23
ENDBRANCH  19  21
ENDBRANCH   6  19
BRANCH   1  36
HETATM   36  C2  UNL     1      -7.379  22.837 -15.005  1.00  0.00     0.127 C 
HETATM   37  C1  UNL     1      -8.594  23.504 -15.526  1.00  0.00     0.098 C 
BRANCH  36  38
HETATM   38  O1  UNL     1      -6.521  23.580 -14.346  1.00  0.00    -0.349 OA
ATOM     39  H1  UNL     1      -5.624  23.272 -14.301  1.00  0.00     0.219 HD
ENDBRANCH  36  38
ENDBRANCH   1  36
TORSDOF 11
ENDMDL
MODEL 2
REMARK VINA RESULT: -7.530168452      3.442      6.956
REMARK  11 active torsions:
REMARK  status: ('A' for Active; 'I' for Inactive)
REMARK    1  A    between atoms: C2_2  and  O1_3 
REMARK    2  A    between atoms: C2_2  and  N1_5 
REMARK    3  A    between atoms: C4_10  and  N3_11 
REMARK    4  A    between atoms: N3_11  and  N4_13 
REMARK    5  A    between atoms: N4_13  and  C5_15 
REMARK    6  A    between atoms: N5_16  and  O2_18 
REMARK    7  A    between atoms: O2_18  and  C6_19 
REMARK    8  A    between atoms: C6_19  and  C7_20 
REMARK    9  A    between atoms: C7_20  and  O3_21 
REMARK   10  A    between atoms: O3_21  and  N6_22 
REMARK   11  A    between atoms: N6_22  and  C8_24 
ROOT
HETATM    1  N1  UNL     1     -11.914  14.676 -15.569  1.00  0.00    -0.175 N 
ATOM      2  H1  UNL     1     -11.484  15.587 -15.728  1.00  0.00     0.186 HD
HETATM    3  C3  UNL     1     -11.242  13.724 -16.058  1.00  0.00     0.687 A 
HETATM    4  N2  UNL     1     -10.062  14.040 -16.722  1.00  0.00    -0.174 N 
ATOM      5  H2  UNL     1      -9.798  15.022 -16.809  1.00  0.00     0.186 HD
HETATM    6  C4  UNL     1      -9.259  13.108 -17.251  1.00  0.00     0.155 A 
HETATM    7  C9  UNL     1      -9.616  11.727 -17.140  1.00  0.00     0.123 A 
HETATM    8  C10 UNL     1      -8.780  10.794 -17.709  1.00  0.00     0.267 A 
HETATM    9  O4  UNL     1      -7.689  11.012 -18.282  1.00  0.00    -0.267 OA
HETATM   10  N8  UNL     1      -9.137   9.455 -17.641  1.00  0.00    -0.274 N 
ATOM     11  H8  UNL     1      -8.560   8.716 -18.044  1.00  0.00     0.173 HD
HETATM   12  C11 UNL     1     -10.287   9.200 -17.012  1.00  0.00     0.330 A 
HETATM   13  O5  UNL     1     -10.643   7.973 -16.912  1.00  0.00    -0.246 OA
HETATM   14  N9  UNL     1     -11.098  10.106 -16.461  1.00  0.00    -0.288 N 
HETATM   15  C12 UNL     1     -12.410   9.765 -16.022  1.00  0.00     0.163 C 
HETATM   16  C13 UNL     1     -10.780  11.449 -16.498  1.00  0.00     0.146 A 
HETATM   17  N10 UNL     1     -11.557  12.413 -15.984  1.00  0.00    -0.175 N 
ATOM     18  H10 UNL     1     -12.424  12.145 -15.517  1.00  0.00     0.186 HD
ENDROOT
BRANCH   6  19
HETATM   19  N3  UNL     1      -8.368  13.273 -18.046  1.00  0.00    -0.283 N 
ATOM     20  H3  UNL     1      -8.027  12.372 -18.382  1.00  0.00     0.188 HD
BRANCH  19  21
HETATM   21  N4  UNL     1      -7.674  14.287 -18.635  1.00  0.00    -0.293 N 
ATOM     22  H4  UNL     1      -7.969  14.748 -19.495  1.00  0.00     0.187 HD
BRANCH  21  23
HETATM   23  C5  UNL     1      -6.466  14.639 -17.903  1.00  0.00     0.220 C 
HETATM   24  N5  UNL     1      -6.212  15.650 -17.280  1.00  0.00    -0.261 N 
ATOM     25  H5  UNL     1      -5.305  15.692 -16.815  1.00  0.00     0.195 HD
BRANCH  24  26
HETATM   26  O2  UNL     1      -7.060  16.781 -17.141  1.00  0.00    -0.277 OA
BRANCH  26  27
HETATM   27  C6  UNL     1      -7.555  16.689 -15.780  1.00  0.00     0.230 C 
BRANCH  27  28
HETATM   28  C7  UNL     1      -9.060  17.177 -16.015  1.00  0.00     0.230 C 
BRANCH  28  29
HETATM   29  O3  UNL     1      -9.232  16.838 -17.325  1.00  0.00    -0.277 OA
BRANCH  29  30
HETATM   30  N6  UNL     1     -10.278  17.396 -17.915  1.00  0.00    -0.263 N 
ATOM     31  H6  UNL     1     -10.741  16.836 -18.632  1.00  0.00     0.195 HD
BRANCH  30  32
HETATM   32  C8  UNL     1     -10.818  18.647 -17.678  1.00  0.00     0.197 C 
HETATM   33  N7  UNL     1     -11.154  19.532 -18.579  1.00  0.00    -0.394 N 
ATOM     34  H72 UNL     1     -10.995  19.256 -19.548  1.00  0.00     0.156 HD
ATOM     35  H71 UNL     1     -11.552  20.454 -18.404  1.00  0.00     0.156 HD
ENDBRANCH  30  32
ENDBRANCH  29  30
ENDBRANCH  28  29
ENDBRANCH  27  28
ENDBRANCH  26  27
ENDBRANCH  24  26
ENDBRANCH  21  23
ENDBRANCH  19  21
ENDBRANCH   6  19
BRANCH   1  36
HETATM   36  C2  UNL     1     -13.097  14.756 -14.868  1.00  0.00     0.127 C 
HETATM   37  C1  UNL     1     -13.303  15.217 -13.476  1.00  0.00     0.098 C 
BRANCH  36  38
HETATM   38  O1  UNL     1     -14.159  14.369 -15.536  1.00  0.00    -0.349 OA
ATOM     39  H1  UNL     1     -14.546  13.537 -15.292  1.00  0.00     0.219 HD
ENDBRANCH  36  38
ENDBRANCH   1  36
TORSDOF 11
ENDMDL
MODEL 3
REMARK VINA RESULT: -7.255485919      2.865      7.659
REMARK  11 active torsions:
REMARK  status: ('A' for Active; 'I' for Inactive)
REMARK    1  A    between atoms: C2_2  and  O1_3 
REMARK    2  A    between atoms: C2_2  and  N1_5 
REMARK    3  A    between atoms: C4_10  and  N3_11 
REMARK    4  A    between atoms: N3_11  and  N4_13 
REMARK    5  A    between atoms: N4_13  and  C5_15 
REMARK    6  A    between atoms: N5_16  and  O2_18 
REMARK    7  A    between atoms: O2_18  and  C6_19 
REMARK    8  A    between atoms: C6_19  and  C7_20 
REMARK    9  A    between atoms: C7_20  and  O3_21 
REMARK   10  A    between atoms: O3_21  and  N6_22 
REMARK   11  A    between atoms: N6_22  and  C8_24 
ROOT
HETATM    1  N1  UNL     1     -12.746  13.887 -14.873  1.00  0.00    -0.175 N 
ATOM      2  H1  UNL     1     -13.124  14.815 -14.682  1.00  0.00     0.186 HD
HETATM    3  C3  UNL     1     -11.710  13.918 -15.595  1.00  0.00     0.687 A 
HETATM    4  N2  UNL     1     -11.251  15.161 -16.014  1.00  0.00    -0.174 N 
ATOM      5  H2  UNL     1     -11.777  15.993 -15.746  1.00  0.00     0.186 HD
HETATM    6  C4  UNL     1     -10.146  15.311 -16.756  1.00  0.00     0.155 A 
HETATM    7  C9  UNL     1      -9.396  14.155 -17.144  1.00  0.00     0.123 A 
HETATM    8  C10 UNL     1      -8.276  14.339 -17.921  1.00  0.00     0.267 A 
HETATM    9  O4  UNL     1      -7.792  15.430 -18.295  1.00  0.00    -0.267 OA
HETATM   10  N8  UNL     1      -7.565  13.222 -18.334  1.00  0.00    -0.274 N 
ATOM     11  H8  UNL     1      -6.727  13.292 -18.911  1.00  0.00     0.173 HD
HETATM   12  C11 UNL     1      -8.053  12.048 -17.924  1.00  0.00     0.330 A 
HETATM   13  O5  UNL     1      -7.414  10.992 -18.271  1.00  0.00    -0.246 OA
HETATM   14  N9  UNL     1      -9.141  11.870 -17.172  1.00  0.00    -0.288 N 
HETATM   15  C12 UNL     1      -9.715  10.580 -16.982  1.00  0.00     0.163 C 
HETATM   16  C13 UNL     1      -9.876  12.953 -16.730  1.00  0.00     0.146 A 
HETATM   17  N10 UNL     1     -10.989  12.847 -15.990  1.00  0.00    -0.175 N 
ATOM     18  H10 UNL     1     -11.304  11.917 -15.713  1.00  0.00     0.186 HD
ENDROOT
BRANCH   6  19
HETATM   19  N3  UNL     1      -9.803  16.288 -17.374  1.00  0.00    -0.283 N 
ATOM     20  H3  UNL     1      -8.794  16.416 -17.296  1.00  0.00     0.188 HD
BRANCH  19  21
HETATM   21  N4  UNL     1     -10.343  17.275 -18.143  1.00  0.00    -0.293 N 
ATOM     22  H4  UNL     1     -10.460  17.204 -19.153  1.00  0.00     0.187 HD
BRANCH  21  23
HETATM   23  C5  UNL     1     -10.735  18.441 -17.364  1.00  0.00     0.220 C 
HETATM   24  N5  UNL     1     -10.120  19.028 -16.496  1.00  0.00    -0.261 N 
ATOM     25  H5  UNL     1     -10.568  19.846 -16.083  1.00  0.00     0.195 HD
BRANCH  24  26
HETATM   26  O2  UNL     1      -8.834  18.679 -16.002  1.00  0.00    -0.277 OA
BRANCH  26  27
HETATM   27  C6  UNL     1      -8.947  18.850 -14.565  1.00  0.00     0.230 C 
BRANCH  27  28
HETATM   28  C7  UNL     1      -7.626  19.714 -14.300  1.00  0.00     0.230 C 
BRANCH  28  29
HETATM   29  O3  UNL     1      -7.264  20.016 -15.579  1.00  0.00    -0.277 OA
BRANCH  29  30
HETATM   30  N6  UNL     1      -7.194  21.310 -15.851  1.00  0.00    -0.263 N 
ATOM     31  H6  UNL     1      -7.078  21.557 -16.834  1.00  0.00     0.195 HD
BRANCH  30  32
HETATM   32  C8  UNL     1      -7.258  22.367 -14.962  1.00  0.00     0.197 C 
HETATM   33  N7  UNL     1      -7.595  23.598 -15.242  1.00  0.00    -0.394 N 
ATOM     34  H72 UNL     1      -7.831  23.780 -16.218  1.00  0.00     0.156 HD
ATOM     35  H71 UNL     1      -7.643  24.377 -14.586  1.00  0.00     0.156 HD
ENDBRANCH  30  32
ENDBRANCH  29  30
ENDBRANCH  28  29
ENDBRANCH  27  28
ENDBRANCH  26  27
ENDBRANCH  24  26
ENDBRANCH  21  23
ENDBRANCH  19  21
ENDBRANCH   6  19
BRANCH   1  36
HETATM   36  C2  UNL     1     -13.479  12.879 -14.287  1.00  0.00     0.127 C 
HETATM   37  C1  UNL     1     -14.952  12.729 -14.243  1.00  0.00     0.098 C 
BRANCH  36  38
HETATM   38  O1  UNL     1     -12.763  11.948 -13.700  1.00  0.00    -0.349 OA
ATOM     39  H1  UNL     1     -12.471  12.119 -12.812  1.00  0.00     0.219 HD
ENDBRANCH  36  38
ENDBRANCH   1  36
TORSDOF 11
ENDMDL
MODEL 4
REMARK VINA RESULT: -7.125747867      2.740      7.236
REMARK  11 active torsions:
REMARK  status: ('A' for Active; 'I' for Inactive)
REMARK    1  A    between atoms: C2_2  and  O1_3 
REMARK    2  A    between atoms: C2_2  and  N1_5 
REMARK    3  A    between atoms: C4_10  and  N3_11 
REMARK    4  A    between atoms: N3_11  and  N4_13 
REMARK    5  A    between atoms: N4_13  and  C5_15 
REMARK    6  A    between atoms: N5_16  and  O2_18 
REMARK    7  A    between atoms: O2_18  and  C6_19 
REMARK    8  A    between atoms: C6_19  and  C7_20 
REMARK    9  A    between atoms: C7_20  and  O3_21 
REMARK   10  A    between atoms: O3_21  and  N6_22 
REMARK   11  A    between atoms: N6_22  and  C8_24 
ROOT
HETATM    1  N1  UNL     1     -12.605  14.093 -14.626  1.00  0.00    -0.175 N 
ATOM      2  H1  UNL     1     -12.940  15.040 -14.447  1.00  0.00     0.186 HD
HETATM    3  C3  UNL     1     -11.634  14.060 -15.433  1.00  0.00     0.687 A 
HETATM    4  N2  UNL     1     -11.180  15.268 -15.948  1.00  0.00    -0.174 N 
ATOM      5  H2  UNL     1     -11.658  16.127 -15.675  1.00  0.00     0.186 HD
HETATM    6  C4  UNL     1     -10.139  15.351 -16.787  1.00  0.00     0.155 A 
HETATM    7  C9  UNL     1      -9.457  14.155 -17.181  1.00  0.00     0.123 A 
HETATM    8  C10 UNL     1      -8.403  14.270 -18.059  1.00  0.00     0.267 A 
HETATM    9  O4  UNL     1      -7.923  15.328 -18.523  1.00  0.00    -0.267 OA
HETATM   10  N8  UNL     1      -7.760  13.114 -18.477  1.00  0.00    -0.274 N 
ATOM     11  H8  UNL     1      -6.973  13.132 -19.126  1.00  0.00     0.173 HD
HETATM   12  C11 UNL     1      -8.243  11.976 -17.973  1.00  0.00     0.330 A 
HETATM   13  O5  UNL     1      -7.665  10.886 -18.322  1.00  0.00    -0.246 OA
HETATM   14  N9  UNL     1      -9.267  11.865 -17.123  1.00  0.00    -0.288 N 
HETATM   15  C12 UNL     1      -9.858  10.603 -16.826  1.00  0.00     0.163 C 
HETATM   16  C13 UNL     1      -9.932  12.989 -16.673  1.00  0.00     0.146 A 
HETATM   17  N10 UNL     1     -10.979  12.950 -15.837  1.00  0.00    -0.175 N 
ATOM     18  H10 UNL     1     -11.295  12.043 -15.492  1.00  0.00     0.186 HD
ENDROOT
BRANCH   6  19
HETATM   19  N3  UNL     1      -9.824  16.288 -17.476  1.00  0.00    -0.283 N 
ATOM     20  H3  UNL     1      -8.809  16.327 -17.572  1.00  0.00     0.188 HD
BRANCH  19  21
HETATM   21  N4  UNL     1     -10.401  17.311 -18.167  1.00  0.00    -0.293 N 
ATOM     22  H4  UNL     1     -10.533  17.307 -19.178  1.00  0.00     0.187 HD
BRANCH  21  23
HETATM   23  C5  UNL     1     -10.807  18.411 -17.303  1.00  0.00     0.220 C 
HETATM   24  N5  UNL     1     -10.166  19.002 -16.457  1.00  0.00    -0.261 N 
ATOM     25  H5  UNL     1     -10.634  19.767 -15.971  1.00  0.00     0.195 HD
BRANCH  24  26
HETATM   26  O2  UNL     1      -8.824  18.725 -16.082  1.00  0.00    -0.277 OA
BRANCH  26  27
HETATM   27  C6  UNL     1      -8.913  18.372 -14.677  1.00  0.00     0.230 C 
BRANCH  27  28
HETATM   28  C7  UNL     1      -7.821  17.204 -14.630  1.00  0.00     0.230 C 
BRANCH  28  29
HETATM   29  O3  UNL     1      -7.394  17.209 -15.925  1.00  0.00    -0.277 OA
BRANCH  29  30
HETATM   30  N6  UNL     1      -6.298  16.502 -16.157  1.00  0.00    -0.263 N 
ATOM     31  H6  UNL     1      -5.658  16.880 -16.855  1.00  0.00     0.195 HD
BRANCH  30  32
HETATM   32  C8  UNL     1      -5.918  15.310 -15.565  1.00  0.00     0.197 C 
HETATM   33  N7  UNL     1      -4.827  15.098 -14.879  1.00  0.00    -0.394 N 
ATOM     34  H72 UNL     1      -4.204  15.901 -14.779  1.00  0.00     0.156 HD
ATOM     35  H71 UNL     1      -4.547  14.220 -14.443  1.00  0.00     0.156 HD
ENDBRANCH  30  32
ENDBRANCH  29  30
ENDBRANCH  28  29
ENDBRANCH  27  28
ENDBRANCH  26  27
ENDBRANCH  24  26
ENDBRANCH  21  23
ENDBRANCH  19  21
ENDBRANCH   6  19
BRANCH   1  36
HETATM   36  C2  UNL     1     -13.312  13.135 -13.933  1.00  0.00     0.127 C 
HETATM   37  C1  UNL     1     -13.647  13.114 -12.490  1.00  0.00     0.098 C 
BRANCH  36  38
HETATM   38  O1  UNL     1     -13.729  12.126 -14.661  1.00  0.00    -0.349 OA
ATOM     39  H1  UNL     1     -14.572  11.748 -14.439  1.00  0.00     0.219 HD
ENDBRANCH  36  38
ENDBRANCH   1  36
TORSDOF 11
ENDMDL
MODEL 5
REMARK VINA RESULT: -7.054195918      2.580      6.879
REMARK  11 active torsions:
REMARK  status: ('A' for Active; 'I' for Inactive)
REMARK    1  A    between atoms: C2_2  and  O1_3 
REMARK    2  A    between atoms: C2_2  and  N1_5 
REMARK    3  A    between atoms: C4_10  and  N3_11 
REMARK    4  A    between atoms: N3_11  and  N4_13 
REMARK    5  A    between atoms: N4_13  and  C5_15 
REMARK    6  A    between atoms: N5_16  and  O2_18 
REMARK    7  A    between atoms: O2_18  and  C6_19 
REMARK    8  A    between atoms: C6_19  and  C7_20 
REMARK    9  A    between atoms: C7_20  and  O3_21 
REMARK   10  A    between atoms: O3_21  and  N6_22 
REMARK   11  A    between atoms: N6_22  and  C8_24 
ROOT
HETATM    1  N1  UNL     1     -11.417  15.531 -15.298  1.00  0.00    -0.175 N 
ATOM      2  H1  UNL     1     -10.999  16.456 -15.392  1.00  0.00     0.186 HD
HETATM    3  C3  UNL     1     -10.736  14.625 -15.854  1.00  0.00     0.687 A 
HETATM    4  N2  UNL     1      -9.562  15.001 -16.496  1.00  0.00    -0.174 N 
ATOM      5  H2  UNL     1      -9.308  15.990 -16.514  1.00  0.00     0.186 HD
HETATM    6  C4  UNL     1      -8.748  14.119 -17.091  1.00  0.00     0.155 A 
HETATM    7  C9  UNL     1      -9.089  12.728 -17.077  1.00  0.00     0.123 A 
HETATM    8  C10 UNL     1      -8.243  11.848 -17.713  1.00  0.00     0.267 A 
HETATM    9  O4  UNL     1      -7.157  12.119 -18.270  1.00  0.00    -0.267 OA
HETATM   10  N8  UNL     1      -8.584  10.504 -17.739  1.00  0.00    -0.274 N 
ATOM     11  H8  UNL     1      -8.000   9.802 -18.193  1.00  0.00     0.173 HD
HETATM   12  C11 UNL     1      -9.730  10.191 -17.127  1.00  0.00     0.330 A 
HETATM   13  O5  UNL     1     -10.071   8.955 -17.114  1.00  0.00    -0.246 OA
HETATM   14  N9  UNL     1     -10.550  11.046 -16.513  1.00  0.00    -0.288 N 
HETATM   15  C12 UNL     1     -11.857  10.659 -16.096  1.00  0.00     0.163 C 
HETATM   16  C13 UNL     1     -10.248  12.392 -16.455  1.00  0.00     0.146 A 
HETATM   17  N10 UNL     1     -11.035  13.308 -15.873  1.00  0.00    -0.175 N 
ATOM     18  H10 UNL     1     -11.898  12.997 -15.425  1.00  0.00     0.186 HD
ENDROOT
BRANCH   6  19
HETATM   19  N3  UNL     1      -7.862  14.350 -17.874  1.00  0.00    -0.283 N 
ATOM     20  H3  UNL     1      -7.849  13.642 -18.609  1.00  0.00     0.188 HD
BRANCH  19  21
HETATM   21  N4  UNL     1      -6.870  15.261 -18.083  1.00  0.00    -0.293 N 
ATOM     22  H4  UNL     1      -6.624  15.627 -19.002  1.00  0.00     0.187 HD
BRANCH  21  23
HETATM   23  C5  UNL     1      -6.201  15.653 -16.851  1.00  0.00     0.220 C 
HETATM   24  N5  UNL     1      -6.497  16.528 -16.061  1.00  0.00    -0.261 N 
ATOM     25  H5  UNL     1      -5.902  16.629 -15.238  1.00  0.00     0.195 HD
BRANCH  24  26
HETATM   26  O2  UNL     1      -7.593  17.424 -16.178  1.00  0.00    -0.277 OA
BRANCH  26  27
HETATM   27  C6  UNL     1      -7.924  17.761 -14.806  1.00  0.00     0.230 C 
BRANCH  27  28
HETATM   28  C7  UNL     1      -8.200  19.327 -14.980  1.00  0.00     0.230 C 
BRANCH  28  29
HETATM   29  O3  UNL     1      -7.103  19.695 -15.703  1.00  0.00    -0.277 OA
BRANCH  29  30
HETATM   30  N6  UNL     1      -6.970  20.999 -15.895  1.00  0.00    -0.263 N 
ATOM     31  H6  UNL     1      -6.509  21.281 -16.760  1.00  0.00     0.195 HD
BRANCH  30  32
HETATM   32  C8  UNL     1      -7.381  22.024 -15.063  1.00  0.00     0.197 C 
HETATM   33  N7  UNL     1      -6.926  23.249 -15.057  1.00  0.00    -0.394 N 
ATOM     34  H72 UNL     1      -6.196  23.452 -15.741  1.00  0.00     0.156 HD
ATOM     35  H71 UNL     1      -7.229  24.005 -14.444  1.00  0.00     0.156 HD
ENDBRANCH  30  32
ENDBRANCH  29  30
ENDBRANCH  28  29
ENDBRANCH  27  28
ENDBRANCH  26  27
ENDBRANCH  24  26
ENDBRANCH  21  23
ENDBRANCH  19  21
ENDBRANCH   6  19
BRANCH   1  36
HETATM   36  C2  UNL     1     -12.600  15.547 -14.591  1.00  0.00     0.127 C 
HETATM   37  C1  UNL     1     -12.849  16.109 -13.243  1.00  0.00     0.098 C 
BRANCH  36  38
HETATM   38  O1  UNL     1     -13.616  14.990 -15.207  1.00  0.00    -0.349 OA
ATOM     39  H1  UNL     1     -13.502  14.098 -15.514  1.00  0.00     0.219 HD
ENDBRANCH  36  38
ENDBRANCH   1  36
TORSDOF 11
ENDMDL
