MODEL 1
REMARK VINA RESULT: -6.847028186      0.000      0.000
REMARK  10 active torsions:
REMARK  status: ('A' for Active; 'I' for Inactive)
REMARK       I    between atoms: N1_2  and  C3_4 
REMARK    1  A    between atoms: C3_4  and  C4_6 
REMARK    2  A    between atoms: C4_6  and  C5_8 
REMARK    3  A    between atoms: C5_8  and  N2_9 
REMARK    4  A    between atoms: C5_8  and  C6_13 
REMARK    5  A    between atoms: C9_17  and  N3_18 
REMARK       I    between atoms: N3_18  and  C10_20 
REMARK    6  A    between atoms: C10_20  and  C11_22 
REMARK       I    between atoms: C11_22  and  N4_24 
REMARK    7  A    between atoms: N4_24  and  N5_26 
REMARK    8  A    between atoms: N5_26  and  C12_27 
REMARK    9  A    between atoms: C12_27  and  C13_28 
REMARK       I    between atoms: C13_28  and  N6_30 
REMARK   10  A    between atoms: N6_30  and  N7_32 
ROOT
HETATM    1  C6  UNL     1     -10.623  19.355 -14.997  1.00  0.00     0.014 A 
HETATM    2  C7  UNL     1     -11.508  20.015 -14.193  1.00  0.00     0.020 A 
HETATM    3  C8  UNL     1     -12.660  19.374 -13.864  1.00  0.00     0.052 A 
HETATM    4  S1  UNL     1     -12.519  17.886 -14.649  1.00  0.00    -0.084 SA
HETATM    5  C9  UNL     1     -10.960  18.110 -15.402  1.00  0.00     0.085 A 
ENDROOT
BRANCH   5   6
HETATM    6  N3  UNL     1     -10.304  17.120 -16.214  1.00  0.00    -0.312 N 
HETATM    7  C10 UNL     1     -10.227  17.382 -17.604  1.00  0.00     0.315 C 
HETATM    8  O3  UNL     1     -10.700  18.422 -18.118  1.00  0.00    -0.262 OA
ATOM      9  H3  UNL     1      -9.913  16.270 -15.807  1.00  0.00     0.170 HD
BRANCH   7  10
HETATM   10  C11 UNL     1      -9.582  16.429 -18.484  1.00  0.00     0.325 C 
HETATM   11  O4  UNL     1      -9.848  16.491 -19.722  1.00  0.00    -0.261 OA
HETATM   12  N4  UNL     1      -8.677  15.448 -18.021  1.00  0.00    -0.265 N 
ATOM     13  H4  UNL     1      -8.454  15.386 -17.028  1.00  0.00     0.185 HD
BRANCH  12  14
HETATM   14  N5  UNL     1      -8.093  14.570 -18.917  1.00  0.00    -0.129 NA
BRANCH  14  15
HETATM   15  C12 UNL     1      -7.177  13.734 -18.158  1.00  0.00     0.239 C 
BRANCH  15  16
HETATM   16  C13 UNL     1      -6.312  14.606 -17.342  1.00  0.00     0.251 C 
HETATM   17  O5  UNL     1      -5.812  15.630 -17.868  1.00  0.00    -0.270 OA
HETATM   18  N6  UNL     1      -6.061  14.282 -15.991  1.00  0.00    -0.276 N 
ATOM     19  H6  UNL     1      -6.472  13.446 -15.575  1.00  0.00     0.189 HD
BRANCH  18  20
HETATM   20  N7  UNL     1      -5.231  15.131 -15.224  1.00  0.00    -0.343 N 
ATOM     21  H72 UNL     1      -4.228  15.150 -15.405  1.00  0.00     0.176 HD
ATOM     22  H71 UNL     1      -5.653  15.712 -14.500  1.00  0.00     0.176 HD
ENDBRANCH  18  20
ENDBRANCH  15  16
ENDBRANCH  14  15
ENDBRANCH  12  14
ENDBRANCH   7  10
ENDBRANCH   5   6
BRANCH   1  23
HETATM   23  C5  UNL     1      -9.333  20.080 -15.402  1.00  0.00     0.298 C 
BRANCH  23  24
HETATM   24  C4  UNL     1      -8.183  19.342 -14.778  1.00  0.00     0.251 C 
HETATM   25  O2  UNL     1      -7.509  18.627 -15.554  1.00  0.00    -0.285 OA
BRANCH  24  26
HETATM   26  C3  UNL     1      -7.840  19.419 -13.378  1.00  0.00     0.291 C 
HETATM   27  N1  UNL     1      -7.901  18.310 -12.500  1.00  0.00    -0.354 N 
HETATM   28  C1  UNL     1      -8.326  17.020 -12.989  1.00  0.00     0.152 C 
HETATM   29  C2  UNL     1      -7.544  18.432 -11.106  1.00  0.00     0.152 C 
HETATM   30  O1  UNL     1      -7.454  20.511 -12.831  1.00  0.00    -0.264 OA
ENDBRANCH  24  26
ENDBRANCH  23  24
BRANCH  23  31
HETATM   31  N2  UNL     1      -9.307  21.419 -14.932  1.00  0.00    -0.064 N 
ATOM     32  H23 UNL     1      -8.925  21.498 -13.990  1.00  0.00     0.275 HD
ATOM     33  H22 UNL     1      -8.612  21.990 -15.412  1.00  0.00     0.275 HD
ATOM     34  H21 UNL     1     -10.250  21.801 -15.007  1.00  0.00     0.275 HD
ENDBRANCH  23  31
ENDBRANCH   1  23
TORSDOF 10
ENDMDL
MODEL 2
REMARK VINA RESULT: -6.552411693      3.393      6.511
REMARK  10 active torsions:
REMARK  status: ('A' for Active; 'I' for Inactive)
REMARK       I    between atoms: N1_2  and  C3_4 
REMARK    1  A    between atoms: C3_4  and  C4_6 
REMARK    2  A    between atoms: C4_6  and  C5_8 
REMARK    3  A    between atoms: C5_8  and  N2_9 
REMARK    4  A    between atoms: C5_8  and  C6_13 
REMARK    5  A    between atoms: C9_17  and  N3_18 
REMARK       I    between atoms: N3_18  and  C10_20 
REMARK    6  A    between atoms: C10_20  and  C11_22 
REMARK       I    between atoms: C11_22  and  N4_24 
REMARK    7  A    between atoms: N4_24  and  N5_26 
REMARK    8  A    between atoms: N5_26  and  C12_27 
REMARK    9  A    between atoms: C12_27  and  C13_28 
REMARK       I    between atoms: C13_28  and  N6_30 
REMARK   10  A    between atoms: N6_30  and  N7_32 
ROOT
HETATM    1  C6  UNL     1      -9.837  12.732 -16.933  1.00  0.00     0.014 A 
HETATM    2  C7  UNL     1      -9.827  11.371 -17.048  1.00  0.00     0.020 A 
HETATM    3  C8  UNL     1      -8.710  10.791 -17.561  1.00  0.00     0.052 A 
HETATM    4  S1  UNL     1      -7.694  12.102 -17.875  1.00  0.00    -0.084 SA
HETATM    5  C9  UNL     1      -8.733  13.399 -17.337  1.00  0.00     0.085 A 
ENDROOT
BRANCH   5   6
HETATM    6  N3  UNL     1      -8.366  14.790 -17.356  1.00  0.00    -0.312 N 
HETATM    7  C10 UNL     1      -7.410  15.212 -16.399  1.00  0.00     0.315 C 
HETATM    8  O3  UNL     1      -6.896  14.425 -15.571  1.00  0.00    -0.262 OA
ATOM      9  H3  UNL     1      -8.775  15.441 -18.026  1.00  0.00     0.170 HD
BRANCH   7  10
HETATM   10  C11 UNL     1      -6.993  16.599 -16.358  1.00  0.00     0.325 C 
HETATM   11  O4  UNL     1      -6.047  16.958 -17.123  1.00  0.00    -0.261 OA
HETATM   12  N4  UNL     1      -7.595  17.556 -15.509  1.00  0.00    -0.265 N 
ATOM     13  H4  UNL     1      -8.356  17.281 -14.889  1.00  0.00     0.185 HD
BRANCH  12  14
HETATM   14  N5  UNL     1      -7.150  18.866 -15.523  1.00  0.00    -0.129 NA
BRANCH  14  15
HETATM   15  C12 UNL     1      -8.216  19.682 -14.964  1.00  0.00     0.239 C 
BRANCH  15  16
HETATM   16  C13 UNL     1      -7.651  20.985 -14.566  1.00  0.00     0.251 C 
HETATM   17  O5  UNL     1      -7.428  21.205 -13.351  1.00  0.00    -0.270 OA
HETATM   18  N6  UNL     1      -7.369  21.959 -15.549  1.00  0.00    -0.276 N 
ATOM     19  H6  UNL     1      -7.555  21.769 -16.533  1.00  0.00     0.189 HD
BRANCH  18  20
HETATM   20  N7  UNL     1      -6.826  23.200 -15.149  1.00  0.00    -0.343 N 
ATOM     21  H72 UNL     1      -7.431  23.897 -14.713  1.00  0.00     0.176 HD
ATOM     22  H71 UNL     1      -5.834  23.379 -15.302  1.00  0.00     0.176 HD
ENDBRANCH  18  20
ENDBRANCH  15  16
ENDBRANCH  14  15
ENDBRANCH  12  14
ENDBRANCH   7  10
ENDBRANCH   5   6
BRANCH   1  23
HETATM   23  C5  UNL     1     -11.103  13.403 -16.385  1.00  0.00     0.298 C 
BRANCH  23  24
HETATM   24  C4  UNL     1     -10.715  14.163 -15.149  1.00  0.00     0.251 C 
HETATM   25  O2  UNL     1     -10.060  13.520 -14.298  1.00  0.00    -0.285 OA
BRANCH  24  26
HETATM   26  C3  UNL     1     -11.055  15.546 -14.911  1.00  0.00     0.291 C 
HETATM   27  N1  UNL     1     -12.168  15.952 -14.138  1.00  0.00    -0.354 N 
HETATM   28  C1  UNL     1     -13.036  14.965 -13.541  1.00  0.00     0.152 C 
HETATM   29  C2  UNL     1     -12.468  17.349 -13.924  1.00  0.00     0.152 C 
HETATM   30  O1  UNL     1     -10.361  16.509 -15.394  1.00  0.00    -0.264 OA
ENDBRANCH  24  26
ENDBRANCH  23  24
BRANCH  23  31
HETATM   31  N2  UNL     1     -12.094  12.453 -16.027  1.00  0.00    -0.064 N 
ATOM     32  H23 UNL     1     -11.704  11.632 -15.565  1.00  0.00     0.275 HD
ATOM     33  H22 UNL     1     -12.688  12.773 -15.262  1.00  0.00     0.275 HD
ATOM     34  H21 UNL     1     -12.626  12.216 -16.865  1.00  0.00     0.275 HD
ENDBRANCH  23  31
ENDBRANCH   1  23
TORSDOF 10
ENDMDL
MODEL 3
REMARK VINA RESULT: -6.524047067      1.499      1.885
REMARK  10 active torsions:
REMARK  status: ('A' for Active; 'I' for Inactive)
REMARK       I    between atoms: N1_2  and  C3_4 
REMARK    1  A    between atoms: C3_4  and  C4_6 
REMARK    2  A    between atoms: C4_6  and  C5_8 
REMARK    3  A    between atoms: C5_8  and  N2_9 
REMARK    4  A    between atoms: C5_8  and  C6_13 
REMARK    5  A    between atoms: C9_17  and  N3_18 
REMARK       I    between atoms: N3_18  and  C10_20 
REMARK    6  A    between atoms: C10_20  and  C11_22 
REMARK       I    between atoms: C11_22  and  N4_24 
REMARK    7  A    between atoms: N4_24  and  N5_26 
REMARK    8  A    between atoms: N5_26  and  C12_27 
REMARK    9  A    between atoms: C12_27  and  C13_28 
REMARK       I    between atoms: C13_28  and  N6_30 
REMARK   10  A    between atoms: N6_30  and  N7_32 
ROOT
HETATM    1  C6  UNL     1     -10.447  19.349 -14.975  1.00  0.00     0.014 A 
HETATM    2  C7  UNL     1     -11.310  20.061 -14.193  1.00  0.00     0.020 A 
HETATM    3  C8  UNL     1     -12.458  19.448 -13.802  1.00  0.00     0.052 A 
HETATM    4  S1  UNL     1     -12.343  17.916 -14.500  1.00  0.00    -0.084 SA
HETATM    5  C9  UNL     1     -10.799  18.084 -15.299  1.00  0.00     0.085 A 
ENDROOT
BRANCH   5   6
HETATM    6  N3  UNL     1     -10.166  17.043 -16.064  1.00  0.00    -0.312 N 
HETATM    7  C10 UNL     1     -10.118  17.222 -17.469  1.00  0.00     0.315 C 
HETATM    8  O3  UNL     1     -10.596  18.233 -18.033  1.00  0.00    -0.262 OA
ATOM      9  H3  UNL     1      -9.771  16.216 -15.616  1.00  0.00     0.170 HD
BRANCH   7  10
HETATM   10  C11 UNL     1      -9.497  16.215 -18.304  1.00  0.00     0.325 C 
HETATM   11  O4  UNL     1      -9.735  16.248 -19.550  1.00  0.00    -0.261 OA
HETATM   12  N4  UNL     1      -8.647  15.209 -17.791  1.00  0.00    -0.265 N 
ATOM     13  H4  UNL     1      -8.448  15.170 -16.791  1.00  0.00     0.185 HD
BRANCH  12  14
HETATM   14  N5  UNL     1      -8.084  14.279 -18.647  1.00  0.00    -0.129 NA
BRANCH  14  15
HETATM   15  C12 UNL     1      -7.210  13.438 -17.844  1.00  0.00     0.239 C 
BRANCH  15  16
HETATM   16  C13 UNL     1      -7.848  12.118 -17.681  1.00  0.00     0.251 C 
HETATM   17  O5  UNL     1      -7.182  11.086 -17.933  1.00  0.00    -0.270 OA
HETATM   18  N6  UNL     1      -9.188  12.035 -17.244  1.00  0.00    -0.276 N 
ATOM     19  H6  UNL     1      -9.720  12.881 -17.043  1.00  0.00     0.189 HD
BRANCH  18  20
HETATM   20  N7  UNL     1      -9.782  10.762 -17.091  1.00  0.00    -0.343 N 
ATOM     21  H72 UNL     1      -9.214   9.978 -16.770  1.00  0.00     0.176 HD
ATOM     22  H71 UNL     1     -10.773  10.649 -17.305  1.00  0.00     0.176 HD
ENDBRANCH  18  20
ENDBRANCH  15  16
ENDBRANCH  14  15
ENDBRANCH  12  14
ENDBRANCH   7  10
ENDBRANCH   5   6
BRANCH   1  23
HETATM   23  C5  UNL     1      -9.161  20.039 -15.450  1.00  0.00     0.298 C 
BRANCH  23  24
HETATM   24  C4  UNL     1      -8.001  19.314 -14.830  1.00  0.00     0.251 C 
HETATM   25  O2  UNL     1      -7.313  18.619 -15.612  1.00  0.00    -0.285 OA
BRANCH  24  26
HETATM   26  C3  UNL     1      -7.663  19.381 -13.428  1.00  0.00     0.291 C 
HETATM   27  N1  UNL     1      -7.644  18.250 -12.578  1.00  0.00    -0.354 N 
HETATM   28  C1  UNL     1      -7.974  16.944 -13.098  1.00  0.00     0.152 C 
HETATM   29  C2  UNL     1      -7.295  18.363 -11.180  1.00  0.00     0.152 C 
HETATM   30  O1  UNL     1      -7.357  20.484 -12.854  1.00  0.00    -0.264 OA
ENDBRANCH  24  26
ENDBRANCH  23  24
BRANCH  23  31
HETATM   31  N2  UNL     1      -9.106  21.396 -15.039  1.00  0.00    -0.064 N 
ATOM     32  H23 UNL     1      -8.367  21.571 -14.358  1.00  0.00     0.275 HD
ATOM     33  H22 UNL     1      -8.766  22.016 -15.774  1.00  0.00     0.275 HD
ATOM     34  H21 UNL     1     -10.028  21.663 -14.694  1.00  0.00     0.275 HD
ENDBRANCH  23  31
ENDBRANCH   1  23
TORSDOF 10
ENDMDL
MODEL 4
REMARK VINA RESULT: -6.477015864      3.362      6.737
REMARK  10 active torsions:
REMARK  status: ('A' for Active; 'I' for Inactive)
REMARK       I    between atoms: N1_2  and  C3_4 
REMARK    1  A    between atoms: C3_4  and  C4_6 
REMARK    2  A    between atoms: C4_6  and  C5_8 
REMARK    3  A    between atoms: C5_8  and  N2_9 
REMARK    4  A    between atoms: C5_8  and  C6_13 
REMARK    5  A    between atoms: C9_17  and  N3_18 
REMARK       I    between atoms: N3_18  and  C10_20 
REMARK    6  A    between atoms: C10_20  and  C11_22 
REMARK       I    between atoms: C11_22  and  N4_24 
REMARK    7  A    between atoms: N4_24  and  N5_26 
REMARK    8  A    between atoms: N5_26  and  C12_27 
REMARK    9  A    between atoms: C12_27  and  C13_28 
REMARK       I    between atoms: C13_28  and  N6_30 
REMARK   10  A    between atoms: N6_30  and  N7_32 
ROOT
HETATM    1  C6  UNL     1      -8.868  13.245 -17.005  1.00  0.00     0.014 A 
HETATM    2  C7  UNL     1      -7.917  12.297 -17.254  1.00  0.00     0.020 A 
HETATM    3  C8  UNL     1      -6.643  12.721 -17.459  1.00  0.00     0.052 A 
HETATM    4  S1  UNL     1      -6.757  14.399 -17.306  1.00  0.00    -0.084 SA
HETATM    5  C9  UNL     1      -8.467  14.536 -16.978  1.00  0.00     0.085 A 
ENDROOT
BRANCH   5   6
HETATM    6  N3  UNL     1      -9.147  15.781 -16.737  1.00  0.00    -0.312 N 
HETATM    7  C10 UNL     1      -9.688  16.443 -17.867  1.00  0.00     0.315 C 
HETATM    8  O3  UNL     1      -9.590  15.979 -19.026  1.00  0.00    -0.262 OA
ATOM      9  H3  UNL     1      -9.235  16.168 -15.797  1.00  0.00     0.170 HD
BRANCH   7  10
HETATM   10  C11 UNL     1     -10.385  17.701 -17.701  1.00  0.00     0.325 C 
HETATM   11  O4  UNL     1     -10.416  18.497 -18.689  1.00  0.00    -0.261 OA
HETATM   12  N4  UNL     1     -11.025  18.072 -16.497  1.00  0.00    -0.265 N 
ATOM     13  H4  UNL     1     -11.007  17.443 -15.694  1.00  0.00     0.185 HD
BRANCH  12  14
HETATM   14  N5  UNL     1     -11.676  19.290 -16.408  1.00  0.00    -0.129 NA
BRANCH  14  15
HETATM   15  C12 UNL     1     -11.365  19.844 -15.100  1.00  0.00     0.239 C 
BRANCH  15  16
HETATM   16  C13 UNL     1     -10.009  20.421 -15.145  1.00  0.00     0.251 C 
HETATM   17  O5  UNL     1      -9.020  19.663 -15.000  1.00  0.00    -0.270 OA
HETATM   18  N6  UNL     1      -9.842  21.808 -15.350  1.00  0.00    -0.276 N 
ATOM     19  H6  UNL     1     -10.654  22.415 -15.466  1.00  0.00     0.189 HD
BRANCH  18  20
HETATM   20  N7  UNL     1      -8.535  22.343 -15.393  1.00  0.00    -0.343 N 
ATOM     21  H72 UNL     1      -7.788  21.809 -15.837  1.00  0.00     0.176 HD
ATOM     22  H71 UNL     1      -8.361  23.258 -14.977  1.00  0.00     0.176 HD
ENDBRANCH  18  20
ENDBRANCH  15  16
ENDBRANCH  14  15
ENDBRANCH  12  14
ENDBRANCH   7  10
ENDBRANCH   5   6
BRANCH   1  23
HETATM   23  C5  UNL     1     -10.317  12.783 -16.803  1.00  0.00     0.298 C 
BRANCH  23  24
HETATM   24  C4  UNL     1     -10.742  13.211 -15.428  1.00  0.00     0.251 C 
HETATM   25  O2  UNL     1     -10.120  12.686 -14.477  1.00  0.00    -0.285 OA
BRANCH  24  26
HETATM   26  C3  UNL     1     -11.797  14.163 -15.169  1.00  0.00     0.291 C 
HETATM   27  N1  UNL     1     -13.164  13.807 -15.096  1.00  0.00    -0.354 N 
HETATM   28  C1  UNL     1     -13.569  12.434 -15.286  1.00  0.00     0.152 C 
HETATM   29  C2  UNL     1     -14.187  14.793 -14.830  1.00  0.00     0.152 C 
HETATM   30  O1  UNL     1     -11.560  15.408 -14.988  1.00  0.00    -0.264 OA
ENDBRANCH  24  26
ENDBRANCH  23  24
BRANCH  23  31
HETATM   31  N2  UNL     1     -10.439  11.371 -16.884  1.00  0.00    -0.064 N 
ATOM     32  H23 UNL     1     -10.723  10.949 -16.001  1.00  0.00     0.275 HD
ATOM     33  H22 UNL     1     -11.241  11.078 -17.442  1.00  0.00     0.275 HD
ATOM     34  H21 UNL     1      -9.558  10.995 -17.234  1.00  0.00     0.275 HD
ENDBRANCH  23  31
ENDBRANCH   1  23
TORSDOF 10
ENDMDL
MODEL 5
REMARK VINA RESULT: -6.438149150      2.693      6.246
REMARK  10 active torsions:
REMARK  status: ('A' for Active; 'I' for Inactive)
REMARK       I    between atoms: N1_2  and  C3_4 
REMARK    1  A    between atoms: C3_4  and  C4_6 
REMARK    2  A    between atoms: C4_6  and  C5_8 
REMARK    3  A    between atoms: C5_8  and  N2_9 
REMARK    4  A    between atoms: C5_8  and  C6_13 
REMARK    5  A    between atoms: C9_17  and  N3_18 
REMARK       I    between atoms: N3_18  and  C10_20 
REMARK    6  A    between atoms: C10_20  and  C11_22 
REMARK       I    between atoms: C11_22  and  N4_24 
REMARK    7  A    between atoms: N4_24  and  N5_26 
REMARK    8  A    between atoms: N5_26  and  C12_27 
REMARK    9  A    between atoms: C12_27  and  C13_28 
REMARK       I    between atoms: C13_28  and  N6_30 
REMARK   10  A    between atoms: N6_30  and  N7_32 
ROOT
HETATM    1  C6  UNL     1      -9.724  12.842 -16.764  1.00  0.00     0.014 A 
HETATM    2  C7  UNL     1     -10.182  11.574 -16.545  1.00  0.00     0.020 A 
HETATM    3  C8  UNL     1     -11.484  11.427 -16.187  1.00  0.00     0.052 A 
HETATM    4  S1  UNL     1     -12.064  13.013 -16.155  1.00  0.00    -0.084 SA
HETATM    5  C9  UNL     1     -10.604  13.856 -16.608  1.00  0.00     0.085 A 
ENDROOT
BRANCH   5   6
HETATM    6  N3  UNL     1     -10.508  15.284 -16.761  1.00  0.00    -0.312 N 
HETATM    7  C10 UNL     1     -10.557  16.059 -15.576  1.00  0.00     0.315 C 
HETATM    8  O3  UNL     1     -10.675  15.541 -14.441  1.00  0.00    -0.262 OA
ATOM      9  H3  UNL     1     -10.410  15.717 -17.679  1.00  0.00     0.170 HD
BRANCH   7  10
HETATM   10  C11 UNL     1     -10.469  17.502 -15.652  1.00  0.00     0.325 C 
HETATM   11  O4  UNL     1     -11.547  18.156 -15.786  1.00  0.00    -0.261 OA
HETATM   12  N4  UNL     1      -9.242  18.201 -15.583  1.00  0.00    -0.265 N 
ATOM     13  H4  UNL     1      -8.368  17.688 -15.477  1.00  0.00     0.185 HD
BRANCH  12  14
HETATM   14  N5  UNL     1      -9.230  19.583 -15.659  1.00  0.00    -0.129 NA
BRANCH  14  15
HETATM   15  C12 UNL     1      -9.133  20.082 -14.297  1.00  0.00     0.239 C 
BRANCH  15  16
HETATM   16  C13 UNL     1      -8.115  21.148 -14.259  1.00  0.00     0.251 C 
HETATM   17  O5  UNL     1      -7.412  21.280 -13.228  1.00  0.00    -0.270 OA
HETATM   18  N6  UNL     1      -7.946  21.998 -15.373  1.00  0.00    -0.276 N 
ATOM     19  H6  UNL     1      -8.524  21.882 -16.205  1.00  0.00     0.189 HD
BRANCH  18  20
HETATM   20  N7  UNL     1      -6.964  23.013 -15.319  1.00  0.00    -0.343 N 
ATOM     21  H72 UNL     1      -6.438  23.157 -14.457  1.00  0.00     0.176 HD
ATOM     22  H71 UNL     1      -6.797  23.585 -16.146  1.00  0.00     0.176 HD
ENDBRANCH  18  20
ENDBRANCH  15  16
ENDBRANCH  14  15
ENDBRANCH  12  14
ENDBRANCH   7  10
ENDBRANCH   5   6
BRANCH   1  23
HETATM   23  C5  UNL     1      -8.247  13.024 -17.139  1.00  0.00     0.298 C 
BRANCH  23  24
HETATM   24  C4  UNL     1      -7.700  14.142 -16.299  1.00  0.00     0.251 C 
HETATM   25  O2  UNL     1      -7.879  14.034 -15.064  1.00  0.00    -0.285 OA
BRANCH  24  26
HETATM   26  C3  UNL     1      -7.008  15.291 -16.835  1.00  0.00     0.291 C 
HETATM   27  N1  UNL     1      -5.609  15.475 -16.727  1.00  0.00    -0.354 N 
HETATM   28  C1  UNL     1      -4.797  14.490 -16.054  1.00  0.00     0.152 C 
HETATM   29  C2  UNL     1      -4.958  16.639 -17.282  1.00  0.00     0.152 C 
HETATM   30  O1  UNL     1      -7.624  16.231 -17.448  1.00  0.00    -0.264 OA
ENDBRANCH  24  26
ENDBRANCH  23  24
BRANCH  23  31
HETATM   31  N2  UNL     1      -8.088  13.377 -18.504  1.00  0.00    -0.064 N 
ATOM     32  H23 UNL     1      -8.837  13.016 -19.094  1.00  0.00     0.275 HD
ATOM     33  H22 UNL     1      -8.244  14.371 -18.674  1.00  0.00     0.275 HD
ATOM     34  H21 UNL     1      -7.165  13.067 -18.808  1.00  0.00     0.275 HD
ENDBRANCH  23  31
ENDBRANCH   1  23
TORSDOF 10
ENDMDL
