MODEL 1
REMARK VINA RESULT: -6.337051503      0.000      0.000
REMARK  3 active torsions:
REMARK  status: ('A' for Active; 'I' for Inactive)
REMARK    1  A    between atoms: N1_1  and  C1_4 
REMARK    2  A    between atoms: C2_9  and  C3_10 
REMARK       I    between atoms: C3_10  and  N4_12 
REMARK    3  A    between atoms: N4_12  and  N5_14 
ROOT
HETATM    1  C1  UNL     1     -19.154  51.261 -59.365  1.00  0.00     0.693 A 
HETATM    2  N2  UNL     1     -20.194  51.988 -58.917  1.00  0.00    -0.132 N 
ATOM      3  H2  UNL     1     -20.088  52.531 -58.061  1.00  0.00     0.205 HD
HETATM    4  N3  UNL     1     -21.364  52.017 -59.564  1.00  0.00    -0.277 N 
ATOM      5  H3  UNL     1     -22.125  52.582 -59.189  1.00  0.00     0.188 HD
HETATM    6  C2  UNL     1     -21.564  51.319 -60.699  1.00  0.00     0.187 A 
HETATM    7  C4  UNL     1     -20.500  50.574 -61.161  1.00  0.00     0.293 A 
HETATM    8  O2  UNL     1     -20.664  49.922 -62.209  1.00  0.00    -0.265 OA
HETATM    9  N6  UNL     1     -19.317  50.553 -60.495  1.00  0.00    -0.153 N 
ATOM     10  H6  UNL     1     -18.545  49.993 -60.857  1.00  0.00     0.187 HD
ENDROOT
BRANCH   6  11
HETATM   11  C3  UNL     1     -22.848  51.354 -61.405  1.00  0.00     0.293 C 
HETATM   12  O1  UNL     1     -23.861  50.866 -60.885  1.00  0.00    -0.264 OA
HETATM   13  N4  UNL     1     -22.976  51.941 -62.687  1.00  0.00    -0.271 N 
ATOM     14  H4  UNL     1     -22.152  52.348 -63.129  1.00  0.00     0.189 HD
BRANCH  13  15
HETATM   15  N5  UNL     1     -24.172  51.979 -63.354  1.00  0.00    -0.342 N 
ATOM     16  H52 UNL     1     -24.185  52.388 -64.288  1.00  0.00     0.176 HD
ATOM     17  H51 UNL     1     -25.033  51.615 -62.945  1.00  0.00     0.176 HD
ENDBRANCH  13  15
ENDBRANCH   6  11
BRANCH   1  18
HETATM   18  N1  UNL     1     -18.027  51.248 -58.721  1.00  0.00    -0.233 N 
ATOM     19  H12 UNL     1     -17.222  50.731 -59.075  1.00  0.00     0.174 HD
ATOM     20  H11 UNL     1     -17.921  51.758 -57.844  1.00  0.00     0.174 HD
ENDBRANCH   1  18
TORSDOF 3
ENDMDL
MODEL 2
REMARK VINA RESULT: -6.312182701      1.805      1.805
REMARK  3 active torsions:
REMARK  status: ('A' for Active; 'I' for Inactive)
REMARK    1  A    between atoms: N1_1  and  C1_4 
REMARK    2  A    between atoms: C2_9  and  C3_10 
REMARK       I    between atoms: C3_10  and  N4_12 
REMARK    3  A    between atoms: N4_12  and  N5_14 
ROOT
HETATM    1  C1  UNL     1     -19.152  51.692 -59.339  1.00  0.00     0.693 A 
HETATM    2  N2  UNL     1     -20.364  51.663 -58.753  1.00  0.00    -0.132 N 
ATOM      3  H2  UNL     1     -20.456  51.249 -57.825  1.00  0.00     0.205 HD
HETATM    4  N3  UNL     1     -21.450  52.160 -59.355  1.00  0.00    -0.277 N 
ATOM      5  H3  UNL     1     -22.347  52.116 -58.874  1.00  0.00     0.188 HD
HETATM    6  C2  UNL     1     -21.388  52.716 -60.579  1.00  0.00     0.187 A 
HETATM    7  C4  UNL     1     -20.149  52.749 -61.182  1.00  0.00     0.293 A 
HETATM    8  O2  UNL     1     -20.071  53.260 -62.315  1.00  0.00    -0.265 OA
HETATM    9  N6  UNL     1     -19.054  52.241 -60.561  1.00  0.00    -0.153 N 
ATOM     10  H6  UNL     1     -18.148  52.276 -61.027  1.00  0.00     0.187 HD
ENDROOT
BRANCH   6  11
HETATM   11  C3  UNL     1     -22.582  53.261 -61.235  1.00  0.00     0.293 C 
HETATM   12  O1  UNL     1     -23.290  54.094 -60.652  1.00  0.00    -0.264 OA
HETATM   13  N4  UNL     1     -22.961  52.862 -62.539  1.00  0.00    -0.271 N 
ATOM     14  H4  UNL     1     -22.388  52.178 -63.033  1.00  0.00     0.189 HD
BRANCH  13  15
HETATM   15  N5  UNL     1     -24.073  53.366 -63.160  1.00  0.00    -0.342 N 
ATOM     16  H52 UNL     1     -24.854  52.732 -63.328  1.00  0.00     0.176 HD
ATOM     17  H51 UNL     1     -24.136  54.341 -63.451  1.00  0.00     0.176 HD
ENDBRANCH  13  15
ENDBRANCH   6  11
BRANCH   1  18
HETATM   18  N1  UNL     1     -18.111  51.204 -58.736  1.00  0.00    -0.233 N 
ATOM     19  H12 UNL     1     -18.121  50.264 -58.341  1.00  0.00     0.174 HD
ATOM     20  H11 UNL     1     -17.255  51.753 -58.645  1.00  0.00     0.174 HD
ENDBRANCH   1  18
TORSDOF 3
ENDMDL
MODEL 3
REMARK VINA RESULT: -6.304375839      2.383      3.373
REMARK  3 active torsions:
REMARK  status: ('A' for Active; 'I' for Inactive)
REMARK    1  A    between atoms: N1_1  and  C1_4 
REMARK    2  A    between atoms: C2_9  and  C3_10 
REMARK       I    between atoms: C3_10  and  N4_12 
REMARK    3  A    between atoms: N4_12  and  N5_14 
ROOT
HETATM    1  C1  UNL     1     -20.022  50.005 -61.466  1.00  0.00     0.693 A 
HETATM    2  N2  UNL     1     -19.150  50.968 -61.115  1.00  0.00    -0.132 N 
ATOM      3  H2  UNL     1     -18.161  50.844 -61.331  1.00  0.00     0.205 HD
HETATM    4  N3  UNL     1     -19.544  52.082 -60.490  1.00  0.00    -0.277 N 
ATOM      5  H3  UNL     1     -18.848  52.785 -60.242  1.00  0.00     0.188 HD
HETATM    6  C2  UNL     1     -20.836  52.300 -60.178  1.00  0.00     0.187 A 
HETATM    7  C4  UNL     1     -21.733  51.317 -60.537  1.00  0.00     0.293 A 
HETATM    8  O2  UNL     1     -22.932  51.499 -60.258  1.00  0.00    -0.265 OA
HETATM    9  N6  UNL     1     -21.320  50.190 -61.171  1.00  0.00    -0.153 N 
ATOM     10  H6  UNL     1     -22.002  49.475 -61.426  1.00  0.00     0.187 HD
ENDROOT
BRANCH   6  11
HETATM   11  C3  UNL     1     -21.264  53.524 -59.493  1.00  0.00     0.293 C 
HETATM   12  O1  UNL     1     -20.902  53.748 -58.329  1.00  0.00    -0.264 OA
HETATM   13  N4  UNL     1     -22.091  54.481 -60.128  1.00  0.00    -0.271 N 
ATOM     14  H4  UNL     1     -22.397  54.312 -61.086  1.00  0.00     0.189 HD
BRANCH  13  15
HETATM   15  N5  UNL     1     -22.495  55.627 -59.496  1.00  0.00    -0.342 N 
ATOM     16  H52 UNL     1     -21.923  56.463 -59.613  1.00  0.00     0.176 HD
ATOM     17  H51 UNL     1     -23.338  55.662 -58.924  1.00  0.00     0.176 HD
ENDBRANCH  13  15
ENDBRANCH   6  11
BRANCH   1  18
HETATM   18  N1  UNL     1     -19.617  48.931 -62.073  1.00  0.00    -0.233 N 
ATOM     19  H12 UNL     1     -19.661  48.850 -63.089  1.00  0.00     0.174 HD
ATOM     20  H11 UNL     1     -19.245  48.141 -61.544  1.00  0.00     0.174 HD
ENDBRANCH   1  18
TORSDOF 3
ENDMDL
MODEL 4
REMARK VINA RESULT: -6.223983629      1.566      1.630
REMARK  3 active torsions:
REMARK  status: ('A' for Active; 'I' for Inactive)
REMARK    1  A    between atoms: N1_1  and  C1_4 
REMARK    2  A    between atoms: C2_9  and  C3_10 
REMARK       I    between atoms: C3_10  and  N4_12 
REMARK    3  A    between atoms: N4_12  and  N5_14 
ROOT
HETATM    1  C1  UNL     1     -19.089  51.351 -59.545  1.00  0.00     0.693 A 
HETATM    2  N2  UNL     1     -20.084  50.445 -59.491  1.00  0.00    -0.132 N 
ATOM      3  H2  UNL     1     -20.046  49.709 -58.786  1.00  0.00     0.205 HD
HETATM    4  N3  UNL     1     -21.119  50.484 -60.337  1.00  0.00    -0.277 N 
ATOM      5  H3  UNL     1     -21.850  49.777 -60.259  1.00  0.00     0.188 HD
HETATM    6  C2  UNL     1     -21.221  51.431 -61.288  1.00  0.00     0.187 A 
HETATM    7  C4  UNL     1     -20.205  52.361 -61.346  1.00  0.00     0.293 A 
HETATM    8  O2  UNL     1     -20.281  53.246 -62.219  1.00  0.00    -0.265 OA
HETATM    9  N6  UNL     1     -19.159  52.311 -60.482  1.00  0.00    -0.153 N 
ATOM     10  H6  UNL     1     -18.419  53.010 -60.545  1.00  0.00     0.187 HD
ENDROOT
BRANCH   6  11
HETATM   11  C3  UNL     1     -22.358  51.470 -62.213  1.00  0.00     0.293 C 
HETATM   12  O1  UNL     1     -22.603  50.500 -62.944  1.00  0.00    -0.264 OA
HETATM   13  N4  UNL     1     -23.207  52.600 -62.301  1.00  0.00    -0.271 N 
ATOM     14  H4  UNL     1     -23.020  53.406 -61.706  1.00  0.00     0.189 HD
BRANCH  13  15
HETATM   15  N5  UNL     1     -24.272  52.644 -63.161  1.00  0.00    -0.342 N 
ATOM     16  H52 UNL     1     -24.270  52.007 -63.958  1.00  0.00     0.176 HD
ATOM     17  H51 UNL     1     -25.052  53.288 -63.026  1.00  0.00     0.176 HD
ENDBRANCH  13  15
ENDBRANCH   6  11
BRANCH   1  18
HETATM   18  N1  UNL     1     -18.094  51.295 -58.713  1.00  0.00    -0.233 N 
ATOM     19  H12 UNL     1     -17.964  50.492 -58.098  1.00  0.00     0.174 HD
ATOM     20  H11 UNL     1     -17.416  52.056 -58.658  1.00  0.00     0.174 HD
ENDBRANCH   1  18
TORSDOF 3
ENDMDL
MODEL 5
REMARK VINA RESULT: -6.220498650      2.534      3.513
REMARK  3 active torsions:
REMARK  status: ('A' for Active; 'I' for Inactive)
REMARK    1  A    between atoms: N1_1  and  C1_4 
REMARK    2  A    between atoms: C2_9  and  C3_10 
REMARK       I    between atoms: C3_10  and  N4_12 
REMARK    3  A    between atoms: N4_12  and  N5_14 
ROOT
HETATM    1  C1  UNL     1     -19.938  49.893 -61.621  1.00  0.00     0.693 A 
HETATM    2  N2  UNL     1     -21.243  50.055 -61.335  1.00  0.00    -0.132 N 
ATOM      3  H2  UNL     1     -21.884  49.277 -61.487  1.00  0.00     0.205 HD
HETATM    4  N3  UNL     1     -21.723  51.209 -60.858  1.00  0.00    -0.277 N 
ATOM      5  H3  UNL     1     -22.719  51.286 -60.656  1.00  0.00     0.188 HD
HETATM    6  C2  UNL     1     -20.924  52.271 -60.638  1.00  0.00     0.187 A 
HETATM    7  C4  UNL     1     -19.586  52.109 -60.929  1.00  0.00     0.293 A 
HETATM    8  O2  UNL     1     -18.831  53.079 -60.733  1.00  0.00    -0.265 OA
HETATM    9  N6  UNL     1     -19.112  50.933 -61.413  1.00  0.00    -0.153 N 
ATOM     10  H6  UNL     1     -18.118  50.837 -61.621  1.00  0.00     0.187 HD
ENDROOT
BRANCH   6  11
HETATM   11  C3  UNL     1     -21.454  53.533 -60.115  1.00  0.00     0.293 C 
HETATM   12  O1  UNL     1     -22.000  54.346 -60.875  1.00  0.00    -0.264 OA
HETATM   13  N4  UNL     1     -21.365  53.865 -58.741  1.00  0.00    -0.271 N 
ATOM     14  H4  UNL     1     -20.920  53.207 -58.102  1.00  0.00     0.189 HD
BRANCH  13  15
HETATM   15  N5  UNL     1     -21.858  55.041 -58.243  1.00  0.00    -0.342 N 
ATOM     16  H52 UNL     1     -22.866  55.118 -58.108  1.00  0.00     0.176 HD
ATOM     17  H51 UNL     1     -21.251  55.827 -58.008  1.00  0.00     0.176 HD
ENDBRANCH  13  15
ENDBRANCH   6  11
BRANCH   1  18
HETATM   18  N1  UNL     1     -19.494  48.764 -62.083  1.00  0.00    -0.233 N 
ATOM     19  H12 UNL     1     -20.033  47.904 -61.983  1.00  0.00     0.174 HD
ATOM     20  H11 UNL     1     -18.592  48.713 -62.558  1.00  0.00     0.174 HD
ENDBRANCH   1  18
TORSDOF 3
ENDMDL
