MODEL 1
REMARK VINA RESULT: -6.662901708      0.000      0.000
REMARK  2 active torsions:
REMARK  status: ('A' for Active; 'I' for Inactive)
REMARK    1  A    between atoms: N1_2  and  C2_4 
REMARK    2  A    between atoms: C3_7  and  N3_8 
REMARK       I    between atoms: N5_15  and  C5_16 
REMARK       I    between atoms: C5_16  and  N6_17 
REMARK       I    between atoms: C5_16  and  N7_21 
ROOT
HETATM    1  C2  UNL     1     -20.929  51.429 -59.710  1.00  0.00     0.701 A 
HETATM    2  N2  UNL     1     -21.554  52.603 -59.511  1.00  0.00    -0.022 N 
ATOM      3  H2  UNL     1     -21.363  53.170 -58.684  1.00  0.00     0.203 HD
HETATM    4  C3  UNL     1     -22.438  53.001 -60.441  1.00  0.00     0.694 A 
HETATM    5  N4  UNL     1     -22.696  52.260 -61.536  1.00  0.00    -0.140 N 
ATOM      6  H4  UNL     1     -23.375  52.594 -62.220  1.00  0.00     0.189 HD
HETATM    7  C4  UNL     1     -22.072  51.080 -61.742  1.00  0.00     0.358 A 
HETATM    8  O1  UNL     1     -22.306  50.380 -62.761  1.00  0.00    -0.245 OA
HETATM    9  N5  UNL     1     -21.179  50.685 -60.796  1.00  0.00    -0.076 N 
HETATM   10  C5  UNL     1     -20.502  49.433 -60.993  1.00  0.00     0.505 C 
HETATM   11  N6  UNL     1     -19.270  49.568 -61.749  1.00  0.00    -0.032 N 
ATOM     12  H61 UNL     1     -18.790  48.679 -61.889  1.00  0.00     0.279 HD
ATOM     13  H62 UNL     1     -18.651  50.252 -61.316  1.00  0.00     0.279 HD
ATOM     14  H63 UNL     1     -19.439  50.035 -62.640  1.00  0.00     0.279 HD
HETATM   15  N7  UNL     1     -21.301  48.421 -61.605  1.00  0.00    -0.032 N 
ATOM     16  H71 UNL     1     -20.820  47.532 -61.745  1.00  0.00     0.279 HD
ATOM     17  H72 UNL     1     -21.688  48.758 -62.486  1.00  0.00     0.279 HD
ATOM     18  H73 UNL     1     -22.163  48.280 -61.078  1.00  0.00     0.279 HD
ENDROOT
BRANCH   1  19
HETATM   19  N1  UNL     1     -20.080  51.023 -58.840  1.00  0.00    -0.229 N 
HETATM   20  C1  UNL     1     -18.765  51.539 -58.659  1.00  0.00     0.165 C 
ATOM     21  H1  UNL     1     -20.371  50.263 -58.225  1.00  0.00     0.177 HD
ENDBRANCH   1  19
BRANCH   4  22
HETATM   22  N3  UNL     1     -23.044  54.124 -60.262  1.00  0.00    -0.234 N 
ATOM     23  H32 UNL     1     -22.558  54.904 -59.821  1.00  0.00     0.174 HD
ATOM     24  H31 UNL     1     -24.013  54.202 -60.572  1.00  0.00     0.174 HD
ENDBRANCH   4  22
TORSDOF 2
ENDMDL
MODEL 2
REMARK VINA RESULT: -6.353303456      1.653      2.948
REMARK  2 active torsions:
REMARK  status: ('A' for Active; 'I' for Inactive)
REMARK    1  A    between atoms: N1_2  and  C2_4 
REMARK    2  A    between atoms: C3_7  and  N3_8 
REMARK       I    between atoms: N5_15  and  C5_16 
REMARK       I    between atoms: C5_16  and  N6_17 
REMARK       I    between atoms: C5_16  and  N7_21 
ROOT
HETATM    1  C2  UNL     1     -21.217  52.399 -59.834  1.00  0.00     0.701 A 
HETATM    2  N2  UNL     1     -22.083  52.496 -60.858  1.00  0.00    -0.022 N 
ATOM      3  H2  UNL     1     -22.598  53.359 -61.036  1.00  0.00     0.203 HD
HETATM    4  C3  UNL     1     -22.245  51.415 -61.640  1.00  0.00     0.694 A 
HETATM    5  N4  UNL     1     -21.569  50.271 -61.414  1.00  0.00    -0.140 N 
ATOM      6  H4  UNL     1     -21.719  49.471 -62.029  1.00  0.00     0.189 HD
HETATM    7  C4  UNL     1     -20.698  50.166 -60.387  1.00  0.00     0.358 A 
HETATM    8  O1  UNL     1     -20.063  49.103 -60.168  1.00  0.00    -0.245 OA
HETATM    9  N5  UNL     1     -20.541  51.265 -59.602  1.00  0.00    -0.076 N 
HETATM   10  C5  UNL     1     -19.620  51.178 -58.503  1.00  0.00     0.505 C 
HETATM   11  N6  UNL     1     -18.265  51.548 -58.869  1.00  0.00    -0.032 N 
ATOM     12  H61 UNL     1     -17.611  51.486 -58.088  1.00  0.00     0.279 HD
ATOM     13  H62 UNL     1     -18.242  52.476 -59.291  1.00  0.00     0.279 HD
ATOM     14  H63 UNL     1     -17.938  50.996 -59.662  1.00  0.00     0.279 HD
HETATM   15  N7  UNL     1     -19.585  49.903 -57.863  1.00  0.00    -0.032 N 
ATOM     16  H71 UNL     1     -18.931  49.842 -57.082  1.00  0.00     0.279 HD
ATOM     17  H72 UNL     1     -19.395  49.169 -58.544  1.00  0.00     0.279 HD
ATOM     18  H73 UNL     1     -20.521  49.628 -57.565  1.00  0.00     0.279 HD
ENDROOT
BRANCH   1  19
HETATM   19  N1  UNL     1     -21.042  53.413 -59.071  1.00  0.00    -0.229 N 
HETATM   20  C1  UNL     1     -21.784  54.628 -59.120  1.00  0.00     0.165 C 
ATOM     21  H1  UNL     1     -20.306  53.346 -58.368  1.00  0.00     0.177 HD
ENDBRANCH   1  19
BRANCH   4  22
HETATM   22  N3  UNL     1     -23.071  51.496 -62.624  1.00  0.00    -0.234 N 
ATOM     23  H32 UNL     1     -23.970  51.017 -62.579  1.00  0.00     0.174 HD
ATOM     24  H31 UNL     1     -22.798  52.048 -63.437  1.00  0.00     0.174 HD
ENDBRANCH   4  22
TORSDOF 2
ENDMDL
MODEL 3
REMARK VINA RESULT: -6.200413227      1.809      3.064
REMARK  2 active torsions:
REMARK  status: ('A' for Active; 'I' for Inactive)
REMARK    1  A    between atoms: N1_2  and  C2_4 
REMARK    2  A    between atoms: C3_7  and  N3_8 
REMARK       I    between atoms: N5_15  and  C5_16 
REMARK       I    between atoms: C5_16  and  N6_17 
REMARK       I    between atoms: C5_16  and  N7_21 
ROOT
HETATM    1  C2  UNL     1     -21.912  51.845 -60.903  1.00  0.00     0.701 A 
HETATM    2  N2  UNL     1     -22.185  52.984 -60.243  1.00  0.00    -0.022 N 
ATOM      3  H2  UNL     1     -23.063  53.483 -60.388  1.00  0.00     0.203 HD
HETATM    4  C3  UNL     1     -21.258  53.441 -59.382  1.00  0.00     0.694 A 
HETATM    5  N4  UNL     1     -20.096  52.789 -59.183  1.00  0.00    -0.140 N 
ATOM      6  H4  UNL     1     -19.416  53.166 -58.523  1.00  0.00     0.189 HD
HETATM    7  C4  UNL     1     -19.816  51.644 -59.843  1.00  0.00     0.358 A 
HETATM    8  O1  UNL     1     -18.734  51.028 -59.664  1.00  0.00    -0.245 OA
HETATM    9  N5  UNL     1     -20.759  51.190 -60.711  1.00  0.00    -0.076 N 
HETATM   10  C5  UNL     1     -20.484  49.975 -61.425  1.00  0.00     0.505 C 
HETATM   11  N6  UNL     1     -20.920  48.787 -60.712  1.00  0.00    -0.032 N 
ATOM     12  H61 UNL     1     -20.724  47.924 -61.220  1.00  0.00     0.279 HD
ATOM     13  H62 UNL     1     -21.908  48.851 -60.469  1.00  0.00     0.279 HD
ATOM     14  H63 UNL     1     -20.519  48.758 -59.775  1.00  0.00     0.279 HD
HETATM   15  N7  UNL     1     -19.116  49.804 -61.795  1.00  0.00    -0.032 N 
ATOM     16  H71 UNL     1     -18.921  48.941 -62.302  1.00  0.00     0.279 HD
ATOM     17  H72 UNL     1     -18.514  49.879 -60.975  1.00  0.00     0.279 HD
ATOM     18  H73 UNL     1     -18.788  50.611 -62.326  1.00  0.00     0.279 HD
ENDROOT
BRANCH   1  19
HETATM   19  N1  UNL     1     -22.777  51.385 -61.730  1.00  0.00    -0.229 N 
HETATM   20  C1  UNL     1     -23.383  52.116 -62.791  1.00  0.00     0.165 C 
ATOM     21  H1  UNL     1     -23.056  50.410 -61.617  1.00  0.00     0.177 HD
ENDBRANCH   1  19
BRANCH   4  22
HETATM   22  N3  UNL     1     -21.507  54.531 -58.744  1.00  0.00    -0.234 N 
ATOM     23  H32 UNL     1     -21.447  54.555 -57.727  1.00  0.00     0.174 HD
ATOM     24  H31 UNL     1     -21.763  55.357 -59.285  1.00  0.00     0.174 HD
ENDBRANCH   4  22
TORSDOF 2
ENDMDL
MODEL 4
REMARK VINA RESULT: -6.171999940      1.051      1.051
REMARK  2 active torsions:
REMARK  status: ('A' for Active; 'I' for Inactive)
REMARK    1  A    between atoms: N1_2  and  C2_4 
REMARK    2  A    between atoms: C3_7  and  N3_8 
REMARK       I    between atoms: N5_15  and  C5_16 
REMARK       I    between atoms: C5_16  and  N6_17 
REMARK       I    between atoms: C5_16  and  N7_21 
ROOT
HETATM    1  C2  UNL     1     -20.199  51.192 -59.395  1.00  0.00     0.701 A 
HETATM    2  N2  UNL     1     -20.600  52.401 -58.961  1.00  0.00    -0.022 N 
ATOM      3  H2  UNL     1     -20.255  52.789 -58.083  1.00  0.00     0.203 HD
HETATM    4  C3  UNL     1     -21.472  53.078 -59.728  1.00  0.00     0.694 A 
HETATM    5  N4  UNL     1     -21.934  52.573 -60.889  1.00  0.00    -0.140 N 
ATOM      6  H4  UNL     1     -22.596  53.116 -61.444  1.00  0.00     0.189 HD
HETATM    7  C4  UNL     1     -21.535  51.360 -61.330  1.00  0.00     0.358 A 
HETATM    8  O1  UNL     1     -21.960  50.880 -62.413  1.00  0.00    -0.245 OA
HETATM    9  N5  UNL     1     -20.653  50.683 -60.548  1.00  0.00    -0.076 N 
HETATM   10  C5  UNL     1     -20.213  49.391 -60.996  1.00  0.00     0.505 C 
HETATM   11  N6  UNL     1     -19.037  49.454 -61.844  1.00  0.00    -0.032 N 
ATOM     12  H61 UNL     1     -18.725  48.537 -62.162  1.00  0.00     0.279 HD
ATOM     13  H62 UNL     1     -18.280  49.955 -61.380  1.00  0.00     0.279 HD
ATOM     14  H63 UNL     1     -19.191  50.081 -62.634  1.00  0.00     0.279 HD
HETATM   15  N7  UNL     1     -21.215  48.628 -61.668  1.00  0.00    -0.032 N 
ATOM     16  H71 UNL     1     -20.903  47.710 -61.986  1.00  0.00     0.279 HD
ATOM     17  H72 UNL     1     -21.605  49.160 -62.445  1.00  0.00     0.279 HD
ATOM     18  H73 UNL     1     -22.046  48.538 -61.083  1.00  0.00     0.279 HD
ENDROOT
BRANCH   1  19
HETATM   19  N1  UNL     1     -19.368  50.524 -58.685  1.00  0.00    -0.229 N 
HETATM   20  C1  UNL     1     -19.683  49.788 -57.507  1.00  0.00     0.165 C 
ATOM     21  H1  UNL     1     -18.394  50.517 -58.990  1.00  0.00     0.177 HD
ENDBRANCH   1  19
BRANCH   4  22
HETATM   22  N3  UNL     1     -21.865  54.236 -59.324  1.00  0.00    -0.234 N 
ATOM     23  H32 UNL     1     -22.648  54.701 -59.782  1.00  0.00     0.174 HD
ATOM     24  H31 UNL     1     -21.371  54.664 -58.540  1.00  0.00     0.174 HD
ENDBRANCH   4  22
TORSDOF 2
ENDMDL
MODEL 5
REMARK VINA RESULT: -6.163068251      1.845      3.342
REMARK  2 active torsions:
REMARK  status: ('A' for Active; 'I' for Inactive)
REMARK    1  A    between atoms: N1_2  and  C2_4 
REMARK    2  A    between atoms: C3_7  and  N3_8 
REMARK       I    between atoms: N5_15  and  C5_16 
REMARK       I    between atoms: C5_16  and  N6_17 
REMARK       I    between atoms: C5_16  and  N7_21 
ROOT
HETATM    1  C2  UNL     1     -21.735  50.899 -61.306  1.00  0.00     0.701 A 
HETATM    2  N2  UNL     1     -22.679  51.017 -62.256  1.00  0.00    -0.022 N 
ATOM      3  H2  UNL     1     -22.958  50.218 -62.827  1.00  0.00     0.203 HD
HETATM    4  C3  UNL     1     -23.243  52.226 -62.425  1.00  0.00     0.694 A 
HETATM    5  N4  UNL     1     -22.882  53.286 -61.676  1.00  0.00    -0.140 N 
ATOM      6  H4  UNL     1     -23.332  54.188 -61.834  1.00  0.00     0.189 HD
HETATM    7  C4  UNL     1     -21.935  53.174 -60.720  1.00  0.00     0.358 A 
HETATM    8  O1  UNL     1     -21.590  54.158 -60.016  1.00  0.00    -0.245 OA
HETATM    9  N5  UNL     1     -21.370  51.948 -60.556  1.00  0.00    -0.076 N 
HETATM   10  C5  UNL     1     -20.360  51.804 -59.546  1.00  0.00     0.505 C 
HETATM   11  N6  UNL     1     -20.904  51.457 -58.245  1.00  0.00    -0.032 N 
ATOM     12  H61 UNL     1     -20.186  51.355 -57.528  1.00  0.00     0.279 HD
ATOM     13  H62 UNL     1     -21.481  50.619 -58.304  1.00  0.00     0.279 HD
ATOM     14  H63 UNL     1     -21.615  52.129 -57.957  1.00  0.00     0.279 HD
HETATM   15  N7  UNL     1     -19.512  52.943 -59.393  1.00  0.00    -0.032 N 
ATOM     16  H71 UNL     1     -18.794  52.840 -58.675  1.00  0.00     0.279 HD
ATOM     17  H72 UNL     1     -20.069  53.780 -59.222  1.00  0.00     0.279 HD
ATOM     18  H73 UNL     1     -19.089  53.194 -60.287  1.00  0.00     0.279 HD
ENDROOT
BRANCH   1  19
HETATM   19  N1  UNL     1     -21.180  49.759 -61.121  1.00  0.00    -0.229 N 
HETATM   20  C1  UNL     1     -20.149  49.196 -61.927  1.00  0.00     0.165 C 
ATOM     21  H1  UNL     1     -21.505  49.205 -60.329  1.00  0.00     0.177 HD
ENDBRANCH   1  19
BRANCH   4  22
HETATM   22  N3  UNL     1     -24.148  52.351 -63.333  1.00  0.00    -0.234 N 
ATOM     23  H32 UNL     1     -23.969  52.031 -64.284  1.00  0.00     0.174 HD
ATOM     24  H31 UNL     1     -25.038  52.776 -63.069  1.00  0.00     0.174 HD
ENDBRANCH   4  22
TORSDOF 2
ENDMDL
