MODEL 1
REMARK VINA RESULT: -8.199605412      0.000      0.000
REMARK  10 active torsions:
REMARK  status: ('A' for Active; 'I' for Inactive)
REMARK    1  A    between atoms: C3_3  and  C4_4 
REMARK    2  A    between atoms: C4_4  and  C5_5 
REMARK    3  A    between atoms: C10_11  and  C11_12 
REMARK    4  A    between atoms: C11_12  and  C12_13 
REMARK    5  A    between atoms: C14_18  and  C15_19 
REMARK    6  A    between atoms: C15_19  and  C16_20 
REMARK    7  A    between atoms: C19_23  and  C20_24 
REMARK    8  A    between atoms: N3_36  and  C29_37 
REMARK    9  A    between atoms: C33_41  and  O3_42 
REMARK   10  A    between atoms: O3_42  and  C34_43 
ROOT
HETATM    1  C5  UNL     1     -12.320  37.567  -1.530  1.00  0.00    -0.023 A 
HETATM    2  C6  UNL     1     -11.500  36.879  -0.668  1.00  0.00     0.012 A 
HETATM    3  C7  UNL     1     -10.219  36.501  -1.051  1.00  0.00     0.003 A 
HETATM    4  C8  UNL     1      -9.737  36.807  -2.306  1.00  0.00     0.024 A 
HETATM    5  C9  UNL     1     -10.551  37.495  -3.175  1.00  0.00     0.045 A 
HETATM    6 CL1  UNL     1      -9.976  37.904  -4.791  1.00  0.00    -0.083 Cl
HETATM    7  C10 UNL     1     -11.839  37.873  -2.786  1.00  0.00    -0.002 A 
ENDROOT
BRANCH   7   8
HETATM    8  C11 UNL     1     -12.713  38.595  -3.674  1.00  0.00     0.049 C 
BRANCH   8   9
HETATM    9  C12 UNL     1     -13.355  38.055  -4.695  1.00  0.00     0.104 A 
HETATM   10  N1  UNL     1     -13.502  36.733  -4.858  1.00  0.00    -0.317 N 
HETATM   11  C13 UNL     1     -14.164  36.186  -5.919  1.00  0.00     0.273 A 
ATOM     12  H1  UNL     1     -13.102  36.108  -4.158  1.00  0.00     0.169 HD
HETATM   13  O1  UNL     1     -14.230  34.940  -5.949  1.00  0.00    -0.266 OA
HETATM   14  C14 UNL     1     -14.714  36.987  -6.878  1.00  0.00     0.104 A 
HETATM   15  N2  UNL     1     -14.574  38.334  -6.728  1.00  0.00    -0.317 N 
HETATM   16  C25 UNL     1     -13.927  38.843  -5.688  1.00  0.00     0.273 A 
ATOM     17  H2  UNL     1     -14.972  38.961  -7.427  1.00  0.00     0.169 HD
HETATM   18  O2  UNL     1     -13.818  40.099  -5.585  1.00  0.00    -0.266 OA
BRANCH  14  19
HETATM   19  C15 UNL     1     -15.348  36.492  -7.911  1.00  0.00     0.046 C 
BRANCH  19  20
HETATM   20  C16 UNL     1     -14.761  36.267  -9.201  1.00  0.00    -0.034 A 
HETATM   21  C17 UNL     1     -15.503  36.050 -10.358  1.00  0.00     0.012 A 
HETATM   22  C18 UNL     1     -14.923  35.853 -11.592  1.00  0.00     0.008 A 
HETATM   23  C19 UNL     1     -13.565  35.863 -11.729  1.00  0.00    -0.055 A 
HETATM   24  C23 UNL     1     -12.790  36.072 -10.623  1.00  0.00     0.008 A 
HETATM   25  C24 UNL     1     -13.373  36.269  -9.392  1.00  0.00     0.012 A 
BRANCH  23  26
HETATM   26  C20 UNL     1     -12.905  35.659 -13.047  1.00  0.00     0.010 C 
HETATM   27  C21 UNL     1     -13.065  36.933 -13.852  1.00  0.00     0.015 C 
HETATM   28  C22 UNL     1     -13.580  34.530 -13.772  1.00  0.00     0.015 C 
ENDBRANCH  23  26
ENDBRANCH  19  20
ENDBRANCH  14  19
ENDBRANCH   8   9
ENDBRANCH   7   8
BRANCH   1  29
HETATM   29  C4  UNL     1     -13.651  37.941  -1.082  1.00  0.00     0.026 C 
BRANCH  29  30
HETATM   30  C3  UNL     1     -14.628  37.048  -1.111  1.00  0.00    -0.007 A 
HETATM   31  C2  UNL     1     -15.808  37.077  -1.819  1.00  0.00     0.040 A 
HETATM   32  C1  UNL     1     -16.185  38.045  -2.626  1.00  0.00     0.044 C 
HETATM   33  N3  UNL     1     -16.533  35.949  -1.559  1.00  0.00    -0.316 N 
HETATM   34  C27 UNL     1     -15.853  35.183  -0.698  1.00  0.00     0.014 A 
HETATM   35  C26 UNL     1     -14.661  35.861  -0.411  1.00  0.00     0.039 A 
HETATM   36  C28 UNL     1     -16.292  33.889  -0.171  1.00  0.00     0.068 C 
BRANCH  33  37
HETATM   37  C29 UNL     1     -17.803  35.612  -2.098  1.00  0.00     0.042 A 
HETATM   38  C30 UNL     1     -18.939  36.083  -1.469  1.00  0.00     0.030 A 
HETATM   39  C31 UNL     1     -20.205  35.816  -1.916  1.00  0.00     0.005 A 
HETATM   40  C32 UNL     1     -20.369  35.035  -3.061  1.00  0.00     0.037 A 
HETATM   41  C33 UNL     1     -19.264  34.553  -3.709  1.00  0.00     0.081 A 
HETATM   42  C36 UNL     1     -17.989  34.844  -3.223  1.00  0.00     0.067 A 
BRANCH  41  43
HETATM   43  O3  UNL     1     -19.406  33.771  -4.854  1.00  0.00    -0.279 OA
BRANCH  43  44
HETATM   44  C34 UNL     1     -18.880  32.491  -4.929  1.00  0.00     0.260 C 
HETATM   45  C35 UNL     1     -19.463  31.362  -4.133  1.00  0.00     0.126 C 
HETATM   46  O4  UNL     1     -17.891  32.307  -5.690  1.00  0.00    -0.265 OA
ENDBRANCH  43  44
ENDBRANCH  41  43
ENDBRANCH  33  37
ENDBRANCH  29  30
ENDBRANCH   1  29
TORSDOF 10
ENDMDL
MODEL 2
REMARK VINA RESULT: -8.175330139      2.063      3.031
REMARK  10 active torsions:
REMARK  status: ('A' for Active; 'I' for Inactive)
REMARK    1  A    between atoms: C3_3  and  C4_4 
REMARK    2  A    between atoms: C4_4  and  C5_5 
REMARK    3  A    between atoms: C10_11  and  C11_12 
REMARK    4  A    between atoms: C11_12  and  C12_13 
REMARK    5  A    between atoms: C14_18  and  C15_19 
REMARK    6  A    between atoms: C15_19  and  C16_20 
REMARK    7  A    between atoms: C19_23  and  C20_24 
REMARK    8  A    between atoms: N3_36  and  C29_37 
REMARK    9  A    between atoms: C33_41  and  O3_42 
REMARK   10  A    between atoms: O3_42  and  C34_43 
ROOT
HETATM    1  C5  UNL     1     -12.519  37.121  -1.381  1.00  0.00    -0.023 A 
HETATM    2  C6  UNL     1     -12.113  36.245  -0.401  1.00  0.00     0.012 A 
HETATM    3  C7  UNL     1     -10.802  35.789  -0.349  1.00  0.00     0.003 A 
HETATM    4  C8  UNL     1      -9.873  36.203  -1.279  1.00  0.00     0.024 A 
HETATM    5  C9  UNL     1     -10.269  37.079  -2.263  1.00  0.00     0.045 A 
HETATM    6 CL1  UNL     1      -9.113  37.632  -3.474  1.00  0.00    -0.083 Cl
HETATM    7  C10 UNL     1     -11.589  37.535  -2.312  1.00  0.00    -0.002 A 
ENDROOT
BRANCH   7   8
HETATM    8  C11 UNL     1     -12.032  38.453  -3.330  1.00  0.00     0.049 C 
BRANCH   8   9
HETATM    9  C12 UNL     1     -12.642  38.095  -4.446  1.00  0.00     0.104 A 
HETATM   10  N1  UNL     1     -12.255  37.053  -5.196  1.00  0.00    -0.317 N 
HETATM   11  C13 UNL     1     -12.890  36.696  -6.350  1.00  0.00     0.273 A 
ATOM     12  H1  UNL     1     -11.452  36.504  -4.891  1.00  0.00     0.169 HD
HETATM   13  O1  UNL     1     -12.429  35.704  -6.953  1.00  0.00    -0.266 OA
HETATM   14  C14 UNL     1     -13.971  37.404  -6.793  1.00  0.00     0.104 A 
HETATM   15  N2  UNL     1     -14.376  38.466  -6.043  1.00  0.00    -0.317 N 
HETATM   16  C25 UNL     1     -13.744  38.795  -4.924  1.00  0.00     0.273 A 
ATOM     17  H2  UNL     1     -15.179  39.017  -6.345  1.00  0.00     0.169 HD
HETATM   18  O2  UNL     1     -14.152  39.787  -4.255  1.00  0.00    -0.266 OA
BRANCH  14  19
HETATM   19  C15 UNL     1     -14.595  37.090  -7.900  1.00  0.00     0.046 C 
BRANCH  19  20
HETATM   20  C16 UNL     1     -15.791  36.301  -7.970  1.00  0.00    -0.034 A 
HETATM   21  C17 UNL     1     -16.491  36.064  -9.149  1.00  0.00     0.012 A 
HETATM   22  C18 UNL     1     -17.629  35.289  -9.200  1.00  0.00     0.008 A 
HETATM   23  C19 UNL     1     -18.125  34.711  -8.067  1.00  0.00    -0.055 A 
HETATM   24  C23 UNL     1     -17.476  34.913  -6.883  1.00  0.00     0.008 A 
HETATM   25  C24 UNL     1     -16.339  35.687  -6.835  1.00  0.00     0.012 A 
BRANCH  23  26
HETATM   26  C20 UNL     1     -19.348  33.864  -8.086  1.00  0.00     0.010 C 
HETATM   27  C21 UNL     1     -20.022  33.985  -6.734  1.00  0.00     0.015 C 
HETATM   28  C22 UNL     1     -18.958  32.431  -8.315  1.00  0.00     0.015 C 
ENDBRANCH  23  26
ENDBRANCH  19  20
ENDBRANCH  14  19
ENDBRANCH   8   9
ENDBRANCH   7   8
BRANCH   1  29
HETATM   29  C4  UNL     1     -13.901  37.569  -1.391  1.00  0.00     0.026 C 
BRANCH  29  30
HETATM   30  C3  UNL     1     -14.867  36.723  -1.074  1.00  0.00    -0.007 A 
HETATM   31  C2  UNL     1     -15.906  36.261  -1.851  1.00  0.00     0.040 A 
HETATM   32  C1  UNL     1     -16.125  36.600  -3.103  1.00  0.00     0.044 C 
HETATM   33  N3  UNL     1     -16.677  35.396  -1.128  1.00  0.00    -0.316 N 
HETATM   34  C27 UNL     1     -16.167  35.282   0.103  1.00  0.00     0.014 A 
HETATM   35  C26 UNL     1     -15.036  36.107   0.149  1.00  0.00     0.039 A 
HETATM   36  C28 UNL     1     -16.706  34.447   1.180  1.00  0.00     0.068 C 
BRANCH  33  37
HETATM   37  C29 UNL     1     -17.837  34.713  -1.579  1.00  0.00     0.042 A 
HETATM   38  C30 UNL     1     -19.054  35.367  -1.538  1.00  0.00     0.030 A 
HETATM   39  C31 UNL     1     -20.224  34.794  -1.955  1.00  0.00     0.005 A 
HETATM   40  C32 UNL     1     -20.201  33.489  -2.450  1.00  0.00     0.037 A 
HETATM   41  C33 UNL     1     -19.013  32.812  -2.505  1.00  0.00     0.081 A 
HETATM   42  C36 UNL     1     -17.839  33.429  -2.069  1.00  0.00     0.067 A 
BRANCH  41  43
HETATM   43  O3  UNL     1     -18.968  31.508  -2.995  1.00  0.00    -0.279 OA
BRANCH  43  44
HETATM   44  C34 UNL     1     -19.055  31.239  -4.352  1.00  0.00     0.260 C 
HETATM   45  C35 UNL     1     -20.300  30.656  -4.952  1.00  0.00     0.126 C 
HETATM   46  O4  UNL     1     -18.049  31.499  -5.067  1.00  0.00    -0.265 OA
ENDBRANCH  43  44
ENDBRANCH  41  43
ENDBRANCH  33  37
ENDBRANCH  29  30
ENDBRANCH   1  29
TORSDOF 10
ENDMDL
MODEL 3
REMARK VINA RESULT: -8.168574753      0.613      1.131
REMARK  10 active torsions:
REMARK  status: ('A' for Active; 'I' for Inactive)
REMARK    1  A    between atoms: C3_3  and  C4_4 
REMARK    2  A    between atoms: C4_4  and  C5_5 
REMARK    3  A    between atoms: C10_11  and  C11_12 
REMARK    4  A    between atoms: C11_12  and  C12_13 
REMARK    5  A    between atoms: C14_18  and  C15_19 
REMARK    6  A    between atoms: C15_19  and  C16_20 
REMARK    7  A    between atoms: C19_23  and  C20_24 
REMARK    8  A    between atoms: N3_36  and  C29_37 
REMARK    9  A    between atoms: C33_41  and  O3_42 
REMARK   10  A    between atoms: O3_42  and  C34_43 
ROOT
HETATM    1  C5  UNL     1     -12.390  37.448  -1.479  1.00  0.00    -0.023 A 
HETATM    2  C6  UNL     1     -11.678  36.729  -0.549  1.00  0.00     0.012 A 
HETATM    3  C7  UNL     1     -10.381  36.308  -0.812  1.00  0.00     0.003 A 
HETATM    4  C8  UNL     1      -9.774  36.599  -2.015  1.00  0.00     0.024 A 
HETATM    5  C9  UNL     1     -10.479  37.318  -2.952  1.00  0.00     0.045 A 
HETATM    6 CL1  UNL     1      -9.741  37.710  -4.505  1.00  0.00    -0.083 Cl
HETATM    7  C10 UNL     1     -11.783  37.740  -2.683  1.00  0.00    -0.002 A 
ENDROOT
BRANCH   7   8
HETATM    8  C11 UNL     1     -12.545  38.494  -3.645  1.00  0.00     0.049 C 
BRANCH   8   9
HETATM    9  C12 UNL     1     -13.280  37.958  -4.604  1.00  0.00     0.104 A 
HETATM   10  N1  UNL     1     -13.484  36.640  -4.727  1.00  0.00    -0.317 N 
HETATM   11  C13 UNL     1     -14.242  36.098  -5.724  1.00  0.00     0.273 A 
ATOM     12  H1  UNL     1     -13.054  36.014  -4.046  1.00  0.00     0.169 HD
HETATM   13  O1  UNL     1     -14.353  34.854  -5.723  1.00  0.00    -0.266 OA
HETATM   14  C14 UNL     1     -14.836  36.900  -6.656  1.00  0.00     0.104 A 
HETATM   15  N2  UNL     1     -14.639  38.243  -6.545  1.00  0.00    -0.317 N 
HETATM   16  C25 UNL     1     -13.898  38.748  -5.567  1.00  0.00     0.273 A 
ATOM     17  H2  UNL     1     -15.067  38.871  -7.225  1.00  0.00     0.169 HD
HETATM   18  O2  UNL     1     -13.739  40.001  -5.499  1.00  0.00    -0.266 OA
BRANCH  14  19
HETATM   19  C15 UNL     1     -15.562  36.409  -7.627  1.00  0.00     0.046 C 
BRANCH  19  20
HETATM   20  C16 UNL     1     -15.112  36.234  -8.979  1.00  0.00    -0.034 A 
HETATM   21  C17 UNL     1     -13.772  36.225  -9.350  1.00  0.00     0.012 A 
HETATM   22  C18 UNL     1     -13.358  36.037 -10.651  1.00  0.00     0.008 A 
HETATM   23  C19 UNL     1     -14.270  35.849 -11.648  1.00  0.00    -0.055 A 
HETATM   24  C23 UNL     1     -15.600  35.849 -11.337  1.00  0.00     0.008 A 
HETATM   25  C24 UNL     1     -16.011  36.036 -10.037  1.00  0.00     0.012 A 
BRANCH  23  26
HETATM   26  C20 UNL     1     -13.858  35.639 -13.063  1.00  0.00     0.010 C 
HETATM   27  C21 UNL     1     -14.519  34.368 -13.557  1.00  0.00     0.015 C 
HETATM   28  C22 UNL     1     -12.367  35.476 -13.128  1.00  0.00     0.015 C 
ENDBRANCH  23  26
ENDBRANCH  19  20
ENDBRANCH  14  19
ENDBRANCH   8   9
ENDBRANCH   7   8
BRANCH   1  29
HETATM   29  C4  UNL     1     -13.744  37.867  -1.155  1.00  0.00     0.026 C 
BRANCH  29  30
HETATM   30  C3  UNL     1     -14.716  36.970  -1.116  1.00  0.00    -0.007 A 
HETATM   31  C2  UNL     1     -15.875  36.914  -1.858  1.00  0.00     0.040 A 
HETATM   32  C1  UNL     1     -16.230  37.787  -2.776  1.00  0.00     0.044 C 
HETATM   33  N3  UNL     1     -16.603  35.817  -1.498  1.00  0.00    -0.316 N 
HETATM   34  C27 UNL     1     -15.947  35.154  -0.539  1.00  0.00     0.014 A 
HETATM   35  C26 UNL     1     -14.767  35.866  -0.292  1.00  0.00     0.039 A 
HETATM   36  C28 UNL     1     -16.398  33.921   0.112  1.00  0.00     0.068 C 
BRANCH  33  37
HETATM   37  C29 UNL     1     -17.855  35.415  -2.034  1.00  0.00     0.042 A 
HETATM   38  C30 UNL     1     -19.011  35.949  -1.498  1.00  0.00     0.030 A 
HETATM   39  C31 UNL     1     -20.262  35.628  -1.951  1.00  0.00     0.005 A 
HETATM   40  C32 UNL     1     -20.389  34.722  -3.005  1.00  0.00     0.037 A 
HETATM   41  C33 UNL     1     -19.265  34.174  -3.560  1.00  0.00     0.081 A 
HETATM   42  C36 UNL     1     -18.005  34.524  -3.070  1.00  0.00     0.067 A 
BRANCH  41  43
HETATM   43  O3  UNL     1     -19.370  33.267  -4.612  1.00  0.00    -0.279 OA
BRANCH  43  44
HETATM   44  C34 UNL     1     -18.426  33.219  -5.626  1.00  0.00     0.260 C 
HETATM   45  C35 UNL     1     -18.367  34.278  -6.686  1.00  0.00     0.126 C 
HETATM   46  O4  UNL     1     -17.617  32.251  -5.628  1.00  0.00    -0.265 OA
ENDBRANCH  43  44
ENDBRANCH  41  43
ENDBRANCH  33  37
ENDBRANCH  29  30
ENDBRANCH   1  29
TORSDOF 10
ENDMDL
MODEL 4
REMARK VINA RESULT: -8.141311266      2.512      3.377
REMARK  10 active torsions:
REMARK  status: ('A' for Active; 'I' for Inactive)
REMARK    1  A    between atoms: C3_3  and  C4_4 
REMARK    2  A    between atoms: C4_4  and  C5_5 
REMARK    3  A    between atoms: C10_11  and  C11_12 
REMARK    4  A    between atoms: C11_12  and  C12_13 
REMARK    5  A    between atoms: C14_18  and  C15_19 
REMARK    6  A    between atoms: C15_19  and  C16_20 
REMARK    7  A    between atoms: C19_23  and  C20_24 
REMARK    8  A    between atoms: N3_36  and  C29_37 
REMARK    9  A    between atoms: C33_41  and  O3_42 
REMARK   10  A    between atoms: O3_42  and  C34_43 
ROOT
HETATM    1  C5  UNL     1     -12.480  36.871  -2.124  1.00  0.00    -0.023 A 
HETATM    2  C6  UNL     1     -12.016  36.176  -1.032  1.00  0.00     0.012 A 
HETATM    3  C7  UNL     1     -10.690  36.280  -0.631  1.00  0.00     0.003 A 
HETATM    4  C8  UNL     1      -9.805  37.083  -1.318  1.00  0.00     0.024 A 
HETATM    5  C9  UNL     1     -10.260  37.781  -2.412  1.00  0.00     0.045 A 
HETATM    6 CL1  UNL     1      -9.160  38.817  -3.322  1.00  0.00    -0.083 Cl
HETATM    7  C10 UNL     1     -11.595  37.673  -2.813  1.00  0.00    -0.002 A 
ENDROOT
BRANCH   7   8
HETATM    8  C11 UNL     1     -12.100  38.393  -3.953  1.00  0.00     0.049 C 
BRANCH   8   9
HETATM    9  C12 UNL     1     -12.591  37.824  -5.040  1.00  0.00     0.104 A 
HETATM   10  N1  UNL     1     -13.891  37.852  -5.363  1.00  0.00    -0.317 N 
HETATM   11  C13 UNL     1     -14.388  37.256  -6.486  1.00  0.00     0.273 A 
ATOM     12  H1  UNL     1     -14.538  38.339  -4.743  1.00  0.00     0.169 HD
HETATM   13  O1  UNL     1     -15.619  37.358  -6.670  1.00  0.00    -0.266 OA
HETATM   14  C14 UNL     1     -13.556  36.594  -7.343  1.00  0.00     0.104 A 
HETATM   15  N2  UNL     1     -12.231  36.556  -7.029  1.00  0.00    -0.317 N 
HETATM   16  C25 UNL     1     -11.771  37.143  -5.932  1.00  0.00     0.273 A 
ATOM     17  H2  UNL     1     -11.583  36.069  -7.648  1.00  0.00     0.169 HD
HETATM   18  O2  UNL     1     -10.534  37.086  -5.677  1.00  0.00    -0.266 OA
BRANCH  14  19
HETATM   19  C15 UNL     1     -14.004  36.007  -8.424  1.00  0.00     0.046 C 
BRANCH  19  20
HETATM   20  C16 UNL     1     -13.835  36.506  -9.758  1.00  0.00    -0.034 A 
HETATM   21  C17 UNL     1     -14.695  37.424 -10.353  1.00  0.00     0.012 A 
HETATM   22  C18 UNL     1     -14.507  37.906 -11.630  1.00  0.00     0.008 A 
HETATM   23  C19 UNL     1     -13.444  37.491 -12.377  1.00  0.00    -0.055 A 
HETATM   24  C23 UNL     1     -12.569  36.590 -11.840  1.00  0.00     0.008 A 
HETATM   25  C24 UNL     1     -12.759  36.111 -10.564  1.00  0.00     0.012 A 
BRANCH  23  26
HETATM   26  C20 UNL     1     -13.207  37.995 -13.757  1.00  0.00     0.010 C 
HETATM   27  C21 UNL     1     -12.288  37.016 -14.461  1.00  0.00     0.015 C 
HETATM   28  C22 UNL     1     -12.535  39.337 -13.689  1.00  0.00     0.015 C 
ENDBRANCH  23  26
ENDBRANCH  19  20
ENDBRANCH  14  19
ENDBRANCH   8   9
ENDBRANCH   7   8
BRANCH   1  29
HETATM   29  C4  UNL     1     -13.876  36.730  -2.502  1.00  0.00     0.026 C 
BRANCH  29  30
HETATM   30  C3  UNL     1     -14.825  37.086  -1.651  1.00  0.00    -0.007 A 
HETATM   31  C2  UNL     1     -15.634  36.291  -0.871  1.00  0.00     0.040 A 
HETATM   32  C1  UNL     1     -15.600  34.975  -0.838  1.00  0.00     0.044 C 
HETATM   33  N3  UNL     1     -16.480  37.070  -0.134  1.00  0.00    -0.316 N 
HETATM   34  C27 UNL     1     -16.242  38.356  -0.415  1.00  0.00     0.014 A 
HETATM   35  C26 UNL     1     -15.211  38.378  -1.362  1.00  0.00     0.039 A 
HETATM   36  C28 UNL     1     -16.941  39.503   0.170  1.00  0.00     0.068 C 
BRANCH  33  37
HETATM   37  C29 UNL     1     -17.462  36.621   0.788  1.00  0.00     0.042 A 
HETATM   38  C30 UNL     1     -17.104  36.455   2.113  1.00  0.00     0.030 A 
HETATM   39  C31 UNL     1     -17.980  36.033   3.075  1.00  0.00     0.005 A 
HETATM   40  C32 UNL     1     -19.300  35.754   2.716  1.00  0.00     0.037 A 
HETATM   41  C33 UNL     1     -19.688  35.908   1.413  1.00  0.00     0.081 A 
HETATM   42  C36 UNL     1     -18.766  36.340   0.458  1.00  0.00     0.067 A 
BRANCH  41  43
HETATM   43  O3  UNL     1     -21.001  35.635   1.033  1.00  0.00    -0.279 OA
BRANCH  43  44
HETATM   44  C34 UNL     1     -21.511  34.347   1.058  1.00  0.00     0.260 C 
HETATM   45  C35 UNL     1     -22.830  34.045   1.705  1.00  0.00     0.126 C 
HETATM   46  O4  UNL     1     -20.828  33.435   0.518  1.00  0.00    -0.265 OA
ENDBRANCH  43  44
ENDBRANCH  41  43
ENDBRANCH  33  37
ENDBRANCH  29  30
ENDBRANCH   1  29
TORSDOF 10
ENDMDL
MODEL 5
REMARK VINA RESULT: -8.108637261      1.898      2.852
REMARK  10 active torsions:
REMARK  status: ('A' for Active; 'I' for Inactive)
REMARK    1  A    between atoms: C3_3  and  C4_4 
REMARK    2  A    between atoms: C4_4  and  C5_5 
REMARK    3  A    between atoms: C10_11  and  C11_12 
REMARK    4  A    between atoms: C11_12  and  C12_13 
REMARK    5  A    between atoms: C14_18  and  C15_19 
REMARK    6  A    between atoms: C15_19  and  C16_20 
REMARK    7  A    between atoms: C19_23  and  C20_24 
REMARK    8  A    between atoms: N3_36  and  C29_37 
REMARK    9  A    between atoms: C33_41  and  O3_42 
REMARK   10  A    between atoms: O3_42  and  C34_43 
ROOT
HETATM    1  C5  UNL     1     -12.388  37.218  -1.414  1.00  0.00    -0.023 A 
HETATM    2  C6  UNL     1     -11.999  36.341  -0.429  1.00  0.00     0.012 A 
HETATM    3  C7  UNL     1     -10.701  35.847  -0.386  1.00  0.00     0.003 A 
HETATM    4  C8  UNL     1      -9.771  36.221  -1.331  1.00  0.00     0.024 A 
HETATM    5  C9  UNL     1     -10.151  37.098  -2.321  1.00  0.00     0.045 A 
HETATM    6 CL1  UNL     1      -8.992  37.601  -3.550  1.00  0.00    -0.083 Cl
HETATM    7  C10 UNL     1     -11.457  37.593  -2.361  1.00  0.00    -0.002 A 
ENDROOT
BRANCH   7   8
HETATM    8  C11 UNL     1     -11.883  38.512  -3.384  1.00  0.00     0.049 C 
BRANCH   8   9
HETATM    9  C12 UNL     1     -12.500  38.158  -4.498  1.00  0.00     0.104 A 
HETATM   10  N1  UNL     1     -12.164  37.077  -5.215  1.00  0.00    -0.317 N 
HETATM   11  C13 UNL     1     -12.806  36.724  -6.366  1.00  0.00     0.273 A 
ATOM     12  H1  UNL     1     -11.396  36.492  -4.886  1.00  0.00     0.169 HD
HETATM   13  O1  UNL     1     -12.394  35.692  -6.937  1.00  0.00    -0.266 OA
HETATM   14  C14 UNL     1     -13.839  37.479  -6.843  1.00  0.00     0.104 A 
HETATM   15  N2  UNL     1     -14.193  38.582  -6.126  1.00  0.00    -0.317 N 
HETATM   16  C25 UNL     1     -13.556  38.905  -5.008  1.00  0.00     0.273 A 
ATOM     17  H2  UNL     1     -14.961  39.168  -6.453  1.00  0.00     0.169 HD
HETATM   18  O2  UNL     1     -13.915  39.937  -4.372  1.00  0.00    -0.266 OA
BRANCH  14  19
HETATM   19  C15 UNL     1     -14.468  37.170  -7.948  1.00  0.00     0.046 C 
BRANCH  19  20
HETATM   20  C16 UNL     1     -15.660  36.374  -8.018  1.00  0.00    -0.034 A 
HETATM   21  C17 UNL     1     -16.277  35.811  -6.905  1.00  0.00     0.012 A 
HETATM   22  C18 UNL     1     -17.432  35.064  -6.989  1.00  0.00     0.008 A 
HETATM   23  C19 UNL     1     -18.028  34.843  -8.197  1.00  0.00    -0.055 A 
HETATM   24  C23 UNL     1     -17.462  35.374  -9.321  1.00  0.00     0.008 A 
HETATM   25  C24 UNL     1     -16.309  36.120  -9.234  1.00  0.00     0.012 A 
BRANCH  23  26
HETATM   26  C20 UNL     1     -19.278  34.046  -8.324  1.00  0.00     0.010 C 
HETATM   27  C21 UNL     1     -19.252  33.347  -9.669  1.00  0.00     0.015 C 
HETATM   28  C22 UNL     1     -20.464  34.967  -8.271  1.00  0.00     0.015 C 
ENDBRANCH  23  26
ENDBRANCH  19  20
ENDBRANCH  14  19
ENDBRANCH   8   9
ENDBRANCH   7   8
BRANCH   1  29
HETATM   29  C4  UNL     1     -13.756  37.708  -1.415  1.00  0.00     0.026 C 
BRANCH  29  30
HETATM   30  C3  UNL     1     -14.760  36.852  -1.314  1.00  0.00    -0.007 A 
HETATM   31  C2  UNL     1     -15.895  36.751  -2.087  1.00  0.00     0.040 A 
HETATM   32  C1  UNL     1     -16.191  37.529  -3.106  1.00  0.00     0.044 C 
HETATM   33  N3  UNL     1     -16.673  35.722  -1.637  1.00  0.00    -0.316 N 
HETATM   34  C27 UNL     1     -16.071  35.147  -0.589  1.00  0.00     0.014 A 
HETATM   35  C26 UNL     1     -14.875  35.845  -0.378  1.00  0.00     0.039 A 
HETATM   36  C28 UNL     1     -16.586  34.008   0.175  1.00  0.00     0.068 C 
BRANCH  33  37
HETATM   37  C29 UNL     1     -17.920  35.303  -2.171  1.00  0.00     0.042 A 
HETATM   38  C30 UNL     1     -19.083  35.764  -1.585  1.00  0.00     0.030 A 
HETATM   39  C31 UNL     1     -20.331  35.420  -2.032  1.00  0.00     0.005 A 
HETATM   40  C32 UNL     1     -20.446  34.568  -3.132  1.00  0.00     0.037 A 
HETATM   41  C33 UNL     1     -19.314  34.093  -3.736  1.00  0.00     0.081 A 
HETATM   42  C36 UNL     1     -18.058  34.464  -3.251  1.00  0.00     0.067 A 
BRANCH  41  43
HETATM   43  O3  UNL     1     -19.407  33.241  -4.834  1.00  0.00    -0.279 OA
BRANCH  43  44
HETATM   44  C34 UNL     1     -18.800  31.995  -4.840  1.00  0.00     0.260 C 
HETATM   45  C35 UNL     1     -18.116  31.468  -6.066  1.00  0.00     0.126 C 
HETATM   46  O4  UNL     1     -18.844  31.317  -3.778  1.00  0.00    -0.265 OA
ENDBRANCH  43  44
ENDBRANCH  41  43
ENDBRANCH  33  37
ENDBRANCH  29  30
ENDBRANCH   1  29
TORSDOF 10
ENDMDL
