MODEL 1
REMARK VINA RESULT: -8.151195108      0.000      0.000
REMARK  5 active torsions:
REMARK  status: ('A' for Active; 'I' for Inactive)
REMARK    1  A    between atoms: C4_4  and  C5_5 
REMARK    2  A    between atoms: C5_5  and  C6_6 
REMARK    3  A    between atoms: C6_6  and  C7_7 
REMARK    4  A    between atoms: C7_7  and  C8_8 
REMARK    5  A    between atoms: C8_8  and  N1_9 
ROOT
HETATM    1  C6  UNL     1       8.853   4.667  24.664  1.00  0.00     0.006 C 
ENDROOT
BRANCH   1   2
HETATM    2  C5  UNL     1       8.857   3.959  23.343  1.00  0.00     0.038 C 
BRANCH   2   3
HETATM    3  C4  UNL     1      10.251   3.579  23.011  1.00  0.00    -0.058 A 
HETATM    4  C3  UNL     1      10.653   2.262  22.953  1.00  0.00     0.007 A 
HETATM    5  C2  UNL     1      11.952   1.918  22.644  1.00  0.00     0.001 A 
HETATM    6  C1  UNL     1      12.848   2.927  22.390  1.00  0.00     0.000 A 
HETATM    7  C14 UNL     1      12.465   4.261  22.442  1.00  0.00     0.001 A 
HETATM    8  C13 UNL     1      11.164   4.567  22.753  1.00  0.00     0.007 A 
ENDBRANCH   2   3
ENDBRANCH   1   2
BRANCH   1   9
HETATM    9  C7  UNL     1       7.920   5.859  24.620  1.00  0.00     0.021 C 
BRANCH   9  10
HETATM   10  C8  UNL     1       7.868   6.593  25.917  1.00  0.00     0.128 C 
BRANCH  10  11
HETATM   11  N1  UNL     1       6.636   7.377  25.927  1.00  0.00    -0.366 N 
HETATM   12  C9  UNL     1       6.242   8.245  26.889  1.00  0.00     0.090 A 
HETATM   13  C10 UNL     1       5.034   8.799  26.566  1.00  0.00     0.019 A 
HETATM   14  C11 UNL     1       4.653   8.260  25.356  1.00  0.00     0.019 A 
HETATM   15  C12 UNL     1       5.671   7.383  24.992  1.00  0.00     0.090 A 
ENDBRANCH  10  11
ENDBRANCH   9  10
ENDBRANCH   1   9
TORSDOF 5
ENDMDL
MODEL 2
REMARK VINA RESULT: -8.136548609      0.055      1.548
REMARK  5 active torsions:
REMARK  status: ('A' for Active; 'I' for Inactive)
REMARK    1  A    between atoms: C4_4  and  C5_5 
REMARK    2  A    between atoms: C5_5  and  C6_6 
REMARK    3  A    between atoms: C6_6  and  C7_7 
REMARK    4  A    between atoms: C7_7  and  C8_8 
REMARK    5  A    between atoms: C8_8  and  N1_9 
ROOT
HETATM    1  C6  UNL     1       8.843   4.697  24.649  1.00  0.00     0.006 C 
ENDROOT
BRANCH   1   2
HETATM    2  C5  UNL     1       8.860   4.011  23.316  1.00  0.00     0.038 C 
BRANCH   2   3
HETATM    3  C4  UNL     1      10.257   3.634  22.993  1.00  0.00    -0.058 A 
HETATM    4  C3  UNL     1      11.225   4.579  22.729  1.00  0.00     0.007 A 
HETATM    5  C2  UNL     1      12.521   4.219  22.429  1.00  0.00     0.001 A 
HETATM    6  C1  UNL     1      12.834   2.883  22.400  1.00  0.00     0.000 A 
HETATM    7  C14 UNL     1      11.876   1.912  22.664  1.00  0.00     0.001 A 
HETATM    8  C13 UNL     1      10.595   2.306  22.958  1.00  0.00     0.007 A 
ENDBRANCH   2   3
ENDBRANCH   1   2
BRANCH   1   9
HETATM    9  C7  UNL     1       7.924   5.899  24.610  1.00  0.00     0.021 C 
BRANCH   9  10
HETATM   10  C8  UNL     1       7.863   6.615  25.916  1.00  0.00     0.128 C 
BRANCH  10  11
HETATM   11  N1  UNL     1       6.624   7.387  25.936  1.00  0.00    -0.366 N 
HETATM   12  C9  UNL     1       5.674   7.410  24.971  1.00  0.00     0.090 A 
HETATM   13  C10 UNL     1       4.651   8.244  25.329  1.00  0.00     0.019 A 
HETATM   14  C11 UNL     1       4.967   8.765  26.565  1.00  0.00     0.019 A 
HETATM   15  C12 UNL     1       6.197   8.211  26.909  1.00  0.00     0.090 A 
ENDBRANCH  10  11
ENDBRANCH   9  10
ENDBRANCH   1   9
TORSDOF 5
ENDMDL
MODEL 3
REMARK VINA RESULT: -8.104333113      1.008      1.532
REMARK  5 active torsions:
REMARK  status: ('A' for Active; 'I' for Inactive)
REMARK    1  A    between atoms: C4_4  and  C5_5 
REMARK    2  A    between atoms: C5_5  and  C6_6 
REMARK    3  A    between atoms: C6_6  and  C7_7 
REMARK    4  A    between atoms: C7_7  and  C8_8 
REMARK    5  A    between atoms: C8_8  and  N1_9 
ROOT
HETATM    1  C6  UNL     1       8.148   4.160  23.197  1.00  0.00     0.006 C 
ENDROOT
BRANCH   1   2
HETATM    2  C5  UNL     1       9.443   4.807  23.586  1.00  0.00     0.038 C 
BRANCH   2   3
HETATM    3  C4  UNL     1      10.560   3.934  23.150  1.00  0.00    -0.058 A 
HETATM    4  C3  UNL     1      10.453   2.560  23.148  1.00  0.00     0.007 A 
HETATM    5  C2  UNL     1      11.497   1.757  22.741  1.00  0.00     0.001 A 
HETATM    6  C1  UNL     1      12.660   2.361  22.333  1.00  0.00     0.000 A 
HETATM    7  C14 UNL     1      12.791   3.744  22.326  1.00  0.00     0.001 A 
HETATM    8  C13 UNL     1      11.731   4.513  22.738  1.00  0.00     0.007 A 
ENDBRANCH   2   3
ENDBRANCH   1   2
BRANCH   1   9
HETATM    9  C7  UNL     1       7.096   4.411  24.257  1.00  0.00     0.021 C 
BRANCH   9  10
HETATM   10  C8  UNL     1       6.098   5.438  23.840  1.00  0.00     0.128 C 
BRANCH  10  11
HETATM   11  N1  UNL     1       6.201   6.554  24.776  1.00  0.00    -0.366 N 
HETATM   12  C9  UNL     1       5.284   7.532  24.967  1.00  0.00     0.090 A 
HETATM   13  C10 UNL     1       5.715   8.410  25.922  1.00  0.00     0.019 A 
HETATM   14  C11 UNL     1       6.950   7.970  26.349  1.00  0.00     0.019 A 
HETATM   15  C12 UNL     1       7.217   6.818  25.615  1.00  0.00     0.090 A 
ENDBRANCH  10  11
ENDBRANCH   9  10
ENDBRANCH   1   9
TORSDOF 5
ENDMDL
MODEL 4
REMARK VINA RESULT: -8.074281876      0.586      1.376
REMARK  5 active torsions:
REMARK  status: ('A' for Active; 'I' for Inactive)
REMARK    1  A    between atoms: C4_4  and  C5_5 
REMARK    2  A    between atoms: C5_5  and  C6_6 
REMARK    3  A    between atoms: C6_6  and  C7_7 
REMARK    4  A    between atoms: C7_7  and  C8_8 
REMARK    5  A    between atoms: C8_8  and  N1_9 
ROOT
HETATM    1  C6  UNL     1       8.999   4.368  25.012  1.00  0.00     0.006 C 
ENDROOT
BRANCH   1   2
HETATM    2  C5  UNL     1       9.185   4.595  23.542  1.00  0.00     0.038 C 
BRANCH   2   3
HETATM    3  C4  UNL     1      10.424   3.906  23.107  1.00  0.00    -0.058 A 
HETATM    4  C3  UNL     1      11.528   4.602  22.666  1.00  0.00     0.007 A 
HETATM    5  C2  UNL     1      12.676   3.953  22.264  1.00  0.00     0.001 A 
HETATM    6  C1  UNL     1      12.698   2.581  22.313  1.00  0.00     0.000 A 
HETATM    7  C14 UNL     1      11.597   1.858  22.754  1.00  0.00     0.001 A 
HETATM    8  C13 UNL     1      10.471   2.537  23.147  1.00  0.00     0.007 A 
ENDBRANCH   2   3
ENDBRANCH   1   2
BRANCH   1   9
HETATM    9  C7  UNL     1       8.252   5.530  25.632  1.00  0.00     0.021 C 
BRANCH   9  10
HETATM   10  C8  UNL     1       7.700   6.466  24.611  1.00  0.00     0.128 C 
BRANCH  10  11
HETATM   11  N1  UNL     1       6.689   7.288  25.271  1.00  0.00    -0.366 N 
HETATM   12  C9  UNL     1       6.829   7.948  26.445  1.00  0.00     0.090 A 
HETATM   13  C10 UNL     1       5.677   8.616  26.756  1.00  0.00     0.019 A 
HETATM   14  C11 UNL     1       4.778   8.367  25.741  1.00  0.00     0.019 A 
HETATM   15  C12 UNL     1       5.441   7.540  24.839  1.00  0.00     0.090 A 
ENDBRANCH  10  11
ENDBRANCH   9  10
ENDBRANCH   1   9
TORSDOF 5
ENDMDL
MODEL 5
REMARK VINA RESULT: -8.058479365      0.584      1.099
REMARK  5 active torsions:
REMARK  status: ('A' for Active; 'I' for Inactive)
REMARK    1  A    between atoms: C4_4  and  C5_5 
REMARK    2  A    between atoms: C5_5  and  C6_6 
REMARK    3  A    between atoms: C6_6  and  C7_7 
REMARK    4  A    between atoms: C7_7  and  C8_8 
REMARK    5  A    between atoms: C8_8  and  N1_9 
ROOT
HETATM    1  C6  UNL     1       8.919   4.356  24.936  1.00  0.00     0.006 C 
ENDROOT
BRANCH   1   2
HETATM    2  C5  UNL     1       9.204   4.664  23.498  1.00  0.00     0.038 C 
BRANCH   2   3
HETATM    3  C4  UNL     1      10.427   3.932  23.088  1.00  0.00    -0.058 A 
HETATM    4  C3  UNL     1      10.502   2.557  23.131  1.00  0.00     0.007 A 
HETATM    5  C2  UNL     1      11.643   1.885  22.749  1.00  0.00     0.001 A 
HETATM    6  C1  UNL     1      12.718   2.623  22.319  1.00  0.00     0.000 A 
HETATM    7  C14 UNL     1      12.666   4.010  22.267  1.00  0.00     0.001 A 
HETATM    8  C13 UNL     1      11.514   4.646  22.655  1.00  0.00     0.007 A 
ENDBRANCH   2   3
ENDBRANCH   1   2
BRANCH   1   9
HETATM    9  C7  UNL     1       8.264   5.544  25.608  1.00  0.00     0.021 C 
BRANCH   9  10
HETATM   10  C8  UNL     1       7.763   6.551  24.629  1.00  0.00     0.128 C 
BRANCH  10  11
HETATM   11  N1  UNL     1       6.739   7.346  25.302  1.00  0.00    -0.366 N 
HETATM   12  C9  UNL     1       5.477   7.569  24.865  1.00  0.00     0.090 A 
HETATM   13  C10 UNL     1       4.798   8.359  25.752  1.00  0.00     0.019 A 
HETATM   14  C11 UNL     1       5.665   8.644  26.785  1.00  0.00     0.019 A 
HETATM   15  C12 UNL     1       6.858   7.999  26.470  1.00  0.00     0.090 A 
ENDBRANCH  10  11
ENDBRANCH   9  10
ENDBRANCH   1   9
TORSDOF 5
ENDMDL
