MODEL 1
REMARK VINA RESULT: -6.039895709      0.000      0.000
REMARK  10 active torsions:
REMARK  status: ('A' for Active; 'I' for Inactive)
REMARK    1  A    between atoms: N1_2  and  C3_4 
REMARK    2  A    between atoms: C4_5  and  C5_6 
REMARK    3  A    between atoms: C5_6  and  N2_7 
REMARK    4  A    between atoms: C7_10  and  C8_11 
REMARK    5  A    between atoms: C8_11  and  S1_19 
REMARK    6  A    between atoms: N3_12  and  N4_14 
REMARK       I    between atoms: N4_14  and  C9_16 
REMARK    7  A    between atoms: S1_19  and  C10_20 
REMARK    8  A    between atoms: C10_20  and  C11_21 
REMARK       I    between atoms: C11_21  and  N6_23 
REMARK    9  A    between atoms: N6_23  and  N7_25 
REMARK   10  A    between atoms: C12_28  and  O4_29 
ROOT
HETATM    1  C8  UNL     1     -10.163  19.141 -15.545  1.00  0.00     0.105 C 
HETATM    2  N3  UNL     1      -9.835  20.296 -15.467  1.00  0.00    -0.289 N 
ATOM      3  H3  UNL     1     -10.671  20.755 -15.103  1.00  0.00     0.188 HD
ENDROOT
BRANCH   1   4
HETATM    4  C7  UNL     1      -9.348  18.038 -16.011  1.00  0.00     0.120 A 
HETATM    5  C6  UNL     1      -9.467  17.240 -17.155  1.00  0.00     0.280 A 
HETATM    6  N2  UNL     1      -8.507  16.313 -17.175  1.00  0.00    -0.249 N 
HETATM    7  O1  UNL     1     -10.346  17.379 -18.032  1.00  0.00    -0.265 OA
HETATM    8  N8  UNL     1      -7.773  16.468 -16.103  1.00  0.00    -0.270 N 
HETATM    9  C12 UNL     1      -8.240  17.500 -15.366  1.00  0.00     0.175 A 
HETATM   10  C13 UNL     1      -6.631  15.669 -15.727  1.00  0.00     0.180 C 
BRANCH   6  11
HETATM   11  C5  UNL     1      -8.314  15.286 -18.195  1.00  0.00     0.181 C 
BRANCH  11  12
HETATM   12  C4  UNL     1      -9.086  14.071 -17.858  1.00  0.00     0.012 C 
HETATM   13  C3  UNL     1      -8.539  12.853 -17.838  1.00  0.00     0.082 C 
BRANCH  13  14
HETATM   14  N1  UNL     1      -9.292  11.706 -17.513  1.00  0.00    -0.399 N 
HETATM   15  C1  UNL     1     -10.535  11.867 -16.795  1.00  0.00     0.148 C 
HETATM   16  C2  UNL     1      -8.847  10.387 -17.888  1.00  0.00     0.148 C 
ENDBRANCH  13  14
ENDBRANCH  11  12
ENDBRANCH   6  11
BRANCH   9  17
HETATM   17  O4  UNL     1      -7.722  17.960 -14.169  1.00  0.00    -0.344 OA
ATOM     18  H4  UNL     1      -7.521  17.412 -13.418  1.00  0.00     0.219 HD
ENDBRANCH   9  17
ENDBRANCH   1   4
BRANCH   1  19
HETATM   19  S1  UNL     1     -11.846  18.711 -14.991  1.00  0.00    -0.101 SA
BRANCH  19  20
HETATM   20  C10 UNL     1     -12.000  18.854 -13.198  1.00  0.00     0.185 C 
BRANCH  20  21
HETATM   21  C11 UNL     1     -10.716  18.402 -12.624  1.00  0.00     0.245 C 
HETATM   22  O3  UNL     1     -10.411  17.179 -12.606  1.00  0.00    -0.271 OA
HETATM   23  N6  UNL     1      -9.826  19.373 -12.093  1.00  0.00    -0.276 N 
ATOM     24  H6  UNL     1     -10.062  20.365 -12.101  1.00  0.00     0.189 HD
BRANCH  23  25
HETATM   25  N7  UNL     1      -8.607  18.917 -11.554  1.00  0.00    -0.343 N 
ATOM     26  H72 UNL     1      -8.428  17.917 -11.461  1.00  0.00     0.176 HD
ATOM     27  H71 UNL     1      -7.926  19.619 -11.265  1.00  0.00     0.176 HD
ENDBRANCH  23  25
ENDBRANCH  20  21
ENDBRANCH  19  20
ENDBRANCH   1  19
BRANCH   2  28
HETATM   28  N4  UNL     1      -8.978  21.283 -15.599  1.00  0.00    -0.253 N 
HETATM   29  C9  UNL     1      -7.950  21.683 -14.689  1.00  0.00     0.347 C 
HETATM   30  N5  UNL     1      -7.068  22.763 -14.888  1.00  0.00    -0.038 NA
HETATM   31  O2  UNL     1      -7.869  20.977 -13.626  1.00  0.00    -0.249 OA
ATOM     32  H4  UNL     1      -9.056  21.831 -16.456  1.00  0.00     0.191 HD
ENDBRANCH   2  28
TORSDOF 10
ENDMDL
MODEL 2
REMARK VINA RESULT: -5.991579220      3.438      5.844
REMARK  10 active torsions:
REMARK  status: ('A' for Active; 'I' for Inactive)
REMARK    1  A    between atoms: N1_2  and  C3_4 
REMARK    2  A    between atoms: C4_5  and  C5_6 
REMARK    3  A    between atoms: C5_6  and  N2_7 
REMARK    4  A    between atoms: C7_10  and  C8_11 
REMARK    5  A    between atoms: C8_11  and  S1_19 
REMARK    6  A    between atoms: N3_12  and  N4_14 
REMARK       I    between atoms: N4_14  and  C9_16 
REMARK    7  A    between atoms: S1_19  and  C10_20 
REMARK    8  A    between atoms: C10_20  and  C11_21 
REMARK       I    between atoms: C11_21  and  N6_23 
REMARK    9  A    between atoms: N6_23  and  N7_25 
REMARK   10  A    between atoms: C12_28  and  O4_29 
ROOT
HETATM    1  C8  UNL     1      -8.399  14.760 -17.334  1.00  0.00     0.105 C 
HETATM    2  N3  UNL     1      -7.300  15.107 -16.985  1.00  0.00    -0.289 N 
ATOM      3  H3  UNL     1      -7.328  16.122 -17.089  1.00  0.00     0.188 HD
ENDROOT
BRANCH   1   4
HETATM    4  C7  UNL     1      -8.904  13.405 -17.385  1.00  0.00     0.120 A 
HETATM    5  C6  UNL     1     -10.105  12.864 -16.910  1.00  0.00     0.280 A 
HETATM    6  N2  UNL     1     -10.148  11.551 -17.146  1.00  0.00    -0.249 N 
HETATM    7  O1  UNL     1     -11.008  13.520 -16.345  1.00  0.00    -0.265 OA
HETATM    8  N8  UNL     1      -9.038  11.213 -17.749  1.00  0.00    -0.270 N 
HETATM    9  C12 UNL     1      -8.252  12.299 -17.918  1.00  0.00     0.175 A 
HETATM   10  C13 UNL     1      -8.669   9.885 -18.179  1.00  0.00     0.180 C 
BRANCH   6  11
HETATM   11  C5  UNL     1     -11.227  10.639 -16.780  1.00  0.00     0.181 C 
BRANCH  11  12
HETATM   12  C4  UNL     1     -11.072  10.188 -15.381  1.00  0.00     0.012 C 
HETATM   13  C3  UNL     1     -12.090   9.712 -14.660  1.00  0.00     0.082 C 
BRANCH  13  14
HETATM   14  N1  UNL     1     -11.921   9.285 -13.327  1.00  0.00    -0.399 N 
HETATM   15  C1  UNL     1     -10.728   9.677 -12.614  1.00  0.00     0.148 C 
HETATM   16  C2  UNL     1     -12.915   8.473 -12.669  1.00  0.00     0.148 C 
ENDBRANCH  13  14
ENDBRANCH  11  12
ENDBRANCH   6  11
BRANCH   9  17
HETATM   17  O4  UNL     1      -7.004  12.330 -18.515  1.00  0.00    -0.344 OA
ATOM     18  H4  UNL     1      -6.733  11.773 -19.236  1.00  0.00     0.219 HD
ENDBRANCH   9  17
ENDBRANCH   1   4
BRANCH   1  19
HETATM   19  S1  UNL     1      -9.572  16.069 -17.819  1.00  0.00    -0.101 SA
BRANCH  19  20
HETATM   20  C10 UNL     1     -10.169  16.978 -16.378  1.00  0.00     0.185 C 
BRANCH  20  21
HETATM   21  C11 UNL     1     -10.595  18.308 -16.860  1.00  0.00     0.245 C 
HETATM   22  O3  UNL     1     -10.578  19.309 -16.094  1.00  0.00    -0.271 OA
HETATM   23  N6  UNL     1     -11.023  18.440 -18.207  1.00  0.00    -0.276 N 
ATOM     24  H6  UNL     1     -11.042  17.638 -18.837  1.00  0.00     0.189 HD
BRANCH  23  25
HETATM   25  N7  UNL     1     -11.422  19.719 -18.644  1.00  0.00    -0.343 N 
ATOM     26  H72 UNL     1     -12.330  19.850 -19.089  1.00  0.00     0.176 HD
ATOM     27  H71 UNL     1     -10.773  20.492 -18.498  1.00  0.00     0.176 HD
ENDBRANCH  23  25
ENDBRANCH  20  21
ENDBRANCH  19  20
ENDBRANCH   1  19
BRANCH   2  28
HETATM   28  N4  UNL     1      -6.085  14.879 -16.542  1.00  0.00    -0.253 N 
HETATM   29  C9  UNL     1      -5.655  14.734 -15.185  1.00  0.00     0.347 C 
HETATM   30  N5  UNL     1      -4.328  14.499 -14.777  1.00  0.00    -0.038 NA
HETATM   31  O2  UNL     1      -6.586  14.836 -14.314  1.00  0.00    -0.249 OA
ATOM     32  H4  UNL     1      -5.358  14.795 -17.253  1.00  0.00     0.191 HD
ENDBRANCH   2  28
TORSDOF 10
ENDMDL
MODEL 3
REMARK VINA RESULT: -5.967513040      4.017      6.553
REMARK  10 active torsions:
REMARK  status: ('A' for Active; 'I' for Inactive)
REMARK    1  A    between atoms: N1_2  and  C3_4 
REMARK    2  A    between atoms: C4_5  and  C5_6 
REMARK    3  A    between atoms: C5_6  and  N2_7 
REMARK    4  A    between atoms: C7_10  and  C8_11 
REMARK    5  A    between atoms: C8_11  and  S1_19 
REMARK    6  A    between atoms: N3_12  and  N4_14 
REMARK       I    between atoms: N4_14  and  C9_16 
REMARK    7  A    between atoms: S1_19  and  C10_20 
REMARK    8  A    between atoms: C10_20  and  C11_21 
REMARK       I    between atoms: C11_21  and  N6_23 
REMARK    9  A    between atoms: N6_23  and  N7_25 
REMARK   10  A    between atoms: C12_28  and  O4_29 
ROOT
HETATM    1  C8  UNL     1      -8.106  13.359 -17.490  1.00  0.00     0.105 C 
HETATM    2  N3  UNL     1      -8.240  14.385 -18.105  1.00  0.00    -0.289 N 
ATOM      3  H3  UNL     1      -7.336  14.845 -17.997  1.00  0.00     0.188 HD
ENDROOT
BRANCH   1   4
HETATM    4  C7  UNL     1      -9.098  12.319 -17.312  1.00  0.00     0.120 A 
HETATM    5  C6  UNL     1     -10.388  12.376 -16.772  1.00  0.00     0.280 A 
HETATM    6  N2  UNL     1     -10.946  11.164 -16.775  1.00  0.00    -0.249 N 
HETATM    7  O1  UNL     1     -10.937  13.416 -16.348  1.00  0.00    -0.265 OA
HETATM    8  N8  UNL     1     -10.085  10.324 -17.289  1.00  0.00    -0.270 N 
HETATM    9  C12 UNL     1      -8.950  10.973 -17.631  1.00  0.00     0.175 A 
HETATM   10  C13 UNL     1     -10.279   8.905 -17.473  1.00  0.00     0.180 C 
BRANCH   6  11
HETATM   11  C5  UNL     1     -12.273  10.818 -16.275  1.00  0.00     0.181 C 
BRANCH  11  12
HETATM   12  C4  UNL     1     -12.209  10.454 -14.844  1.00  0.00     0.012 C 
HETATM   13  C3  UNL     1     -12.449   9.217 -14.404  1.00  0.00     0.082 C 
BRANCH  13  14
HETATM   14  N1  UNL     1     -12.381   8.890 -13.034  1.00  0.00    -0.399 N 
HETATM   15  C1  UNL     1     -13.486   8.183 -12.429  1.00  0.00     0.148 C 
HETATM   16  C2  UNL     1     -11.233   9.243 -12.235  1.00  0.00     0.148 C 
ENDBRANCH  13  14
ENDBRANCH  11  12
ENDBRANCH   6  11
BRANCH   9  17
HETATM   17  O4  UNL     1      -7.819  10.416 -18.201  1.00  0.00    -0.344 OA
ATOM     18  H4  UNL     1      -7.056  10.123 -17.717  1.00  0.00     0.219 HD
ENDBRANCH   9  17
ENDBRANCH   1   4
BRANCH   1  19
HETATM   19  S1  UNL     1      -6.480  13.050 -16.725  1.00  0.00    -0.101 SA
BRANCH  19  20
HETATM   20  C10 UNL     1      -5.373  14.457 -16.954  1.00  0.00     0.185 C 
BRANCH  20  21
HETATM   21  C11 UNL     1      -6.133  15.664 -16.567  1.00  0.00     0.245 C 
HETATM   22  O3  UNL     1      -6.331  16.594 -17.395  1.00  0.00    -0.271 OA
HETATM   23  N6  UNL     1      -6.641  15.757 -15.245  1.00  0.00    -0.276 N 
ATOM     24  H6  UNL     1      -6.487  15.010 -14.567  1.00  0.00     0.189 HD
BRANCH  23  25
HETATM   25  N7  UNL     1      -7.364  16.916 -14.903  1.00  0.00    -0.343 N 
ATOM     26  H72 UNL     1      -6.912  17.671 -14.387  1.00  0.00     0.176 HD
ATOM     27  H71 UNL     1      -8.343  16.964 -15.187  1.00  0.00     0.176 HD
ENDBRANCH  23  25
ENDBRANCH  20  21
ENDBRANCH  19  20
ENDBRANCH   1  19
BRANCH   2  28
HETATM   28  N4  UNL     1      -8.926  15.230 -18.840  1.00  0.00    -0.253 N 
HETATM   29  C9  UNL     1      -9.667  16.373 -18.407  1.00  0.00     0.347 C 
HETATM   30  N5  UNL     1     -10.394  17.236 -19.251  1.00  0.00    -0.038 NA
HETATM   31  O2  UNL     1      -9.639  16.584 -17.146  1.00  0.00    -0.249 OA
ATOM     32  H4  UNL     1      -8.932  15.047 -19.844  1.00  0.00     0.191 HD
ENDBRANCH   2  28
TORSDOF 10
ENDMDL
MODEL 4
REMARK VINA RESULT: -5.948374555      4.524      6.465
REMARK  10 active torsions:
REMARK  status: ('A' for Active; 'I' for Inactive)
REMARK    1  A    between atoms: N1_2  and  C3_4 
REMARK    2  A    between atoms: C4_5  and  C5_6 
REMARK    3  A    between atoms: C5_6  and  N2_7 
REMARK    4  A    between atoms: C7_10  and  C8_11 
REMARK    5  A    between atoms: C8_11  and  S1_19 
REMARK    6  A    between atoms: N3_12  and  N4_14 
REMARK       I    between atoms: N4_14  and  C9_16 
REMARK    7  A    between atoms: S1_19  and  C10_20 
REMARK    8  A    between atoms: C10_20  and  C11_21 
REMARK       I    between atoms: C11_21  and  N6_23 
REMARK    9  A    between atoms: N6_23  and  N7_25 
REMARK   10  A    between atoms: C12_28  and  O4_29 
ROOT
HETATM    1  C8  UNL     1      -9.034  14.299 -15.930  1.00  0.00     0.105 C 
HETATM    2  N3  UNL     1      -9.399  15.284 -16.518  1.00  0.00    -0.289 N 
ATOM      3  H3  UNL     1      -9.016  16.048 -15.961  1.00  0.00     0.188 HD
ENDROOT
BRANCH   1   4
HETATM    4  C7  UNL     1      -9.304  12.923 -16.290  1.00  0.00     0.120 A 
HETATM    5  C6  UNL     1     -10.112  11.963 -15.671  1.00  0.00     0.280 A 
HETATM    6  N2  UNL     1     -10.046  10.805 -16.331  1.00  0.00    -0.249 N 
HETATM    7  O1  UNL     1     -10.798  12.164 -14.645  1.00  0.00    -0.265 OA
HETATM    8  N8  UNL     1      -9.237  10.965 -17.346  1.00  0.00    -0.270 N 
HETATM    9  C12 UNL     1      -8.762  12.230 -17.367  1.00  0.00     0.175 A 
HETATM   10  C13 UNL     1      -8.875   9.960 -18.318  1.00  0.00     0.180 C 
BRANCH   6  11
HETATM   11  C5  UNL     1     -10.732   9.566 -15.980  1.00  0.00     0.181 C 
BRANCH  11  12
HETATM   12  C4  UNL     1     -12.152   9.626 -16.386  1.00  0.00     0.012 C 
HETATM   13  C3  UNL     1     -13.157   9.475 -15.521  1.00  0.00     0.082 C 
BRANCH  13  14
HETATM   14  N1  UNL     1     -14.505   9.538 -15.928  1.00  0.00    -0.399 N 
HETATM   15  C1  UNL     1     -15.165  10.822 -15.963  1.00  0.00     0.148 C 
HETATM   16  C2  UNL     1     -15.227   8.350 -16.313  1.00  0.00     0.148 C 
ENDBRANCH  13  14
ENDBRANCH  11  12
ENDBRANCH   6  11
BRANCH   9  17
HETATM   17  O4  UNL     1      -7.882  12.767 -18.290  1.00  0.00    -0.344 OA
ATOM     18  H4  UNL     1      -6.959  12.548 -18.351  1.00  0.00     0.219 HD
ENDBRANCH   9  17
ENDBRANCH   1   4
BRANCH   1  19
HETATM   19  S1  UNL     1      -8.004  14.548 -14.446  1.00  0.00    -0.101 SA
BRANCH  19  20
HETATM   20  C10 UNL     1      -6.377  15.199 -14.881  1.00  0.00     0.185 C 
BRANCH  20  21
HETATM   21  C11 UNL     1      -5.984  14.547 -16.148  1.00  0.00     0.245 C 
HETATM   22  O3  UNL     1      -5.642  13.334 -16.170  1.00  0.00    -0.271 OA
HETATM   23  N6  UNL     1      -6.000  15.313 -17.343  1.00  0.00    -0.276 N 
ATOM     24  H6  UNL     1      -6.275  16.295 -17.337  1.00  0.00     0.189 HD
BRANCH  23  25
HETATM   25  N7  UNL     1      -5.623  14.668 -18.537  1.00  0.00    -0.343 N 
ATOM     26  H72 UNL     1      -4.893  13.956 -18.528  1.00  0.00     0.176 HD
ATOM     27  H71 UNL     1      -6.104  14.941 -19.394  1.00  0.00     0.176 HD
ENDBRANCH  23  25
ENDBRANCH  20  21
ENDBRANCH  19  20
ENDBRANCH   1  19
BRANCH   2  28
HETATM   28  N4  UNL     1     -10.025  15.901 -17.494  1.00  0.00    -0.253 N 
HETATM   29  C9  UNL     1      -9.624  16.020 -18.861  1.00  0.00     0.347 C 
HETATM   30  N5  UNL     1     -10.342  16.709 -19.859  1.00  0.00    -0.038 NA
HETATM   31  O2  UNL     1      -8.520  15.443 -19.149  1.00  0.00    -0.249 OA
ATOM     32  H4  UNL     1     -10.907  16.350 -17.245  1.00  0.00     0.191 HD
ENDBRANCH   2  28
TORSDOF 10
ENDMDL
MODEL 5
REMARK VINA RESULT: -5.938226292      2.049      3.596
REMARK  10 active torsions:
REMARK  status: ('A' for Active; 'I' for Inactive)
REMARK    1  A    between atoms: N1_2  and  C3_4 
REMARK    2  A    between atoms: C4_5  and  C5_6 
REMARK    3  A    between atoms: C5_6  and  N2_7 
REMARK    4  A    between atoms: C7_10  and  C8_11 
REMARK    5  A    between atoms: C8_11  and  S1_19 
REMARK    6  A    between atoms: N3_12  and  N4_14 
REMARK       I    between atoms: N4_14  and  C9_16 
REMARK    7  A    between atoms: S1_19  and  C10_20 
REMARK    8  A    between atoms: C10_20  and  C11_21 
REMARK       I    between atoms: C11_21  and  N6_23 
REMARK    9  A    between atoms: N6_23  and  N7_25 
REMARK   10  A    between atoms: C12_28  and  O4_29 
ROOT
HETATM    1  C8  UNL     1      -8.063  17.513 -14.563  1.00  0.00     0.105 C 
HETATM    2  N3  UNL     1      -7.716  17.632 -13.417  1.00  0.00    -0.289 N 
ATOM      3  H3  UNL     1      -7.976  18.592 -13.190  1.00  0.00     0.188 HD
ENDROOT
BRANCH   1   4
HETATM    4  C7  UNL     1      -7.927  16.333 -15.392  1.00  0.00     0.120 A 
HETATM    5  C6  UNL     1      -8.780  15.804 -16.366  1.00  0.00     0.280 A 
HETATM    6  N2  UNL     1      -8.271  14.675 -16.865  1.00  0.00    -0.249 N 
HETATM    7  O1  UNL     1      -9.865  16.316 -16.718  1.00  0.00    -0.265 OA
HETATM    8  N8  UNL     1      -7.132  14.447 -16.265  1.00  0.00    -0.270 N 
HETATM    9  C12 UNL     1      -6.877  15.421 -15.364  1.00  0.00     0.175 A 
HETATM   10  C13 UNL     1      -6.253  13.324 -16.497  1.00  0.00     0.180 C 
BRANCH   6  11
HETATM   11  C5  UNL     1      -8.879  13.826 -17.885  1.00  0.00     0.181 C 
BRANCH  11  12
HETATM   12  C4  UNL     1      -9.788  12.840 -17.263  1.00  0.00     0.012 C 
HETATM   13  C3  UNL     1      -9.604  11.522 -17.368  1.00  0.00     0.082 C 
BRANCH  13  14
HETATM   14  N1  UNL     1     -10.482  10.598 -16.766  1.00  0.00    -0.399 N 
HETATM   15  C1  UNL     1     -10.392   9.205 -17.136  1.00  0.00     0.148 C 
HETATM   16  C2  UNL     1     -11.458  11.019 -15.791  1.00  0.00     0.148 C 
ENDBRANCH  13  14
ENDBRANCH  11  12
ENDBRANCH   6  11
BRANCH   9  17
HETATM   17  O4  UNL     1      -5.769  15.516 -14.541  1.00  0.00    -0.344 OA
ATOM     18  H4  UNL     1      -5.115  16.203 -14.590  1.00  0.00     0.219 HD
ENDBRANCH   9  17
ENDBRANCH   1   4
BRANCH   1  19
HETATM   19  S1  UNL     1      -8.878  18.946 -15.342  1.00  0.00    -0.101 SA
BRANCH  19  20
HETATM   20  C10 UNL     1      -9.317  20.194 -14.115  1.00  0.00     0.185 C 
BRANCH  20  21
HETATM   21  C11 UNL     1      -8.302  21.264 -14.214  1.00  0.00     0.245 C 
HETATM   22  O3  UNL     1      -7.504  21.485 -13.263  1.00  0.00    -0.271 OA
HETATM   23  N6  UNL     1      -8.239  22.038 -15.402  1.00  0.00    -0.276 N 
ATOM     24  H6  UNL     1      -8.880  21.867 -16.177  1.00  0.00     0.189 HD
BRANCH  23  25
HETATM   25  N7  UNL     1      -7.261  23.049 -15.472  1.00  0.00    -0.343 N 
ATOM     26  H72 UNL     1      -6.563  23.140 -14.735  1.00  0.00     0.176 HD
ATOM     27  H71 UNL     1      -7.283  23.673 -16.278  1.00  0.00     0.176 HD
ENDBRANCH  23  25
ENDBRANCH  20  21
ENDBRANCH  19  20
ENDBRANCH   1  19
BRANCH   2  28
HETATM   28  N4  UNL     1      -7.182  17.189 -12.302  1.00  0.00    -0.253 N 
HETATM   29  C9  UNL     1      -6.973  17.904 -11.081  1.00  0.00     0.347 C 
HETATM   30  N5  UNL     1      -6.382  17.369  -9.920  1.00  0.00    -0.038 NA
HETATM   31  O2  UNL     1      -7.367  19.120 -11.097  1.00  0.00    -0.249 OA
ATOM     32  H4  UNL     1      -6.878  16.215 -12.307  1.00  0.00     0.191 HD
ENDBRANCH   2  28
TORSDOF 10
ENDMDL
