MODEL 1
REMARK VINA RESULT: -9.390290777      0.000      0.000
REMARK  11 active torsions:
REMARK  status: ('A' for Active; 'I' for Inactive)
REMARK    1  A    between atoms: O1_2  and  C2_3 
REMARK    2  A    between atoms: C4_5  and  C5_6 
REMARK    3  A    between atoms: C5_6  and  C6_8 
REMARK    4  A    between atoms: N1_12  and  N2_13 
REMARK    5  A    between atoms: N2_13  and  C8_14 
REMARK    6  A    between atoms: C16_28  and  C17_29 
REMARK    7  A    between atoms: C19_31  and  O4_32 
REMARK    8  A    between atoms: C21_34  and  O5_35 
REMARK    9  A    between atoms: C23_37  and  O6_38 
REMARK   10  A    between atoms: C27_42  and  O7_43 
REMARK   11  A    between atoms: C29_45  and  O8_46 
ROOT
HETATM    1  C6  UNL     1      38.601 -21.070  28.788  1.00  0.00     0.241 A 
HETATM    2  O3  UNL     1      39.083 -22.290  29.275  1.00  0.00    -0.307 OA
HETATM    3  C7  UNL     1      40.234 -22.611  29.861  1.00  0.00     0.247 A 
HETATM    4  S1  UNL     1      40.736 -24.084  30.310  1.00  0.00    -0.030 SA
HETATM    5  N1  UNL     1      41.158 -21.517  30.136  1.00  0.00    -0.165 N 
HETATM    6  C15 UNL     1      40.679 -20.229  29.713  1.00  0.00     0.145 A 
HETATM    7  C16 UNL     1      39.553 -19.965  29.117  1.00  0.00     0.008 A 
ENDROOT
BRANCH   1   8
HETATM    8  C5  UNL     1      38.730 -21.217  27.275  1.00  0.00     0.193 C 
HETATM    9  O2  UNL     1      39.889 -21.012  26.775  1.00  0.00    -0.289 OA
BRANCH   8  10
HETATM   10  C4  UNL     1      37.663 -21.571  26.382  1.00  0.00     0.018 A 
HETATM   11  C3  UNL     1      37.228 -20.654  25.410  1.00  0.00     0.055 A 
HETATM   12  C2  UNL     1      36.269 -20.916  24.482  1.00  0.00     0.105 A 
HETATM   13  C29 UNL     1      35.672 -22.180  24.485  1.00  0.00     0.135 A 
HETATM   14  C27 UNL     1      36.051 -23.123  25.409  1.00  0.00     0.105 A 
HETATM   15  C26 UNL     1      37.028 -22.793  26.323  1.00  0.00     0.055 A 
BRANCH  12  16
HETATM   16  O1  UNL     1      35.862 -19.979  23.529  1.00  0.00    -0.353 OA
HETATM   17  C1  UNL     1      36.547 -18.742  23.511  1.00  0.00     0.210 C 
ENDBRANCH  12  16
BRANCH  13  18
HETATM   18  O8  UNL     1      34.698 -22.474  23.555  1.00  0.00    -0.351 OA
HETATM   19  C30 UNL     1      34.848 -23.263  22.417  1.00  0.00     0.210 C 
ENDBRANCH  13  18
BRANCH  14  20
HETATM   20  O7  UNL     1      35.453 -24.392  25.411  1.00  0.00    -0.353 OA
HETATM   21  C28 UNL     1      36.166 -25.552  25.053  1.00  0.00     0.210 C 
ENDBRANCH  14  20
ENDBRANCH   8  10
ENDBRANCH   1   8
BRANCH   7  22
HETATM   22  C17 UNL     1      39.246 -18.571  28.741  1.00  0.00    -0.020 A 
HETATM   23  C18 UNL     1      39.890 -17.951  27.711  1.00  0.00     0.052 A 
HETATM   24  C19 UNL     1      39.692 -16.607  27.375  1.00  0.00     0.105 A 
HETATM   25  C21 UNL     1      38.796 -15.899  28.142  1.00  0.00     0.135 A 
HETATM   26  C23 UNL     1      38.116 -16.487  29.201  1.00  0.00     0.105 A 
HETATM   27  C25 UNL     1      38.364 -17.824  29.474  1.00  0.00     0.052 A 
BRANCH  24  28
HETATM   28  O4  UNL     1      40.353 -15.994  26.327  1.00  0.00    -0.353 OA
HETATM   29  C20 UNL     1      39.938 -16.301  25.011  1.00  0.00     0.210 C 
ENDBRANCH  24  28
BRANCH  25  30
HETATM   30  O5  UNL     1      38.573 -14.580  27.847  1.00  0.00    -0.351 OA
HETATM   31  C22 UNL     1      37.494 -14.257  26.991  1.00  0.00     0.210 C 
ENDBRANCH  25  30
BRANCH  26  32
HETATM   32  O6  UNL     1      37.241 -15.711  29.917  1.00  0.00    -0.353 OA
HETATM   33  C24 UNL     1      35.864 -15.769  29.654  1.00  0.00     0.210 C 
ENDBRANCH  26  32
ENDBRANCH   7  22
BRANCH   5  34
HETATM   34  N2  UNL     1      42.316 -21.654  30.701  1.00  0.00    -0.278 NA
BRANCH  34  35
HETATM   35  C8  UNL     1      43.420 -21.702  31.082  1.00  0.00     0.283 A 
HETATM   36  N3  UNL     1      43.882 -22.438  32.142  1.00  0.00    -0.313 N 
HETATM   37  C9  UNL     1      45.186 -22.234  32.282  1.00  0.00     0.064 A 
ATOM     38  H3  UNL     1      43.313 -23.048  32.730  1.00  0.00     0.170 HD
HETATM   39  C10 UNL     1      46.143 -22.712  33.171  1.00  0.00     0.057 A 
HETATM   40  C14 UNL     1      45.588 -21.364  31.317  1.00  0.00     0.064 A 
HETATM   41  C11 UNL     1      47.448 -22.294  33.047  1.00  0.00     0.058 A 
HETATM   42 CL1  UNL     1      48.676 -22.876  34.154  1.00  0.00    -0.082 Cl
HETATM   43  C12 UNL     1      47.857 -21.415  32.074  1.00  0.00     0.058 A 
HETATM   44 CL2  UNL     1      49.522 -20.893  31.929  1.00  0.00    -0.082 Cl
HETATM   45  C13 UNL     1      46.909 -20.946  31.199  1.00  0.00     0.057 A 
HETATM   46  N4  UNL     1      44.514 -21.055  30.605  1.00  0.00    -0.313 N 
ATOM     47  H4  UNL     1      44.509 -20.419  29.808  1.00  0.00     0.170 HD
ENDBRANCH  34  35
ENDBRANCH   5  34
TORSDOF 11
ENDMDL
MODEL 2
REMARK VINA RESULT: -9.377619848      0.037      1.067
REMARK  11 active torsions:
REMARK  status: ('A' for Active; 'I' for Inactive)
REMARK    1  A    between atoms: O1_2  and  C2_3 
REMARK    2  A    between atoms: C4_5  and  C5_6 
REMARK    3  A    between atoms: C5_6  and  C6_8 
REMARK    4  A    between atoms: N1_12  and  N2_13 
REMARK    5  A    between atoms: N2_13  and  C8_14 
REMARK    6  A    between atoms: C16_28  and  C17_29 
REMARK    7  A    between atoms: C19_31  and  O4_32 
REMARK    8  A    between atoms: C21_34  and  O5_35 
REMARK    9  A    between atoms: C23_37  and  O6_38 
REMARK   10  A    between atoms: C27_42  and  O7_43 
REMARK   11  A    between atoms: C29_45  and  O8_46 
ROOT
HETATM    1  C6  UNL     1      38.606 -21.074  28.795  1.00  0.00     0.241 A 
HETATM    2  O3  UNL     1      39.091 -22.293  29.280  1.00  0.00    -0.307 OA
HETATM    3  C7  UNL     1      40.244 -22.612  29.865  1.00  0.00     0.247 A 
HETATM    4  S1  UNL     1      40.749 -24.084  30.312  1.00  0.00    -0.030 SA
HETATM    5  N1  UNL     1      41.166 -21.516  30.140  1.00  0.00    -0.165 N 
HETATM    6  C15 UNL     1      40.683 -20.228  29.718  1.00  0.00     0.145 A 
HETATM    7  C16 UNL     1      39.556 -19.967  29.124  1.00  0.00     0.008 A 
ENDROOT
BRANCH   1   8
HETATM    8  C5  UNL     1      38.734 -21.219  27.281  1.00  0.00     0.193 C 
HETATM    9  O2  UNL     1      39.892 -21.015  26.781  1.00  0.00    -0.289 OA
BRANCH   8  10
HETATM   10  C4  UNL     1      37.665 -21.571  26.389  1.00  0.00     0.018 A 
HETATM   11  C3  UNL     1      37.231 -20.652  25.417  1.00  0.00     0.055 A 
HETATM   12  C2  UNL     1      36.272 -20.913  24.490  1.00  0.00     0.105 A 
HETATM   13  C29 UNL     1      35.672 -22.175  24.493  1.00  0.00     0.135 A 
HETATM   14  C27 UNL     1      36.051 -23.120  25.416  1.00  0.00     0.105 A 
HETATM   15  C26 UNL     1      37.028 -22.791  26.330  1.00  0.00     0.055 A 
BRANCH  12  16
HETATM   16  O1  UNL     1      35.865 -19.974  23.537  1.00  0.00    -0.353 OA
HETATM   17  C1  UNL     1      36.547 -18.735  23.526  1.00  0.00     0.210 C 
ENDBRANCH  12  16
BRANCH  13  18
HETATM   18  O8  UNL     1      34.698 -22.467  23.563  1.00  0.00    -0.351 OA
HETATM   19  C30 UNL     1      34.847 -23.248  22.420  1.00  0.00     0.210 C 
ENDBRANCH  13  18
BRANCH  14  20
HETATM   20  O7  UNL     1      35.450 -24.387  25.418  1.00  0.00    -0.353 OA
HETATM   21  C28 UNL     1      36.160 -25.548  25.054  1.00  0.00     0.210 C 
ENDBRANCH  14  20
ENDBRANCH   8  10
ENDBRANCH   1   8
BRANCH   7  22
HETATM   22  C17 UNL     1      39.245 -18.573  28.750  1.00  0.00    -0.020 A 
HETATM   23  C18 UNL     1      39.883 -17.953  27.716  1.00  0.00     0.052 A 
HETATM   24  C19 UNL     1      39.682 -16.609  27.382  1.00  0.00     0.105 A 
HETATM   25  C21 UNL     1      38.788 -15.902  28.152  1.00  0.00     0.135 A 
HETATM   26  C23 UNL     1      38.114 -16.490  29.214  1.00  0.00     0.105 A 
HETATM   27  C25 UNL     1      38.365 -17.828  29.486  1.00  0.00     0.052 A 
BRANCH  24  28
HETATM   28  O4  UNL     1      40.337 -15.995  26.331  1.00  0.00    -0.353 OA
HETATM   29  C20 UNL     1      39.922 -16.306  25.016  1.00  0.00     0.210 C 
ENDBRANCH  24  28
BRANCH  25  30
HETATM   30  O5  UNL     1      38.562 -14.583  27.859  1.00  0.00    -0.351 OA
HETATM   31  C22 UNL     1      37.483 -14.262  27.002  1.00  0.00     0.210 C 
ENDBRANCH  25  30
BRANCH  26  32
HETATM   32  O6  UNL     1      37.240 -15.716  29.934  1.00  0.00    -0.353 OA
HETATM   33  C24 UNL     1      35.863 -15.767  29.668  1.00  0.00     0.210 C 
ENDBRANCH  26  32
ENDBRANCH   7  22
BRANCH   5  34
HETATM   34  N2  UNL     1      42.324 -21.650  30.703  1.00  0.00    -0.278 NA
BRANCH  34  35
HETATM   35  C8  UNL     1      43.428 -21.686  31.089  1.00  0.00     0.283 A 
HETATM   36  N3  UNL     1      44.502 -21.037  30.539  1.00  0.00    -0.313 N 
HETATM   37  C9  UNL     1      45.592 -21.322  31.240  1.00  0.00     0.064 A 
ATOM     38  H3  UNL     1      44.468 -20.430  29.719  1.00  0.00     0.170 HD
HETATM   39  C10 UNL     1      46.928 -20.949  31.133  1.00  0.00     0.057 A 
HETATM   40  C14 UNL     1      45.241 -22.159  32.253  1.00  0.00     0.064 A 
HETATM   41  C11 UNL     1      47.838 -21.433  32.043  1.00  0.00     0.058 A 
HETATM   42 CL1  UNL     1      49.529 -20.983  31.932  1.00  0.00    -0.082 Cl
HETATM   43  C12 UNL     1      47.488 -22.278  33.067  1.00  0.00     0.058 A 
HETATM   44 CL2  UNL     1      48.660 -22.884  34.218  1.00  0.00    -0.082 Cl
HETATM   45  C13 UNL     1      46.168 -22.643  33.168  1.00  0.00     0.057 A 
HETATM   46  N4  UNL     1      43.937 -22.366  32.147  1.00  0.00    -0.313 N 
ATOM     47  H4  UNL     1      43.390 -22.957  32.775  1.00  0.00     0.170 HD
ENDBRANCH  34  35
ENDBRANCH   5  34
TORSDOF 11
ENDMDL
MODEL 3
REMARK VINA RESULT: -9.237699095      0.422      1.959
REMARK  11 active torsions:
REMARK  status: ('A' for Active; 'I' for Inactive)
REMARK    1  A    between atoms: O1_2  and  C2_3 
REMARK    2  A    between atoms: C4_5  and  C5_6 
REMARK    3  A    between atoms: C5_6  and  C6_8 
REMARK    4  A    between atoms: N1_12  and  N2_13 
REMARK    5  A    between atoms: N2_13  and  C8_14 
REMARK    6  A    between atoms: C16_28  and  C17_29 
REMARK    7  A    between atoms: C19_31  and  O4_32 
REMARK    8  A    between atoms: C21_34  and  O5_35 
REMARK    9  A    between atoms: C23_37  and  O6_38 
REMARK   10  A    between atoms: C27_42  and  O7_43 
REMARK   11  A    between atoms: C29_45  and  O8_46 
ROOT
HETATM    1  C6  UNL     1      38.375 -20.770  28.493  1.00  0.00     0.241 A 
HETATM    2  O3  UNL     1      38.840 -22.010  28.942  1.00  0.00    -0.307 OA
HETATM    3  C7  UNL     1      39.974 -22.359  29.547  1.00  0.00     0.247 A 
HETATM    4  S1  UNL     1      40.458 -23.851  29.949  1.00  0.00    -0.030 SA
HETATM    5  N1  UNL     1      40.893 -21.281  29.891  1.00  0.00    -0.165 N 
HETATM    6  C15 UNL     1      40.429 -19.974  29.508  1.00  0.00     0.145 A 
HETATM    7  C16 UNL     1      39.321 -19.682  28.893  1.00  0.00     0.008 A 
ENDROOT
BRANCH   1   8
HETATM    8  C5  UNL     1      38.546 -20.855  26.979  1.00  0.00     0.193 C 
HETATM    9  O2  UNL     1      39.691 -20.531  26.512  1.00  0.00    -0.289 OA
BRANCH   8  10
HETATM   10  C4  UNL     1      37.532 -21.274  26.052  1.00  0.00     0.018 A 
HETATM   11  C3  UNL     1      36.994 -22.570  26.140  1.00  0.00     0.055 A 
HETATM   12  C2  UNL     1      35.991 -23.039  25.351  1.00  0.00     0.105 A 
HETATM   13  C29 UNL     1      35.452 -22.184  24.387  1.00  0.00     0.135 A 
HETATM   14  C27 UNL     1      35.932 -20.904  24.248  1.00  0.00     0.105 A 
HETATM   15  C26 UNL     1      36.951 -20.491  25.079  1.00  0.00     0.055 A 
BRANCH  12  16
HETATM   16  O1  UNL     1      35.480 -24.334  25.467  1.00  0.00    -0.353 OA
HETATM   17  C1  UNL     1      36.342 -25.399  25.114  1.00  0.00     0.210 C 
ENDBRANCH  12  16
BRANCH  13  18
HETATM   18  O8  UNL     1      34.433 -22.632  23.574  1.00  0.00    -0.351 OA
HETATM   19  C30 UNL     1      34.561 -23.459  22.460  1.00  0.00     0.210 C 
ENDBRANCH  13  18
BRANCH  14  20
HETATM   20  O7  UNL     1      35.389 -20.045  23.282  1.00  0.00    -0.353 OA
HETATM   21  C28 UNL     1      35.922 -18.765  23.039  1.00  0.00     0.210 C 
ENDBRANCH  14  20
ENDBRANCH   8  10
ENDBRANCH   1   8
BRANCH   7  22
HETATM   22  C17 UNL     1      39.028 -18.273  28.566  1.00  0.00    -0.020 A 
HETATM   23  C18 UNL     1      39.680 -17.624  27.559  1.00  0.00     0.052 A 
HETATM   24  C19 UNL     1      39.496 -16.267  27.271  1.00  0.00     0.105 A 
HETATM   25  C21 UNL     1      38.605 -15.577  28.061  1.00  0.00     0.135 A 
HETATM   26  C23 UNL     1      37.917 -16.195  29.097  1.00  0.00     0.105 A 
HETATM   27  C25 UNL     1      38.152 -17.544  29.324  1.00  0.00     0.052 A 
BRANCH  24  28
HETATM   28  O4  UNL     1      40.165 -15.624  26.246  1.00  0.00    -0.353 OA
HETATM   29  C20 UNL     1      39.694 -15.810  24.926  1.00  0.00     0.210 C 
ENDBRANCH  24  28
BRANCH  25  30
HETATM   30  O5  UNL     1      38.395 -14.246  27.812  1.00  0.00    -0.351 OA
HETATM   31  C22 UNL     1      37.182 -13.862  27.194  1.00  0.00     0.210 C 
ENDBRANCH  25  30
BRANCH  26  32
HETATM   32  O6  UNL     1      37.048 -15.437  29.838  1.00  0.00    -0.353 OA
HETATM   33  C24 UNL     1      35.669 -15.692  29.794  1.00  0.00     0.210 C 
ENDBRANCH  26  32
ENDBRANCH   7  22
BRANCH   5  34
HETATM   34  N2  UNL     1      42.034 -21.445  30.482  1.00  0.00    -0.278 NA
BRANCH  34  35
HETATM   35  C8  UNL     1      43.130 -21.541  30.879  1.00  0.00     0.283 A 
HETATM   36  N3  UNL     1      43.525 -22.180  32.025  1.00  0.00    -0.313 N 
HETATM   37  C9  UNL     1      44.843 -22.073  32.154  1.00  0.00     0.064 A 
ATOM     38  H3  UNL     1      42.905 -22.661  32.677  1.00  0.00     0.170 HD
HETATM   39  C10 UNL     1      45.754 -22.521  33.105  1.00  0.00     0.057 A 
HETATM   40  C14 UNL     1      45.319 -21.367  31.093  1.00  0.00     0.064 A 
HETATM   41  C11 UNL     1      47.090 -22.235  32.944  1.00  0.00     0.058 A 
HETATM   42 CL1  UNL     1      48.262 -22.782  34.128  1.00  0.00    -0.082 Cl
HETATM   43  C12 UNL     1      47.574 -21.522  31.876  1.00  0.00     0.058 A 
HETATM   44 CL2  UNL     1      49.279 -21.168  31.686  1.00  0.00    -0.082 Cl
HETATM   45  C13 UNL     1      46.671 -21.083  30.940  1.00  0.00     0.057 A 
HETATM   46  N4  UNL     1      44.276 -21.056  30.338  1.00  0.00    -0.313 N 
ATOM     47  H4  UNL     1      44.327 -20.524  29.469  1.00  0.00     0.170 HD
ENDBRANCH  34  35
ENDBRANCH   5  34
TORSDOF 11
ENDMDL
MODEL 4
REMARK VINA RESULT: -9.194026887      0.830      2.720
REMARK  11 active torsions:
REMARK  status: ('A' for Active; 'I' for Inactive)
REMARK    1  A    between atoms: O1_2  and  C2_3 
REMARK    2  A    between atoms: C4_5  and  C5_6 
REMARK    3  A    between atoms: C5_6  and  C6_8 
REMARK    4  A    between atoms: N1_12  and  N2_13 
REMARK    5  A    between atoms: N2_13  and  C8_14 
REMARK    6  A    between atoms: C16_28  and  C17_29 
REMARK    7  A    between atoms: C19_31  and  O4_32 
REMARK    8  A    between atoms: C21_34  and  O5_35 
REMARK    9  A    between atoms: C23_37  and  O6_38 
REMARK   10  A    between atoms: C27_42  and  O7_43 
REMARK   11  A    between atoms: C29_45  and  O8_46 
ROOT
HETATM    1  C6  UNL     1      38.666 -21.323  28.684  1.00  0.00     0.241 A 
HETATM    2  O3  UNL     1      39.224 -22.448  29.300  1.00  0.00    -0.307 OA
HETATM    3  C7  UNL     1      40.391 -22.628  29.914  1.00  0.00     0.247 A 
HETATM    4  S1  UNL     1      40.985 -24.008  30.520  1.00  0.00    -0.030 SA
HETATM    5  N1  UNL     1      41.242 -21.453  30.065  1.00  0.00    -0.165 N 
HETATM    6  C15 UNL     1      40.682 -20.252  29.505  1.00  0.00     0.145 A 
HETATM    7  C16 UNL     1      39.543 -20.129  28.888  1.00  0.00     0.008 A 
ENDROOT
BRANCH   1   8
HETATM    8  C5  UNL     1      38.811 -21.625  27.196  1.00  0.00     0.193 C 
HETATM    9  O2  UNL     1      39.957 -21.409  26.675  1.00  0.00    -0.289 OA
BRANCH   8  10
HETATM   10  C4  UNL     1      37.770 -22.135  26.348  1.00  0.00     0.018 A 
HETATM   11  C3  UNL     1      37.555 -23.522  26.257  1.00  0.00     0.055 A 
HETATM   12  C2  UNL     1      36.560 -24.098  25.533  1.00  0.00     0.105 A 
HETATM   13  C29 UNL     1      35.684 -23.266  24.829  1.00  0.00     0.135 A 
HETATM   14  C27 UNL     1      35.838 -21.901  24.876  1.00  0.00     0.105 A 
HETATM   15  C26 UNL     1      36.869 -21.381  25.628  1.00  0.00     0.055 A 
BRANCH  12  16
HETATM   16  O1  UNL     1      36.376 -25.482  25.466  1.00  0.00    -0.353 OA
HETATM   17  C1  UNL     1      37.371 -26.291  26.062  1.00  0.00     0.210 C 
ENDBRANCH  12  16
BRANCH  13  18
HETATM   18  O8  UNL     1      34.665 -23.823  24.088  1.00  0.00    -0.351 OA
HETATM   19  C30 UNL     1      34.700 -24.137  22.731  1.00  0.00     0.210 C 
ENDBRANCH  13  18
BRANCH  14  20
HETATM   20  O7  UNL     1      34.959 -21.066  24.172  1.00  0.00    -0.353 OA
HETATM   21  C28 UNL     1      35.386 -20.288  23.079  1.00  0.00     0.210 C 
ENDBRANCH  14  20
ENDBRANCH   8  10
ENDBRANCH   1   8
BRANCH   7  22
HETATM   22  C17 UNL     1      39.148 -18.806  28.362  1.00  0.00    -0.020 A 
HETATM   23  C18 UNL     1      37.934 -18.258  28.654  1.00  0.00     0.052 A 
HETATM   24  C19 UNL     1      37.485 -17.049  28.110  1.00  0.00     0.105 A 
HETATM   25  C21 UNL     1      38.333 -16.403  27.240  1.00  0.00     0.135 A 
HETATM   26  C23 UNL     1      39.578 -16.923  26.914  1.00  0.00     0.105 A 
HETATM   27  C25 UNL     1      39.956 -18.127  27.492  1.00  0.00     0.052 A 
BRANCH  24  28
HETATM   28  O4  UNL     1      36.251 -16.506  28.416  1.00  0.00    -0.353 OA
HETATM   29  C20 UNL     1      36.043 -16.025  29.729  1.00  0.00     0.210 C 
ENDBRANCH  24  28
BRANCH  25  30
HETATM   30  O5  UNL     1      37.931 -15.217  26.685  1.00  0.00    -0.351 OA
HETATM   31  C22 UNL     1      38.031 -14.042  27.468  1.00  0.00     0.210 C 
ENDBRANCH  25  30
BRANCH  26  32
HETATM   32  O6  UNL     1      40.363 -16.219  26.037  1.00  0.00    -0.353 OA
HETATM   33  C24 UNL     1      40.453 -16.612  24.693  1.00  0.00     0.210 C 
ENDBRANCH  26  32
ENDBRANCH   7  22
BRANCH   5  34
HETATM   34  N2  UNL     1      42.404 -21.452  30.638  1.00  0.00    -0.278 NA
BRANCH  34  35
HETATM   35  C8  UNL     1      43.500 -21.544  31.033  1.00  0.00     0.283 A 
HETATM   36  N3  UNL     1      43.907 -22.237  32.144  1.00  0.00    -0.313 N 
HETATM   37  C9  UNL     1      45.221 -22.107  32.284  1.00  0.00     0.064 A 
ATOM     38  H3  UNL     1      43.296 -22.769  32.764  1.00  0.00     0.170 HD
HETATM   39  C10 UNL     1      46.139 -22.585  33.212  1.00  0.00     0.057 A 
HETATM   40  C14 UNL     1      45.683 -21.330  31.268  1.00  0.00     0.064 A 
HETATM   41  C11 UNL     1      47.469 -22.260  33.075  1.00  0.00     0.058 A 
HETATM   42 CL1  UNL     1      48.650 -22.844  34.231  1.00  0.00    -0.082 Cl
HETATM   43  C12 UNL     1      47.939 -21.476  32.051  1.00  0.00     0.058 A 
HETATM   44 CL2  UNL     1      49.636 -21.071  31.890  1.00  0.00    -0.082 Cl
HETATM   45  C13 UNL     1      47.029 -21.006  31.137  1.00  0.00     0.057 A 
HETATM   46  N4  UNL     1      44.636 -21.002  30.526  1.00  0.00    -0.313 N 
ATOM     47  H4  UNL     1      44.677 -20.420  29.689  1.00  0.00     0.170 HD
ENDBRANCH  34  35
ENDBRANCH   5  34
TORSDOF 11
ENDMDL
MODEL 5
REMARK VINA RESULT: -9.158139485      0.760      1.966
REMARK  11 active torsions:
REMARK  status: ('A' for Active; 'I' for Inactive)
REMARK    1  A    between atoms: O1_2  and  C2_3 
REMARK    2  A    between atoms: C4_5  and  C5_6 
REMARK    3  A    between atoms: C5_6  and  C6_8 
REMARK    4  A    between atoms: N1_12  and  N2_13 
REMARK    5  A    between atoms: N2_13  and  C8_14 
REMARK    6  A    between atoms: C16_28  and  C17_29 
REMARK    7  A    between atoms: C19_31  and  O4_32 
REMARK    8  A    between atoms: C21_34  and  O5_35 
REMARK    9  A    between atoms: C23_37  and  O6_38 
REMARK   10  A    between atoms: C27_42  and  O7_43 
REMARK   11  A    between atoms: C29_45  and  O8_46 
ROOT
HETATM    1  C6  UNL     1      38.649 -21.253  28.751  1.00  0.00     0.241 A 
HETATM    2  O3  UNL     1      39.204 -22.379  29.369  1.00  0.00    -0.307 OA
HETATM    3  C7  UNL     1      40.380 -22.568  29.964  1.00  0.00     0.247 A 
HETATM    4  S1  UNL     1      40.966 -23.949  30.573  1.00  0.00    -0.030 SA
HETATM    5  N1  UNL     1      41.248 -21.403  30.086  1.00  0.00    -0.165 N 
HETATM    6  C15 UNL     1      40.694 -20.201  29.523  1.00  0.00     0.145 A 
HETATM    7  C16 UNL     1      39.546 -20.069  28.926  1.00  0.00     0.008 A 
ENDROOT
BRANCH   1   8
HETATM    8  C5  UNL     1      38.763 -21.573  27.264  1.00  0.00     0.193 C 
HETATM    9  O2  UNL     1      39.888 -21.331  26.709  1.00  0.00    -0.289 OA
BRANCH   8  10
HETATM   10  C4  UNL     1      37.715 -22.127  26.453  1.00  0.00     0.018 A 
HETATM   11  C3  UNL     1      36.928 -21.283  25.650  1.00  0.00     0.055 A 
HETATM   12  C2  UNL     1      35.956 -21.716  24.804  1.00  0.00     0.105 A 
HETATM   13  C29 UNL     1      35.715 -23.090  24.719  1.00  0.00     0.135 A 
HETATM   14  C27 UNL     1      36.448 -23.970  25.477  1.00  0.00     0.105 A 
HETATM   15  C26 UNL     1      37.418 -23.466  26.316  1.00  0.00     0.055 A 
BRANCH  12  16
HETATM   16  O1  UNL     1      35.194 -20.846  24.018  1.00  0.00    -0.353 OA
HETATM   17  C1  UNL     1      35.817 -20.306  22.870  1.00  0.00     0.210 C 
ENDBRANCH  12  16
BRANCH  13  18
HETATM   18  O8  UNL     1      34.736 -23.557  23.869  1.00  0.00    -0.351 OA
HETATM   19  C30 UNL     1      34.908 -23.964  22.548  1.00  0.00     0.210 C 
ENDBRANCH  13  18
BRANCH  14  20
HETATM   20  O7  UNL     1      36.207 -25.349  25.391  1.00  0.00    -0.353 OA
HETATM   21  C28 UNL     1      37.165 -26.299  25.795  1.00  0.00     0.210 C 
ENDBRANCH  14  20
ENDBRANCH   8  10
ENDBRANCH   1   8
BRANCH   7  22
HETATM   22  C17 UNL     1      39.159 -18.747  28.393  1.00  0.00    -0.020 A 
HETATM   23  C18 UNL     1      37.944 -18.194  28.674  1.00  0.00     0.052 A 
HETATM   24  C19 UNL     1      37.502 -16.986  28.123  1.00  0.00     0.105 A 
HETATM   25  C21 UNL     1      38.359 -16.345  27.257  1.00  0.00     0.135 A 
HETATM   26  C23 UNL     1      39.605 -16.870  26.942  1.00  0.00     0.105 A 
HETATM   27  C25 UNL     1      39.975 -18.073  27.527  1.00  0.00     0.052 A 
BRANCH  24  28
HETATM   28  O4  UNL     1      36.268 -16.438  28.418  1.00  0.00    -0.353 OA
HETATM   29  C20 UNL     1      36.036 -15.995  29.740  1.00  0.00     0.210 C 
ENDBRANCH  24  28
BRANCH  25  30
HETATM   30  O5  UNL     1      37.965 -15.159  26.696  1.00  0.00    -0.351 OA
HETATM   31  C22 UNL     1      38.009 -13.992  27.493  1.00  0.00     0.210 C 
ENDBRANCH  25  30
BRANCH  26  32
HETATM   32  O6  UNL     1      40.398 -16.170  26.069  1.00  0.00    -0.353 OA
HETATM   33  C24 UNL     1      40.501 -16.571  24.728  1.00  0.00     0.210 C 
ENDBRANCH  26  32
ENDBRANCH   7  22
BRANCH   5  34
HETATM   34  N2  UNL     1      42.421 -21.412  30.637  1.00  0.00    -0.278 NA
BRANCH  34  35
HETATM   35  C8  UNL     1      43.520 -21.522  31.019  1.00  0.00     0.283 A 
HETATM   36  N3  UNL     1      43.926 -22.192  32.144  1.00  0.00    -0.313 N 
HETATM   37  C9  UNL     1      45.245 -22.093  32.260  1.00  0.00     0.064 A 
ATOM     38  H3  UNL     1      43.311 -22.687  32.790  1.00  0.00     0.170 HD
HETATM   39  C10 UNL     1      46.165 -22.568  33.189  1.00  0.00     0.057 A 
HETATM   40  C14 UNL     1      45.712 -21.361  31.214  1.00  0.00     0.064 A 
HETATM   41  C11 UNL     1      47.500 -22.283  33.021  1.00  0.00     0.058 A 
HETATM   42 CL1  UNL     1      48.684 -22.865  34.177  1.00  0.00    -0.082 Cl
HETATM   43  C12 UNL     1      47.975 -21.544  31.966  1.00  0.00     0.058 A 
HETATM   44 CL2  UNL     1      49.679 -21.190  31.767  1.00  0.00    -0.082 Cl
HETATM   45  C13 UNL     1      47.063 -21.077  31.053  1.00  0.00     0.057 A 
HETATM   46  N4  UNL     1      44.662 -21.026  30.478  1.00  0.00    -0.313 N 
ATOM     47  H4  UNL     1      44.706 -20.471  29.623  1.00  0.00     0.170 HD
ENDBRANCH  34  35
ENDBRANCH   5  34
TORSDOF 11
ENDMDL
