MODEL 1
REMARK VINA RESULT: -8.741019680      0.000      0.000
REMARK  13 active torsions:
REMARK  status: ('A' for Active; 'I' for Inactive)
REMARK    1  A    between atoms: C2_2  and  C3_3 
REMARK    2  A    between atoms: C2_2  and  C24_39 
REMARK    3  A    between atoms: C3_3  and  C4_4 
REMARK    4  A    between atoms: C4_4  and  O1_5 
REMARK    5  A    between atoms: C4_4  and  C5_7 
REMARK    6  A    between atoms: C5_7  and  N1_8 
REMARK    7  A    between atoms: N1_8  and  C6_9 
REMARK    8  A    between atoms: N1_8  and  S1_17 
REMARK    9  A    between atoms: C6_9  and  C7_10 
REMARK   10  A    between atoms: C7_10  and  O2_11 
REMARK   11  A    between atoms: N2_13  and  O3_15 
REMARK   12  A    between atoms: S1_17  and  C8_20 
REMARK   13  A    between atoms: C12_24  and  C13_25 
REMARK       I    between atoms: C13_25  and  N3_27 
ROOT
HETATM    1  S1  UNL     1     -19.509  21.088  15.846  1.00  0.00     0.270 S 
HETATM    2  O4  UNL     1     -20.345  22.061  16.585  1.00  0.00    -0.200 OA
HETATM    3  O5  UNL     1     -18.088  21.269  16.385  1.00  0.00    -0.200 OA
ENDROOT
BRANCH   1   4
HETATM    4  N1  UNL     1     -19.432  21.266  14.183  1.00  0.00    -0.255 N 
BRANCH   4   5
HETATM    5  C5  UNL     1     -18.245  21.022  13.496  1.00  0.00     0.113 C 
BRANCH   5   6
HETATM    6  C4  UNL     1     -18.182  21.373  12.042  1.00  0.00     0.158 C 
BRANCH   6   7
HETATM    7  C3  UNL     1     -17.304  22.515  11.674  1.00  0.00     0.052 C 
BRANCH   7   8
HETATM    8  C2  UNL     1     -18.099  23.727  11.215  1.00  0.00     0.085 C 
HETATM    9  C1  UNL     1     -17.533  24.261   9.917  1.00  0.00     0.021 C 
BRANCH   8  10
HETATM   10  C24 UNL     1     -18.030  24.836  12.204  1.00  0.00     0.176 C 
HETATM   11  O7  UNL     1     -17.993  26.049  11.862  1.00  0.00    -0.648 OA
HETATM   12  O8  UNL     1     -18.004  24.592  13.587  1.00  0.00    -0.648 OA
ENDBRANCH   8  10
ENDBRANCH   7   8
ENDBRANCH   6   7
BRANCH   6  13
HETATM   13  O1  UNL     1     -17.891  20.278  11.214  1.00  0.00    -0.390 OA
ATOM     14  H1  UNL     1     -18.271  19.492  11.587  1.00  0.00     0.210 HD
ENDBRANCH   6  13
ENDBRANCH   5   6
ENDBRANCH   4   5
BRANCH   4  15
HETATM   15  C6  UNL     1     -20.430  22.084  13.628  1.00  0.00     0.166 C 
BRANCH  15  16
HETATM   16  C7  UNL     1     -21.685  21.457  13.228  1.00  0.00     0.176 C 
HETATM   17  N2  UNL     1     -22.731  21.594  13.968  1.00  0.00    -0.246 N 
ATOM     18  H2  UNL     1     -23.592  21.142  13.657  1.00  0.00     0.196 HD
BRANCH  16  19
HETATM   19  O2  UNL     1     -21.803  20.712  12.071  1.00  0.00    -0.344 OA
ATOM     20  H2  UNL     1     -22.413  20.940  11.380  1.00  0.00     0.219 HD
ENDBRANCH  16  19
BRANCH  17  21
HETATM   21  O3  UNL     1     -22.775  22.293  15.131  1.00  0.00    -0.288 OA
ATOM     22  H3  UNL     1     -23.545  22.391  15.678  1.00  0.00     0.244 HD
ENDBRANCH  17  21
ENDBRANCH  15  16
ENDBRANCH   4  15
ENDBRANCH   1   4
BRANCH   1  23
HETATM   23  C8  UNL     1     -19.987  19.491  16.394  1.00  0.00     0.103 A 
HETATM   24  C9  UNL     1     -21.255  19.119  16.712  1.00  0.00     0.034 A 
HETATM   25  C10 UNL     1     -21.501  17.838  17.121  1.00  0.00    -0.049 A 
HETATM   26  C11 UNL     1     -20.470  16.938  17.209  1.00  0.00    -0.034 A 
HETATM   27  C23 UNL     1     -22.866  17.387  17.478  1.00  0.00     0.039 C 
HETATM   28  C12 UNL     1     -19.171  17.270  16.897  1.00  0.00     0.062 A 
HETATM   29  C20 UNL     1     -20.718  15.540  17.651  1.00  0.00     0.040 C 
HETATM   30  C19 UNL     1     -18.945  18.562  16.488  1.00  0.00     0.073 A 
HETATM   31 CL1  UNL     1     -17.299  19.001  16.088  1.00  0.00    -0.082 Cl
HETATM   32  C21 UNL     1     -21.965  15.349  18.438  1.00  0.00     0.005 C 
HETATM   33  C22 UNL     1     -22.706  16.598  18.784  1.00  0.00     0.005 C 
BRANCH  28  34
HETATM   34  C13 UNL     1     -18.086  16.308  16.994  1.00  0.00     0.256 C 
HETATM   35  O6  UNL     1     -17.399  16.364  18.066  1.00  0.00    -0.267 OA
HETATM   36  N3  UNL     1     -17.795  15.363  15.976  1.00  0.00    -0.348 N 
HETATM   37  C14 UNL     1     -18.580  15.305  14.762  1.00  0.00     0.126 C 
HETATM   38  C18 UNL     1     -16.704  14.423  16.116  1.00  0.00     0.126 C 
HETATM   39  C15 UNL     1     -19.194  13.945  14.556  1.00  0.00     0.020 C 
HETATM   40  C16 UNL     1     -18.568  12.895  15.447  1.00  0.00     0.003 C 
HETATM   41  C17 UNL     1     -17.069  13.097  15.480  1.00  0.00     0.020 C 
ENDBRANCH  28  34
ENDBRANCH   1  23
TORSDOF 13
ENDMDL
MODEL 2
REMARK VINA RESULT: -8.602537762      1.432      1.654
REMARK  13 active torsions:
REMARK  status: ('A' for Active; 'I' for Inactive)
REMARK    1  A    between atoms: C2_2  and  C3_3 
REMARK    2  A    between atoms: C2_2  and  C24_39 
REMARK    3  A    between atoms: C3_3  and  C4_4 
REMARK    4  A    between atoms: C4_4  and  O1_5 
REMARK    5  A    between atoms: C4_4  and  C5_7 
REMARK    6  A    between atoms: C5_7  and  N1_8 
REMARK    7  A    between atoms: N1_8  and  C6_9 
REMARK    8  A    between atoms: N1_8  and  S1_17 
REMARK    9  A    between atoms: C6_9  and  C7_10 
REMARK   10  A    between atoms: C7_10  and  O2_11 
REMARK   11  A    between atoms: N2_13  and  O3_15 
REMARK   12  A    between atoms: S1_17  and  C8_20 
REMARK   13  A    between atoms: C12_24  and  C13_25 
REMARK       I    between atoms: C13_25  and  N3_27 
ROOT
HETATM    1  S1  UNL     1     -18.936  20.318  15.657  1.00  0.00     0.270 S 
HETATM    2  O4  UNL     1     -18.157  20.817  16.813  1.00  0.00    -0.200 OA
HETATM    3  O5  UNL     1     -17.916  19.659  14.725  1.00  0.00    -0.200 OA
ENDROOT
BRANCH   1   4
HETATM    4  N1  UNL     1     -19.764  21.459  14.753  1.00  0.00    -0.255 N 
BRANCH   4   5
HETATM    5  C5  UNL     1     -19.085  22.293  13.866  1.00  0.00     0.113 C 
BRANCH   5   6
HETATM    6  C4  UNL     1     -19.137  21.966  12.406  1.00  0.00     0.158 C 
BRANCH   6   7
HETATM    7  C3  UNL     1     -18.927  23.099  11.467  1.00  0.00     0.052 C 
BRANCH   7   8
HETATM    8  C2  UNL     1     -17.620  23.829  11.728  1.00  0.00     0.085 C 
HETATM    9  C1  UNL     1     -17.862  25.320  11.815  1.00  0.00     0.021 C 
BRANCH   8  10
HETATM   10  C24 UNL     1     -16.642  23.615  10.628  1.00  0.00     0.176 C 
HETATM   11  O7  UNL     1     -16.160  24.565   9.953  1.00  0.00    -0.648 OA
HETATM   12  O8  UNL     1     -16.195  22.330  10.275  1.00  0.00    -0.648 OA
ENDBRANCH   8  10
ENDBRANCH   7   8
ENDBRANCH   6   7
BRANCH   6  13
HETATM   13  O1  UNL     1     -18.301  20.900  12.041  1.00  0.00    -0.390 OA
ATOM     14  H1  UNL     1     -18.832  20.173  11.740  1.00  0.00     0.210 HD
ENDBRANCH   6  13
ENDBRANCH   5   6
ENDBRANCH   4   5
BRANCH   4  15
HETATM   15  C6  UNL     1     -21.020  21.822  15.265  1.00  0.00     0.166 C 
BRANCH  15  16
HETATM   16  C7  UNL     1     -22.201  21.510  14.469  1.00  0.00     0.176 C 
HETATM   17  N2  UNL     1     -23.350  21.976  14.820  1.00  0.00    -0.246 N 
ATOM     18  H2  UNL     1     -24.154  21.737  14.238  1.00  0.00     0.196 HD
BRANCH  16  19
HETATM   19  O2  UNL     1     -22.139  20.725  13.334  1.00  0.00    -0.344 OA
ATOM     20  H2  UNL     1     -22.472  21.019  12.494  1.00  0.00     0.219 HD
ENDBRANCH  16  19
BRANCH  17  21
HETATM   21  O3  UNL     1     -23.572  22.759  15.906  1.00  0.00    -0.288 OA
ATOM     22  H3  UNL     1     -24.408  22.856  16.346  1.00  0.00     0.244 HD
ENDBRANCH  17  21
ENDBRANCH  15  16
ENDBRANCH   4  15
ENDBRANCH   1   4
BRANCH   1  23
HETATM   23  C8  UNL     1     -19.918  18.989  16.244  1.00  0.00     0.103 A 
HETATM   24  C9  UNL     1     -21.269  19.019  16.390  1.00  0.00     0.034 A 
HETATM   25  C10 UNL     1     -21.923  17.910  16.852  1.00  0.00    -0.049 A 
HETATM   26  C11 UNL     1     -21.215  16.779  17.164  1.00  0.00    -0.034 A 
HETATM   27  C23 UNL     1     -23.394  17.896  17.029  1.00  0.00     0.039 C 
HETATM   28  C12 UNL     1     -19.847  16.703  17.032  1.00  0.00     0.062 A 
HETATM   29  C20 UNL     1     -21.909  15.563  17.668  1.00  0.00     0.040 C 
HETATM   30  C19 UNL     1     -19.208  17.827  16.566  1.00  0.00     0.073 A 
HETATM   31 CL1  UNL     1     -17.470  17.748  16.391  1.00  0.00    -0.082 Cl
HETATM   32  C21 UNL     1     -23.247  15.814  18.265  1.00  0.00     0.005 C 
HETATM   33  C22 UNL     1     -23.634  17.250  18.399  1.00  0.00     0.005 C 
BRANCH  28  34
HETATM   34  C13 UNL     1     -19.107  15.498  17.366  1.00  0.00     0.256 C 
HETATM   35  O6  UNL     1     -18.664  15.441  18.560  1.00  0.00    -0.267 OA
HETATM   36  N3  UNL     1     -18.879  14.445  16.441  1.00  0.00    -0.348 N 
HETATM   37  C14 UNL     1     -19.384  14.517  15.087  1.00  0.00     0.126 C 
HETATM   38  C18 UNL     1     -18.136  13.263  16.819  1.00  0.00     0.126 C 
HETATM   39  C15 UNL     1     -20.287  13.356  14.764  1.00  0.00     0.020 C 
HETATM   40  C16 UNL     1     -20.166  12.239  15.776  1.00  0.00     0.003 C 
HETATM   41  C17 UNL     1     -18.708  12.041  16.129  1.00  0.00     0.020 C 
ENDBRANCH  28  34
ENDBRANCH   1  23
TORSDOF 13
ENDMDL
MODEL 3
REMARK VINA RESULT: -8.380718983      1.721      3.483
REMARK  13 active torsions:
REMARK  status: ('A' for Active; 'I' for Inactive)
REMARK    1  A    between atoms: C2_2  and  C3_3 
REMARK    2  A    between atoms: C2_2  and  C24_39 
REMARK    3  A    between atoms: C3_3  and  C4_4 
REMARK    4  A    between atoms: C4_4  and  O1_5 
REMARK    5  A    between atoms: C4_4  and  C5_7 
REMARK    6  A    between atoms: C5_7  and  N1_8 
REMARK    7  A    between atoms: N1_8  and  C6_9 
REMARK    8  A    between atoms: N1_8  and  S1_17 
REMARK    9  A    between atoms: C6_9  and  C7_10 
REMARK   10  A    between atoms: C7_10  and  O2_11 
REMARK   11  A    between atoms: N2_13  and  O3_15 
REMARK   12  A    between atoms: S1_17  and  C8_20 
REMARK   13  A    between atoms: C12_24  and  C13_25 
REMARK       I    between atoms: C13_25  and  N3_27 
ROOT
HETATM    1  S1  UNL     1     -19.356  20.605  15.868  1.00  0.00     0.270 S 
HETATM    2  O4  UNL     1     -20.498  21.107  16.666  1.00  0.00    -0.200 OA
HETATM    3  O5  UNL     1     -18.107  21.225  16.499  1.00  0.00    -0.200 OA
ENDROOT
BRANCH   1   4
HETATM    4  N1  UNL     1     -19.336  21.002  14.242  1.00  0.00    -0.255 N 
BRANCH   4   5
HETATM    5  C5  UNL     1     -18.206  20.757  13.464  1.00  0.00     0.113 C 
BRANCH   5   6
HETATM    6  C4  UNL     1     -18.202  21.242  12.048  1.00  0.00     0.158 C 
BRANCH   6   7
HETATM    7  C3  UNL     1     -17.322  22.402  11.749  1.00  0.00     0.052 C 
BRANCH   7   8
HETATM    8  C2  UNL     1     -18.111  23.623  11.303  1.00  0.00     0.085 C 
HETATM    9  C1  UNL     1     -17.574  24.140   9.986  1.00  0.00     0.021 C 
BRANCH   8  10
HETATM   10  C24 UNL     1     -17.998  24.738  12.281  1.00  0.00     0.176 C 
HETATM   11  O7  UNL     1     -17.959  24.547  13.527  1.00  0.00    -0.648 OA
HETATM   12  O8  UNL     1     -17.927  26.079  11.869  1.00  0.00    -0.648 OA
ENDBRANCH   8  10
ENDBRANCH   7   8
ENDBRANCH   6   7
BRANCH   6  13
HETATM   13  O1  UNL     1     -17.967  20.227  11.109  1.00  0.00    -0.390 OA
ATOM     14  H1  UNL     1     -17.071  20.287  10.798  1.00  0.00     0.210 HD
ENDBRANCH   6  13
ENDBRANCH   5   6
ENDBRANCH   4   5
BRANCH   4  15
HETATM   15  C6  UNL     1     -20.281  21.966  13.856  1.00  0.00     0.166 C 
BRANCH  15  16
HETATM   16  C7  UNL     1     -21.585  21.502  13.396  1.00  0.00     0.176 C 
HETATM   17  N2  UNL     1     -22.633  21.732  14.110  1.00  0.00    -0.246 N 
ATOM     18  H2  UNL     1     -23.528  21.393  13.757  1.00  0.00     0.196 HD
BRANCH  16  19
HETATM   19  O2  UNL     1     -21.748  20.816  12.208  1.00  0.00    -0.344 OA
ATOM     20  H2  UNL     1     -21.538  19.894  12.121  1.00  0.00     0.219 HD
ENDBRANCH  16  19
BRANCH  17  21
HETATM   21  O3  UNL     1     -22.635  22.390  15.297  1.00  0.00    -0.288 OA
ATOM     22  H3  UNL     1     -23.404  22.539  15.835  1.00  0.00     0.244 HD
ENDBRANCH  17  21
ENDBRANCH  15  16
ENDBRANCH   4  15
ENDBRANCH   1   4
BRANCH   1  23
HETATM   23  C8  UNL     1     -19.216  18.890  16.210  1.00  0.00     0.103 A 
HETATM   24  C9  UNL     1     -18.065  18.250  16.550  1.00  0.00     0.034 A 
HETATM   25  C10 UNL     1     -18.088  16.907  16.801  1.00  0.00    -0.049 A 
HETATM   26  C11 UNL     1     -19.267  16.213  16.707  1.00  0.00    -0.034 A 
HETATM   27  C23 UNL     1     -16.860  16.167  17.173  1.00  0.00     0.039 C 
HETATM   28  C12 UNL     1     -20.456  16.819  16.367  1.00  0.00     0.062 A 
HETATM   29  C20 UNL     1     -19.312  14.751  16.977  1.00  0.00     0.040 C 
HETATM   30  C19 UNL     1     -20.412  18.169  16.120  1.00  0.00     0.073 A 
HETATM   31 CL1  UNL     1     -21.914  18.955  15.686  1.00  0.00    -0.082 Cl
HETATM   32  C21 UNL     1     -18.005  14.054  16.842  1.00  0.00     0.005 C 
HETATM   33  C22 UNL     1     -16.880  14.889  16.325  1.00  0.00     0.005 C 
BRANCH  28  34
HETATM   34  C13 UNL     1     -21.699  16.073  16.272  1.00  0.00     0.256 C 
HETATM   35  O6  UNL     1     -21.977  15.618  15.114  1.00  0.00    -0.267 OA
HETATM   36  N3  UNL     1     -22.561  15.856  17.379  1.00  0.00    -0.348 N 
HETATM   37  C14 UNL     1     -22.238  16.375  18.690  1.00  0.00     0.126 C 
HETATM   38  C18 UNL     1     -23.790  15.107  17.237  1.00  0.00     0.126 C 
HETATM   39  C15 UNL     1     -22.163  15.281  19.723  1.00  0.00     0.020 C 
HETATM   40  C16 UNL     1     -22.778  13.989  19.232  1.00  0.00     0.003 C 
HETATM   41  C17 UNL     1     -24.059  14.297  18.489  1.00  0.00     0.020 C 
ENDBRANCH  28  34
ENDBRANCH   1  23
TORSDOF 13
ENDMDL
MODEL 4
REMARK VINA RESULT: -8.235003809      5.143      7.488
REMARK  13 active torsions:
REMARK  status: ('A' for Active; 'I' for Inactive)
REMARK    1  A    between atoms: C2_2  and  C3_3 
REMARK    2  A    between atoms: C2_2  and  C24_39 
REMARK    3  A    between atoms: C3_3  and  C4_4 
REMARK    4  A    between atoms: C4_4  and  O1_5 
REMARK    5  A    between atoms: C4_4  and  C5_7 
REMARK    6  A    between atoms: C5_7  and  N1_8 
REMARK    7  A    between atoms: N1_8  and  C6_9 
REMARK    8  A    between atoms: N1_8  and  S1_17 
REMARK    9  A    between atoms: C6_9  and  C7_10 
REMARK   10  A    between atoms: C7_10  and  O2_11 
REMARK   11  A    between atoms: N2_13  and  O3_15 
REMARK   12  A    between atoms: S1_17  and  C8_20 
REMARK   13  A    between atoms: C12_24  and  C13_25 
REMARK       I    between atoms: C13_25  and  N3_27 
ROOT
HETATM    1  S1  UNL     1     -22.930  14.296  16.057  1.00  0.00     0.270 S 
HETATM    2  O4  UNL     1     -23.652  13.989  14.801  1.00  0.00    -0.200 OA
HETATM    3  O5  UNL     1     -23.831  13.790  17.186  1.00  0.00    -0.200 OA
ENDROOT
BRANCH   1   4
HETATM    4  N1  UNL     1     -22.606  15.909  16.368  1.00  0.00    -0.255 N 
BRANCH   4   5
HETATM    5  C5  UNL     1     -21.690  16.272  17.353  1.00  0.00     0.113 C 
BRANCH   5   6
HETATM    6  C4  UNL     1     -20.275  16.536  16.941  1.00  0.00     0.158 C 
BRANCH   6   7
HETATM    7  C3  UNL     1     -19.243  15.619  17.494  1.00  0.00     0.052 C 
BRANCH   7   8
HETATM    8  C2  UNL     1     -17.853  15.929  16.962  1.00  0.00     0.085 C 
HETATM    9  C1  UNL     1     -17.127  14.647  16.618  1.00  0.00     0.021 C 
BRANCH   8  10
HETATM   10  C24 UNL     1     -17.023  16.636  17.974  1.00  0.00     0.176 C 
HETATM   11  O7  UNL     1     -16.464  17.742  17.742  1.00  0.00    -0.648 OA
HETATM   12  O8  UNL     1     -16.813  16.107  19.259  1.00  0.00    -0.648 OA
ENDBRANCH   8  10
ENDBRANCH   7   8
ENDBRANCH   6   7
BRANCH   6  13
HETATM   13  O1  UNL     1     -20.106  16.641  15.552  1.00  0.00    -0.390 OA
ATOM     14  H1  UNL     1     -20.362  15.823  15.142  1.00  0.00     0.210 HD
ENDBRANCH   6  13
ENDBRANCH   5   6
ENDBRANCH   4   5
BRANCH   4  15
HETATM   15  C6  UNL     1     -23.600  16.805  15.943  1.00  0.00     0.166 C 
BRANCH  15  16
HETATM   16  C7  UNL     1     -23.453  17.417  14.627  1.00  0.00     0.176 C 
HETATM   17  N2  UNL     1     -23.575  18.693  14.499  1.00  0.00    -0.246 N 
ATOM     18  H2  UNL     1     -23.464  19.086  13.563  1.00  0.00     0.196 HD
BRANCH  16  19
HETATM   19  O2  UNL     1     -23.182  16.674  13.494  1.00  0.00    -0.344 OA
ATOM     20  H2  UNL     1     -23.312  17.019  12.619  1.00  0.00     0.219 HD
ENDBRANCH  16  19
BRANCH  17  21
HETATM   21  O3  UNL     1     -23.839  19.555  15.514  1.00  0.00    -0.288 OA
ATOM     22  H3  UNL     1     -23.306  19.656  16.294  1.00  0.00     0.244 HD
ENDBRANCH  17  21
ENDBRANCH  15  16
ENDBRANCH   4  15
ENDBRANCH   1   4
BRANCH   1  23
HETATM   23  C8  UNL     1     -21.529  13.241  16.105  1.00  0.00     0.103 A 
HETATM   24  C9  UNL     1     -20.646  13.064  15.087  1.00  0.00     0.034 A 
HETATM   25  C10 UNL     1     -19.586  12.217  15.252  1.00  0.00    -0.049 A 
HETATM   26  C11 UNL     1     -19.420  11.551  16.439  1.00  0.00    -0.034 A 
HETATM   27  C23 UNL     1     -18.599  11.991  14.171  1.00  0.00     0.039 C 
HETATM   28  C12 UNL     1     -20.289  11.700  17.497  1.00  0.00     0.062 A 
HETATM   29  C20 UNL     1     -18.273  10.626  16.638  1.00  0.00     0.040 C 
HETATM   30  C19 UNL     1     -21.347  12.556  17.312  1.00  0.00     0.073 A 
HETATM   31 CL1  UNL     1     -22.460  12.756  18.646  1.00  0.00    -0.082 Cl
HETATM   32  C21 UNL     1     -17.670  10.105  15.382  1.00  0.00     0.005 C 
HETATM   33  C22 UNL     1     -18.385  10.473  14.124  1.00  0.00     0.005 C 
BRANCH  28  34
HETATM   34  C13 UNL     1     -20.102  10.990  18.751  1.00  0.00     0.256 C 
HETATM   35  O6  UNL     1     -19.522  11.652  19.674  1.00  0.00    -0.267 OA
HETATM   36  N3  UNL     1     -20.527   9.651  18.957  1.00  0.00    -0.348 N 
HETATM   37  C14 UNL     1     -21.185   8.906  17.905  1.00  0.00     0.126 C 
HETATM   38  C18 UNL     1     -20.320   8.984  20.223  1.00  0.00     0.126 C 
HETATM   39  C15 UNL     1     -22.546   8.420  18.329  1.00  0.00     0.020 C 
HETATM   40  C16 UNL     1     -22.744   8.512  19.826  1.00  0.00     0.003 C 
HETATM   41  C17 UNL     1     -21.481   8.059  20.525  1.00  0.00     0.020 C 
ENDBRANCH  28  34
ENDBRANCH   1  23
TORSDOF 13
ENDMDL
MODEL 5
REMARK VINA RESULT: -8.178866382      2.292      3.775
REMARK  13 active torsions:
REMARK  status: ('A' for Active; 'I' for Inactive)
REMARK    1  A    between atoms: C2_2  and  C3_3 
REMARK    2  A    between atoms: C2_2  and  C24_39 
REMARK    3  A    between atoms: C3_3  and  C4_4 
REMARK    4  A    between atoms: C4_4  and  O1_5 
REMARK    5  A    between atoms: C4_4  and  C5_7 
REMARK    6  A    between atoms: C5_7  and  N1_8 
REMARK    7  A    between atoms: N1_8  and  C6_9 
REMARK    8  A    between atoms: N1_8  and  S1_17 
REMARK    9  A    between atoms: C6_9  and  C7_10 
REMARK   10  A    between atoms: C7_10  and  O2_11 
REMARK   11  A    between atoms: N2_13  and  O3_15 
REMARK   12  A    between atoms: S1_17  and  C8_20 
REMARK   13  A    between atoms: C12_24  and  C13_25 
REMARK       I    between atoms: C13_25  and  N3_27 
ROOT
HETATM    1  S1  UNL     1     -22.607  19.017  15.932  1.00  0.00     0.270 S 
HETATM    2  O4  UNL     1     -23.018  18.055  14.885  1.00  0.00    -0.200 OA
HETATM    3  O5  UNL     1     -23.431  18.658  17.171  1.00  0.00    -0.200 OA
ENDROOT
BRANCH   1   4
HETATM    4  N1  UNL     1     -22.873  20.639  15.616  1.00  0.00    -0.255 N 
BRANCH   4   5
HETATM    5  C5  UNL     1     -22.579  21.177  14.364  1.00  0.00     0.113 C 
BRANCH   5   6
HETATM    6  C4  UNL     1     -21.165  21.573  14.077  1.00  0.00     0.158 C 
BRANCH   6   7
HETATM    7  C3  UNL     1     -20.831  21.851  12.655  1.00  0.00     0.052 C 
BRANCH   7   8
HETATM    8  C2  UNL     1     -19.351  21.661  12.364  1.00  0.00     0.085 C 
HETATM    9  C1  UNL     1     -18.677  20.956  13.520  1.00  0.00     0.021 C 
BRANCH   8  10
HETATM   10  C24 UNL     1     -18.654  22.964  12.188  1.00  0.00     0.176 C 
HETATM   11  O7  UNL     1     -18.252  23.373  11.066  1.00  0.00    -0.648 OA
HETATM   12  O8  UNL     1     -18.403  23.820  13.273  1.00  0.00    -0.648 OA
ENDBRANCH   8  10
ENDBRANCH   7   8
ENDBRANCH   6   7
BRANCH   6  13
HETATM   13  O1  UNL     1     -20.706  22.631  14.876  1.00  0.00    -0.390 OA
ATOM     14  H1  UNL     1     -21.045  23.451  14.537  1.00  0.00     0.210 HD
ENDBRANCH   6  13
ENDBRANCH   5   6
ENDBRANCH   4   5
BRANCH   4  15
HETATM   15  C6  UNL     1     -22.946  21.461  16.753  1.00  0.00     0.166 C 
BRANCH  15  16
HETATM   16  C7  UNL     1     -23.707  22.700  16.653  1.00  0.00     0.176 C 
HETATM   17  N2  UNL     1     -23.107  23.832  16.799  1.00  0.00    -0.246 N 
ATOM     18  H2  UNL     1     -23.671  24.678  16.722  1.00  0.00     0.196 HD
BRANCH  16  19
HETATM   19  O2  UNL     1     -25.066  22.715  16.404  1.00  0.00    -0.344 OA
ATOM     20  H2  UNL     1     -25.452  22.259  15.666  1.00  0.00     0.219 HD
ENDBRANCH  16  19
BRANCH  17  21
HETATM   21  O3  UNL     1     -21.781  23.981  17.048  1.00  0.00    -0.288 OA
ATOM     22  H3  UNL     1     -21.348  24.811  17.211  1.00  0.00     0.244 HD
ENDBRANCH  17  21
ENDBRANCH  15  16
ENDBRANCH   4  15
ENDBRANCH   1   4
BRANCH   1  23
HETATM   23  C8  UNL     1     -20.957  18.613  16.371  1.00  0.00     0.103 A 
HETATM   24  C9  UNL     1     -19.933  19.501  16.470  1.00  0.00     0.034 A 
HETATM   25  C10 UNL     1     -18.689  19.061  16.830  1.00  0.00    -0.049 A 
HETATM   26  C11 UNL     1     -18.482  17.730  17.087  1.00  0.00    -0.034 A 
HETATM   27  C23 UNL     1     -17.543  19.991  16.949  1.00  0.00     0.039 C 
HETATM   28  C12 UNL     1     -19.489  16.795  16.999  1.00  0.00     0.062 A 
HETATM   29  C20 UNL     1     -17.137  17.232  17.480  1.00  0.00     0.040 C 
HETATM   30  C19 UNL     1     -20.731  17.258  16.637  1.00  0.00     0.073 A 
HETATM   31 CL1  UNL     1     -22.022  16.083  16.521  1.00  0.00    -0.082 Cl
HETATM   32  C21 UNL     1     -16.008  18.117  17.087  1.00  0.00     0.005 C 
HETATM   33  C22 UNL     1     -16.375  19.293  16.242  1.00  0.00     0.005 C 
BRANCH  28  34
HETATM   34  C13 UNL     1     -19.258  15.387  17.274  1.00  0.00     0.256 C 
HETATM   35  O6  UNL     1     -19.358  15.046  18.499  1.00  0.00    -0.267 OA
HETATM   36  N3  UNL     1     -18.940  14.441  16.266  1.00  0.00    -0.348 N 
HETATM   37  C14 UNL     1     -18.828  14.836  14.878  1.00  0.00     0.126 C 
HETATM   38  C18 UNL     1     -18.718  13.048  16.588  1.00  0.00     0.126 C 
HETATM   39  C15 UNL     1     -19.776  14.065  13.998  1.00  0.00     0.020 C 
HETATM   40  C16 UNL     1     -20.342  12.848  14.696  1.00  0.00     0.003 C 
HETATM   41  C17 UNL     1     -19.241  12.163  15.475  1.00  0.00     0.020 C 
ENDBRANCH  28  34
ENDBRANCH   1  23
TORSDOF 13
ENDMDL
