MODEL 1
REMARK VINA RESULT: -7.407756552      0.000      0.000
REMARK  4 active torsions:
REMARK  status: ('A' for Active; 'I' for Inactive)
REMARK    1  A    between atoms: C2_2  and  C4_4 
REMARK    2  A    between atoms: C4_4  and  C5_5 
REMARK    3  A    between atoms: N1_8  and  C8_9 
REMARK    4  A    between atoms: C9_12  and  N3_13 
ROOT
HETATM    1  C8  UNL     1      31.395  77.393  62.278  1.00  0.00     0.146 A 
HETATM    2  N2  UNL     1      30.360  78.079  62.781  1.00  0.00    -0.175 N 
ATOM      3  H2  UNL     1      30.525  78.908  63.352  1.00  0.00     0.186 HD
HETATM    4  C9  UNL     1      29.085  77.664  62.527  1.00  0.00     0.678 A 
HETATM    5  N4  UNL     1      28.837  76.574  61.775  1.00  0.00    -0.179 N 
ATOM      6  H4  UNL     1      27.876  76.280  61.596  1.00  0.00     0.185 HD
HETATM    7  C10 UNL     1      29.881  75.865  61.254  1.00  0.00     0.147 A 
HETATM    8 CL1  UNL     1      29.566  74.449  60.277  1.00  0.00    -0.062 Cl
HETATM    9  C11 UNL     1      31.166  76.280  61.508  1.00  0.00     0.129 A 
HETATM   10  N5  UNL     1      32.267  75.563  60.981  1.00  0.00    -0.095 NA
ENDROOT
BRANCH   1  11
HETATM   11  N1  UNL     1      32.735  77.784  62.513  1.00  0.00    -0.365 N 
HETATM   12  C7  UNL     1      33.430  77.315  63.664  1.00  0.00     0.125 C 
HETATM   13  C6  UNL     1      34.211  78.388  64.409  1.00  0.00     0.024 C 
HETATM   14  C5  UNL     1      34.982  79.284  63.506  1.00  0.00    -0.011 C 
HETATM   15  C13 UNL     1      33.988  79.801  62.442  1.00  0.00     0.024 C 
HETATM   16  C12 UNL     1      33.456  78.670  61.603  1.00  0.00     0.125 C 
BRANCH  14  17
HETATM   17  C4  UNL     1      35.533  80.492  64.150  1.00  0.00     0.008 C 
BRANCH  17  18
HETATM   18  C2  UNL     1      36.464  80.360  65.282  1.00  0.00    -0.022 C 
HETATM   19  C1  UNL     1      37.866  80.805  65.107  1.00  0.00     0.009 C 
HETATM   20  C3  UNL     1      35.946  80.994  66.563  1.00  0.00     0.009 C 
ENDBRANCH  17  18
ENDBRANCH  14  17
ENDBRANCH   1  11
BRANCH   4  21
HETATM   21  N3  UNL     1      28.058  78.295  62.993  1.00  0.00    -0.234 N 
ATOM     22  H32 UNL     1      28.127  78.639  63.951  1.00  0.00     0.174 HD
ATOM     23  H31 UNL     1      27.218  78.442  62.433  1.00  0.00     0.174 HD
ENDBRANCH   4  21
TORSDOF 4
ENDMDL
MODEL 2
REMARK VINA RESULT: -7.359293992      2.967      7.437
REMARK  4 active torsions:
REMARK  status: ('A' for Active; 'I' for Inactive)
REMARK    1  A    between atoms: C2_2  and  C4_4 
REMARK    2  A    between atoms: C4_4  and  C5_5 
REMARK    3  A    between atoms: N1_8  and  C8_9 
REMARK    4  A    between atoms: C9_12  and  N3_13 
ROOT
HETATM    1  C8  UNL     1      32.589  77.479  62.704  1.00  0.00     0.146 A 
HETATM    2  N2  UNL     1      33.045  76.576  63.583  1.00  0.00    -0.175 N 
ATOM      3  H2  UNL     1      32.529  75.710  63.742  1.00  0.00     0.186 HD
HETATM    4  C9  UNL     1      34.202  76.820  64.265  1.00  0.00     0.678 A 
HETATM    5  N4  UNL     1      34.905  77.953  64.075  1.00  0.00    -0.179 N 
ATOM      6  H4  UNL     1      35.768  78.116  64.595  1.00  0.00     0.185 HD
HETATM    7  C10 UNL     1      34.453  78.881  63.182  1.00  0.00     0.147 A 
HETATM    8 CL1  UNL     1      35.361  80.355  62.931  1.00  0.00    -0.062 Cl
HETATM    9  C11 UNL     1      33.289  78.640  62.494  1.00  0.00     0.129 A 
HETATM   10  N5  UNL     1      32.799  79.586  61.562  1.00  0.00    -0.095 NA
ENDROOT
BRANCH   1  11
HETATM   11  N1  UNL     1      31.395  77.271  61.972  1.00  0.00    -0.365 N 
HETATM   12  C7  UNL     1      30.159  77.793  62.449  1.00  0.00     0.125 C 
HETATM   13  C6  UNL     1      28.995  76.816  62.383  1.00  0.00     0.024 C 
HETATM   14  C5  UNL     1      28.930  76.067  61.098  1.00  0.00    -0.011 C 
HETATM   15  C13 UNL     1      30.330  75.453  60.875  1.00  0.00     0.024 C 
HETATM   16  C12 UNL     1      31.374  76.527  60.717  1.00  0.00     0.125 C 
BRANCH  14  17
HETATM   17  C4  UNL     1      27.994  74.928  61.088  1.00  0.00     0.008 C 
BRANCH  17  18
HETATM   18  C2  UNL     1      27.347  74.520  59.830  1.00  0.00    -0.022 C 
HETATM   19  C1  UNL     1      27.549  73.136  59.342  1.00  0.00     0.009 C 
HETATM   20  C3  UNL     1      25.851  74.792  59.808  1.00  0.00     0.009 C 
ENDBRANCH  17  18
ENDBRANCH  14  17
ENDBRANCH   1  11
BRANCH   4  21
HETATM   21  N3  UNL     1      34.676  75.977  65.123  1.00  0.00    -0.234 N 
ATOM     22  H32 UNL     1      35.692  75.927  65.203  1.00  0.00     0.174 HD
ATOM     23  H31 UNL     1      34.067  75.389  65.691  1.00  0.00     0.174 HD
ENDBRANCH   4  21
TORSDOF 4
ENDMDL
MODEL 3
REMARK VINA RESULT: -7.358279908      3.509      7.262
REMARK  4 active torsions:
REMARK  status: ('A' for Active; 'I' for Inactive)
REMARK    1  A    between atoms: C2_2  and  C4_4 
REMARK    2  A    between atoms: C4_4  and  C5_5 
REMARK    3  A    between atoms: N1_8  and  C8_9 
REMARK    4  A    between atoms: C9_12  and  N3_13 
ROOT
HETATM    1  C8  UNL     1      34.541  79.232  63.432  1.00  0.00     0.146 A 
HETATM    2  N2  UNL     1      35.258  79.386  62.311  1.00  0.00    -0.175 N 
ATOM      3  H2  UNL     1      34.894  79.050  61.419  1.00  0.00     0.186 HD
HETATM    4  C9  UNL     1      36.479  79.994  62.367  1.00  0.00     0.678 A 
HETATM    5  N4  UNL     1      36.985  80.449  63.529  1.00  0.00    -0.179 N 
ATOM      6  H4  UNL     1      37.900  80.901  63.550  1.00  0.00     0.185 HD
HETATM    7  C10 UNL     1      36.265  80.300  64.679  1.00  0.00     0.147 A 
HETATM    8 CL1  UNL     1      36.917  80.889  66.192  1.00  0.00    -0.062 Cl
HETATM    9  C11 UNL     1      35.037  79.688  64.627  1.00  0.00     0.129 A 
HETATM   10  N5  UNL     1      34.269  79.521  65.805  1.00  0.00    -0.095 NA
ENDROOT
BRANCH   1  11
HETATM   11  N1  UNL     1      33.270  78.608  63.425  1.00  0.00    -0.365 N 
HETATM   12  C7  UNL     1      33.154  77.207  63.650  1.00  0.00     0.125 C 
HETATM   13  C6  UNL     1      32.221  76.489  62.687  1.00  0.00     0.024 C 
HETATM   14  C5  UNL     1      30.943  77.216  62.457  1.00  0.00    -0.011 C 
HETATM   15  C13 UNL     1      31.322  78.662  62.066  1.00  0.00     0.024 C 
HETATM   16  C12 UNL     1      32.039  79.358  63.191  1.00  0.00     0.125 C 
BRANCH  14  17
HETATM   17  C4  UNL     1      30.128  76.705  61.339  1.00  0.00     0.008 C 
BRANCH  17  18
HETATM   18  C2  UNL     1      29.295  75.506  61.525  1.00  0.00    -0.022 C 
HETATM   19  C1  UNL     1      28.189  75.554  62.509  1.00  0.00     0.009 C 
HETATM   20  C3  UNL     1      28.720  74.966  60.225  1.00  0.00     0.009 C 
ENDBRANCH  17  18
ENDBRANCH  14  17
ENDBRANCH   1  11
BRANCH   4  21
HETATM   21  N3  UNL     1      37.205  80.162  61.311  1.00  0.00    -0.234 N 
ATOM     22  H32 UNL     1      36.994  80.976  60.733  1.00  0.00     0.174 HD
ATOM     23  H31 UNL     1      37.952  79.513  61.064  1.00  0.00     0.174 HD
ENDBRANCH   4  21
TORSDOF 4
ENDMDL
MODEL 4
REMARK VINA RESULT: -7.297891192      3.210      6.955
REMARK  4 active torsions:
REMARK  status: ('A' for Active; 'I' for Inactive)
REMARK    1  A    between atoms: C2_2  and  C4_4 
REMARK    2  A    between atoms: C4_4  and  C5_5 
REMARK    3  A    between atoms: N1_8  and  C8_9 
REMARK    4  A    between atoms: C9_12  and  N3_13 
ROOT
HETATM    1  C8  UNL     1      34.017  79.333  63.831  1.00  0.00     0.146 A 
HETATM    2  N2  UNL     1      34.433  79.774  65.026  1.00  0.00    -0.175 N 
ATOM      3  H2  UNL     1      33.861  79.620  65.856  1.00  0.00     0.186 HD
HETATM    4  C9  UNL     1      35.626  80.430  65.127  1.00  0.00     0.678 A 
HETATM    5  N4  UNL     1      36.403  80.647  64.048  1.00  0.00    -0.179 N 
ATOM      6  H4  UNL     1      37.292  81.139  64.145  1.00  0.00     0.185 HD
HETATM    7  C10 UNL     1      35.993  80.202  62.825  1.00  0.00     0.147 A 
HETATM    8 CL1  UNL     1      36.997  80.480  61.420  1.00  0.00    -0.062 Cl
HETATM    9  C11 UNL     1      34.793  79.542  62.719  1.00  0.00     0.129 A 
HETATM   10  N5  UNL     1      34.343  79.070  61.462  1.00  0.00    -0.095 NA
ENDROOT
BRANCH   1  11
HETATM   11  N1  UNL     1      32.788  78.647  63.676  1.00  0.00    -0.365 N 
HETATM   12  C7  UNL     1      32.708  77.248  63.925  1.00  0.00     0.125 C 
HETATM   13  C6  UNL     1      31.944  76.463  62.869  1.00  0.00     0.024 C 
HETATM   14  C5  UNL     1      30.676  77.121  62.452  1.00  0.00    -0.011 C 
HETATM   15  C13 UNL     1      31.038  78.573  62.071  1.00  0.00     0.024 C 
HETATM   16  C12 UNL     1      31.566  79.330  63.260  1.00  0.00     0.125 C 
BRANCH  14  17
HETATM   17  C4  UNL     1      30.042  76.544  61.251  1.00  0.00     0.008 C 
BRANCH  17  18
HETATM   18  C2  UNL     1      29.156  75.375  61.379  1.00  0.00    -0.022 C 
HETATM   19  C1  UNL     1      27.996  75.458  62.296  1.00  0.00     0.009 C 
HETATM   20  C3  UNL     1      28.639  74.865  60.043  1.00  0.00     0.009 C 
ENDBRANCH  17  18
ENDBRANCH  14  17
ENDBRANCH   1  11
BRANCH   4  21
HETATM   21  N3  UNL     1      36.065  80.874  66.259  1.00  0.00    -0.234 N 
ATOM     22  H32 UNL     1      35.637  80.487  67.100  1.00  0.00     0.174 HD
ATOM     23  H31 UNL     1      36.803  81.576  66.311  1.00  0.00     0.174 HD
ENDBRANCH   4  21
TORSDOF 4
ENDMDL
MODEL 5
REMARK VINA RESULT: -7.180364485      3.133      7.693
REMARK  4 active torsions:
REMARK  status: ('A' for Active; 'I' for Inactive)
REMARK    1  A    between atoms: C2_2  and  C4_4 
REMARK    2  A    between atoms: C4_4  and  C5_5 
REMARK    3  A    between atoms: N1_8  and  C8_9 
REMARK    4  A    between atoms: C9_12  and  N3_13 
ROOT
HETATM    1  C8  UNL     1      31.693  76.790  62.917  1.00  0.00     0.146 A 
HETATM    2  N2  UNL     1      32.394  75.720  63.314  1.00  0.00    -0.175 N 
ATOM      3  H2  UNL     1      32.068  74.780  63.084  1.00  0.00     0.186 HD
HETATM    4  C9  UNL     1      33.545  75.890  64.027  1.00  0.00     0.678 A 
HETATM    5  N4  UNL     1      34.001  77.118  64.344  1.00  0.00    -0.179 N 
ATOM      6  H4  UNL     1      34.864  77.224  64.878  1.00  0.00     0.185 HD
HETATM    7  C10 UNL     1      33.298  78.218  63.946  1.00  0.00     0.147 A 
HETATM    8 CL1  UNL     1      33.884  79.815  64.353  1.00  0.00    -0.062 Cl
HETATM    9  C11 UNL     1      32.139  78.050  63.228  1.00  0.00     0.129 A 
HETATM   10  N5  UNL     1      31.391  79.174  62.802  1.00  0.00    -0.095 NA
ENDROOT
BRANCH   1  11
HETATM   11  N1  UNL     1      30.494  76.664  62.175  1.00  0.00    -0.365 N 
HETATM   12  C7  UNL     1      29.271  76.351  62.832  1.00  0.00     0.125 C 
HETATM   13  C6  UNL     1      28.442  75.278  62.141  1.00  0.00     0.024 C 
HETATM   14  C5  UNL     1      28.358  75.461  60.667  1.00  0.00    -0.011 C 
HETATM   15  C13 UNL     1      29.808  75.613  60.158  1.00  0.00     0.024 C 
HETATM   16  C12 UNL     1      30.456  76.847  60.727  1.00  0.00     0.125 C 
BRANCH  14  17
HETATM   17  C4  UNL     1      27.799  74.312  59.929  1.00  0.00     0.008 C 
BRANCH  17  18
HETATM   18  C2  UNL     1      26.342  74.186  59.762  1.00  0.00    -0.022 C 
HETATM   19  C1  UNL     1      25.608  73.230  60.623  1.00  0.00     0.009 C 
HETATM   20  C3  UNL     1      25.611  75.517  59.839  1.00  0.00     0.009 C 
ENDBRANCH  17  18
ENDBRANCH  14  17
ENDBRANCH   1  11
BRANCH   4  21
HETATM   21  N3  UNL     1      34.250  74.885  64.431  1.00  0.00    -0.234 N 
ATOM     22  H32 UNL     1      33.785  73.978  64.456  1.00  0.00     0.174 HD
ATOM     23  H31 UNL     1      35.225  74.992  64.713  1.00  0.00     0.174 HD
ENDBRANCH   4  21
TORSDOF 4
ENDMDL
