MODEL 1
REMARK VINA RESULT: -7.549826450      0.000      0.000
REMARK  4 active torsions:
REMARK  status: ('A' for Active; 'I' for Inactive)
REMARK    1  A    between atoms: C2_2  and  C3_3 
REMARK    2  A    between atoms: C5_10  and  N4_11 
REMARK       I    between atoms: N4_11  and  C6_12 
REMARK       I    between atoms: C6_12  and  N5_13 
REMARK       I    between atoms: C6_12  and  N8_20 
REMARK    3  A    between atoms: N5_13  and  N6_15 
REMARK    4  A    between atoms: N8_20  and  C7_22 
ROOT
HETATM    1  N4  UNL     1      33.214  77.708  62.471  1.00  0.00    -0.365 NA
HETATM    2  C6  UNL     1      33.715  78.766  62.577  1.00  0.00     0.272 C 
HETATM    3  N5  UNL     1      32.987  79.963  62.161  1.00  0.00    -0.245 N 
ATOM      4  H5  UNL     1      33.377  80.606  61.472  1.00  0.00     0.192 HD
HETATM    5  N8  UNL     1      35.056  78.974  63.112  1.00  0.00    -0.345 N 
ATOM      6  H8  UNL     1      35.770  78.274  62.912  1.00  0.00     0.164 HD
ENDROOT
BRANCH   1   7
HETATM    7  C5  UNL     1      32.496  76.598  62.280  1.00  0.00     0.177 A 
HETATM    8  C3  UNL     1      32.659  75.336  62.877  1.00  0.00     0.069 A 
HETATM    9  N1  UNL     1      31.701  74.562  62.373  1.00  0.00    -0.300 N 
HETATM   10  N2  UNL     1      30.957  75.229  61.517  1.00  0.00    -0.285 N 
ATOM     11  H1  UNL     1      31.561  73.582  62.619  1.00  0.00     0.186 HD
HETATM   12  C4  UNL     1      31.379  76.477  61.407  1.00  0.00     0.174 A 
ATOM     13  H2  UNL     1      30.164  74.837  61.008  1.00  0.00     0.188 HD
HETATM   14  N3  UNL     1      30.884  77.550  60.607  1.00  0.00    -0.078 NA
BRANCH   8  15
HETATM   15  C2  UNL     1      33.718  74.954  63.874  1.00  0.00     0.058 C 
HETATM   16  C1  UNL     1      33.802  75.894  65.029  1.00  0.00     0.011 C 
ENDBRANCH   8  15
ENDBRANCH   1   7
BRANCH   3  17
HETATM   17  N6  UNL     1      31.867  80.172  62.684  1.00  0.00    -0.246 N 
HETATM   18  N7  UNL     1      30.839  79.790  63.252  1.00  0.00    -0.331 N 
ATOM     19  H72 UNL     1      31.005  78.786  63.327  1.00  0.00     0.178 HD
ATOM     20  H71 UNL     1      29.926  79.959  63.677  1.00  0.00     0.178 HD
ATOM     21  H6  UNL     1      31.735  81.179  62.590  1.00  0.00     0.208 HD
ENDBRANCH   3  17
BRANCH   5  22
HETATM   22  C7  UNL     1      35.415  80.101  63.895  1.00  0.00     0.088 C 
HETATM   23  C8  UNL     1      36.838  80.156  64.357  1.00  0.00     0.028 C 
HETATM   24  C9  UNL     1      36.776  81.100  65.565  1.00  0.00     0.039 C 
HETATM   25  C10 UNL     1      35.358  81.075  66.062  1.00  0.00     0.172 C 
HETATM   26  F1  UNL     1      35.242  80.738  67.386  1.00  0.00    -0.249 F 
HETATM   27  C11 UNL     1      34.699  79.986  65.249  1.00  0.00     0.062 C 
ENDBRANCH   5  22
TORSDOF 4
ENDMDL
MODEL 2
REMARK VINA RESULT: -7.392267704      0.869      2.332
REMARK  4 active torsions:
REMARK  status: ('A' for Active; 'I' for Inactive)
REMARK    1  A    between atoms: C2_2  and  C3_3 
REMARK    2  A    between atoms: C5_10  and  N4_11 
REMARK       I    between atoms: N4_11  and  C6_12 
REMARK       I    between atoms: C6_12  and  N5_13 
REMARK       I    between atoms: C6_12  and  N8_20 
REMARK    3  A    between atoms: N5_13  and  N6_15 
REMARK    4  A    between atoms: N8_20  and  C7_22 
ROOT
HETATM    1  N4  UNL     1      33.270  77.671  62.524  1.00  0.00    -0.365 NA
HETATM    2  C6  UNL     1      33.735  78.745  62.627  1.00  0.00     0.272 C 
HETATM    3  N5  UNL     1      32.946  79.920  62.263  1.00  0.00    -0.245 N 
ATOM      4  H5  UNL     1      33.281  80.588  61.569  1.00  0.00     0.192 HD
HETATM    5  N8  UNL     1      35.089  78.996  63.108  1.00  0.00    -0.345 N 
ATOM      6  H8  UNL     1      35.820  78.327  62.866  1.00  0.00     0.164 HD
ENDROOT
BRANCH   1   7
HETATM    7  C5  UNL     1      32.587  76.537  62.344  1.00  0.00     0.177 A 
HETATM    8  C3  UNL     1      31.512  76.291  61.473  1.00  0.00     0.069 A 
HETATM    9  N1  UNL     1      31.178  75.015  61.649  1.00  0.00    -0.300 N 
HETATM   10  N2  UNL     1      31.948  74.445  62.550  1.00  0.00    -0.285 N 
ATOM     11  H1  UNL     1      30.424  74.541  61.150  1.00  0.00     0.186 HD
HETATM   12  C4  UNL     1      32.833  75.308  63.020  1.00  0.00     0.174 A 
ATOM     13  H2  UNL     1      31.873  73.472  62.846  1.00  0.00     0.188 HD
HETATM   14  N3  UNL     1      33.856  75.138  63.999  1.00  0.00    -0.078 NA
BRANCH   8  15
HETATM   15  C2  UNL     1      30.874  77.287  60.545  1.00  0.00     0.058 C 
HETATM   16  C1  UNL     1      29.540  76.849  60.042  1.00  0.00     0.011 C 
ENDBRANCH   8  15
ENDBRANCH   1   7
BRANCH   3  17
HETATM   17  N6  UNL     1      31.841  80.077  62.836  1.00  0.00    -0.246 N 
HETATM   18  N7  UNL     1      30.833  79.642  63.402  1.00  0.00    -0.331 N 
ATOM     19  H72 UNL     1      31.006  78.637  63.387  1.00  0.00     0.178 HD
ATOM     20  H71 UNL     1      29.934  79.770  63.868  1.00  0.00     0.178 HD
ATOM     21  H6  UNL     1      31.704  81.088  62.832  1.00  0.00     0.208 HD
ENDBRANCH   3  17
BRANCH   5  22
HETATM   22  C7  UNL     1      35.439  80.123  63.895  1.00  0.00     0.088 C 
HETATM   23  C8  UNL     1      36.862  80.191  64.355  1.00  0.00     0.028 C 
HETATM   24  C9  UNL     1      36.793  81.129  65.567  1.00  0.00     0.039 C 
HETATM   25  C10 UNL     1      35.377  81.088  66.066  1.00  0.00     0.172 C 
HETATM   26  F1  UNL     1      35.267  80.745  67.389  1.00  0.00    -0.249 F 
HETATM   27  C11 UNL     1      34.726  79.996  65.250  1.00  0.00     0.062 C 
ENDBRANCH   5  22
TORSDOF 4
ENDMDL
MODEL 3
REMARK VINA RESULT: -7.358051073      2.100      3.316
REMARK  4 active torsions:
REMARK  status: ('A' for Active; 'I' for Inactive)
REMARK    1  A    between atoms: C2_2  and  C3_3 
REMARK    2  A    between atoms: C5_10  and  N4_11 
REMARK       I    between atoms: N4_11  and  C6_12 
REMARK       I    between atoms: C6_12  and  N5_13 
REMARK       I    between atoms: C6_12  and  N8_20 
REMARK    3  A    between atoms: N5_13  and  N6_15 
REMARK    4  A    between atoms: N8_20  and  C7_22 
ROOT
HETATM    1  N4  UNL     1      32.468  78.266  62.849  1.00  0.00    -0.365 NA
HETATM    2  C6  UNL     1      33.068  78.352  63.856  1.00  0.00     0.272 C 
HETATM    3  N5  UNL     1      33.235  77.178  64.709  1.00  0.00    -0.245 N 
ATOM      4  H5  UNL     1      32.935  77.187  65.684  1.00  0.00     0.192 HD
HETATM    5  N8  UNL     1      33.678  79.590  64.327  1.00  0.00    -0.345 N 
ATOM      6  H8  UNL     1      33.198  80.470  64.137  1.00  0.00     0.164 HD
ENDROOT
BRANCH   1   7
HETATM    7  C5  UNL     1      31.761  77.987  61.750  1.00  0.00     0.177 A 
HETATM    8  C3  UNL     1      30.433  77.537  61.654  1.00  0.00     0.069 A 
HETATM    9  N1  UNL     1      30.178  77.411  60.354  1.00  0.00    -0.300 N 
HETATM   10  N2  UNL     1      31.228  77.740  59.633  1.00  0.00    -0.285 N 
ATOM     11  H1  UNL     1      29.287  77.099  59.968  1.00  0.00     0.186 HD
HETATM   12  C4  UNL     1      32.233  78.103  60.413  1.00  0.00     0.174 A 
ATOM     13  H2  UNL     1      31.262  77.718  58.614  1.00  0.00     0.188 HD
HETATM   14  N3  UNL     1      33.550  78.535  60.076  1.00  0.00    -0.078 NA
BRANCH   8  15
HETATM   15  C2  UNL     1      29.505  77.252  62.803  1.00  0.00     0.058 C 
HETATM   16  C1  UNL     1      28.542  76.149  62.519  1.00  0.00     0.011 C 
ENDBRANCH   8  15
ENDBRANCH   1   7
BRANCH   3  17
HETATM   17  N6  UNL     1      33.760  76.160  64.200  1.00  0.00    -0.246 N 
HETATM   18  N7  UNL     1      34.149  74.988  64.254  1.00  0.00    -0.331 N 
ATOM     19  H72 UNL     1      33.914  74.738  65.215  1.00  0.00     0.178 HD
ATOM     20  H71 UNL     1      34.576  74.159  63.840  1.00  0.00     0.178 HD
ATOM     21  H6  UNL     1      33.980  76.447  63.246  1.00  0.00     0.208 HD
ENDBRANCH   3  17
BRANCH   5  22
HETATM   22  C7  UNL     1      34.906  79.631  65.037  1.00  0.00     0.088 C 
HETATM   23  C8  UNL     1      34.947  80.532  66.232  1.00  0.00     0.028 C 
HETATM   24  C9  UNL     1      36.448  80.791  66.422  1.00  0.00     0.039 C 
HETATM   25  C10 UNL     1      37.103  80.537  65.094  1.00  0.00     0.172 C 
HETATM   26  F1  UNL     1      37.838  81.596  64.629  1.00  0.00    -0.249 F 
HETATM   27  C11 UNL     1      35.947  80.324  64.145  1.00  0.00     0.062 C 
ENDBRANCH   5  22
TORSDOF 4
ENDMDL
MODEL 4
REMARK VINA RESULT: -6.953000091      1.978      3.374
REMARK  4 active torsions:
REMARK  status: ('A' for Active; 'I' for Inactive)
REMARK    1  A    between atoms: C2_2  and  C3_3 
REMARK    2  A    between atoms: C5_10  and  N4_11 
REMARK       I    between atoms: N4_11  and  C6_12 
REMARK       I    between atoms: C6_12  and  N5_13 
REMARK       I    between atoms: C6_12  and  N8_20 
REMARK    3  A    between atoms: N5_13  and  N6_15 
REMARK    4  A    between atoms: N8_20  and  C7_22 
ROOT
HETATM    1  N4  UNL     1      33.115  77.443  63.324  1.00  0.00    -0.365 NA
HETATM    2  C6  UNL     1      33.618  77.809  64.322  1.00  0.00     0.272 C 
HETATM    3  N5  UNL     1      33.765  76.886  65.446  1.00  0.00    -0.245 N 
ATOM      4  H5  UNL     1      33.378  77.106  66.364  1.00  0.00     0.192 HD
HETATM    5  N8  UNL     1      34.120  79.163  64.523  1.00  0.00    -0.345 N 
ATOM      6  H8  UNL     1      33.615  79.936  64.089  1.00  0.00     0.164 HD
ENDROOT
BRANCH   1   7
HETATM    7  C5  UNL     1      32.525  76.862  62.277  1.00  0.00     0.177 A 
HETATM    8  C3  UNL     1      32.292  77.392  60.996  1.00  0.00     0.069 A 
HETATM    9  N1  UNL     1      31.684  76.432  60.303  1.00  0.00    -0.300 N 
HETATM   10  N2  UNL     1      31.518  75.353  61.037  1.00  0.00    -0.285 N 
ATOM     11  H1  UNL     1      31.386  76.522  59.331  1.00  0.00     0.186 HD
HETATM   12  C4  UNL     1      32.006  75.536  62.252  1.00  0.00     0.174 A 
ATOM     13  H2  UNL     1      31.074  74.494  60.713  1.00  0.00     0.188 HD
HETATM   14  N3  UNL     1      32.047  74.653  63.371  1.00  0.00    -0.078 NA
BRANCH   8  15
HETATM   15  C2  UNL     1      32.654  78.774  60.527  1.00  0.00     0.058 C 
HETATM   16  C1  UNL     1      32.407  79.826  61.555  1.00  0.00     0.011 C 
ENDBRANCH   8  15
ENDBRANCH   1   7
BRANCH   3  17
HETATM   17  N6  UNL     1      34.384  75.816  65.241  1.00  0.00    -0.246 N 
HETATM   18  N7  UNL     1      34.698  74.854  64.531  1.00  0.00    -0.331 N 
ATOM     19  H72 UNL     1      34.175  75.050  63.676  1.00  0.00     0.178 HD
ATOM     20  H71 UNL     1      35.201  73.983  64.363  1.00  0.00     0.178 HD
ATOM     21  H6  UNL     1      34.891  75.654  66.111  1.00  0.00     0.208 HD
ENDBRANCH   3  17
BRANCH   5  22
HETATM   22  C7  UNL     1      35.275  79.458  65.292  1.00  0.00     0.088 C 
HETATM   23  C8  UNL     1      35.141  80.571  66.284  1.00  0.00     0.028 C 
HETATM   24  C9  UNL     1      36.593  81.006  66.519  1.00  0.00     0.039 C 
HETATM   25  C10 UNL     1      37.378  80.566  65.316  1.00  0.00     0.172 C 
HETATM   26  F1  UNL     1      38.061  81.582  64.700  1.00  0.00    -0.249 F 
HETATM   27  C11 UNL     1      36.329  80.063  64.352  1.00  0.00     0.062 C 
ENDBRANCH   5  22
TORSDOF 4
ENDMDL
MODEL 5
REMARK VINA RESULT: -6.704298104      4.210      7.247
REMARK  4 active torsions:
REMARK  status: ('A' for Active; 'I' for Inactive)
REMARK    1  A    between atoms: C2_2  and  C3_3 
REMARK    2  A    between atoms: C5_10  and  N4_11 
REMARK       I    between atoms: N4_11  and  C6_12 
REMARK       I    between atoms: C6_12  and  N5_13 
REMARK       I    between atoms: C6_12  and  N8_20 
REMARK    3  A    between atoms: N5_13  and  N6_15 
REMARK    4  A    between atoms: N8_20  and  C7_22 
ROOT
HETATM    1  N4  UNL     1      31.301  76.810  61.905  1.00  0.00    -0.365 NA
HETATM    2  C6  UNL     1      30.257  76.278  61.802  1.00  0.00     0.272 C 
HETATM    3  N5  UNL     1      29.179  76.598  62.735  1.00  0.00    -0.245 N 
ATOM      4  H5  UNL     1      28.727  75.871  63.289  1.00  0.00     0.192 HD
HETATM    5  N8  UNL     1      29.955  75.289  60.774  1.00  0.00    -0.345 N 
ATOM      6  H8  UNL     1      30.696  74.651  60.482  1.00  0.00     0.164 HD
ENDROOT
BRANCH   1   7
HETATM    7  C5  UNL     1      32.410  77.505  62.169  1.00  0.00     0.177 A 
HETATM    8  C3  UNL     1      33.233  77.441  63.307  1.00  0.00     0.069 A 
HETATM    9  N1  UNL     1      34.216  78.315  63.102  1.00  0.00    -0.300 N 
HETATM   10  N2  UNL     1      34.079  78.916  61.940  1.00  0.00    -0.285 N 
ATOM     11  H1  UNL     1      34.975  78.495  63.759  1.00  0.00     0.186 HD
HETATM   12  C4  UNL     1      33.002  78.475  61.312  1.00  0.00     0.174 A 
ATOM     13  H2  UNL     1      34.715  79.624  61.574  1.00  0.00     0.188 HD
HETATM   14  N3  UNL     1      32.464  78.836  60.041  1.00  0.00    -0.078 NA
BRANCH   8  15
HETATM   15  C2  UNL     1      33.022  76.564  64.509  1.00  0.00     0.058 C 
HETATM   16  C1  UNL     1      34.205  75.714  64.830  1.00  0.00     0.011 C 
ENDBRANCH   8  15
ENDBRANCH   1   7
BRANCH   3  17
HETATM   17  N6  UNL     1      28.831  77.799  62.830  1.00  0.00    -0.246 N 
HETATM   18  N7  UNL     1      29.083  79.006  62.912  1.00  0.00    -0.331 N 
ATOM     19  H72 UNL     1      30.103  79.006  62.888  1.00  0.00     0.178 HD
ATOM     20  H71 UNL     1      28.800  79.983  62.990  1.00  0.00     0.178 HD
ATOM     21  H6  UNL     1      27.812  77.758  62.852  1.00  0.00     0.208 HD
ENDBRANCH   3  17
BRANCH   5  22
HETATM   22  C7  UNL     1      28.681  75.169  60.161  1.00  0.00     0.088 C 
HETATM   23  C8  UNL     1      27.499  75.223  61.078  1.00  0.00     0.028 C 
HETATM   24  C9  UNL     1      26.395  74.534  60.265  1.00  0.00     0.039 C 
HETATM   25  C10 UNL     1      27.082  73.664  59.251  1.00  0.00     0.172 C 
HETATM   26  F1  UNL     1      26.699  72.348  59.302  1.00  0.00    -0.249 F 
HETATM   27  C11 UNL     1      28.543  73.733  59.631  1.00  0.00     0.062 C 
ENDBRANCH   5  22
TORSDOF 4
ENDMDL
