MODEL 1
REMARK VINA RESULT: -6.987928799      0.000      0.000
REMARK  4 active torsions:
REMARK  status: ('A' for Active; 'I' for Inactive)
REMARK    1  A    between atoms: C2_2  and  O2_4 
REMARK    2  A    between atoms: O2_4  and  C3_5 
REMARK    3  A    between atoms: C4_6  and  C6_8 
REMARK    4  A    between atoms: C14_19  and  C15_20 
ROOT
HETATM    1  C3  UNL     1      35.790 -32.493   1.365  1.00  0.00     0.164 C 
HETATM    2  C4  UNL     1      34.437 -31.928   1.759  1.00  0.00     0.075 C 
HETATM    3  C5  UNL     1      33.441 -31.997   0.555  1.00  0.00     0.030 C 
HETATM    4  C7  UNL     1      34.337 -30.547   2.226  1.00  0.00     0.003 C 
HETATM    5  C8  UNL     1      33.176 -29.736   1.606  1.00  0.00     0.011 C 
HETATM    6  C9  UNL     1      35.547 -29.703   2.283  1.00  0.00     0.017 C 
HETATM    7  C10 UNL     1      36.872 -30.258   1.968  1.00  0.00    -0.012 C 
HETATM    8  C11 UNL     1      37.923 -29.814   3.020  1.00  0.00     0.090 C 
HETATM    9  C12 UNL     1      39.273 -30.232   2.560  1.00  0.00     0.136 C 
HETATM   10  O5  UNL     1      40.297 -29.942   3.062  1.00  0.00    -0.297 OA
HETATM   11  C13 UNL     1      39.190 -31.117   1.320  1.00  0.00     0.095 C 
HETATM   12  C14 UNL     1      38.303 -32.258   1.873  1.00  0.00    -0.041 C 
HETATM   13  C19 UNL     1      36.929 -31.791   2.018  1.00  0.00     0.018 C 
HETATM   14  C20 UNL     1      36.630 -32.024   3.533  1.00  0.00     0.024 C 
HETATM   15  C21 UNL     1      38.666 -30.262   0.279  1.00  0.00    -0.022 C 
HETATM   16  C22 UNL     1      39.781 -29.209   0.039  1.00  0.00     0.017 C 
HETATM   17  C23 UNL     1      38.389 -30.727  -1.095  1.00  0.00     0.011 C 
HETATM   18  C24 UNL     1      37.394 -29.687  -1.613  1.00  0.00     0.002 C 
HETATM   19  C25 UNL     1      36.473 -29.429  -0.410  1.00  0.00     0.011 C 
HETATM   20  C26 UNL     1      37.398 -29.580   0.741  1.00  0.00    -0.027 C 
HETATM   21  C27 UNL     1      37.740 -28.119   1.083  1.00  0.00     0.017 C 
ENDROOT
BRANCH  12  22
HETATM   22  C15 UNL     1      38.758 -33.553   1.394  1.00  0.00     0.031 A 
HETATM   23  C16 UNL     1      39.043 -33.821   0.070  1.00  0.00     0.156 A 
HETATM   24  O6  UNL     1      39.423 -35.062  -0.015  1.00  0.00    -0.331 OA
HETATM   25  C17 UNL     1      39.421 -35.655   1.135  1.00  0.00     0.184 A 
HETATM   26  C18 UNL     1      39.002 -34.720   2.070  1.00  0.00     0.150 A 
HETATM   27  F1  UNL     1      38.917 -34.979   3.404  1.00  0.00    -0.203 F 
ENDBRANCH  12  22
BRANCH   1  28
HETATM   28  O2  UNL     1      35.659 -32.812   0.122  1.00  0.00    -0.314 OA
BRANCH  28  29
HETATM   29  C2  UNL     1      35.926 -33.593  -0.893  1.00  0.00     0.255 C 
HETATM   30  C1  UNL     1      36.788 -33.549  -2.060  1.00  0.00     0.126 C 
HETATM   31  O1  UNL     1      35.203 -34.571  -0.687  1.00  0.00    -0.266 OA
ENDBRANCH  28  29
ENDBRANCH   1  28
BRANCH   2  32
HETATM   32  C6  UNL     1      33.621 -32.867   2.627  1.00  0.00     0.184 C 
HETATM   33  O3  UNL     1      33.804 -32.970   3.849  1.00  0.00    -0.647 OA
HETATM   34  O4  UNL     1      32.654 -33.623   2.010  1.00  0.00    -0.647 OA
ENDBRANCH   2  32
TORSDOF 4
ENDMDL
MODEL 2
REMARK VINA RESULT: -6.896648908      2.699      4.053
REMARK  4 active torsions:
REMARK  status: ('A' for Active; 'I' for Inactive)
REMARK    1  A    between atoms: C2_2  and  O2_4 
REMARK    2  A    between atoms: O2_4  and  C3_5 
REMARK    3  A    between atoms: C4_6  and  C6_8 
REMARK    4  A    between atoms: C14_19  and  C15_20 
ROOT
HETATM    1  C3  UNL     1      37.767 -30.167   1.372  1.00  0.00     0.164 C 
HETATM    2  C4  UNL     1      37.372 -30.167   2.838  1.00  0.00     0.075 C 
HETATM    3  C5  UNL     1      35.898 -29.674   3.009  1.00  0.00     0.030 C 
HETATM    4  C7  UNL     1      38.131 -29.360   3.793  1.00  0.00     0.003 C 
HETATM    5  C8  UNL     1      37.266 -28.539   4.777  1.00  0.00     0.011 C 
HETATM    6  C9  UNL     1      39.256 -28.530   3.320  1.00  0.00     0.017 C 
HETATM    7  C10 UNL     1      39.691 -28.574   1.916  1.00  0.00    -0.012 C 
HETATM    8  C11 UNL     1      41.237 -28.671   1.817  1.00  0.00     0.090 C 
HETATM    9  C12 UNL     1      41.640 -28.516   0.395  1.00  0.00     0.136 C 
HETATM   10  O5  UNL     1      42.742 -28.417  -0.006  1.00  0.00    -0.297 OA
HETATM   11  C13 UNL     1      40.426 -28.503  -0.531  1.00  0.00     0.095 C 
HETATM   12  C14 UNL     1      39.809 -29.876  -0.169  1.00  0.00    -0.041 C 
HETATM   13  C19 UNL     1      39.197 -29.810   1.153  1.00  0.00     0.018 C 
HETATM   14  C20 UNL     1      39.938 -30.932   1.946  1.00  0.00     0.024 C 
HETATM   15  C21 UNL     1      39.704 -27.298  -0.192  1.00  0.00    -0.022 C 
HETATM   16  C22 UNL     1      40.647 -26.143  -0.626  1.00  0.00     0.017 C 
HETATM   17  C23 UNL     1      38.432 -26.905  -0.829  1.00  0.00     0.011 C 
HETATM   18  C24 UNL     1      37.827 -25.935   0.187  1.00  0.00     0.002 C 
HETATM   19  C25 UNL     1      38.140 -26.584   1.545  1.00  0.00     0.011 C 
HETATM   20  C26 UNL     1      39.452 -27.232   1.298  1.00  0.00    -0.027 C 
HETATM   21  C27 UNL     1      40.439 -26.218   1.903  1.00  0.00     0.017 C 
ENDROOT
BRANCH  12  22
HETATM   22  C15 UNL     1      39.303 -30.549  -1.353  1.00  0.00     0.031 A 
HETATM   23  C16 UNL     1      39.453 -30.058  -2.635  1.00  0.00     0.156 A 
HETATM   24  O6  UNL     1      38.891 -30.897  -3.455  1.00  0.00    -0.331 OA
HETATM   25  C17 UNL     1      38.376 -31.912  -2.840  1.00  0.00     0.184 A 
HETATM   26  C18 UNL     1      38.620 -31.730  -1.486  1.00  0.00     0.150 A 
HETATM   27  F1  UNL     1      38.255 -32.628  -0.530  1.00  0.00    -0.203 F 
ENDBRANCH  12  22
BRANCH   1  28
HETATM   28  O2  UNL     1      36.730 -29.711   0.756  1.00  0.00    -0.314 OA
BRANCH  28  29
HETATM   29  C2  UNL     1      35.756 -29.856  -0.105  1.00  0.00     0.255 C 
HETATM   30  C1  UNL     1      34.440 -30.467  -0.116  1.00  0.00     0.126 C 
HETATM   31  O1  UNL     1      36.189 -29.289  -1.110  1.00  0.00    -0.266 OA
ENDBRANCH  28  29
ENDBRANCH   1  28
BRANCH   2  32
HETATM   32  C6  UNL     1      37.087 -31.552   3.386  1.00  0.00     0.184 C 
HETATM   33  O3  UNL     1      36.667 -31.738   4.537  1.00  0.00    -0.647 OA
HETATM   34  O4  UNL     1      37.316 -32.622   2.556  1.00  0.00    -0.647 OA
ENDBRANCH   2  32
TORSDOF 4
ENDMDL
MODEL 3
REMARK VINA RESULT: -6.580811802      5.913      8.542
REMARK  4 active torsions:
REMARK  status: ('A' for Active; 'I' for Inactive)
REMARK    1  A    between atoms: C2_2  and  O2_4 
REMARK    2  A    between atoms: O2_4  and  C3_5 
REMARK    3  A    between atoms: C4_6  and  C6_8 
REMARK    4  A    between atoms: C14_19  and  C15_20 
ROOT
HETATM    1  C3  UNL     1      41.471 -27.051  -2.164  1.00  0.00     0.164 C 
HETATM    2  C4  UNL     1      40.348 -28.035  -2.441  1.00  0.00     0.075 C 
HETATM    3  C5  UNL     1      39.723 -27.771  -3.850  1.00  0.00     0.030 C 
HETATM    4  C7  UNL     1      39.196 -28.090  -1.544  1.00  0.00     0.003 C 
HETATM    5  C8  UNL     1      37.824 -28.138  -2.254  1.00  0.00     0.011 C 
HETATM    6  C9  UNL     1      39.118 -27.170  -0.393  1.00  0.00     0.017 C 
HETATM    7  C10 UNL     1      40.230 -26.260  -0.074  1.00  0.00    -0.012 C 
HETATM    8  C11 UNL     1      40.546 -26.280   1.445  1.00  0.00     0.090 C 
HETATM    9  C12 UNL     1      41.534 -25.212   1.746  1.00  0.00     0.136 C 
HETATM   10  O5  UNL     1      41.890 -24.879   2.818  1.00  0.00    -0.297 OA
HETATM   11  C13 UNL     1      42.065 -24.567   0.469  1.00  0.00     0.095 C 
HETATM   12  C14 UNL     1      42.646 -25.818  -0.232  1.00  0.00    -0.041 C 
HETATM   13  C19 UNL     1      41.560 -26.654  -0.731  1.00  0.00     0.018 C 
HETATM   14  C20 UNL     1      41.813 -28.025  -0.028  1.00  0.00     0.024 C 
HETATM   15  C21 UNL     1      40.927 -23.897  -0.118  1.00  0.00    -0.022 C 
HETATM   16  C22 UNL     1      40.583 -22.760   0.882  1.00  0.00     0.017 C 
HETATM   17  C23 UNL     1      40.985 -23.165  -1.399  1.00  0.00     0.011 C 
HETATM   18  C24 UNL     1      39.520 -23.127  -1.836  1.00  0.00     0.002 C 
HETATM   19  C25 UNL     1      38.993 -24.524  -1.474  1.00  0.00     0.011 C 
HETATM   20  C26 UNL     1      39.759 -24.849  -0.246  1.00  0.00    -0.027 C 
HETATM   21  C27 UNL     1      38.751 -24.518   0.869  1.00  0.00     0.017 C 
ENDROOT
BRANCH  12  22
HETATM   22  C15 UNL     1      43.907 -25.512  -0.886  1.00  0.00     0.031 A 
HETATM   23  C16 UNL     1      44.278 -24.241  -1.276  1.00  0.00     0.156 A 
HETATM   24  O6  UNL     1      45.456 -24.316  -1.824  1.00  0.00    -0.331 OA
HETATM   25  C17 UNL     1      45.913 -25.526  -1.837  1.00  0.00     0.184 A 
HETATM   26  C18 UNL     1      44.950 -26.328  -1.241  1.00  0.00     0.150 A 
HETATM   27  F1  UNL     1      45.105 -27.666  -1.043  1.00  0.00    -0.203 F 
ENDBRANCH  12  22
BRANCH   1  28
HETATM   28  O2  UNL     1      41.499 -26.289  -3.204  1.00  0.00    -0.314 OA
BRANCH  28  29
HETATM   29  C2  UNL     1      42.155 -25.562  -4.072  1.00  0.00     0.255 C 
HETATM   30  C1  UNL     1      41.961 -24.289  -4.742  1.00  0.00     0.126 C 
HETATM   31  O1  UNL     1      43.164 -26.235  -4.290  1.00  0.00    -0.266 OA
ENDBRANCH  28  29
ENDBRANCH   1  28
BRANCH   2  32
HETATM   32  C6  UNL     1      40.839 -29.425  -2.800  1.00  0.00     0.184 C 
HETATM   33  O3  UNL     1      40.096 -30.417  -2.781  1.00  0.00    -0.647 OA
HETATM   34  O4  UNL     1      42.160 -29.560  -3.149  1.00  0.00    -0.647 OA
ENDBRANCH   2  32
TORSDOF 4
ENDMDL
MODEL 4
REMARK VINA RESULT: -6.341060252      5.273      8.570
REMARK  4 active torsions:
REMARK  status: ('A' for Active; 'I' for Inactive)
REMARK    1  A    between atoms: C2_2  and  O2_4 
REMARK    2  A    between atoms: O2_4  and  C3_5 
REMARK    3  A    between atoms: C4_6  and  C6_8 
REMARK    4  A    between atoms: C14_19  and  C15_20 
ROOT
HETATM    1  C3  UNL     1      41.397 -26.750  -2.438  1.00  0.00     0.164 C 
HETATM    2  C4  UNL     1      41.494 -26.114  -3.814  1.00  0.00     0.075 C 
HETATM    3  C5  UNL     1      42.989 -25.959  -4.243  1.00  0.00     0.030 C 
HETATM    4  C7  UNL     1      40.918 -24.789  -4.040  1.00  0.00     0.003 C 
HETATM    5  C8  UNL     1      41.828 -23.814  -4.823  1.00  0.00     0.011 C 
HETATM    6  C9  UNL     1      40.274 -24.069  -2.925  1.00  0.00     0.017 C 
HETATM    7  C10 UNL     1      40.114 -24.701  -1.607  1.00  0.00    -0.012 C 
HETATM    8  C11 UNL     1      38.683 -24.473  -1.052  1.00  0.00     0.090 C 
HETATM    9  C12 UNL     1      38.627 -24.957   0.353  1.00  0.00     0.136 C 
HETATM   10  O5  UNL     1      37.728 -24.817   1.099  1.00  0.00    -0.297 OA
HETATM   11  C13 UNL     1      39.909 -25.687   0.742  1.00  0.00     0.095 C 
HETATM   12  C14 UNL     1      39.912 -26.799  -0.335  1.00  0.00    -0.041 C 
HETATM   13  C19 UNL     1      40.258 -26.229  -1.632  1.00  0.00     0.018 C 
HETATM   14  C20 UNL     1      39.031 -26.601  -2.524  1.00  0.00     0.024 C 
HETATM   15  C21 UNL     1      40.944 -24.679   0.713  1.00  0.00    -0.022 C 
HETATM   16  C22 UNL     1      40.578 -23.709   1.870  1.00  0.00     0.017 C 
HETATM   17  C23 UNL     1      42.365 -24.962   0.995  1.00  0.00     0.011 C 
HETATM   18  C24 UNL     1      43.085 -23.786   0.333  1.00  0.00     0.002 C 
HETATM   19  C25 UNL     1      42.319 -23.582  -0.984  1.00  0.00     0.011 C 
HETATM   20  C26 UNL     1      40.929 -23.942  -0.607  1.00  0.00    -0.027 C 
HETATM   21  C27 UNL     1      40.284 -22.564  -0.377  1.00  0.00     0.017 C 
ENDROOT
BRANCH  12  22
HETATM   22  C15 UNL     1      40.347 -28.068   0.225  1.00  0.00     0.031 A 
HETATM   23  C16 UNL     1      41.460 -28.207   1.030  1.00  0.00     0.156 A 
HETATM   24  O6  UNL     1      41.563 -29.462   1.359  1.00  0.00    -0.331 OA
HETATM   25  C17 UNL     1      40.617 -30.181   0.848  1.00  0.00     0.184 A 
HETATM   26  C18 UNL     1      39.810 -29.324   0.113  1.00  0.00     0.150 A 
HETATM   27  F1  UNL     1      38.683 -29.726  -0.538  1.00  0.00    -0.203 F 
ENDBRANCH  12  22
BRANCH   1  28
HETATM   28  O2  UNL     1      42.621 -26.916  -2.071  1.00  0.00    -0.314 OA
BRANCH  28  29
HETATM   29  C2  UNL     1      43.631 -27.693  -1.770  1.00  0.00     0.255 C 
HETATM   30  C1  UNL     1      44.868 -27.573  -1.021  1.00  0.00     0.126 C 
HETATM   31  O1  UNL     1      43.333 -28.756  -2.319  1.00  0.00    -0.266 OA
ENDBRANCH  28  29
ENDBRANCH   1  28
BRANCH   2  32
HETATM   32  C6  UNL     1      41.155 -27.066  -4.944  1.00  0.00     0.184 C 
HETATM   33  O3  UNL     1      40.066 -27.035  -5.535  1.00  0.00    -0.647 OA
HETATM   34  O4  UNL     1      42.107 -27.990  -5.302  1.00  0.00    -0.647 OA
ENDBRANCH   2  32
TORSDOF 4
ENDMDL
MODEL 5
REMARK VINA RESULT: -6.332652308      1.903      5.266
REMARK  4 active torsions:
REMARK  status: ('A' for Active; 'I' for Inactive)
REMARK    1  A    between atoms: C2_2  and  O2_4 
REMARK    2  A    between atoms: O2_4  and  C3_5 
REMARK    3  A    between atoms: C4_6  and  C6_8 
REMARK    4  A    between atoms: C14_19  and  C15_20 
ROOT
HETATM    1  C3  UNL     1      38.975 -30.858  -0.246  1.00  0.00     0.164 C 
HETATM    2  C4  UNL     1      39.070 -29.607  -1.101  1.00  0.00     0.075 C 
HETATM    3  C5  UNL     1      39.728 -28.440  -0.295  1.00  0.00     0.030 C 
HETATM    4  C7  UNL     1      37.855 -29.016  -1.658  1.00  0.00     0.003 C 
HETATM    5  C8  UNL     1      37.756 -27.480  -1.509  1.00  0.00     0.011 C 
HETATM    6  C9  UNL     1      36.542 -29.621  -1.361  1.00  0.00     0.017 C 
HETATM    7  C10 UNL     1      36.442 -30.871  -0.591  1.00  0.00    -0.012 C 
HETATM    8  C11 UNL     1      35.446 -31.855  -1.259  1.00  0.00     0.090 C 
HETATM    9  C12 UNL     1      35.230 -33.013  -0.353  1.00  0.00     0.136 C 
HETATM   10  O5  UNL     1      34.441 -33.873  -0.503  1.00  0.00    -0.297 OA
HETATM   11  C13 UNL     1      36.179 -32.971   0.841  1.00  0.00     0.095 C 
HETATM   12  C14 UNL     1      37.536 -32.966   0.095  1.00  0.00    -0.041 C 
HETATM   13  C19 UNL     1      37.754 -31.664  -0.526  1.00  0.00     0.018 C 
HETATM   14  C20 UNL     1      37.933 -32.015  -2.037  1.00  0.00     0.024 C 
HETATM   15  C21 UNL     1      35.789 -31.801   1.595  1.00  0.00    -0.022 C 
HETATM   16  C22 UNL     1      34.369 -32.135   2.127  1.00  0.00     0.017 C 
HETATM   17  C23 UNL     1      36.475 -31.357   2.824  1.00  0.00     0.011 C 
HETATM   18  C24 UNL     1      36.086 -29.881   2.919  1.00  0.00     0.002 C 
HETATM   19  C25 UNL     1      36.161 -29.389   1.465  1.00  0.00     0.011 C 
HETATM   20  C26 UNL     1      35.735 -30.585   0.697  1.00  0.00    -0.027 C 
HETATM   21  C27 UNL     1      34.257 -30.277   0.401  1.00  0.00     0.017 C 
ENDROOT
BRANCH  12  22
HETATM   22  C15 UNL     1      38.509 -33.803   0.775  1.00  0.00     0.031 A 
HETATM   23  C16 UNL     1      39.472 -34.544   0.120  1.00  0.00     0.156 A 
HETATM   24  O6  UNL     1      40.175 -35.173   1.016  1.00  0.00    -0.331 OA
HETATM   25  C17 UNL     1      39.772 -34.920   2.219  1.00  0.00     0.184 A 
HETATM   26  C18 UNL     1      38.703 -34.041   2.111  1.00  0.00     0.150 A 
HETATM   27  F1  UNL     1      38.047 -33.521   3.185  1.00  0.00    -0.203 F 
ENDBRANCH  12  22
BRANCH   1  28
HETATM   28  O2  UNL     1      39.451 -30.506   0.899  1.00  0.00    -0.314 OA
BRANCH  28  29
HETATM   29  C2  UNL     1      40.370 -30.577   1.827  1.00  0.00     0.255 C 
HETATM   30  C1  UNL     1      40.753 -29.805   2.994  1.00  0.00     0.126 C 
HETATM   31  O1  UNL     1      40.996 -31.593   1.517  1.00  0.00    -0.266 OA
ENDBRANCH  28  29
ENDBRANCH   1  28
BRANCH   2  32
HETATM   32  C6  UNL     1      40.181 -29.664  -2.133  1.00  0.00     0.184 C 
HETATM   33  O3  UNL     1      40.008 -30.123  -3.271  1.00  0.00    -0.647 OA
HETATM   34  O4  UNL     1      41.415 -29.188  -1.762  1.00  0.00    -0.647 OA
ENDBRANCH   2  32
TORSDOF 4
ENDMDL
