MODEL 1
REMARK VINA RESULT: -6.697646142      0.000      0.000
REMARK  8 active torsions:
REMARK  status: ('A' for Active; 'I' for Inactive)
REMARK    1  A    between atoms: C2_2  and  C3_4 
REMARK    2  A    between atoms: C7_10  and  C8_11 
REMARK    3  A    between atoms: C9_12  and  C10_13 
REMARK    4  A    between atoms: C10_13  and  O2_14 
REMARK    5  A    between atoms: C10_13  and  C11_16 
REMARK    6  A    between atoms: C15_20  and  O3_21 
REMARK    7  A    between atoms: C16_23  and  O4_24 
REMARK    8  A    between atoms: N2_26  and  C17_27 
ROOT
HETATM    1  C3  UNL     1      18.398  -4.594  12.859  1.00  0.00     0.056 A 
HETATM    2  C4  UNL     1      19.563  -5.010  12.319  1.00  0.00     0.094 A 
HETATM    3  C5  UNL     1      20.691  -5.685  12.896  1.00  0.00     0.103 C 
HETATM    4  N1  UNL     1      21.591  -6.235  13.376  1.00  0.00    -0.191 NA
HETATM    5  C6  UNL     1      19.486  -4.638  10.967  1.00  0.00     0.103 A 
HETATM    6  S1  UNL     1      20.322  -4.661   9.469  1.00  0.00    -0.067 SA
HETATM    7  C7  UNL     1      19.165  -3.877   8.510  1.00  0.00     0.051 A 
HETATM    8  C22 UNL     1      18.163  -3.631   9.425  1.00  0.00     0.119 A 
HETATM    9  N3  UNL     1      18.361  -4.032  10.667  1.00  0.00    -0.317 N 
HETATM   10  C23 UNL     1      17.664  -3.998  11.856  1.00  0.00     0.028 A 
HETATM   11  C24 UNL     1      16.311  -3.422  12.108  1.00  0.00     0.070 C 
ENDROOT
BRANCH   1  12
HETATM   12  C2  UNL     1      18.034  -4.770  14.265  1.00  0.00     0.159 C 
HETATM   13  C1  UNL     1      18.442  -3.688  15.212  1.00  0.00     0.097 C 
HETATM   14  O1  UNL     1      17.407  -5.783  14.661  1.00  0.00    -0.293 OA
ENDBRANCH   1  12
BRANCH   7  15
HETATM   15  C8  UNL     1      19.188  -3.528   7.085  1.00  0.00     0.071 A 
HETATM   16  C9  UNL     1      18.299  -3.721   6.073  1.00  0.00     0.059 A 
HETATM   17  C15 UNL     1      18.913  -3.131   4.935  1.00  0.00     0.132 A 
HETATM   18  C16 UNL     1      20.100  -2.633   5.331  1.00  0.00     0.178 A 
HETATM   19  N2  UNL     1      20.303  -2.856   6.646  1.00  0.00    -0.319 N 
BRANCH  16  20
HETATM   20  C10 UNL     1      17.036  -4.392   6.017  1.00  0.00     0.066 C 
BRANCH  20  21
HETATM   21  O2  UNL     1      16.069  -3.559   5.591  1.00  0.00    -0.363 OA
ATOM     22  H2  UNL     1      15.469  -3.348   6.296  1.00  0.00     0.217 HD
ENDBRANCH  20  21
BRANCH  20  23
HETATM   23  C11 UNL     1      16.530  -5.719   6.302  1.00  0.00    -0.002 C 
HETATM   24  C12 UNL     1      15.233  -5.951   5.433  1.00  0.00     0.021 C 
HETATM   25  C13 UNL     1      17.432  -6.818   5.852  1.00  0.00     0.021 C 
HETATM   26  C14 UNL     1      16.042  -5.970   7.690  1.00  0.00     0.021 C 
ENDBRANCH  20  23
ENDBRANCH  16  20
BRANCH  17  27
HETATM   27  O3  UNL     1      18.378  -3.080   3.647  1.00  0.00    -0.356 OA
ATOM     28  H3  UNL     1      17.468  -2.920   3.426  1.00  0.00     0.218 HD
ENDBRANCH  17  27
BRANCH  18  29
HETATM   29  O4  UNL     1      20.970  -1.974   4.429  1.00  0.00    -0.344 OA
ATOM     30  H4  UNL     1      20.657  -1.305   3.831  1.00  0.00     0.219 HD
ENDBRANCH  18  29
BRANCH  19  31
HETATM   31  C17 UNL     1      21.458  -2.404   7.292  1.00  0.00     0.092 C 
HETATM   32  C18 UNL     1      21.750  -0.945   7.326  1.00  0.00     0.026 C 
HETATM   33  C19 UNL     1      23.146  -0.897   7.935  1.00  0.00     0.002 C 
HETATM   34  C20 UNL     1      23.542  -2.354   8.219  1.00  0.00     0.002 C 
HETATM   35  C21 UNL     1      22.780  -3.019   7.024  1.00  0.00     0.026 C 
ENDBRANCH  19  31
ENDBRANCH   7  15
TORSDOF 8
ENDMDL
MODEL 2
REMARK VINA RESULT: -6.563304705      1.650      2.369
REMARK  8 active torsions:
REMARK  status: ('A' for Active; 'I' for Inactive)
REMARK    1  A    between atoms: C2_2  and  C3_4 
REMARK    2  A    between atoms: C7_10  and  C8_11 
REMARK    3  A    between atoms: C9_12  and  C10_13 
REMARK    4  A    between atoms: C10_13  and  O2_14 
REMARK    5  A    between atoms: C10_13  and  C11_16 
REMARK    6  A    between atoms: C15_20  and  O3_21 
REMARK    7  A    between atoms: C16_23  and  O4_24 
REMARK    8  A    between atoms: N2_26  and  C17_27 
ROOT
HETATM    1  C3  UNL     1      18.987  -6.896  11.684  1.00  0.00     0.056 A 
HETATM    2  C4  UNL     1      18.696  -5.581  11.769  1.00  0.00     0.094 A 
HETATM    3  C5  UNL     1      18.431  -4.737  12.900  1.00  0.00     0.103 C 
HETATM    4  N1  UNL     1      18.224  -4.068  13.823  1.00  0.00    -0.191 NA
HETATM    5  C6  UNL     1      18.693  -5.126  10.440  1.00  0.00     0.103 A 
HETATM    6  S1  UNL     1      18.467  -3.749   9.442  1.00  0.00    -0.067 SA
HETATM    7  C7  UNL     1      18.733  -4.471   7.933  1.00  0.00     0.051 A 
HETATM    8  C22 UNL     1      18.991  -5.779   8.289  1.00  0.00     0.119 A 
HETATM    9  N3  UNL     1      18.962  -6.075   9.575  1.00  0.00    -0.317 N 
HETATM   10  C23 UNL     1      19.149  -7.201  10.350  1.00  0.00     0.028 A 
HETATM   11  C24 UNL     1      19.482  -8.581   9.893  1.00  0.00     0.070 C 
ENDROOT
BRANCH   1  12
HETATM   12  C2  UNL     1      19.097  -7.790  12.836  1.00  0.00     0.159 C 
HETATM   13  C1  UNL     1      20.423  -7.849  13.525  1.00  0.00     0.097 C 
HETATM   14  O1  UNL     1      18.125  -8.478  13.233  1.00  0.00    -0.293 OA
ENDBRANCH   1  12
BRANCH   7  15
HETATM   15  C8  UNL     1      18.700  -3.896   6.583  1.00  0.00     0.071 A 
HETATM   16  C9  UNL     1      17.753  -3.887   5.607  1.00  0.00     0.059 A 
HETATM   17  C15 UNL     1      18.336  -3.146   4.544  1.00  0.00     0.132 A 
HETATM   18  C16 UNL     1      19.566  -2.768   4.943  1.00  0.00     0.178 A 
HETATM   19  N2  UNL     1      19.824  -3.210   6.192  1.00  0.00    -0.319 N 
BRANCH  16  20
HETATM   20  C10 UNL     1      16.456  -4.486   5.519  1.00  0.00     0.066 C 
BRANCH  20  21
HETATM   21  O2  UNL     1      15.524  -3.570   5.200  1.00  0.00    -0.363 OA
ATOM     22  H2  UNL     1      14.963  -3.886   4.502  1.00  0.00     0.217 HD
ENDBRANCH  20  21
BRANCH  20  23
HETATM   23  C11 UNL     1      15.889  -5.809   5.688  1.00  0.00    -0.002 C 
HETATM   24  C12 UNL     1      15.400  -5.950   7.181  1.00  0.00     0.021 C 
HETATM   25  C13 UNL     1      14.638  -6.034   4.906  1.00  0.00     0.021 C 
HETATM   26  C14 UNL     1      16.821  -6.965   5.538  1.00  0.00     0.021 C 
ENDBRANCH  20  23
ENDBRANCH  16  20
BRANCH  17  27
HETATM   27  O3  UNL     1      17.739  -2.865   3.314  1.00  0.00    -0.356 OA
ATOM     28  H3  UNL     1      17.419  -2.017   3.028  1.00  0.00     0.218 HD
ENDBRANCH  17  27
BRANCH  18  29
HETATM   29  O4  UNL     1      20.420  -2.008   4.108  1.00  0.00    -0.344 OA
ATOM     30  H4  UNL     1      20.725  -1.144   4.359  1.00  0.00     0.219 HD
ENDBRANCH  18  29
BRANCH  19  31
HETATM   31  C17 UNL     1      21.032  -2.917   6.833  1.00  0.00     0.092 C 
HETATM   32  C18 UNL     1      21.321  -1.513   7.235  1.00  0.00     0.026 C 
HETATM   33  C19 UNL     1      22.767  -1.591   7.710  1.00  0.00     0.002 C 
HETATM   34  C20 UNL     1      23.193  -3.059   7.552  1.00  0.00     0.002 C 
HETATM   35  C21 UNL     1      22.326  -3.399   6.294  1.00  0.00     0.026 C 
ENDBRANCH  19  31
ENDBRANCH   7  15
TORSDOF 8
ENDMDL
MODEL 3
REMARK VINA RESULT: -6.353642915      2.968      7.916
REMARK  8 active torsions:
REMARK  status: ('A' for Active; 'I' for Inactive)
REMARK    1  A    between atoms: C2_2  and  C3_4 
REMARK    2  A    between atoms: C7_10  and  C8_11 
REMARK    3  A    between atoms: C9_12  and  C10_13 
REMARK    4  A    between atoms: C10_13  and  O2_14 
REMARK    5  A    between atoms: C10_13  and  C11_16 
REMARK    6  A    between atoms: C15_20  and  O3_21 
REMARK    7  A    between atoms: C16_23  and  O4_24 
REMARK    8  A    between atoms: N2_26  and  C17_27 
ROOT
HETATM    1  C3  UNL     1      19.360  -3.628   7.527  1.00  0.00     0.056 A 
HETATM    2  C4  UNL     1      18.156  -4.234   7.568  1.00  0.00     0.094 A 
HETATM    3  C5  UNL     1      17.049  -4.214   6.654  1.00  0.00     0.103 C 
HETATM    4  N1  UNL     1      16.167  -4.192   5.903  1.00  0.00    -0.191 NA
HETATM    5  C6  UNL     1      18.160  -4.961   8.770  1.00  0.00     0.103 A 
HETATM    6  S1  UNL     1      17.234  -6.010   9.764  1.00  0.00    -0.067 SA
HETATM    7  C7  UNL     1      18.349  -6.233  11.020  1.00  0.00     0.051 A 
HETATM    8  C22 UNL     1      19.411  -5.462  10.594  1.00  0.00     0.119 A 
HETATM    9  N3  UNL     1      19.278  -4.828   9.443  1.00  0.00    -0.317 N 
HETATM   10  C23 UNL     1      20.046  -3.987   8.667  1.00  0.00     0.028 A 
HETATM   11  C24 UNL     1      21.425  -3.489   8.945  1.00  0.00     0.070 C 
ENDROOT
BRANCH   1  12
HETATM   12  C2  UNL     1      19.804  -2.754   6.441  1.00  0.00     0.159 C 
HETATM   13  C1  UNL     1      20.108  -3.405   5.129  1.00  0.00     0.097 C 
HETATM   14  O1  UNL     1      19.927  -1.515   6.599  1.00  0.00    -0.293 OA
ENDBRANCH   1  12
BRANCH   7  15
HETATM   15  C8  UNL     1      18.249  -7.022  12.254  1.00  0.00     0.071 A 
HETATM   16  C9  UNL     1      18.434  -8.342  12.523  1.00  0.00     0.059 A 
HETATM   17  C15 UNL     1      18.199  -8.463  13.920  1.00  0.00     0.132 A 
HETATM   18  C16 UNL     1      17.897  -7.236  14.385  1.00  0.00     0.178 A 
HETATM   19  N2  UNL     1      17.919  -6.324  13.391  1.00  0.00    -0.319 N 
BRANCH  16  20
HETATM   20  C10 UNL     1      18.742  -9.461  11.685  1.00  0.00     0.066 C 
BRANCH  20  21
HETATM   21  O2  UNL     1      17.839 -10.445  11.848  1.00  0.00    -0.363 OA
ATOM     22  H2  UNL     1      17.124 -10.354  11.230  1.00  0.00     0.217 HD
ENDBRANCH  20  21
BRANCH  20  23
HETATM   23  C11 UNL     1      19.764  -9.810  10.720  1.00  0.00    -0.002 C 
HETATM   24  C12 UNL     1      21.156  -9.312  11.273  1.00  0.00     0.021 C 
HETATM   25  C13 UNL     1      19.975 -11.279  10.568  1.00  0.00     0.021 C 
HETATM   26  C14 UNL     1      19.686  -9.146   9.385  1.00  0.00     0.021 C 
ENDBRANCH  20  23
ENDBRANCH  16  20
BRANCH  17  27
HETATM   27  O3  UNL     1      18.271  -9.641  14.665  1.00  0.00    -0.356 OA
ATOM     28  H3  UNL     1      17.594 -10.303  14.730  1.00  0.00     0.218 HD
ENDBRANCH  17  27
BRANCH  18  29
HETATM   29  O4  UNL     1      17.604  -7.009  15.751  1.00  0.00    -0.344 OA
ATOM     30  H4  UNL     1      16.953  -6.373  16.024  1.00  0.00     0.219 HD
ENDBRANCH  18  29
BRANCH  19  31
HETATM   31  C17 UNL     1      17.663  -4.971  13.637  1.00  0.00     0.092 C 
HETATM   32  C18 UNL     1      18.483  -4.247  14.646  1.00  0.00     0.026 C 
HETATM   33  C19 UNL     1      17.780  -2.899  14.745  1.00  0.00     0.002 C 
HETATM   34  C20 UNL     1      16.602  -2.955  13.759  1.00  0.00     0.002 C 
HETATM   35  C21 UNL     1      16.287  -4.483  13.890  1.00  0.00     0.026 C 
ENDBRANCH  19  31
ENDBRANCH   7  15
TORSDOF 8
ENDMDL
MODEL 4
REMARK VINA RESULT: -6.350799031      3.335      7.133
REMARK  8 active torsions:
REMARK  status: ('A' for Active; 'I' for Inactive)
REMARK    1  A    between atoms: C2_2  and  C3_4 
REMARK    2  A    between atoms: C7_10  and  C8_11 
REMARK    3  A    between atoms: C9_12  and  C10_13 
REMARK    4  A    between atoms: C10_13  and  O2_14 
REMARK    5  A    between atoms: C10_13  and  C11_16 
REMARK    6  A    between atoms: C15_20  and  O3_21 
REMARK    7  A    between atoms: C16_23  and  O4_24 
REMARK    8  A    between atoms: N2_26  and  C17_27 
ROOT
HETATM    1  C3  UNL     1      14.160  -4.632   3.796  1.00  0.00     0.056 A 
HETATM    2  C4  UNL     1      14.354  -5.785   4.470  1.00  0.00     0.094 A 
HETATM    3  C5  UNL     1      13.698  -7.059   4.384  1.00  0.00     0.103 C 
HETATM    4  N1  UNL     1      13.161  -8.083   4.299  1.00  0.00    -0.191 NA
HETATM    5  C6  UNL     1      15.406  -5.509   5.358  1.00  0.00     0.103 A 
HETATM    6  S1  UNL     1      16.398  -6.178   6.589  1.00  0.00    -0.067 SA
HETATM    7  C7  UNL     1      17.353  -4.818   6.924  1.00  0.00     0.051 A 
HETATM    8  C22 UNL     1      16.840  -3.891   6.041  1.00  0.00     0.119 A 
HETATM    9  N3  UNL     1      15.849  -4.279   5.259  1.00  0.00    -0.317 N 
HETATM   10  C23 UNL     1      15.068  -3.713   4.274  1.00  0.00     0.028 A 
HETATM   11  C24 UNL     1      15.131  -2.320   3.743  1.00  0.00     0.070 C 
ENDROOT
BRANCH   1  12
HETATM   12  C2  UNL     1      13.150  -4.449   2.754  1.00  0.00     0.159 C 
HETATM   13  C1  UNL     1      13.594  -4.635   1.339  1.00  0.00     0.097 C 
HETATM   14  O1  UNL     1      11.963  -4.150   3.031  1.00  0.00    -0.293 OA
ENDBRANCH   1  12
BRANCH   7  15
HETATM   15  C8  UNL     1      18.440  -4.633   7.892  1.00  0.00     0.071 A 
HETATM   16  C9  UNL     1      18.672  -5.149   9.129  1.00  0.00     0.059 A 
HETATM   17  C15 UNL     1      19.912  -4.582   9.531  1.00  0.00     0.132 A 
HETATM   18  C16 UNL     1      20.332  -3.784   8.532  1.00  0.00     0.178 A 
HETATM   19  N2  UNL     1      19.455  -3.791   7.507  1.00  0.00    -0.319 N 
BRANCH  16  20
HETATM   20  C10 UNL     1      17.906  -6.022   9.967  1.00  0.00     0.066 C 
BRANCH  20  21
HETATM   21  O2  UNL     1      17.038  -5.325  10.721  1.00  0.00    -0.363 OA
ATOM     22  H2  UNL     1      16.142  -5.526  10.479  1.00  0.00     0.217 HD
ENDBRANCH  20  21
BRANCH  20  23
HETATM   23  C11 UNL     1      17.828  -7.447  10.217  1.00  0.00    -0.002 C 
HETATM   24  C12 UNL     1      18.890  -8.169   9.299  1.00  0.00     0.021 C 
HETATM   25  C13 UNL     1      18.254  -7.843  11.590  1.00  0.00     0.021 C 
HETATM   26  C14 UNL     1      16.554  -8.128   9.841  1.00  0.00     0.021 C 
ENDBRANCH  20  23
ENDBRANCH  16  20
BRANCH  17  27
HETATM   27  O3  UNL     1      20.568  -4.815  10.741  1.00  0.00    -0.356 OA
ATOM     28  H3  UNL     1      21.436  -5.186  10.844  1.00  0.00     0.218 HD
ENDBRANCH  17  27
BRANCH  18  29
HETATM   29  O4  UNL     1      21.547  -3.061   8.616  1.00  0.00    -0.344 OA
ATOM     30  H4  UNL     1      22.068  -2.869   7.845  1.00  0.00     0.219 HD
ENDBRANCH  18  29
BRANCH  19  31
HETATM   31  C17 UNL     1      19.690  -3.056   6.340  1.00  0.00     0.092 C 
HETATM   32  C18 UNL     1      20.525  -3.650   5.261  1.00  0.00     0.026 C 
HETATM   33  C19 UNL     1      20.689  -2.491   4.286  1.00  0.00     0.002 C 
HETATM   34  C20 UNL     1      19.911  -1.310   4.888  1.00  0.00     0.002 C 
HETATM   35  C21 UNL     1      20.147  -1.646   6.398  1.00  0.00     0.026 C 
ENDBRANCH  19  31
ENDBRANCH   7  15
TORSDOF 8
ENDMDL
MODEL 5
REMARK VINA RESULT: -6.337885886      0.941      4.510
REMARK  8 active torsions:
REMARK  status: ('A' for Active; 'I' for Inactive)
REMARK    1  A    between atoms: C2_2  and  C3_4 
REMARK    2  A    between atoms: C7_10  and  C8_11 
REMARK    3  A    between atoms: C9_12  and  C10_13 
REMARK    4  A    between atoms: C10_13  and  O2_14 
REMARK    5  A    between atoms: C10_13  and  C11_16 
REMARK    6  A    between atoms: C15_20  and  O3_21 
REMARK    7  A    between atoms: C16_23  and  O4_24 
REMARK    8  A    between atoms: N2_26  and  C17_27 
ROOT
HETATM    1  C3  UNL     1      18.491  -4.783  12.478  1.00  0.00     0.056 A 
HETATM    2  C4  UNL     1      19.674  -5.151  11.946  1.00  0.00     0.094 A 
HETATM    3  C5  UNL     1      20.770  -5.902  12.490  1.00  0.00     0.103 C 
HETATM    4  N1  UNL     1      21.643  -6.515  12.944  1.00  0.00    -0.191 NA
HETATM    5  C6  UNL     1      19.661  -4.628  10.642  1.00  0.00     0.103 A 
HETATM    6  S1  UNL     1      20.563  -4.493   9.189  1.00  0.00    -0.067 SA
HETATM    7  C7  UNL     1      19.457  -3.590   8.276  1.00  0.00     0.051 A 
HETATM    8  C22 UNL     1      18.417  -3.435   9.169  1.00  0.00     0.119 A 
HETATM    9  N3  UNL     1      18.557  -3.977  10.365  1.00  0.00    -0.317 N 
HETATM   10  C23 UNL     1      17.807  -4.068  11.518  1.00  0.00     0.028 A 
HETATM   11  C24 UNL     1      16.449  -3.506  11.775  1.00  0.00     0.070 C 
ENDROOT
BRANCH   1  12
HETATM   12  C2  UNL     1      18.062  -5.112  13.837  1.00  0.00     0.159 C 
HETATM   13  C1  UNL     1      18.417  -4.138  14.915  1.00  0.00     0.097 C 
HETATM   14  O1  UNL     1      17.425  -6.163  14.092  1.00  0.00    -0.293 OA
ENDBRANCH   1  12
BRANCH   7  15
HETATM   15  C8  UNL     1      19.547  -3.082   6.902  1.00  0.00     0.071 A 
HETATM   16  C9  UNL     1      20.410  -2.228   6.288  1.00  0.00     0.059 A 
HETATM   17  C15 UNL     1      19.958  -2.163   4.942  1.00  0.00     0.132 A 
HETATM   18  C16 UNL     1      18.881  -2.965   4.840  1.00  0.00     0.178 A 
HETATM   19  N2  UNL     1      18.599  -3.548   6.023  1.00  0.00    -0.319 N 
BRANCH  16  20
HETATM   20  C10 UNL     1      21.518  -1.464   6.776  1.00  0.00     0.066 C 
BRANCH  20  21
HETATM   21  O2  UNL     1      21.215  -0.154   6.822  1.00  0.00    -0.363 OA
ATOM     22  H2  UNL     1      20.276  -0.026   6.876  1.00  0.00     0.217 HD
ENDBRANCH  20  21
BRANCH  20  23
HETATM   23  C11 UNL     1      22.870  -1.730   7.223  1.00  0.00    -0.002 C 
HETATM   24  C12 UNL     1      23.294  -3.155   6.694  1.00  0.00     0.021 C 
HETATM   25  C13 UNL     1      23.894  -0.832   6.615  1.00  0.00     0.021 C 
HETATM   26  C14 UNL     1      23.081  -1.852   8.696  1.00  0.00     0.021 C 
ENDBRANCH  20  23
ENDBRANCH  16  20
BRANCH  17  27
HETATM   27  O3  UNL     1      20.532  -1.406   3.919  1.00  0.00    -0.356 OA
ATOM     28  H3  UNL     1      21.354  -1.590   3.481  1.00  0.00     0.218 HD
ENDBRANCH  17  27
BRANCH  18  29
HETATM   29  O4  UNL     1      18.186  -3.126   3.617  1.00  0.00    -0.344 OA
ATOM     30  H4  UNL     1      18.114  -3.971   3.190  1.00  0.00     0.219 HD
ENDBRANCH  18  29
BRANCH  19  31
HETATM   31  C17 UNL     1      17.536  -4.447   6.158  1.00  0.00     0.092 C 
HETATM   32  C18 UNL     1      17.708  -5.851   5.696  1.00  0.00     0.026 C 
HETATM   33  C19 UNL     1      16.304  -6.426   5.840  1.00  0.00     0.002 C 
HETATM   34  C20 UNL     1      15.430  -5.291   6.396  1.00  0.00     0.002 C 
HETATM   35  C21 UNL     1      16.169  -4.095   5.706  1.00  0.00     0.026 C 
ENDBRANCH  19  31
ENDBRANCH   7  15
TORSDOF 8
ENDMDL
