MODEL 1
REMARK VINA RESULT: -8.124438287      0.000      0.000
REMARK  7 active torsions:
REMARK  status: ('A' for Active; 'I' for Inactive)
REMARK    1  A    between atoms: C3_5  and  C4_6 
REMARK       I    between atoms: C4_6  and  N2_8 
REMARK    2  A    between atoms: N2_8  and  N3_10 
REMARK    3  A    between atoms: C5_12  and  C6_13 
REMARK    4  A    between atoms: C7_14  and  O2_15 
REMARK    5  A    between atoms: N4_17  and  O3_18 
REMARK    6  A    between atoms: O3_18  and  N5_19 
REMARK    7  A    between atoms: N6_27  and  N7_28 
ROOT
HETATM    1  N1  UNL     1      -2.745  -3.310  11.111  1.00  0.00    -0.190 NA
HETATM    2  C1  UNL     1      -2.919  -2.187  11.256  1.00  0.00     0.112 C 
HETATM    3  C2  UNL     1      -3.134  -0.761  11.465  1.00  0.00     0.119 C 
HETATM    4 CL1  UNL     1      -4.355  -0.210  12.587  1.00  0.00    -0.072 Cl
HETATM    5  C3  UNL     1      -2.406   0.094  10.806  1.00  0.00     0.111 C 
ENDROOT
BRANCH   5   6
HETATM    6  C4  UNL     1      -2.581   1.543  10.979  1.00  0.00     0.262 C 
HETATM    7  O1  UNL     1      -3.590   2.136  10.534  1.00  0.00    -0.267 OA
HETATM    8  N2  UNL     1      -1.593   2.345  11.668  1.00  0.00    -0.267 N 
ATOM      9  H2  UNL     1      -0.759   1.890  12.040  1.00  0.00     0.190 HD
BRANCH   8  10
HETATM   10  N3  UNL     1      -1.738   3.636  11.829  1.00  0.00    -0.307 N 
HETATM   11  C5  UNL     1      -2.309   4.627  12.201  1.00  0.00     0.143 C 
ATOM     12  H3  UNL     1      -0.893   4.012  11.397  1.00  0.00     0.186 HD
BRANCH  11  13
HETATM   13  C6  UNL     1      -3.577   4.727  12.890  1.00  0.00     0.131 A 
HETATM   14  C7  UNL     1      -4.122   3.800  13.788  1.00  0.00     0.205 A 
HETATM   15  N4  UNL     1      -5.312   4.243  14.218  1.00  0.00    -0.123 N 
HETATM   16  C12 UNL     1      -5.557   5.416  13.635  1.00  0.00     0.376 A 
HETATM   17  O5  UNL     1      -6.573   6.121  13.800  1.00  0.00    -0.242 OA
HETATM   18  N6  UNL     1      -4.502   5.718  12.823  1.00  0.00    -0.204 N 
BRANCH  14  19
HETATM   19  O2  UNL     1      -3.474   2.613  14.140  1.00  0.00    -0.343 OA
ATOM     20  H2  UNL     1      -3.433   1.857  13.566  1.00  0.00     0.219 HD
ENDBRANCH  14  19
BRANCH  15  21
HETATM   21  O3  UNL     1      -6.100   3.578  15.097  1.00  0.00    -0.169 OA
BRANCH  21  22
HETATM   22  N5  UNL     1      -5.690   3.011  16.261  1.00  0.00    -0.167 NA
HETATM   23  C8  UNL     1      -5.272   1.653  15.996  1.00  0.00     0.149 C 
HETATM   24  C9  UNL     1      -5.545   0.733  17.171  1.00  0.00     0.184 C 
HETATM   25  O4  UNL     1      -6.896   0.582  17.386  1.00  0.00    -0.389 OA
HETATM   26  C10 UNL     1      -7.580   1.700  16.940  1.00  0.00     0.184 C 
HETATM   27  C11 UNL     1      -6.796   2.976  17.178  1.00  0.00     0.149 C 
ENDBRANCH  21  22
ENDBRANCH  15  21
BRANCH  18  28
HETATM   28  N7  UNL     1      -4.456   6.892  12.069  1.00  0.00    -0.334 N 
ATOM     29  H72 UNL     1      -4.033   6.926  11.141  1.00  0.00     0.177 HD
ATOM     30  H71 UNL     1      -4.812   7.816  12.317  1.00  0.00     0.177 HD
ENDBRANCH  18  28
ENDBRANCH  11  13
ENDBRANCH   8  10
ENDBRANCH   5   6
TORSDOF 7
ENDMDL
MODEL 2
REMARK VINA RESULT: -7.537411984      4.679      8.020
REMARK  7 active torsions:
REMARK  status: ('A' for Active; 'I' for Inactive)
REMARK    1  A    between atoms: C3_5  and  C4_6 
REMARK       I    between atoms: C4_6  and  N2_8 
REMARK    2  A    between atoms: N2_8  and  N3_10 
REMARK    3  A    between atoms: C5_12  and  C6_13 
REMARK    4  A    between atoms: C7_14  and  O2_15 
REMARK    5  A    between atoms: N4_17  and  O3_18 
REMARK    6  A    between atoms: O3_18  and  N5_19 
REMARK    7  A    between atoms: N6_27  and  N7_28 
ROOT
HETATM    1  N1  UNL     1      -4.934   0.831  17.133  1.00  0.00    -0.190 NA
HETATM    2  C1  UNL     1      -4.786   1.451  16.182  1.00  0.00     0.112 C 
HETATM    3  C2  UNL     1      -4.575   2.247  14.980  1.00  0.00     0.119 C 
HETATM    4 CL1  UNL     1      -4.380   3.980  15.094  1.00  0.00    -0.072 Cl
HETATM    5  C3  UNL     1      -4.534   1.651  13.823  1.00  0.00     0.111 C 
ENDROOT
BRANCH   5   6
HETATM    6  C4  UNL     1      -4.324   2.405  12.578  1.00  0.00     0.262 C 
HETATM    7  O1  UNL     1      -5.277   2.687  11.818  1.00  0.00    -0.267 OA
HETATM    8  N2  UNL     1      -3.007   2.852  12.181  1.00  0.00    -0.267 N 
ATOM      9  H2  UNL     1      -2.210   2.636  12.780  1.00  0.00     0.190 HD
BRANCH   8  10
HETATM   10  N3  UNL     1      -2.806   3.525  11.076  1.00  0.00    -0.307 N 
HETATM   11  C5  UNL     1      -2.128   4.048  10.232  1.00  0.00     0.143 C 
ATOM     12  H3  UNL     1      -3.755   3.708  10.749  1.00  0.00     0.186 HD
BRANCH  11  13
HETATM   13  C6  UNL     1      -0.685   4.120  10.155  1.00  0.00     0.131 A 
HETATM   14  C7  UNL     1       0.201   4.363  11.212  1.00  0.00     0.205 A 
HETATM   15  N4  UNL     1       1.460   4.355  10.748  1.00  0.00    -0.123 N 
HETATM   16  C12 UNL     1       1.420   4.116   9.438  1.00  0.00     0.376 A 
HETATM   17  O5  UNL     1       2.405   4.037   8.675  1.00  0.00    -0.242 OA
HETATM   18  N6  UNL     1       0.114   3.972   9.068  1.00  0.00    -0.204 N 
BRANCH  14  19
HETATM   19  O2  UNL     1      -0.224   4.575  12.526  1.00  0.00    -0.343 OA
ATOM     20  H2  UNL     1       0.362   4.857  13.219  1.00  0.00     0.219 HD
ENDBRANCH  14  19
BRANCH  15  21
HETATM   21  O3  UNL     1       2.557   4.559  11.518  1.00  0.00    -0.169 OA
BRANCH  21  22
HETATM   22  N5  UNL     1       2.835   5.685  12.222  1.00  0.00    -0.167 NA
HETATM   23  C8  UNL     1       2.890   6.804  11.308  1.00  0.00     0.149 C 
HETATM   24  C9  UNL     1       3.889   7.855  11.754  1.00  0.00     0.184 C 
HETATM   25  O4  UNL     1       5.177   7.377  11.700  1.00  0.00    -0.389 OA
HETATM   26  C10 UNL     1       5.185   6.002  11.863  1.00  0.00     0.184 C 
HETATM   27  C11 UNL     1       4.123   5.541  12.843  1.00  0.00     0.149 C 
ENDBRANCH  21  22
ENDBRANCH  15  21
BRANCH  18  28
HETATM   28  N7  UNL     1      -0.261   3.710   7.749  1.00  0.00    -0.334 N 
ATOM     29  H72 UNL     1      -0.699   2.831   7.473  1.00  0.00     0.177 HD
ATOM     30  H71 UNL     1      -0.160   4.314   6.933  1.00  0.00     0.177 HD
ENDBRANCH  18  28
ENDBRANCH  11  13
ENDBRANCH   8  10
ENDBRANCH   5   6
TORSDOF 7
ENDMDL
MODEL 3
REMARK VINA RESULT: -7.463291951      2.280      5.664
REMARK  7 active torsions:
REMARK  status: ('A' for Active; 'I' for Inactive)
REMARK    1  A    between atoms: C3_5  and  C4_6 
REMARK       I    between atoms: C4_6  and  N2_8 
REMARK    2  A    between atoms: N2_8  and  N3_10 
REMARK    3  A    between atoms: C5_12  and  C6_13 
REMARK    4  A    between atoms: C7_14  and  O2_15 
REMARK    5  A    between atoms: N4_17  and  O3_18 
REMARK    6  A    between atoms: O3_18  and  N5_19 
REMARK    7  A    between atoms: N6_27  and  N7_28 
ROOT
HETATM    1  N1  UNL     1      -6.947   1.949  17.996  1.00  0.00    -0.190 NA
HETATM    2  C1  UNL     1      -6.494   2.536  17.123  1.00  0.00     0.112 C 
HETATM    3  C2  UNL     1      -5.928   3.266  15.997  1.00  0.00     0.119 C 
HETATM    4 CL1  UNL     1      -4.879   2.456  14.859  1.00  0.00    -0.072 Cl
HETATM    5  C3  UNL     1      -6.216   4.528  15.849  1.00  0.00     0.111 C 
ENDROOT
BRANCH   5   6
HETATM    6  C4  UNL     1      -5.674   5.312  14.730  1.00  0.00     0.262 C 
HETATM    7  O1  UNL     1      -6.233   5.324  13.611  1.00  0.00    -0.267 OA
HETATM    8  N2  UNL     1      -4.471   6.102  14.877  1.00  0.00    -0.267 N 
ATOM      9  H2  UNL     1      -3.991   6.111  15.777  1.00  0.00     0.190 HD
BRANCH   8  10
HETATM   10  N3  UNL     1      -3.977   6.805  13.888  1.00  0.00    -0.307 N 
HETATM   11  C5  UNL     1      -3.558   6.963  12.772  1.00  0.00     0.143 C 
ATOM     12  H3  UNL     1      -3.912   7.740  14.289  1.00  0.00     0.186 HD
BRANCH  11  13
HETATM   13  C6  UNL     1      -3.407   5.981  11.721  1.00  0.00     0.131 A 
HETATM   14  C7  UNL     1      -2.999   4.649  11.868  1.00  0.00     0.205 A 
HETATM   15  N4  UNL     1      -2.981   4.054  10.666  1.00  0.00    -0.123 N 
HETATM   16  C12 UNL     1      -3.360   4.947   9.753  1.00  0.00     0.376 A 
HETATM   17  O5  UNL     1      -3.460   4.745   8.525  1.00  0.00    -0.242 OA
HETATM   18  N6  UNL     1      -3.622   6.126  10.389  1.00  0.00    -0.204 N 
BRANCH  14  19
HETATM   19  O2  UNL     1      -2.674   4.086  13.105  1.00  0.00    -0.343 OA
ATOM     20  H2  UNL     1      -3.296   3.593  13.628  1.00  0.00     0.219 HD
ENDBRANCH  14  19
BRANCH  15  21
HETATM   21  O3  UNL     1      -2.629   2.761  10.462  1.00  0.00    -0.169 OA
BRANCH  21  22
HETATM   22  N5  UNL     1      -2.754   1.752  11.360  1.00  0.00    -0.167 NA
HETATM   23  C8  UNL     1      -2.130   0.566  10.820  1.00  0.00     0.149 C 
HETATM   24  C9  UNL     1      -2.827  -0.703  11.274  1.00  0.00     0.184 C 
HETATM   25  O4  UNL     1      -4.100  -0.787  10.759  1.00  0.00    -0.389 OA
HETATM   26  C10 UNL     1      -4.604   0.480  10.518  1.00  0.00     0.184 C 
HETATM   27  C11 UNL     1      -4.150   1.479  11.565  1.00  0.00     0.149 C 
ENDBRANCH  21  22
ENDBRANCH  15  21
BRANCH  18  28
HETATM   28  N7  UNL     1      -4.045   7.264   9.701  1.00  0.00    -0.334 N 
ATOM     29  H72 UNL     1      -3.412   7.815   9.121  1.00  0.00     0.177 HD
ATOM     30  H71 UNL     1      -4.977   7.679   9.680  1.00  0.00     0.177 HD
ENDBRANCH  18  28
ENDBRANCH  11  13
ENDBRANCH   8  10
ENDBRANCH   5   6
TORSDOF 7
ENDMDL
MODEL 4
REMARK VINA RESULT: -7.388122697      3.880      6.825
REMARK  7 active torsions:
REMARK  status: ('A' for Active; 'I' for Inactive)
REMARK    1  A    between atoms: C3_5  and  C4_6 
REMARK       I    between atoms: C4_6  and  N2_8 
REMARK    2  A    between atoms: N2_8  and  N3_10 
REMARK    3  A    between atoms: C5_12  and  C6_13 
REMARK    4  A    between atoms: C7_14  and  O2_15 
REMARK    5  A    between atoms: N4_17  and  O3_18 
REMARK    6  A    between atoms: O3_18  and  N5_19 
REMARK    7  A    between atoms: N6_27  and  N7_28 
ROOT
HETATM    1  N1  UNL     1      -7.223   0.921  17.449  1.00  0.00    -0.190 NA
HETATM    2  C1  UNL     1      -6.580   1.622  16.811  1.00  0.00     0.112 C 
HETATM    3  C2  UNL     1      -5.763   2.530  16.017  1.00  0.00     0.119 C 
HETATM    4 CL1  UNL     1      -6.385   4.094  15.550  1.00  0.00    -0.072 Cl
HETATM    5  C3  UNL     1      -4.565   2.161  15.664  1.00  0.00     0.111 C 
ENDROOT
BRANCH   5   6
HETATM    6  C4  UNL     1      -3.697   3.038  14.864  1.00  0.00     0.262 C 
HETATM    7  O1  UNL     1      -3.076   3.991  15.385  1.00  0.00    -0.267 OA
HETATM    8  N2  UNL     1      -3.528   2.836  13.442  1.00  0.00    -0.267 N 
ATOM      9  H2  UNL     1      -4.022   2.068  12.988  1.00  0.00     0.190 HD
BRANCH   8  10
HETATM   10  N3  UNL     1      -2.758   3.610  12.718  1.00  0.00    -0.307 N 
HETATM   11  C5  UNL     1      -2.520   4.568  12.031  1.00  0.00     0.143 C 
ATOM     12  H3  UNL     1      -1.857   3.134  12.761  1.00  0.00     0.186 HD
BRANCH  11  13
HETATM   13  C6  UNL     1      -3.421   5.621  11.614  1.00  0.00     0.131 A 
HETATM   14  C7  UNL     1      -4.551   5.485  10.798  1.00  0.00     0.205 A 
HETATM   15  N4  UNL     1      -5.129   6.685  10.636  1.00  0.00    -0.123 N 
HETATM   16  C12 UNL     1      -4.420   7.586  11.314  1.00  0.00     0.376 A 
HETATM   17  O5  UNL     1      -4.664   8.807  11.391  1.00  0.00    -0.242 OA
HETATM   18  N6  UNL     1      -3.375   6.943  11.914  1.00  0.00    -0.204 N 
BRANCH  14  19
HETATM   19  O2  UNL     1      -4.960   4.260  10.264  1.00  0.00    -0.343 OA
ATOM     20  H2  UNL     1      -4.365   3.665   9.822  1.00  0.00     0.219 HD
ENDBRANCH  14  19
BRANCH  15  21
HETATM   21  O3  UNL     1      -6.246   6.898   9.898  1.00  0.00    -0.169 OA
BRANCH  21  22
HETATM   22  N5  UNL     1      -6.409   6.574   8.591  1.00  0.00    -0.167 NA
HETATM   23  C8  UNL     1      -5.502   7.371   7.796  1.00  0.00     0.149 C 
HETATM   24  C9  UNL     1      -6.075   7.695   6.429  1.00  0.00     0.184 C 
HETATM   25  O4  UNL     1      -7.172   8.519   6.528  1.00  0.00    -0.389 OA
HETATM   26  C10 UNL     1      -7.802   8.334   7.747  1.00  0.00     0.184 C 
HETATM   27  C11 UNL     1      -7.755   6.886   8.196  1.00  0.00     0.149 C 
ENDBRANCH  21  22
ENDBRANCH  15  21
BRANCH  18  28
HETATM   28  N7  UNL     1      -2.443   7.618  12.704  1.00  0.00    -0.334 N 
ATOM     29  H72 UNL     1      -2.478   8.629  12.843  1.00  0.00     0.177 HD
ATOM     30  H71 UNL     1      -1.651   7.230  13.218  1.00  0.00     0.177 HD
ENDBRANCH  18  28
ENDBRANCH  11  13
ENDBRANCH   8  10
ENDBRANCH   5   6
TORSDOF 7
ENDMDL
MODEL 5
REMARK VINA RESULT: -7.383892185      5.141      8.921
REMARK  7 active torsions:
REMARK  status: ('A' for Active; 'I' for Inactive)
REMARK    1  A    between atoms: C3_5  and  C4_6 
REMARK       I    between atoms: C4_6  and  N2_8 
REMARK    2  A    between atoms: N2_8  and  N3_10 
REMARK    3  A    between atoms: C5_12  and  C6_13 
REMARK    4  A    between atoms: C7_14  and  O2_15 
REMARK    5  A    between atoms: N4_17  and  O3_18 
REMARK    6  A    between atoms: O3_18  and  N5_19 
REMARK    7  A    between atoms: N6_27  and  N7_28 
ROOT
HETATM    1  N1  UNL     1      -4.965   0.455  16.624  1.00  0.00    -0.190 NA
HETATM    2  C1  UNL     1      -4.746   1.231  15.811  1.00  0.00     0.112 C 
HETATM    3  C2  UNL     1      -4.443   2.223  14.786  1.00  0.00     0.119 C 
HETATM    4 CL1  UNL     1      -4.124   3.881  15.233  1.00  0.00    -0.072 Cl
HETATM    5  C3  UNL     1      -4.414   1.855  13.537  1.00  0.00     0.111 C 
ENDROOT
BRANCH   5   6
HETATM    6  C4  UNL     1      -4.114   2.814  12.464  1.00  0.00     0.262 C 
HETATM    7  O1  UNL     1      -5.023   3.321  11.769  1.00  0.00    -0.267 OA
HETATM    8  N2  UNL     1      -2.755   3.209  12.165  1.00  0.00    -0.267 N 
ATOM      9  H2  UNL     1      -1.992   2.812  12.713  1.00  0.00     0.190 HD
BRANCH   8  10
HETATM   10  N3  UNL     1      -2.474   4.062  11.211  1.00  0.00    -0.307 N 
HETATM   11  C5  UNL     1      -1.739   4.651  10.463  1.00  0.00     0.143 C 
ATOM     12  H3  UNL     1      -3.391   4.437  10.968  1.00  0.00     0.186 HD
BRANCH  11  13
HETATM   13  C6  UNL     1      -0.302   4.539  10.343  1.00  0.00     0.131 A 
HETATM   14  C7  UNL     1       0.409   3.896   9.321  1.00  0.00     0.205 A 
HETATM   15  N4  UNL     1       1.724   4.006   9.558  1.00  0.00    -0.123 N 
HETATM   16  C12 UNL     1       1.890   4.692  10.687  1.00  0.00     0.376 A 
HETATM   17  O5  UNL     1       2.982   4.986  11.215  1.00  0.00    -0.242 OA
HETATM   18  N6  UNL     1       0.657   5.021  11.173  1.00  0.00    -0.204 N 
BRANCH  14  19
HETATM   19  O2  UNL     1      -0.216   3.256   8.248  1.00  0.00    -0.343 OA
ATOM     20  H2  UNL     1      -0.563   3.725   7.497  1.00  0.00     0.219 HD
ENDBRANCH  14  19
BRANCH  15  21
HETATM   21  O3  UNL     1       2.688   3.490   8.756  1.00  0.00    -0.169 OA
BRANCH  21  22
HETATM   22  N5  UNL     1       3.413   4.180   7.840  1.00  0.00    -0.167 NA
HETATM   23  C8  UNL     1       2.914   3.869   6.519  1.00  0.00     0.149 C 
HETATM   24  C9  UNL     1       4.012   3.899   5.473  1.00  0.00     0.184 C 
HETATM   25  O4  UNL     1       4.929   2.894   5.679  1.00  0.00    -0.389 OA
HETATM   26  C10 UNL     1       4.972   2.553   7.020  1.00  0.00     0.184 C 
HETATM   27  C11 UNL     1       4.785   3.761   7.918  1.00  0.00     0.149 C 
ENDBRANCH  21  22
ENDBRANCH  15  21
BRANCH  18  28
HETATM   28  N7  UNL     1       0.493   5.748  12.353  1.00  0.00    -0.334 N 
ATOM     29  H72 UNL     1       0.712   5.355  13.269  1.00  0.00     0.177 HD
ATOM     30  H71 UNL     1       0.155   6.705  12.463  1.00  0.00     0.177 HD
ENDBRANCH  18  28
ENDBRANCH  11  13
ENDBRANCH   8  10
ENDBRANCH   5   6
TORSDOF 7
ENDMDL
