MODEL 1
REMARK VINA RESULT: -5.903125926      0.000      0.000
REMARK  4 active torsions:
REMARK  status: ('A' for Active; 'I' for Inactive)
REMARK    1  A    between atoms: C2_2  and  N1_4 
REMARK    2  A    between atoms: C2_2  and  N2_8 
REMARK    3  A    between atoms: N2_8  and  C4_10 
REMARK    4  A    between atoms: C4_10  and  C7_13 
ROOT
HETATM    1  N2  UNL     1     -38.746 -14.540   4.572  1.00  0.00    -0.383 N 
ATOM      2  H2  UNL     1     -38.111 -14.967   3.899  1.00  0.00     0.156 HD
ENDROOT
BRANCH   1   3
HETATM    3  C2  UNL     1     -40.030 -14.560   4.137  1.00  0.00     0.185 C 
HETATM    4  C1  UNL     1     -40.315 -16.061   3.760  1.00  0.00     0.070 C 
HETATM    5  C3  UNL     1     -40.304 -13.858   2.815  1.00  0.00     0.070 C 
BRANCH   3   6
HETATM    6  N1  UNL     1     -41.136 -14.276   4.998  1.00  0.00    -0.054 N 
ATOM      7  H13 UNL     1     -41.743 -13.515   4.693  1.00  0.00     0.277 HD
ATOM      8  H12 UNL     1     -41.874 -14.980   5.009  1.00  0.00     0.277 HD
ATOM      9  H11 UNL     1     -40.661 -14.126   5.888  1.00  0.00     0.277 HD
ENDBRANCH   3   6
ENDBRANCH   1   3
BRANCH   1  10
HETATM   10  C4  UNL     1     -38.088 -14.097   5.675  1.00  0.00     0.024 C 
HETATM   11  C5  UNL     1     -38.902 -13.028   6.382  1.00  0.00     0.038 C 
HETATM   12  C6  UNL     1     -38.271 -15.276   6.805  1.00  0.00     0.038 C 
BRANCH  10  13
HETATM   13  C7  UNL     1     -36.661 -13.803   5.775  1.00  0.00     0.012 C 
HETATM   14  C8  UNL     1     -35.726 -14.840   6.319  1.00  0.00     0.007 C 
HETATM   15  C9  UNL     1     -34.392 -14.059   6.308  1.00  0.00     0.000 C 
HETATM   16  C10 UNL     1     -34.737 -12.598   6.197  1.00  0.00     0.000 C 
HETATM   17  C11 UNL     1     -36.248 -12.573   6.543  1.00  0.00     0.007 C 
ENDBRANCH  10  13
ENDBRANCH   1  10
TORSDOF 4
ENDMDL
MODEL 2
REMARK VINA RESULT: -5.710062867      2.028      3.419
REMARK  4 active torsions:
REMARK  status: ('A' for Active; 'I' for Inactive)
REMARK    1  A    between atoms: C2_2  and  N1_4 
REMARK    2  A    between atoms: C2_2  and  N2_8 
REMARK    3  A    between atoms: N2_8  and  C4_10 
REMARK    4  A    between atoms: C4_10  and  C7_13 
ROOT
HETATM    1  N2  UNL     1     -41.580 -14.703   5.147  1.00  0.00    -0.383 N 
ATOM      2  H2  UNL     1     -42.231 -13.919   5.140  1.00  0.00     0.156 HD
ENDROOT
BRANCH   1   3
HETATM    3  C2  UNL     1     -42.067 -15.754   5.853  1.00  0.00     0.185 C 
HETATM    4  C1  UNL     1     -43.499 -15.309   6.325  1.00  0.00     0.070 C 
HETATM    5  C3  UNL     1     -41.386 -16.045   7.183  1.00  0.00     0.070 C 
BRANCH   3   6
HETATM    6  N1  UNL     1     -42.355 -17.017   5.247  1.00  0.00    -0.054 N 
ATOM      7  H13 UNL     1     -41.562 -17.480   4.802  1.00  0.00     0.277 HD
ATOM      8  H12 UNL     1     -42.552 -17.779   5.896  1.00  0.00     0.277 HD
ATOM      9  H11 UNL     1     -43.121 -16.766   4.622  1.00  0.00     0.277 HD
ENDBRANCH   3   6
ENDBRANCH   1   3
BRANCH   1  10
HETATM   10  C4  UNL     1     -40.449 -14.427   4.448  1.00  0.00     0.024 C 
HETATM   11  C5  UNL     1     -40.386 -15.275   3.190  1.00  0.00     0.038 C 
HETATM   12  C6  UNL     1     -40.724 -12.984   3.711  1.00  0.00     0.038 C 
BRANCH  10  13
HETATM   13  C7  UNL     1     -39.112 -14.233   5.002  1.00  0.00     0.012 C 
HETATM   14  C8  UNL     1     -38.259 -15.425   5.317  1.00  0.00     0.007 C 
HETATM   15  C9  UNL     1     -37.022 -14.737   5.937  1.00  0.00     0.000 C 
HETATM   16  C10 UNL     1     -37.436 -13.341   6.317  1.00  0.00     0.000 C 
HETATM   17  C11 UNL     1     -38.984 -13.414   6.262  1.00  0.00     0.007 C 
ENDBRANCH  10  13
ENDBRANCH   1  10
TORSDOF 4
ENDMDL
MODEL 3
REMARK VINA RESULT: -5.693695093      1.266      1.523
REMARK  4 active torsions:
REMARK  status: ('A' for Active; 'I' for Inactive)
REMARK    1  A    between atoms: C2_2  and  N1_4 
REMARK    2  A    between atoms: C2_2  and  N2_8 
REMARK    3  A    between atoms: N2_8  and  C4_10 
REMARK    4  A    between atoms: C4_10  and  C7_13 
ROOT
HETATM    1  N2  UNL     1     -39.749 -15.591   4.274  1.00  0.00    -0.383 N 
ATOM      2  H2  UNL     1     -39.187 -16.440   4.219  1.00  0.00     0.156 HD
ENDROOT
BRANCH   1   3
HETATM    3  C2  UNL     1     -40.806 -15.630   3.426  1.00  0.00     0.185 C 
HETATM    4  C1  UNL     1     -40.861 -17.112   2.901  1.00  0.00     0.070 C 
HETATM    5  C3  UNL     1     -40.654 -14.854   2.125  1.00  0.00     0.070 C 
BRANCH   3   6
HETATM    6  N1  UNL     1     -42.152 -15.443   3.868  1.00  0.00    -0.054 N 
ATOM      7  H13 UNL     1     -42.840 -15.296   3.129  1.00  0.00     0.277 HD
ATOM      8  H12 UNL     1     -42.606 -16.272   4.250  1.00  0.00     0.277 HD
ATOM      9  H11 UNL     1     -42.040 -14.666   4.520  1.00  0.00     0.277 HD
ENDBRANCH   3   6
ENDBRANCH   1   3
BRANCH   1  10
HETATM   10  C4  UNL     1     -39.245 -14.712   5.179  1.00  0.00     0.024 C 
HETATM   11  C5  UNL     1     -39.967 -13.380   5.078  1.00  0.00     0.038 C 
HETATM   12  C6  UNL     1     -39.860 -15.171   6.632  1.00  0.00     0.038 C 
BRANCH  10  13
HETATM   13  C7  UNL     1     -37.835 -14.507   5.499  1.00  0.00     0.012 C 
HETATM   14  C8  UNL     1     -37.082 -15.567   6.244  1.00  0.00     0.007 C 
HETATM   15  C9  UNL     1     -35.709 -14.878   6.414  1.00  0.00     0.000 C 
HETATM   16  C10 UNL     1     -35.920 -13.407   6.173  1.00  0.00     0.000 C 
HETATM   17  C11 UNL     1     -37.460 -13.261   6.261  1.00  0.00     0.007 C 
ENDBRANCH  10  13
ENDBRANCH   1  10
TORSDOF 4
ENDMDL
MODEL 4
REMARK VINA RESULT: -5.587658289      1.657      2.368
REMARK  4 active torsions:
REMARK  status: ('A' for Active; 'I' for Inactive)
REMARK    1  A    between atoms: C2_2  and  N1_4 
REMARK    2  A    between atoms: C2_2  and  N2_8 
REMARK    3  A    between atoms: N2_8  and  C4_10 
REMARK    4  A    between atoms: C4_10  and  C7_13 
ROOT
HETATM    1  N2  UNL     1     -40.128 -15.475   5.774  1.00  0.00    -0.383 N 
ATOM      2  H2  UNL     1     -39.676 -16.066   6.471  1.00  0.00     0.156 HD
ENDROOT
BRANCH   1   3
HETATM    3  C2  UNL     1     -41.454 -15.738   5.674  1.00  0.00     0.185 C 
HETATM    4  C1  UNL     1     -41.881 -16.261   7.095  1.00  0.00     0.070 C 
HETATM    5  C3  UNL     1     -41.842 -16.914   4.789  1.00  0.00     0.070 C 
BRANCH   3   6
HETATM    6  N1  UNL     1     -42.426 -14.712   5.454  1.00  0.00    -0.054 N 
ATOM      7  H13 UNL     1     -43.335 -15.034   5.121  1.00  0.00     0.277 HD
ATOM      8  H12 UNL     1     -42.791 -14.267   6.296  1.00  0.00     0.277 HD
ATOM      9  H11 UNL     1     -41.921 -14.095   4.817  1.00  0.00     0.277 HD
ENDBRANCH   3   6
ENDBRANCH   1   3
BRANCH   1  10
HETATM   10  C4  UNL     1     -39.247 -14.625   5.185  1.00  0.00     0.024 C 
HETATM   11  C5  UNL     1     -39.457 -14.605   3.682  1.00  0.00     0.038 C 
HETATM   12  C6  UNL     1     -39.814 -13.114   5.494  1.00  0.00     0.038 C 
BRANCH  10  13
HETATM   13  C7  UNL     1     -37.829 -14.487   5.506  1.00  0.00     0.012 C 
HETATM   14  C8  UNL     1     -37.132 -15.569   6.272  1.00  0.00     0.007 C 
HETATM   15  C9  UNL     1     -35.726 -14.948   6.434  1.00  0.00     0.000 C 
HETATM   16  C10 UNL     1     -35.861 -13.474   6.165  1.00  0.00     0.000 C 
HETATM   17  C11 UNL     1     -37.392 -13.248   6.246  1.00  0.00     0.007 C 
ENDBRANCH  10  13
ENDBRANCH   1  10
TORSDOF 4
ENDMDL
MODEL 5
REMARK VINA RESULT: -5.328929955      1.473      1.980
REMARK  4 active torsions:
REMARK  status: ('A' for Active; 'I' for Inactive)
REMARK    1  A    between atoms: C2_2  and  N1_4 
REMARK    2  A    between atoms: C2_2  and  N2_8 
REMARK    3  A    between atoms: N2_8  and  C4_10 
REMARK    4  A    between atoms: C4_10  and  C7_13 
ROOT
HETATM    1  N2  UNL     1     -40.023 -13.595   4.752  1.00  0.00    -0.383 N 
ATOM      2  H2  UNL     1     -40.112 -12.677   5.185  1.00  0.00     0.156 HD
ENDROOT
BRANCH   1   3
HETATM    3  C2  UNL     1     -40.778 -13.698   3.630  1.00  0.00     0.185 C 
HETATM    4  C1  UNL     1     -41.399 -12.269   3.416  1.00  0.00     0.070 C 
HETATM    5  C3  UNL     1     -42.029 -14.559   3.736  1.00  0.00     0.070 C 
BRANCH   3   6
HETATM    6  N1  UNL     1     -40.208 -13.948   2.342  1.00  0.00    -0.054 N 
ATOM      7  H13 UNL     1     -40.697 -14.639   1.774  1.00  0.00     0.277 HD
ATOM      8  H12 UNL     1     -40.305 -13.191   1.666  1.00  0.00     0.277 HD
ATOM      9  H11 UNL     1     -39.249 -14.189   2.594  1.00  0.00     0.277 HD
ENDBRANCH   3   6
ENDBRANCH   1   3
BRANCH   1  10
HETATM   10  C4  UNL     1     -39.180 -14.402   5.447  1.00  0.00     0.024 C 
HETATM   11  C5  UNL     1     -39.840 -14.877   6.729  1.00  0.00     0.038 C 
HETATM   12  C6  UNL     1     -39.195 -15.844   4.659  1.00  0.00     0.038 C 
BRANCH  10  13
HETATM   13  C7  UNL     1     -37.751 -14.188   5.656  1.00  0.00     0.012 C 
HETATM   14  C8  UNL     1     -36.915 -15.282   6.249  1.00  0.00     0.007 C 
HETATM   15  C9  UNL     1     -35.545 -14.575   6.350  1.00  0.00     0.000 C 
HETATM   16  C10 UNL     1     -35.801 -13.097   6.241  1.00  0.00     0.000 C 
HETATM   17  C11 UNL     1     -37.330 -12.994   6.476  1.00  0.00     0.007 C 
ENDBRANCH  10  13
ENDBRANCH   1  10
TORSDOF 4
ENDMDL
