MODEL 1
REMARK VINA RESULT: -4.705697808      0.000      0.000
REMARK  3 active torsions:
REMARK  status: ('A' for Active; 'I' for Inactive)
REMARK    1  A    between atoms: N2_6  and  C4_8 
REMARK    2  A    between atoms: C4_8  and  C5_9 
REMARK    3  A    between atoms: C5_9  and  N3_10 
ROOT
HETATM    1  C1  UNL     1       3.422   2.582   8.312  1.00  0.00     0.030 C 
HETATM    2  C2  UNL     1       2.985   3.952   7.998  1.00  0.00     0.122 C 
HETATM    3  N1  UNL     1       2.163   4.158   6.859  1.00  0.00    -0.371 N 
ATOM      4  H1  UNL     1       2.458   4.787   6.113  1.00  0.00     0.161 HD
HETATM    5  C3  UNL     1       0.927   3.474   6.780  1.00  0.00     0.136 C 
HETATM    6  N2  UNL     1      -0.028   3.806   6.040  1.00  0.00    -0.369 N 
ATOM      7  H2  UNL     1      -0.881   3.247   6.054  1.00  0.00     0.161 HD
HETATM    8  S2  UNL     1       0.828   2.032   7.869  1.00  0.00    -0.095 SA
HETATM    9  C9  UNL     1       2.570   1.447   7.892  1.00  0.00     0.084 C 
ENDROOT
BRANCH   6  10
HETATM   10  C4  UNL     1       0.043   4.963   5.162  1.00  0.00     0.152 C 
BRANCH  10  11
HETATM   11  C5  UNL     1       0.331   4.418   3.782  1.00  0.00     0.293 C 
BRANCH  11  12
HETATM   12  N3  UNL     1      -0.838   3.848   3.221  1.00  0.00     0.099 N 
HETATM   13  C6  UNL     1      -1.797   4.892   2.899  1.00  0.00     0.283 C 
HETATM   14  C7  UNL     1      -1.225   5.706   1.758  1.00  0.00     0.105 C 
HETATM   15  S1  UNL     1      -0.495   4.334   0.773  1.00  0.00    -0.138 SA
HETATM   16  C8  UNL     1      -0.688   3.035   2.066  1.00  0.00     0.346 C 
ENDBRANCH  11  12
ENDBRANCH  10  11
ENDBRANCH   6  10
TORSDOF 3
ENDMDL
MODEL 2
REMARK VINA RESULT: -4.482662879      1.057      1.458
REMARK  3 active torsions:
REMARK  status: ('A' for Active; 'I' for Inactive)
REMARK    1  A    between atoms: N2_6  and  C4_8 
REMARK    2  A    between atoms: C4_8  and  C5_9 
REMARK    3  A    between atoms: C5_9  and  N3_10 
ROOT
HETATM    1  C1  UNL     1       3.374   2.621   8.290  1.00  0.00     0.030 C 
HETATM    2  C2  UNL     1       2.939   3.967   7.882  1.00  0.00     0.122 C 
HETATM    3  N1  UNL     1       2.096   4.093   6.746  1.00  0.00    -0.371 N 
ATOM      4  H1  UNL     1       2.381   4.662   5.949  1.00  0.00     0.161 HD
HETATM    5  C3  UNL     1       0.856   3.414   6.742  1.00  0.00     0.136 C 
HETATM    6  N2  UNL     1      -0.112   3.696   5.997  1.00  0.00    -0.369 N 
ATOM      7  H2  UNL     1      -0.968   3.146   6.069  1.00  0.00     0.161 HD
HETATM    8  S2  UNL     1       0.769   2.058   7.938  1.00  0.00    -0.095 SA
HETATM    9  C9  UNL     1       2.508   1.463   7.972  1.00  0.00     0.084 C 
ENDROOT
BRANCH   6  10
HETATM   10  C4  UNL     1      -0.051   4.783   5.033  1.00  0.00     0.152 C 
BRANCH  10  11
HETATM   11  C5  UNL     1      -0.193   4.139   3.674  1.00  0.00     0.293 C 
BRANCH  11  12
HETATM   12  N3  UNL     1       0.598   4.821   2.718  1.00  0.00     0.099 N 
HETATM   13  C6  UNL     1       0.656   4.058   1.482  1.00  0.00     0.283 C 
HETATM   14  C7  UNL     1      -0.727   4.076   0.865  1.00  0.00     0.105 C 
HETATM   15  S1  UNL     1      -1.175   5.822   1.235  1.00  0.00    -0.138 SA
HETATM   16  C8  UNL     1       0.229   6.151   2.381  1.00  0.00     0.346 C 
ENDBRANCH  11  12
ENDBRANCH  10  11
ENDBRANCH   6  10
TORSDOF 3
ENDMDL
MODEL 3
REMARK VINA RESULT: -4.476772933      0.979      1.304
REMARK  3 active torsions:
REMARK  status: ('A' for Active; 'I' for Inactive)
REMARK    1  A    between atoms: N2_6  and  C4_8 
REMARK    2  A    between atoms: C4_8  and  C5_9 
REMARK    3  A    between atoms: C5_9  and  N3_10 
ROOT
HETATM    1  C1  UNL     1       3.608   2.498   8.397  1.00  0.00     0.030 C 
HETATM    2  C2  UNL     1       3.272   3.916   8.183  1.00  0.00     0.122 C 
HETATM    3  N1  UNL     1       2.520   4.269   7.032  1.00  0.00    -0.371 N 
ATOM      4  H1  UNL     1       2.888   4.936   6.355  1.00  0.00     0.161 HD
HETATM    5  C3  UNL     1       1.249   3.677   6.843  1.00  0.00     0.136 C 
HETATM    6  N2  UNL     1       0.352   4.132   6.095  1.00  0.00    -0.369 N 
ATOM      7  H2  UNL     1      -0.534   3.631   6.026  1.00  0.00     0.161 HD
HETATM    8  S2  UNL     1       1.008   2.160   7.800  1.00  0.00    -0.095 SA
HETATM    9  C9  UNL     1       2.708   1.460   7.846  1.00  0.00     0.084 C 
ENDROOT
BRANCH   6  10
HETATM   10  C4  UNL     1       0.537   5.350   5.322  1.00  0.00     0.152 C 
BRANCH  10  11
HETATM   11  C5  UNL     1       0.823   4.903   3.908  1.00  0.00     0.293 C 
BRANCH  11  12
HETATM   12  N3  UNL     1      -0.179   5.378   3.026  1.00  0.00     0.099 N 
HETATM   13  C6  UNL     1       0.352   5.481   1.677  1.00  0.00     0.283 C 
HETATM   14  C7  UNL     1       0.615   4.076   1.178  1.00  0.00     0.105 C 
HETATM   15  S1  UNL     1      -0.873   3.248   1.875  1.00  0.00    -0.138 SA
HETATM   16  C8  UNL     1      -1.395   4.648   2.952  1.00  0.00     0.346 C 
ENDBRANCH  11  12
ENDBRANCH  10  11
ENDBRANCH   6  10
TORSDOF 3
ENDMDL
MODEL 4
REMARK VINA RESULT: -4.377883441      0.890      1.084
REMARK  3 active torsions:
REMARK  status: ('A' for Active; 'I' for Inactive)
REMARK    1  A    between atoms: N2_6  and  C4_8 
REMARK    2  A    between atoms: C4_8  and  C5_9 
REMARK    3  A    between atoms: C5_9  and  N3_10 
ROOT
HETATM    1  C1  UNL     1       3.596   2.515   8.250  1.00  0.00     0.030 C 
HETATM    2  C2  UNL     1       3.027   3.856   8.040  1.00  0.00     0.122 C 
HETATM    3  N1  UNL     1       2.072   4.034   7.004  1.00  0.00    -0.371 N 
ATOM      4  H1  UNL     1       2.236   4.707   6.256  1.00  0.00     0.161 HD
HETATM    5  C3  UNL     1       0.890   3.258   7.029  1.00  0.00     0.136 C 
HETATM    6  N2  UNL     1      -0.163   3.538   6.409  1.00  0.00    -0.369 N 
ATOM      7  H2  UNL     1      -0.966   2.914   6.492  1.00  0.00     0.161 HD
HETATM    8  S2  UNL     1       1.017   1.778   8.064  1.00  0.00    -0.095 SA
HETATM    9  C9  UNL     1       2.790   1.330   7.877  1.00  0.00     0.084 C 
ENDROOT
BRANCH   6  10
HETATM   10  C4  UNL     1      -0.275   4.725   5.576  1.00  0.00     0.152 C 
BRANCH  10  11
HETATM   11  C5  UNL     1      -1.223   4.357   4.459  1.00  0.00     0.293 C 
BRANCH  11  12
HETATM   12  N3  UNL     1      -0.502   3.925   3.319  1.00  0.00     0.099 N 
HETATM   13  C6  UNL     1      -1.383   3.862   2.165  1.00  0.00     0.283 C 
HETATM   14  C7  UNL     1      -1.777   5.280   1.809  1.00  0.00     0.105 C 
HETATM   15  S1  UNL     1      -0.156   6.102   2.101  1.00  0.00    -0.138 SA
HETATM   16  C8  UNL     1       0.646   4.672   2.941  1.00  0.00     0.346 C 
ENDBRANCH  11  12
ENDBRANCH  10  11
ENDBRANCH   6  10
TORSDOF 3
ENDMDL
MODEL 5
REMARK VINA RESULT: -4.194311781      4.657      5.942
REMARK  3 active torsions:
REMARK  status: ('A' for Active; 'I' for Inactive)
REMARK    1  A    between atoms: N2_6  and  C4_8 
REMARK    2  A    between atoms: C4_8  and  C5_9 
REMARK    3  A    between atoms: C5_9  and  N3_10 
ROOT
HETATM    1  C1  UNL     1       2.967   2.453   7.964  1.00  0.00     0.030 C 
HETATM    2  C2  UNL     1       1.994   1.355   8.083  1.00  0.00     0.122 C 
HETATM    3  N1  UNL     1       0.653   1.671   8.426  1.00  0.00    -0.371 N 
ATOM      4  H1  UNL     1       0.219   1.265   9.255  1.00  0.00     0.161 HD
HETATM    5  C3  UNL     1      -0.069   2.559   7.595  1.00  0.00     0.136 C 
HETATM    6  N2  UNL     1      -1.318   2.656   7.567  1.00  0.00    -0.369 N 
ATOM      7  H2  UNL     1      -1.748   3.328   6.931  1.00  0.00     0.161 HD
HETATM    8  S2  UNL     1       0.986   3.579   6.536  1.00  0.00    -0.095 SA
HETATM    9  C9  UNL     1       2.482   3.799   7.582  1.00  0.00     0.084 C 
ENDROOT
BRANCH   6  10
HETATM   10  C4  UNL     1      -2.175   1.841   8.414  1.00  0.00     0.152 C 
BRANCH  10  11
HETATM   11  C5  UNL     1      -3.548   2.465   8.336  1.00  0.00     0.293 C 
BRANCH  11  12
HETATM   12  N3  UNL     1      -4.542   1.523   8.697  1.00  0.00     0.099 N 
HETATM   13  C6  UNL     1      -4.772   1.563  10.132  1.00  0.00     0.283 C 
HETATM   14  C7  UNL     1      -5.420   2.893  10.456  1.00  0.00     0.105 C 
HETATM   15  S1  UNL     1      -6.547   3.016   9.007  1.00  0.00    -0.138 SA
HETATM   16  C8  UNL     1      -5.808   1.619   8.059  1.00  0.00     0.346 C 
ENDBRANCH  11  12
ENDBRANCH  10  11
ENDBRANCH   6  10
TORSDOF 3
ENDMDL
