MODEL 1
REMARK VINA RESULT: -5.438492407      0.000      0.000
REMARK  5 active torsions:
REMARK  status: ('A' for Active; 'I' for Inactive)
REMARK    1  A    between atoms: C2_2  and  C3_3 
REMARK    2  A    between atoms: C3_3  and  C4_4 
REMARK    3  A    between atoms: C5_5  and  C6_6 
REMARK    4  A    between atoms: C8_10  and  C9_11 
REMARK    5  A    between atoms: C13_16  and  O4_17 
ROOT
HETATM    1  C6  UNL     1       0.574   4.225   4.856  1.00  0.00     0.234 C 
HETATM    2  O1  UNL     1      -0.050   3.433   3.889  1.00  0.00    -0.338 OA
HETATM    3  C7  UNL     1      -0.569   4.338   2.958  1.00  0.00     0.293 C 
HETATM    4  O2  UNL     1       0.377   4.563   2.001  1.00  0.00    -0.351 OA
HETATM    5  C8  UNL     1       0.155   5.762   1.346  1.00  0.00     0.148 C 
HETATM    6  C11 UNL     1       0.287   6.845   2.395  1.00  0.00     0.200 C 
HETATM    7  O3  UNL     1      -0.755   6.734   3.265  1.00  0.00    -0.376 OA
HETATM    8  C12 UNL     1      -1.042   5.495   3.725  1.00  0.00     0.208 C 
HETATM    9  C13 UNL     1      -0.435   5.303   5.105  1.00  0.00     0.193 C 
ENDROOT
BRANCH   1  10
HETATM   10  C5  UNL     1       0.704   3.461   6.118  1.00  0.00    -0.072 C 
HETATM   11  C4  UNL     1       0.823   2.826   7.138  1.00  0.00    -0.104 C 
BRANCH  11  12
HETATM   12  C3  UNL     1       0.987   2.041   8.364  1.00  0.00     0.093 C 
BRANCH  12  13
HETATM   13  C2  UNL     1      -0.261   1.182   8.611  1.00  0.00     0.007 C 
HETATM   14  C1  UNL     1      -1.487   1.953   8.246  1.00  0.00     0.006 C 
ENDBRANCH  12  13
ENDBRANCH  11  12
ENDBRANCH   1  10
BRANCH   9  15
HETATM   15  O4  UNL     1      -1.367   4.806   6.019  1.00  0.00    -0.389 OA
ATOM     16  H4  UNL     1      -1.727   5.546   6.493  1.00  0.00     0.210 HD
ENDBRANCH   9  15
BRANCH   5  17
HETATM   17  C9  UNL     1       1.136   5.970   0.215  1.00  0.00     0.029 C 
HETATM   18  C10 UNL     1       1.748   4.638  -0.147  1.00  0.00     0.007 C 
ENDBRANCH   5  17
TORSDOF 5
ENDMDL
MODEL 2
REMARK VINA RESULT: -5.386135325      1.576      1.955
REMARK  5 active torsions:
REMARK  status: ('A' for Active; 'I' for Inactive)
REMARK    1  A    between atoms: C2_2  and  C3_3 
REMARK    2  A    between atoms: C3_3  and  C4_4 
REMARK    3  A    between atoms: C5_5  and  C6_6 
REMARK    4  A    between atoms: C8_10  and  C9_11 
REMARK    5  A    between atoms: C13_16  and  O4_17 
ROOT
HETATM    1  C6  UNL     1       0.183   4.245   3.668  1.00  0.00     0.234 C 
HETATM    2  O1  UNL     1      -0.031   3.040   2.995  1.00  0.00    -0.338 OA
HETATM    3  C7  UNL     1      -0.850   3.370   1.911  1.00  0.00     0.293 C 
HETATM    4  O2  UNL     1      -0.054   3.690   0.851  1.00  0.00    -0.351 OA
HETATM    5  C8  UNL     1      -0.732   4.472  -0.070  1.00  0.00     0.148 C 
HETATM    6  C11 UNL     1      -1.087   5.755   0.651  1.00  0.00     0.200 C 
HETATM    7  O3  UNL     1      -2.016   5.472   1.606  1.00  0.00    -0.376 OA
HETATM    8  C12 UNL     1      -1.779   4.397   2.393  1.00  0.00     0.208 C 
HETATM    9  C13 UNL     1      -1.187   4.846   3.718  1.00  0.00     0.193 C 
ENDROOT
BRANCH   1  10
HETATM   10  C5  UNL     1       0.581   3.970   5.069  1.00  0.00    -0.072 C 
HETATM   11  C4  UNL     1       0.924   3.744   6.204  1.00  0.00    -0.104 C 
BRANCH  11  12
HETATM   12  C3  UNL     1       1.365   3.471   7.573  1.00  0.00     0.093 C 
BRANCH  12  13
HETATM   13  C2  UNL     1       1.311   1.963   7.855  1.00  0.00     0.007 C 
HETATM   14  C1  UNL     1       2.689   1.387   7.799  1.00  0.00     0.006 C 
ENDBRANCH  12  13
ENDBRANCH  11  12
ENDBRANCH   1  10
BRANCH   9  15
HETATM   15  O4  UNL     1      -1.857   4.282   4.805  1.00  0.00    -0.389 OA
ATOM     16  H4  UNL     1      -2.695   4.723   4.887  1.00  0.00     0.210 HD
ENDBRANCH   9  15
BRANCH   5  17
HETATM   17  C9  UNL     1       0.108   4.745  -1.296  1.00  0.00     0.029 C 
HETATM   18  C10 UNL     1       1.518   4.275  -1.032  1.00  0.00     0.007 C 
ENDBRANCH   5  17
TORSDOF 5
ENDMDL
MODEL 3
REMARK VINA RESULT: -5.385593103      1.391      6.158
REMARK  5 active torsions:
REMARK  status: ('A' for Active; 'I' for Inactive)
REMARK    1  A    between atoms: C2_2  and  C3_3 
REMARK    2  A    between atoms: C3_3  and  C4_4 
REMARK    3  A    between atoms: C5_5  and  C6_6 
REMARK    4  A    between atoms: C8_10  and  C9_11 
REMARK    5  A    between atoms: C13_16  and  O4_17 
ROOT
HETATM    1  C6  UNL     1      -0.349   3.712   3.733  1.00  0.00     0.234 C 
HETATM    2  O1  UNL     1       0.830   4.253   4.253  1.00  0.00    -0.338 OA
HETATM    3  C7  UNL     1       0.613   4.338   5.631  1.00  0.00     0.293 C 
HETATM    4  O2  UNL     1       1.028   3.172   6.206  1.00  0.00    -0.351 OA
HETATM    5  C8  UNL     1       0.425   2.975   7.437  1.00  0.00     0.148 C 
HETATM    6  C11 UNL     1      -1.059   2.858   7.163  1.00  0.00     0.200 C 
HETATM    7  O3  UNL     1      -1.520   4.070   6.749  1.00  0.00    -0.376 OA
HETATM    8  C12 UNL     1      -0.793   4.714   5.806  1.00  0.00     0.208 C 
HETATM    9  C13 UNL     1      -1.413   4.496   4.436  1.00  0.00     0.193 C 
ENDROOT
BRANCH   1  10
HETATM   10  C5  UNL     1      -0.456   4.041   2.293  1.00  0.00    -0.072 C 
HETATM   11  C4  UNL     1      -0.531   4.295   1.115  1.00  0.00    -0.104 C 
BRANCH  11  12
HETATM   12  C3  UNL     1      -0.609   4.580  -0.319  1.00  0.00     0.093 C 
BRANCH  12  13
HETATM   13  C2  UNL     1       0.731   5.136  -0.820  1.00  0.00     0.007 C 
HETATM   14  C1  UNL     1       1.819   4.144  -0.566  1.00  0.00     0.006 C 
ENDBRANCH  12  13
ENDBRANCH  11  12
ENDBRANCH   1  10
BRANCH   9  15
HETATM   15  O4  UNL     1      -1.581   5.696   3.744  1.00  0.00    -0.389 OA
ATOM     16  H4  UNL     1      -1.060   6.358   4.184  1.00  0.00     0.210 HD
ENDBRANCH   9  15
BRANCH   5  17
HETATM   17  C9  UNL     1       0.956   1.740   8.128  1.00  0.00     0.029 C 
HETATM   18  C10 UNL     1       2.433   1.618   7.833  1.00  0.00     0.007 C 
ENDBRANCH   5  17
TORSDOF 5
ENDMDL
MODEL 4
REMARK VINA RESULT: -5.340420566      5.177      8.606
REMARK  5 active torsions:
REMARK  status: ('A' for Active; 'I' for Inactive)
REMARK    1  A    between atoms: C2_2  and  C3_3 
REMARK    2  A    between atoms: C3_3  and  C4_4 
REMARK    3  A    between atoms: C5_5  and  C6_6 
REMARK    4  A    between atoms: C8_10  and  C9_11 
REMARK    5  A    between atoms: C13_16  and  O4_17 
ROOT
HETATM    1  C6  UNL     1      -3.573   1.740   8.791  1.00  0.00     0.234 C 
HETATM    2  O1  UNL     1      -3.577   1.658  10.185  1.00  0.00    -0.338 OA
HETATM    3  C7  UNL     1      -4.905   1.886  10.558  1.00  0.00     0.293 C 
HETATM    4  O2  UNL     1      -5.554   0.686  10.598  1.00  0.00    -0.351 OA
HETATM    5  C8  UNL     1      -6.923   0.850  10.476  1.00  0.00     0.148 C 
HETATM    6  C11 UNL     1      -7.153   1.459   9.109  1.00  0.00     0.200 C 
HETATM    7  O3  UNL     1      -6.657   2.727   9.112  1.00  0.00    -0.376 OA
HETATM    8  C12 UNL     1      -5.423   2.904   9.639  1.00  0.00     0.208 C 
HETATM    9  C13 UNL     1      -4.390   2.966   8.527  1.00  0.00     0.193 C 
ENDROOT
BRANCH   1  10
HETATM   10  C5  UNL     1      -2.201   2.029   8.313  1.00  0.00    -0.072 C 
HETATM   11  C4  UNL     1      -1.076   2.266   7.942  1.00  0.00    -0.104 C 
BRANCH  11  12
HETATM   12  C3  UNL     1       0.296   2.550   7.518  1.00  0.00     0.093 C 
BRANCH  12  13
HETATM   13  C2  UNL     1       1.269   1.568   8.185  1.00  0.00     0.007 C 
HETATM   14  C1  UNL     1       2.673   1.904   7.799  1.00  0.00     0.006 C 
ENDBRANCH  12  13
ENDBRANCH  11  12
ENDBRANCH   1  10
BRANCH   9  15
HETATM   15  O4  UNL     1      -3.548   4.072   8.660  1.00  0.00    -0.389 OA
ATOM     16  H4  UNL     1      -4.043   4.842   8.406  1.00  0.00     0.210 HD
ENDBRANCH   9  15
BRANCH   5  17
HETATM   17  C9  UNL     1      -7.658  -0.462  10.624  1.00  0.00     0.029 C 
HETATM   18  C10 UNL     1      -7.709  -1.143   9.277  1.00  0.00     0.007 C 
ENDBRANCH   5  17
TORSDOF 5
ENDMDL
MODEL 5
REMARK VINA RESULT: -5.266040572      1.146      1.728
REMARK  5 active torsions:
REMARK  status: ('A' for Active; 'I' for Inactive)
REMARK    1  A    between atoms: C2_2  and  C3_3 
REMARK    2  A    between atoms: C3_3  and  C4_4 
REMARK    3  A    between atoms: C5_5  and  C6_6 
REMARK    4  A    between atoms: C8_10  and  C9_11 
REMARK    5  A    between atoms: C13_16  and  O4_17 
ROOT
HETATM    1  C6  UNL     1       0.200   4.431   5.044  1.00  0.00     0.234 C 
HETATM    2  O1  UNL     1      -0.063   3.672   3.901  1.00  0.00    -0.338 OA
HETATM    3  C7  UNL     1      -0.868   4.489   3.101  1.00  0.00     0.293 C 
HETATM    4  O2  UNL     1      -0.060   5.228   2.288  1.00  0.00    -0.351 OA
HETATM    5  C8  UNL     1      -0.706   6.367   1.836  1.00  0.00     0.148 C 
HETATM    6  C11 UNL     1      -1.011   7.193   3.068  1.00  0.00     0.200 C 
HETATM    7  O3  UNL     1      -1.949   6.538   3.807  1.00  0.00    -0.376 OA
HETATM    8  C12 UNL     1      -1.756   5.215   4.014  1.00  0.00     0.208 C 
HETATM    9  C13 UNL     1      -1.145   4.991   5.387  1.00  0.00     0.193 C 
ENDROOT
BRANCH   1  10
HETATM   10  C5  UNL     1       0.587   3.534   6.159  1.00  0.00    -0.072 C 
HETATM   11  C4  UNL     1       0.915   2.795   7.055  1.00  0.00    -0.104 C 
BRANCH  11  12
HETATM   12  C3  UNL     1       1.335   1.891   8.127  1.00  0.00     0.093 C 
BRANCH  12  13
HETATM   13  C2  UNL     1       2.866   1.781   8.157  1.00  0.00     0.007 C 
HETATM   14  C1  UNL     1       3.458   3.077   8.607  1.00  0.00     0.006 C 
ENDBRANCH  12  13
ENDBRANCH  11  12
ENDBRANCH   1  10
BRANCH   9  15
HETATM   15  O4  UNL     1      -1.837   4.018   6.111  1.00  0.00    -0.389 OA
ATOM     16  H4  UNL     1      -2.507   4.460   6.620  1.00  0.00     0.210 HD
ENDBRANCH   9  15
BRANCH   5  17
HETATM   17  C9  UNL     1       0.143   7.139   0.853  1.00  0.00     0.029 C 
HETATM   18  C10 UNL     1       1.073   6.174   0.156  1.00  0.00     0.007 C 
ENDBRANCH   5  17
TORSDOF 5
ENDMDL
