MODEL 1
REMARK VINA RESULT: -8.446953432      0.000      0.000
REMARK  7 active torsions:
REMARK  status: ('A' for Active; 'I' for Inactive)
REMARK    1  A    between atoms: C2_2  and  N1_3 
REMARK    2  A    between atoms: C3_5  and  C4_6 
REMARK    3  A    between atoms: C4_6  and  C5_7 
REMARK    4  A    between atoms: C5_7  and  C6_8 
REMARK    5  A    between atoms: C7_9  and  O1_10 
REMARK    6  A    between atoms: C9_13  and  C10_14 
REMARK    7  A    between atoms: C14_18  and  O2_19 
ROOT
HETATM    1  C6  UNL     1      11.396 164.259  33.991  1.00  0.00     0.026 C 
HETATM    2  C7  UNL     1      12.357 163.162  33.510  1.00  0.00     0.151 C 
HETATM    3  C8  UNL     1      12.199 162.805  32.076  1.00  0.00    -0.050 C 
HETATM    4  C9  UNL     1      12.482 161.585  31.694  1.00  0.00     0.017 C 
HETATM    5  C22 UNL     1      11.764 163.816  31.087  1.00  0.00     0.051 C 
HETATM    6  C23 UNL     1      10.468 164.333  31.637  1.00  0.00     0.096 C 
HETATM    7  C24 UNL     1       9.857 165.435  30.868  1.00  0.00     0.263 C 
HETATM    8  O4  UNL     1       9.904 165.710  29.639  1.00  0.00    -0.265 OA
HETATM    9  O5  UNL     1       9.162 166.175  31.817  1.00  0.00    -0.321 OA
HETATM   10  C25 UNL     1       9.516 165.746  33.147  1.00  0.00     0.184 C 
HETATM   11  C26 UNL     1      10.849 165.114  32.912  1.00  0.00     0.031 C 
ENDROOT
BRANCH   2  12
HETATM   12  O1  UNL     1      12.227 162.016  34.325  1.00  0.00    -0.391 OA
ATOM     13  H1  UNL     1      12.471 161.239  33.834  1.00  0.00     0.210 HD
ENDBRANCH   2  12
BRANCH   4  14
HETATM   14  C10 UNL     1      12.385 161.066  30.363  1.00  0.00    -0.032 A 
HETATM   15  C11 UNL     1      13.555 161.039  29.601  1.00  0.00     0.026 A 
HETATM   16  C12 UNL     1      13.522 160.511  28.324  1.00  0.00     0.001 A 
HETATM   17  C13 UNL     1      12.358 160.014  27.797  1.00  0.00     0.113 A 
HETATM   18  C21 UNL     1      14.745 160.516  27.544  1.00  0.00     0.013 A 
HETATM   19  C14 UNL     1      11.184 160.031  28.539  1.00  0.00     0.103 A 
HETATM   20  O3  UNL     1      12.388 159.498  26.516  1.00  0.00    -0.333 OA
HETATM   21  C16 UNL     1      11.237 160.570  29.830  1.00  0.00     0.051 A 
HETATM   22  C17 UNL     1      13.516 159.490  25.673  1.00  0.00     0.078 A 
HETATM   23  C18 UNL     1      13.163 160.385  24.487  1.00  0.00     0.051 C 
HETATM   24  C19 UNL     1      13.859 158.093  25.168  1.00  0.00     0.051 C 
HETATM   25  C20 UNL     1      14.726 160.039  26.319  1.00  0.00     0.011 A 
BRANCH  19  26
HETATM   26  O2  UNL     1      10.021 159.529  27.999  1.00  0.00    -0.353 OA
HETATM   27  C15 UNL     1       9.271 158.583  28.699  1.00  0.00     0.210 C 
ENDBRANCH  19  26
ENDBRANCH   4  14
BRANCH   1  28
HETATM   28  C5  UNL     1      12.182 164.997  35.034  1.00  0.00     0.013 C 
BRANCH  28  29
HETATM   29  C4  UNL     1      12.273 164.476  36.392  1.00  0.00     0.044 C 
BRANCH  29  30
HETATM   30  C3  UNL     1      13.638 164.068  36.817  1.00  0.00     0.055 C 
HETATM   31  N1  UNL     1      14.420 164.791  37.525  1.00  0.00    -0.403 N 
ATOM     32  H1  UNL     1      15.339 164.421  37.765  1.00  0.00     0.158 HD
BRANCH  31  33
HETATM   33  C2  UNL     1      14.065 166.101  37.996  1.00  0.00     0.114 C 
HETATM   34  C1  UNL     1      15.335 166.922  38.061  1.00  0.00     0.026 C 
ENDBRANCH  31  33
ENDBRANCH  29  30
ENDBRANCH  28  29
ENDBRANCH   1  28
TORSDOF 7
ENDMDL
MODEL 2
REMARK VINA RESULT: -8.010264750      2.399      3.171
REMARK  7 active torsions:
REMARK  status: ('A' for Active; 'I' for Inactive)
REMARK    1  A    between atoms: C2_2  and  N1_3 
REMARK    2  A    between atoms: C3_5  and  C4_6 
REMARK    3  A    between atoms: C4_6  and  C5_7 
REMARK    4  A    between atoms: C5_7  and  C6_8 
REMARK    5  A    between atoms: C7_9  and  O1_10 
REMARK    6  A    between atoms: C9_13  and  C10_14 
REMARK    7  A    between atoms: C14_18  and  O2_19 
ROOT
HETATM    1  C6  UNL     1      12.313 163.060  35.794  1.00  0.00     0.026 C 
HETATM    2  C7  UNL     1      12.356 161.631  35.232  1.00  0.00     0.151 C 
HETATM    3  C8  UNL     1      11.702 161.482  33.907  1.00  0.00    -0.050 C 
HETATM    4  C9  UNL     1      11.159 160.332  33.596  1.00  0.00     0.017 C 
HETATM    5  C22 UNL     1      11.692 162.600  32.936  1.00  0.00     0.051 C 
HETATM    6  C23 UNL     1      11.074 163.737  33.693  1.00  0.00     0.096 C 
HETATM    7  C24 UNL     1      11.025 165.020  32.965  1.00  0.00     0.263 C 
HETATM    8  O4  UNL     1      10.934 165.268  31.733  1.00  0.00    -0.265 OA
HETATM    9  O5  UNL     1      11.102 165.986  33.961  1.00  0.00    -0.321 OA
HETATM   10  C25 UNL     1      11.450 165.380  35.222  1.00  0.00     0.184 C 
HETATM   11  C26 UNL     1      12.106 164.115  34.775  1.00  0.00     0.031 C 
ENDROOT
BRANCH   2  12
HETATM   12  O1  UNL     1      11.800 160.729  36.165  1.00  0.00    -0.391 OA
ATOM     13  H1  UNL     1      12.323 159.937  36.203  1.00  0.00     0.210 HD
ENDBRANCH   2  12
BRANCH   4  14
HETATM   14  C10 UNL     1      10.486 160.010  32.374  1.00  0.00    -0.032 A 
HETATM   15  C11 UNL     1      11.267 159.524  31.323  1.00  0.00     0.026 A 
HETATM   16  C12 UNL     1      10.660 159.162  30.136  1.00  0.00     0.001 A 
HETATM   17  C13 UNL     1       9.303 159.275  29.976  1.00  0.00     0.113 A 
HETATM   18  C21 UNL     1      11.496 158.682  29.051  1.00  0.00     0.013 A 
HETATM   19  C14 UNL     1       8.508 159.755  31.008  1.00  0.00     0.103 A 
HETATM   20  O3  UNL     1       8.754 158.895  28.766  1.00  0.00    -0.333 OA
HETATM   21  C16 UNL     1       9.141 160.117  32.203  1.00  0.00     0.051 A 
HETATM   22  C17 UNL     1       9.485 158.451  27.649  1.00  0.00     0.078 A 
HETATM   23  C18 UNL     1       9.265 159.495  26.556  1.00  0.00     0.051 C 
HETATM   24  C19 UNL     1       9.019 157.088  27.148  1.00  0.00     0.051 C 
HETATM   25  C20 UNL     1      10.937 158.356  27.907  1.00  0.00     0.011 A 
BRANCH  19  26
HETATM   26  O2  UNL     1       7.146 159.863  30.836  1.00  0.00    -0.353 OA
HETATM   27  C15 UNL     1       6.278 159.043  31.558  1.00  0.00     0.210 C 
ENDBRANCH  19  26
ENDBRANCH   4  14
BRANCH   1  28
HETATM   28  C5  UNL     1      13.590 163.183  36.569  1.00  0.00     0.013 C 
BRANCH  28  29
HETATM   29  C4  UNL     1      14.139 164.498  36.880  1.00  0.00     0.044 C 
BRANCH  29  30
HETATM   30  C3  UNL     1      13.595 165.130  38.111  1.00  0.00     0.055 C 
HETATM   31  N1  UNL     1      13.943 166.281  38.545  1.00  0.00    -0.403 N 
ATOM     32  H1  UNL     1      13.511 166.629  39.401  1.00  0.00     0.158 HD
BRANCH  31  33
HETATM   33  C2  UNL     1      14.914 167.109  37.884  1.00  0.00     0.114 C 
HETATM   34  C1  UNL     1      16.209 167.001  38.659  1.00  0.00     0.026 C 
ENDBRANCH  31  33
ENDBRANCH  29  30
ENDBRANCH  28  29
ENDBRANCH   1  28
TORSDOF 7
ENDMDL
MODEL 3
REMARK VINA RESULT: -7.835689499      3.092      8.918
REMARK  7 active torsions:
REMARK  status: ('A' for Active; 'I' for Inactive)
REMARK    1  A    between atoms: C2_2  and  N1_3 
REMARK    2  A    between atoms: C3_5  and  C4_6 
REMARK    3  A    between atoms: C4_6  and  C5_7 
REMARK    4  A    between atoms: C5_7  and  C6_8 
REMARK    5  A    between atoms: C7_9  and  O1_10 
REMARK    6  A    between atoms: C9_13  and  C10_14 
REMARK    7  A    between atoms: C14_18  and  O2_19 
ROOT
HETATM    1  C6  UNL     1       9.456 159.678  30.626  1.00  0.00     0.026 C 
HETATM    2  C7  UNL     1       9.122 161.160  30.856  1.00  0.00     0.151 C 
HETATM    3  C8  UNL     1      10.086 161.867  31.738  1.00  0.00    -0.050 C 
HETATM    4  C9  UNL     1       9.660 162.870  32.464  1.00  0.00     0.017 C 
HETATM    5  C22 UNL     1      11.513 161.473  31.772  1.00  0.00     0.051 C 
HETATM    6  C23 UNL     1      11.481 160.012  32.107  1.00  0.00     0.096 C 
HETATM    7  C24 UNL     1      12.797 159.344  32.118  1.00  0.00     0.263 C 
HETATM    8  O4  UNL     1      13.946 159.786  32.384  1.00  0.00    -0.265 OA
HETATM    9  O5  UNL     1      12.521 158.031  31.754  1.00  0.00    -0.321 OA
HETATM   10  C25 UNL     1      11.165 157.916  31.277  1.00  0.00     0.184 C 
HETATM   11  C26 UNL     1      10.873 159.323  30.868  1.00  0.00     0.031 C 
ENDROOT
BRANCH   2  12
HETATM   12  O1  UNL     1       7.807 161.287  31.355  1.00  0.00    -0.391 OA
ATOM     13  H1  UNL     1       7.692 160.728  32.114  1.00  0.00     0.210 HD
ENDBRANCH   2  12
BRANCH   4  14
HETATM   14  C10 UNL     1      10.441 163.659  33.368  1.00  0.00    -0.032 A 
HETATM   15  C11 UNL     1      11.085 162.988  34.410  1.00  0.00     0.026 A 
HETATM   16  C12 UNL     1      11.882 163.700  35.286  1.00  0.00     0.001 A 
HETATM   17  C13 UNL     1      12.050 165.053  35.145  1.00  0.00     0.113 A 
HETATM   18  C21 UNL     1      12.521 162.984  36.375  1.00  0.00     0.013 A 
HETATM   19  C14 UNL     1      11.419 165.739  34.115  1.00  0.00     0.103 A 
HETATM   20  O3  UNL     1      12.861 165.709  36.051  1.00  0.00    -0.333 OA
HETATM   21  C16 UNL     1      10.616 165.002  33.238  1.00  0.00     0.051 A 
HETATM   22  C17 UNL     1      13.493 165.107  37.156  1.00  0.00     0.078 A 
HETATM   23  C18 UNL     1      12.878 165.749  38.397  1.00  0.00     0.051 C 
HETATM   24  C19 UNL     1      15.001 165.335  37.163  1.00  0.00     0.051 C 
HETATM   25  C20 UNL     1      13.264 163.649  37.231  1.00  0.00     0.011 A 
BRANCH  19  26
HETATM   26  O2  UNL     1      11.596 167.098  33.984  1.00  0.00    -0.353 OA
HETATM   27  C15 UNL     1      11.089 167.770  32.871  1.00  0.00     0.210 C 
ENDBRANCH  19  26
ENDBRANCH   4  14
BRANCH   1  28
HETATM   28  C5  UNL     1       8.975 159.412  29.230  1.00  0.00     0.013 C 
BRANCH  28  29
HETATM   29  C4  UNL     1       9.931 159.252  28.141  1.00  0.00     0.044 C 
BRANCH  29  30
HETATM   30  C3  UNL     1      10.234 160.497  27.385  1.00  0.00     0.055 C 
HETATM   31  N1  UNL     1      11.413 160.887  27.081  1.00  0.00    -0.403 N 
ATOM     32  H1  UNL     1      11.518 161.757  26.559  1.00  0.00     0.158 HD
BRANCH  31  33
HETATM   33  C2  UNL     1      12.598 160.159  27.441  1.00  0.00     0.114 C 
HETATM   34  C1  UNL     1      13.275 160.914  28.564  1.00  0.00     0.026 C 
ENDBRANCH  31  33
ENDBRANCH  29  30
ENDBRANCH  28  29
ENDBRANCH   1  28
TORSDOF 7
ENDMDL
MODEL 4
REMARK VINA RESULT: -7.675538537      2.744      8.729
REMARK  7 active torsions:
REMARK  status: ('A' for Active; 'I' for Inactive)
REMARK    1  A    between atoms: C2_2  and  N1_3 
REMARK    2  A    between atoms: C3_5  and  C4_6 
REMARK    3  A    between atoms: C4_6  and  C5_7 
REMARK    4  A    between atoms: C5_7  and  C6_8 
REMARK    5  A    between atoms: C7_9  and  O1_10 
REMARK    6  A    between atoms: C9_13  and  C10_14 
REMARK    7  A    between atoms: C14_18  and  O2_19 
ROOT
HETATM    1  C6  UNL     1      10.729 160.140  28.678  1.00  0.00     0.026 C 
HETATM    2  C7  UNL     1      10.863 161.658  28.866  1.00  0.00     0.151 C 
HETATM    3  C8  UNL     1      11.307 162.062  30.225  1.00  0.00    -0.050 C 
HETATM    4  C9  UNL     1      10.919 163.220  30.698  1.00  0.00     0.017 C 
HETATM    5  C22 UNL     1      12.202 161.192  31.020  1.00  0.00     0.051 C 
HETATM    6  C23 UNL     1      11.478 159.880  31.082  1.00  0.00     0.096 C 
HETATM    7  C24 UNL     1      12.210 158.792  31.759  1.00  0.00     0.263 C 
HETATM    8  O4  UNL     1      13.056 158.822  32.692  1.00  0.00    -0.265 OA
HETATM    9  O5  UNL     1      11.763 157.634  31.135  1.00  0.00    -0.321 OA
HETATM   10  C25 UNL     1      11.001 157.961  29.955  1.00  0.00     0.184 C 
HETATM   11  C26 UNL     1      11.509 159.330  29.641  1.00  0.00     0.031 C 
ENDROOT
BRANCH   2  12
HETATM   12  O1  UNL     1       9.648 162.295  28.530  1.00  0.00    -0.391 OA
ATOM     13  H1  UNL     1       8.915 161.729  28.740  1.00  0.00     0.210 HD
ENDBRANCH   2  12
BRANCH   4  14
HETATM   14  C10 UNL     1      11.244 163.767  31.981  1.00  0.00    -0.032 A 
HETATM   15  C11 UNL     1      11.901 162.931  32.885  1.00  0.00     0.026 A 
HETATM   16  C12 UNL     1      12.271 163.424  34.122  1.00  0.00     0.001 A 
HETATM   17  C13 UNL     1      12.002 164.723  34.471  1.00  0.00     0.113 A 
HETATM   18  C21 UNL     1      12.932 162.529  35.053  1.00  0.00     0.013 A 
HETATM   19  C14 UNL     1      11.350 165.571  33.586  1.00  0.00     0.103 A 
HETATM   20  O3  UNL     1      12.399 165.158  35.721  1.00  0.00    -0.333 OA
HETATM   21  C16 UNL     1      10.983 165.054  32.339  1.00  0.00     0.051 A 
HETATM   22  C17 UNL     1      13.013 164.356  36.701  1.00  0.00     0.078 A 
HETATM   23  C18 UNL     1      12.034 164.293  37.871  1.00  0.00     0.051 C 
HETATM   24  C19 UNL     1      14.340 164.933  37.182  1.00  0.00     0.051 C 
HETATM   25  C20 UNL     1      13.270 162.975  36.242  1.00  0.00     0.011 A 
BRANCH  19  26
HETATM   26  O2  UNL     1      11.085 166.873  33.949  1.00  0.00    -0.353 OA
HETATM   27  C15 UNL     1      11.179 167.899  33.008  1.00  0.00     0.210 C 
ENDBRANCH  19  26
ENDBRANCH   4  14
BRANCH   1  28
HETATM   28  C5  UNL     1      11.092 159.920  27.239  1.00  0.00     0.013 C 
BRANCH  28  29
HETATM   29  C4  UNL     1      12.340 159.253  26.889  1.00  0.00     0.044 C 
BRANCH  29  30
HETATM   30  C3  UNL     1      13.316 160.098  26.150  1.00  0.00     0.055 C 
HETATM   31  N1  UNL     1      14.269 160.750  26.700  1.00  0.00    -0.403 N 
ATOM     32  H1  UNL     1      14.887 161.301  26.106  1.00  0.00     0.158 HD
BRANCH  31  33
HETATM   33  C2  UNL     1      14.509 160.742  28.117  1.00  0.00     0.114 C 
HETATM   34  C1  UNL     1      16.007 160.702  28.326  1.00  0.00     0.026 C 
ENDBRANCH  31  33
ENDBRANCH  29  30
ENDBRANCH  28  29
ENDBRANCH   1  28
TORSDOF 7
ENDMDL
MODEL 5
REMARK VINA RESULT: -7.655950355      3.771      6.286
REMARK  7 active torsions:
REMARK  status: ('A' for Active; 'I' for Inactive)
REMARK    1  A    between atoms: C2_2  and  N1_3 
REMARK    2  A    between atoms: C3_5  and  C4_6 
REMARK    3  A    between atoms: C4_6  and  C5_7 
REMARK    4  A    between atoms: C5_7  and  C6_8 
REMARK    5  A    between atoms: C7_9  and  O1_10 
REMARK    6  A    between atoms: C9_13  and  C10_14 
REMARK    7  A    between atoms: C14_18  and  O2_19 
ROOT
HETATM    1  C6  UNL     1      10.259 164.778  31.215  1.00  0.00     0.026 C 
HETATM    2  C7  UNL     1      10.771 163.433  30.679  1.00  0.00     0.151 C 
HETATM    3  C8  UNL     1      11.752 162.760  31.570  1.00  0.00    -0.050 C 
HETATM    4  C9  UNL     1      12.663 161.986  31.037  1.00  0.00     0.017 C 
HETATM    5  C22 UNL     1      11.683 162.931  33.039  1.00  0.00     0.051 C 
HETATM    6  C23 UNL     1      11.737 164.416  33.238  1.00  0.00     0.096 C 
HETATM    7  C24 UNL     1      11.595 164.866  34.637  1.00  0.00     0.263 C 
HETATM    8  O4  UNL     1      11.918 164.309  35.720  1.00  0.00    -0.265 OA
HETATM    9  O5  UNL     1      10.996 166.116  34.539  1.00  0.00    -0.321 OA
HETATM   10  C25 UNL     1      10.532 166.347  33.194  1.00  0.00     0.184 C 
HETATM   11  C26 UNL     1      10.402 164.951  32.678  1.00  0.00     0.031 C 
ENDROOT
BRANCH   2  12
HETATM   12  O1  UNL     1      11.311 163.603  29.385  1.00  0.00    -0.391 OA
ATOM     13  H1  UNL     1      11.880 164.363  29.367  1.00  0.00     0.210 HD
ENDBRANCH   2  12
BRANCH   4  14
HETATM   14  C10 UNL     1      13.684 161.266  31.736  1.00  0.00    -0.032 A 
HETATM   15  C11 UNL     1      14.922 161.136  31.103  1.00  0.00     0.026 A 
HETATM   16  C12 UNL     1      15.952 160.483  31.753  1.00  0.00     0.001 A 
HETATM   17  C13 UNL     1      15.775 159.964  33.010  1.00  0.00     0.113 A 
HETATM   18  C21 UNL     1      17.221 160.340  31.064  1.00  0.00     0.013 A 
HETATM   19  C14 UNL     1      14.552 160.084  33.657  1.00  0.00     0.103 A 
HETATM   20  O3  UNL     1      16.843 159.324  33.609  1.00  0.00    -0.333 OA
HETATM   21  C16 UNL     1      13.521 160.747  32.983  1.00  0.00     0.051 A 
HETATM   22  C17 UNL     1      18.098 159.108  33.008  1.00  0.00     0.078 A 
HETATM   23  C18 UNL     1      18.247 157.594  32.874  1.00  0.00     0.051 C 
HETATM   24  C19 UNL     1      19.249 159.658  33.843  1.00  0.00     0.051 C 
HETATM   25  C20 UNL     1      18.205 159.702  31.659  1.00  0.00     0.011 A 
BRANCH  19  26
HETATM   26  O2  UNL     1      14.387 159.558  34.919  1.00  0.00    -0.353 OA
HETATM   27  C15 UNL     1      13.214 159.801  35.635  1.00  0.00     0.210 C 
ENDBRANCH  19  26
ENDBRANCH   4  14
BRANCH   1  28
HETATM   28  C5  UNL     1       8.848 164.854  30.712  1.00  0.00     0.013 C 
BRANCH  28  29
HETATM   29  C4  UNL     1       8.105 163.635  30.418  1.00  0.00     0.044 C 
BRANCH  29  30
HETATM   30  C3  UNL     1       7.281 163.115  31.542  1.00  0.00     0.055 C 
HETATM   31  N1  UNL     1       7.255 161.891  31.911  1.00  0.00    -0.403 N 
ATOM     32  H1  UNL     1       6.657 161.633  32.696  1.00  0.00     0.158 HD
BRANCH  31  33
HETATM   33  C2  UNL     1       8.029 160.862  31.273  1.00  0.00     0.114 C 
HETATM   34  C1  UNL     1       9.019 160.339  32.291  1.00  0.00     0.026 C 
ENDBRANCH  31  33
ENDBRANCH  29  30
ENDBRANCH  28  29
ENDBRANCH   1  28
TORSDOF 7
ENDMDL
