MODEL 1
REMARK VINA RESULT: -8.086253866      0.000      0.000
REMARK  9 active torsions:
REMARK  status: ('A' for Active; 'I' for Inactive)
REMARK    1  A    between atoms: O1_1  and  N1_3 
REMARK    2  A    between atoms: C5_8  and  C6_9 
REMARK    3  A    between atoms: C6_9  and  N5_25 
REMARK    4  A    between atoms: N2_10  and  N3_12 
REMARK    5  A    between atoms: N3_12  and  C7_14 
REMARK    6  A    between atoms: C8_17  and  C9_18 
REMARK    7  A    between atoms: N5_25  and  N6_27 
REMARK    8  A    between atoms: C14_29  and  C15_30 
REMARK    9  A    between atoms: C16_31  and  C17_32 
ROOT
HETATM    1  C6  UNL     1       9.454 158.916  30.172  1.00  0.00     0.164 C 
HETATM    2  N2  UNL     1      10.311 158.476  31.030  1.00  0.00    -0.281 N 
ATOM      3  H2  UNL     1      10.062 157.666  31.599  1.00  0.00     0.188 HD
ENDROOT
BRANCH   1   4
HETATM    4  C5  UNL     1       8.186 158.238  30.062  1.00  0.00     0.108 A 
HETATM    5  N1  UNL     1       7.711 157.731  28.907  1.00  0.00    -0.232 N 
HETATM    6  C1  UNL     1       6.525 157.102  28.824  1.00  0.00     0.123 A 
HETATM    7  C2  UNL     1       5.769 156.972  29.970  1.00  0.00     0.020 A 
HETATM    8  C3  UNL     1       6.201 157.472  31.189  1.00  0.00     0.004 A 
HETATM    9  C4  UNL     1       7.422 158.109  31.225  1.00  0.00     0.036 A 
BRANCH   5  10
HETATM   10  O1  UNL     1       8.522 157.894  27.786  1.00  0.00    -0.283 OA
ATOM     11  H1  UNL     1       9.317 158.411  27.824  1.00  0.00     0.245 HD
ENDBRANCH   5  10
ENDBRANCH   1   4
BRANCH   1  12
HETATM   12  N5  UNL     1       9.837 160.047  29.399  1.00  0.00    -0.283 N 
ATOM     13  H5  UNL     1      10.225 159.884  28.470  1.00  0.00     0.188 HD
BRANCH  12  14
HETATM   14  N6  UNL     1       9.712 161.356  29.835  1.00  0.00    -0.310 N 
HETATM   15  C14 UNL     1       9.515 162.364  29.084  1.00  0.00     0.107 C 
ATOM     16  H6  UNL     1       9.783 161.525  30.838  1.00  0.00     0.186 HD
BRANCH  15  17
HETATM   17  C15 UNL     1       9.401 163.694  29.665  1.00  0.00     0.019 C 
HETATM   18  C16 UNL     1      10.049 163.987  30.760  1.00  0.00     0.013 C 
BRANCH  18  19
HETATM   19  C17 UNL     1       9.998 165.284  31.414  1.00  0.00    -0.036 A 
HETATM   20  C18 UNL     1      10.959 166.228  31.141  1.00  0.00     0.011 A 
HETATM   21  C19 UNL     1      10.892 167.473  31.782  1.00  0.00     0.001 A 
HETATM   22  C20 UNL     1       9.899 167.765  32.664  1.00  0.00     0.000 A 
HETATM   23  C21 UNL     1       8.945 166.802  32.923  1.00  0.00     0.001 A 
HETATM   24  C22 UNL     1       8.977 165.578  32.319  1.00  0.00     0.011 A 
ENDBRANCH  18  19
ENDBRANCH  15  17
ENDBRANCH  12  14
ENDBRANCH   1  12
BRANCH   2  25
HETATM   25  N3  UNL     1      11.578 159.068  31.214  1.00  0.00    -0.278 N 
ATOM     26  H3  UNL     1      12.238 159.137  30.439  1.00  0.00     0.189 HD
BRANCH  25  27
HETATM   27  C7  UNL     1      11.894 159.530  32.407  1.00  0.00     0.164 A 
HETATM   28  N4  UNL     1      11.831 160.795  32.808  1.00  0.00    -0.333 N 
HETATM   29  C8  UNL     1      12.184 161.079  34.030  1.00  0.00     0.075 A 
ATOM     30  H4  UNL     1      11.513 161.528  32.174  1.00  0.00     0.168 HD
HETATM   31  C13 UNL     1      12.601 160.045  34.831  1.00  0.00     0.085 A 
HETATM   32  S1  UNL     1      12.465 158.708  33.783  1.00  0.00    -0.062 SA
BRANCH  29  33
HETATM   33  C9  UNL     1      12.155 162.464  34.591  1.00  0.00     0.102 A 
HETATM   34  C10 UNL     1      11.894 163.641  33.927  1.00  0.00     0.041 A 
HETATM   35  C11 UNL     1      11.975 164.674  34.832  1.00  0.00     0.027 A 
HETATM   36  C12 UNL     1      12.286 164.083  36.031  1.00  0.00     0.142 A 
HETATM   37  O2  UNL     1      12.378 162.802  35.827  1.00  0.00    -0.320 OA
ENDBRANCH  29  33
ENDBRANCH  25  27
ENDBRANCH   2  25
TORSDOF 9
ENDMDL
MODEL 2
REMARK VINA RESULT: -7.993155707      2.802      4.392
REMARK  9 active torsions:
REMARK  status: ('A' for Active; 'I' for Inactive)
REMARK    1  A    between atoms: O1_1  and  N1_3 
REMARK    2  A    between atoms: C5_8  and  C6_9 
REMARK    3  A    between atoms: C6_9  and  N5_25 
REMARK    4  A    between atoms: N2_10  and  N3_12 
REMARK    5  A    between atoms: N3_12  and  C7_14 
REMARK    6  A    between atoms: C8_17  and  C9_18 
REMARK    7  A    between atoms: N5_25  and  N6_27 
REMARK    8  A    between atoms: C14_29  and  C15_30 
REMARK    9  A    between atoms: C16_31  and  C17_32 
ROOT
HETATM    1  C6  UNL     1       9.006 160.708  29.904  1.00  0.00     0.164 C 
HETATM    2  N2  UNL     1       9.777 160.275  28.965  1.00  0.00    -0.281 N 
ATOM      3  H2  UNL     1       9.708 159.295  28.688  1.00  0.00     0.188 HD
ENDROOT
BRANCH   1   4
HETATM    4  C5  UNL     1       8.084 159.781  30.515  1.00  0.00     0.108 A 
HETATM    5  N1  UNL     1       7.098 160.155  31.354  1.00  0.00    -0.232 N 
HETATM    6  C1  UNL     1       6.249 159.276  31.914  1.00  0.00     0.123 A 
HETATM    7  C2  UNL     1       6.394 157.938  31.612  1.00  0.00     0.020 A 
HETATM    8  C3  UNL     1       7.388 157.489  30.756  1.00  0.00     0.004 A 
HETATM    9  C4  UNL     1       8.235 158.426  30.206  1.00  0.00     0.036 A 
BRANCH   5  10
HETATM   10  O1  UNL     1       7.003 161.520  31.619  1.00  0.00    -0.283 OA
ATOM     11  H1  UNL     1       6.960 161.847  32.510  1.00  0.00     0.245 HD
ENDBRANCH   5  10
ENDBRANCH   1   4
BRANCH   1  12
HETATM   12  N5  UNL     1       9.131 162.078  30.264  1.00  0.00    -0.283 N 
ATOM     13  H5  UNL     1       8.683 162.774  29.667  1.00  0.00     0.188 HD
BRANCH  12  14
HETATM   14  N6  UNL     1       9.826 162.522  31.377  1.00  0.00    -0.310 N 
HETATM   15  C14 UNL     1      10.080 163.738  31.648  1.00  0.00     0.107 C 
ATOM     16  H6  UNL     1      10.162 161.816  32.033  1.00  0.00     0.186 HD
BRANCH  15  17
HETATM   17  C15 UNL     1      10.821 164.079  32.854  1.00  0.00     0.019 C 
HETATM   18  C16 UNL     1      11.150 163.143  33.704  1.00  0.00     0.013 C 
BRANCH  18  19
HETATM   19  C17 UNL     1      11.888 163.383  34.932  1.00  0.00    -0.036 A 
HETATM   20  C18 UNL     1      12.348 162.321  35.675  1.00  0.00     0.011 A 
HETATM   21  C19 UNL     1      13.058 162.575  36.857  1.00  0.00     0.001 A 
HETATM   22  C20 UNL     1      13.300 163.843  37.283  1.00  0.00     0.000 A 
HETATM   23  C21 UNL     1      12.829 164.893  36.522  1.00  0.00     0.001 A 
HETATM   24  C22 UNL     1      12.134 164.687  35.365  1.00  0.00     0.011 A 
ENDBRANCH  18  19
ENDBRANCH  15  17
ENDBRANCH  12  14
ENDBRANCH   1  12
BRANCH   2  25
HETATM   25  N3  UNL     1      10.711 161.101  28.305  1.00  0.00    -0.278 N 
ATOM     26  H3  UNL     1      10.404 161.783  27.611  1.00  0.00     0.189 HD
BRANCH  25  27
HETATM   27  C7  UNL     1      11.988 160.975  28.602  1.00  0.00     0.164 A 
HETATM   28  N4  UNL     1      12.533 161.064  29.811  1.00  0.00    -0.333 N 
HETATM   29  C8  UNL     1      13.822 160.912  29.925  1.00  0.00     0.075 A 
ATOM     30  H4  UNL     1      11.955 161.246  30.631  1.00  0.00     0.168 HD
HETATM   31  C13 UNL     1      14.541 160.669  28.782  1.00  0.00     0.085 A 
HETATM   32  S1  UNL     1      13.321 160.668  27.590  1.00  0.00    -0.062 SA
BRANCH  29  33
HETATM   33  C9  UNL     1      14.544 160.992  31.231  1.00  0.00     0.102 A 
HETATM   34  C10 UNL     1      14.231 161.766  32.326  1.00  0.00     0.041 A 
HETATM   35  C11 UNL     1      15.166 161.524  33.307  1.00  0.00     0.027 A 
HETATM   36  C12 UNL     1      16.026 160.601  32.768  1.00  0.00     0.142 A 
HETATM   37  O2  UNL     1      15.614 160.332  31.565  1.00  0.00    -0.320 OA
ENDBRANCH  29  33
ENDBRANCH  25  27
ENDBRANCH   2  25
TORSDOF 9
ENDMDL
MODEL 3
REMARK VINA RESULT: -7.988182639      2.024      2.498
REMARK  9 active torsions:
REMARK  status: ('A' for Active; 'I' for Inactive)
REMARK    1  A    between atoms: O1_1  and  N1_3 
REMARK    2  A    between atoms: C5_8  and  C6_9 
REMARK    3  A    between atoms: C6_9  and  N5_25 
REMARK    4  A    between atoms: N2_10  and  N3_12 
REMARK    5  A    between atoms: N3_12  and  C7_14 
REMARK    6  A    between atoms: C8_17  and  C9_18 
REMARK    7  A    between atoms: N5_25  and  N6_27 
REMARK    8  A    between atoms: C14_29  and  C15_30 
REMARK    9  A    between atoms: C16_31  and  C17_32 
ROOT
HETATM    1  C6  UNL     1      10.570 158.515  31.452  1.00  0.00     0.164 C 
HETATM    2  N2  UNL     1      11.626 157.967  31.951  1.00  0.00    -0.281 N 
ATOM      3  H2  UNL     1      12.196 157.370  31.352  1.00  0.00     0.188 HD
ENDROOT
BRANCH   1   4
HETATM    4  C5  UNL     1      10.251 158.254  30.069  1.00  0.00     0.108 A 
HETATM    5  N1  UNL     1       9.002 158.321  29.567  1.00  0.00    -0.232 N 
HETATM    6  C1  UNL     1       8.725 158.074  28.275  1.00  0.00     0.123 A 
HETATM    7  C2  UNL     1       9.765 157.741  27.432  1.00  0.00     0.020 A 
HETATM    8  C3  UNL     1      11.071 157.655  27.887  1.00  0.00     0.004 A 
HETATM    9  C4  UNL     1      11.307 157.916  29.218  1.00  0.00     0.036 A 
BRANCH   5  10
HETATM   10  O1  UNL     1       7.996 158.663  30.469  1.00  0.00    -0.283 OA
ATOM     11  H1  UNL     1       7.465 157.997  30.890  1.00  0.00     0.245 HD
ENDBRANCH   5  10
ENDBRANCH   1   4
BRANCH   1  12
HETATM   12  N5  UNL     1       9.799 159.340  32.317  1.00  0.00    -0.283 N 
ATOM     13  H5  UNL     1       9.190 158.886  32.998  1.00  0.00     0.188 HD
BRANCH  12  14
HETATM   14  N6  UNL     1       9.829 160.725  32.289  1.00  0.00    -0.310 N 
HETATM   15  C14 UNL     1       8.873 161.487  32.638  1.00  0.00     0.107 C 
ATOM     16  H6  UNL     1      10.687 161.170  31.961  1.00  0.00     0.186 HD
BRANCH  15  17
HETATM   17  C15 UNL     1       9.027 162.933  32.563  1.00  0.00     0.019 C 
HETATM   18  C16 UNL     1      10.211 163.456  32.387  1.00  0.00     0.013 C 
BRANCH  18  19
HETATM   19  C17 UNL     1      10.466 164.883  32.300  1.00  0.00    -0.036 A 
HETATM   20  C18 UNL     1      10.610 165.480  31.070  1.00  0.00     0.011 A 
HETATM   21  C19 UNL     1      10.855 166.859  31.008  1.00  0.00     0.001 A 
HETATM   22  C20 UNL     1      10.953 167.615  32.133  1.00  0.00     0.000 A 
HETATM   23  C21 UNL     1      10.805 166.995  33.357  1.00  0.00     0.001 A 
HETATM   24  C22 UNL     1      10.566 165.655  33.458  1.00  0.00     0.011 A 
ENDBRANCH  18  19
ENDBRANCH  15  17
ENDBRANCH  12  14
ENDBRANCH   1  12
BRANCH   2  25
HETATM   25  N3  UNL     1      12.023 158.160  33.290  1.00  0.00    -0.278 N 
ATOM     26  H3  UNL     1      11.748 157.497  34.015  1.00  0.00     0.189 HD
BRANCH  25  27
HETATM   27  C7  UNL     1      12.758 159.213  33.588  1.00  0.00     0.164 A 
HETATM   28  N4  UNL     1      12.464 160.158  34.473  1.00  0.00    -0.333 N 
HETATM   29  C8  UNL     1      13.309 161.136  34.643  1.00  0.00     0.075 A 
ATOM     30  H4  UNL     1      11.597 160.120  35.009  1.00  0.00     0.168 HD
HETATM   31  C13 UNL     1      14.457 161.126  33.891  1.00  0.00     0.085 A 
HETATM   32  S1  UNL     1      14.265 159.704  32.971  1.00  0.00    -0.062 SA
BRANCH  29  33
HETATM   33  C9  UNL     1      13.085 162.255  35.609  1.00  0.00     0.102 A 
HETATM   34  C10 UNL     1      12.417 163.439  35.393  1.00  0.00     0.041 A 
HETATM   35  C11 UNL     1      12.455 164.173  36.556  1.00  0.00     0.027 A 
HETATM   36  C12 UNL     1      13.153 163.401  37.450  1.00  0.00     0.142 A 
HETATM   37  O2  UNL     1      13.491 162.303  36.843  1.00  0.00    -0.320 OA
ENDBRANCH  29  33
ENDBRANCH  25  27
ENDBRANCH   2  25
TORSDOF 9
ENDMDL
MODEL 4
REMARK VINA RESULT: -7.959154549      3.214      5.447
REMARK  9 active torsions:
REMARK  status: ('A' for Active; 'I' for Inactive)
REMARK    1  A    between atoms: O1_1  and  N1_3 
REMARK    2  A    between atoms: C5_8  and  C6_9 
REMARK    3  A    between atoms: C6_9  and  N5_25 
REMARK    4  A    between atoms: N2_10  and  N3_12 
REMARK    5  A    between atoms: N3_12  and  C7_14 
REMARK    6  A    between atoms: C8_17  and  C9_18 
REMARK    7  A    between atoms: N5_25  and  N6_27 
REMARK    8  A    between atoms: C14_29  and  C15_30 
REMARK    9  A    between atoms: C16_31  and  C17_32 
ROOT
HETATM    1  C6  UNL     1      11.633 161.236  28.404  1.00  0.00     0.164 C 
HETATM    2  N2  UNL     1      10.675 160.375  28.477  1.00  0.00    -0.281 N 
ATOM      3  H2  UNL     1      10.845 159.425  28.146  1.00  0.00     0.188 HD
ENDROOT
BRANCH   1   4
HETATM    4  C5  UNL     1      12.897 160.809  27.856  1.00  0.00     0.108 A 
HETATM    5  N1  UNL     1      14.072 160.940  28.502  1.00  0.00    -0.232 N 
HETATM    6  C1  UNL     1      15.241 160.536  27.974  1.00  0.00     0.123 A 
HETATM    7  C2  UNL     1      15.231 159.962  26.720  1.00  0.00     0.020 A 
HETATM    8  C3  UNL     1      14.056 159.798  26.003  1.00  0.00     0.004 A 
HETATM    9  C4  UNL     1      12.883 160.228  26.584  1.00  0.00     0.036 A 
BRANCH   5  10
HETATM   10  O1  UNL     1      14.015 161.527  29.765  1.00  0.00    -0.283 OA
ATOM     11  H1  UNL     1      14.386 162.387  29.926  1.00  0.00     0.245 HD
ENDBRANCH   5  10
ENDBRANCH   1   4
BRANCH   1  12
HETATM   12  N5  UNL     1      11.358 162.549  28.875  1.00  0.00    -0.283 N 
ATOM     13  H5  UNL     1      10.917 163.208  28.233  1.00  0.00     0.188 HD
BRANCH  12  14
HETATM   14  N6  UNL     1      11.656 162.986  30.156  1.00  0.00    -0.310 N 
HETATM   15  C14 UNL     1      10.915 163.736  30.867  1.00  0.00     0.107 C 
ATOM     16  H6  UNL     1      12.541 162.682  30.562  1.00  0.00     0.186 HD
BRANCH  15  17
HETATM   17  C15 UNL     1      11.340 164.127  32.204  1.00  0.00     0.019 C 
HETATM   18  C16 UNL     1      11.817 163.230  33.026  1.00  0.00     0.013 C 
BRANCH  18  19
HETATM   19  C17 UNL     1      12.265 163.522  34.376  1.00  0.00    -0.036 A 
HETATM   20  C18 UNL     1      13.151 162.677  35.003  1.00  0.00     0.011 A 
HETATM   21  C19 UNL     1      13.571 162.977  36.306  1.00  0.00     0.001 A 
HETATM   22  C20 UNL     1      13.124 164.081  36.961  1.00  0.00     0.000 A 
HETATM   23  C21 UNL     1      12.236 164.915  36.313  1.00  0.00     0.001 A 
HETATM   24  C22 UNL     1      11.803 164.657  35.044  1.00  0.00     0.011 A 
ENDBRANCH  18  19
ENDBRANCH  15  17
ENDBRANCH  12  14
ENDBRANCH   1  12
BRANCH   2  25
HETATM   25  N3  UNL     1       9.403 160.693  28.997  1.00  0.00    -0.278 N 
ATOM     26  H3  UNL     1       8.683 161.097  28.399  1.00  0.00     0.189 HD
BRANCH  25  27
HETATM   27  C7  UNL     1       9.162 160.457  30.271  1.00  0.00     0.164 A 
HETATM   28  N4  UNL     1      10.066 160.253  31.223  1.00  0.00    -0.333 N 
HETATM   29  C8  UNL     1       9.651 160.032  32.439  1.00  0.00     0.075 A 
ATOM     30  H4  UNL     1      11.063 160.269  31.008  1.00  0.00     0.168 HD
HETATM   31  C13 UNL     1       8.296 160.025  32.660  1.00  0.00     0.085 A 
HETATM   32  S1  UNL     1       7.682 160.337  31.101  1.00  0.00    -0.062 SA
BRANCH  29  33
HETATM   33  C9  UNL     1      10.574 159.789  33.589  1.00  0.00     0.102 A 
HETATM   34  C10 UNL     1      10.392 160.136  34.908  1.00  0.00     0.041 A 
HETATM   35  C11 UNL     1      11.493 159.719  35.620  1.00  0.00     0.027 A 
HETATM   36  C12 UNL     1      12.318 159.126  34.698  1.00  0.00     0.142 A 
HETATM   37  O2  UNL     1      11.731 159.198  33.540  1.00  0.00    -0.320 OA
ENDBRANCH  29  33
ENDBRANCH  25  27
ENDBRANCH   2  25
TORSDOF 9
ENDMDL
MODEL 5
REMARK VINA RESULT: -7.948362637      3.061      5.442
REMARK  9 active torsions:
REMARK  status: ('A' for Active; 'I' for Inactive)
REMARK    1  A    between atoms: O1_1  and  N1_3 
REMARK    2  A    between atoms: C5_8  and  C6_9 
REMARK    3  A    between atoms: C6_9  and  N5_25 
REMARK    4  A    between atoms: N2_10  and  N3_12 
REMARK    5  A    between atoms: N3_12  and  C7_14 
REMARK    6  A    between atoms: C8_17  and  C9_18 
REMARK    7  A    between atoms: N5_25  and  N6_27 
REMARK    8  A    between atoms: C14_29  and  C15_30 
REMARK    9  A    between atoms: C16_31  and  C17_32 
ROOT
HETATM    1  C6  UNL     1      11.149 159.143  29.130  1.00  0.00     0.164 C 
HETATM    2  N2  UNL     1       9.919 159.380  28.823  1.00  0.00    -0.281 N 
ATOM      3  H2  UNL     1       9.706 159.720  27.885  1.00  0.00     0.188 HD
ENDROOT
BRANCH   1   4
HETATM    4  C5  UNL     1      12.162 159.371  28.129  1.00  0.00     0.108 A 
HETATM    5  N1  UNL     1      13.140 160.288  28.254  1.00  0.00    -0.232 N 
HETATM    6  C1  UNL     1      14.076 160.487  27.308  1.00  0.00     0.123 A 
HETATM    7  C2  UNL     1      14.028 159.715  26.166  1.00  0.00     0.020 A 
HETATM    8  C3  UNL     1      13.047 158.755  25.976  1.00  0.00     0.004 A 
HETATM    9  C4  UNL     1      12.110 158.588  26.972  1.00  0.00     0.036 A 
BRANCH   5  10
HETATM   10  O1  UNL     1      13.134 161.035  29.431  1.00  0.00    -0.283 OA
ATOM     11  H1  UNL     1      12.771 160.684  30.235  1.00  0.00     0.245 HD
ENDBRANCH   5  10
ENDBRANCH   1   4
BRANCH   1  12
HETATM   12  N5  UNL     1      11.407 158.671  30.447  1.00  0.00    -0.283 N 
ATOM     13  H5  UNL     1      11.297 157.674  30.630  1.00  0.00     0.188 HD
BRANCH  12  14
HETATM   14  N6  UNL     1      11.799 159.488  31.495  1.00  0.00    -0.310 N 
HETATM   15  C14 UNL     1      11.181 159.614  32.599  1.00  0.00     0.107 C 
ATOM     16  H6  UNL     1      12.652 160.033  31.371  1.00  0.00     0.186 HD
BRANCH  15  17
HETATM   17  C15 UNL     1      11.696 160.508  33.627  1.00  0.00     0.019 C 
HETATM   18  C16 UNL     1      11.320 161.759  33.653  1.00  0.00     0.013 C 
BRANCH  18  19
HETATM   19  C17 UNL     1      11.777 162.725  34.636  1.00  0.00    -0.036 A 
HETATM   20  C18 UNL     1      12.269 162.294  35.845  1.00  0.00     0.011 A 
HETATM   21  C19 UNL     1      12.705 163.244  36.780  1.00  0.00     0.001 A 
HETATM   22  C20 UNL     1      12.654 164.576  36.516  1.00  0.00     0.000 A 
HETATM   23  C21 UNL     1      12.157 164.987  35.296  1.00  0.00     0.001 A 
HETATM   24  C22 UNL     1      11.722 164.092  34.360  1.00  0.00     0.011 A 
ENDBRANCH  18  19
ENDBRANCH  15  17
ENDBRANCH  12  14
ENDBRANCH   1  12
BRANCH   2  25
HETATM   25  N3  UNL     1       8.856 159.188  29.731  1.00  0.00    -0.278 N 
ATOM     26  H3  UNL     1       8.437 158.267  29.853  1.00  0.00     0.189 HD
BRANCH  25  27
HETATM   27  C7  UNL     1       8.416 160.222  30.418  1.00  0.00     0.164 A 
HETATM   28  N4  UNL     1       8.893 161.462  30.376  1.00  0.00    -0.333 N 
HETATM   29  C8  UNL     1       8.335 162.369  31.127  1.00  0.00     0.075 A 
ATOM     30  H4  UNL     1       9.678 161.698  29.770  1.00  0.00     0.168 HD
HETATM   31  C13 UNL     1       7.282 161.984  31.919  1.00  0.00     0.085 A 
HETATM   32  S1  UNL     1       7.144 160.327  31.543  1.00  0.00    -0.062 SA
BRANCH  29  33
HETATM   33  C9  UNL     1       8.786 163.794  31.164  1.00  0.00     0.102 A 
HETATM   34  C10 UNL     1       8.806 164.647  32.244  1.00  0.00     0.041 A 
HETATM   35  C11 UNL     1       9.297 165.862  31.824  1.00  0.00     0.027 A 
HETATM   36  C12 UNL     1       9.562 165.704  30.487  1.00  0.00     0.142 A 
HETATM   37  O2  UNL     1       9.245 164.485  30.163  1.00  0.00    -0.320 OA
ENDBRANCH  29  33
ENDBRANCH  25  27
ENDBRANCH   2  25
TORSDOF 9
ENDMDL
