MODEL 1
REMARK VINA RESULT: -7.017990714      0.000      0.000
REMARK  6 active torsions:
REMARK  status: ('A' for Active; 'I' for Inactive)
REMARK    1  A    between atoms: C5_12  and  N4_13 
REMARK    2  A    between atoms: N4_13  and  C6_14 
REMARK    3  A    between atoms: N4_13  and  C10_21 
REMARK    4  A    between atoms: C6_14  and  C7_15 
REMARK    5  A    between atoms: C7_15  and  C8_17 
REMARK    6  A    between atoms: C11_26  and  N7_27 
ROOT
HETATM    1  N4  UNL     1     -24.410   5.099  13.165  1.00  0.00    -0.158 N 
ENDROOT
BRANCH   1   2
HETATM    2  C5  UNL     1     -23.104   5.384  12.689  1.00  0.00     0.688 A 
HETATM    3  N3  UNL     1     -22.269   4.687  11.910  1.00  0.00    -0.182 N 
HETATM    4  C4  UNL     1     -21.117   5.322  11.713  1.00  0.00     0.162 A 
ATOM      5  H3  UNL     1     -22.490   3.773  11.513  1.00  0.00     0.184 HD
HETATM    6  C3  UNL     1     -19.997   4.981  10.996  1.00  0.00     0.280 A 
HETATM    7  C13 UNL     1     -21.211   6.512  12.412  1.00  0.00     0.160 A 
HETATM    8  N2  UNL     1     -18.968   5.846  10.983  1.00  0.00    -0.273 N 
HETATM    9  O2  UNL     1     -19.925   3.898  10.365  1.00  0.00    -0.265 OA
HETATM   10  C2  UNL     1     -19.072   6.994  11.664  1.00  0.00     0.330 A 
ATOM     11  H2  UNL     1     -18.119   5.630  10.461  1.00  0.00     0.173 HD
HETATM   12  N1  UNL     1     -20.167   7.336  12.371  1.00  0.00    -0.287 N 
HETATM   13  O1  UNL     1     -18.115   7.818  11.664  1.00  0.00    -0.246 OA
HETATM   14  C1  UNL     1     -20.218   8.590  13.092  1.00  0.00     0.163 C 
HETATM   15  N9  UNL     1     -22.442   6.515  12.997  1.00  0.00    -0.173 N 
ATOM     16  H9  UNL     1     -22.808   7.266  13.583  1.00  0.00     0.186 HD
ENDBRANCH   1   2
BRANCH   1  17
HETATM   17  C6  UNL     1     -25.540   5.944  13.012  1.00  0.00     0.193 C 
BRANCH  17  18
HETATM   18  C7  UNL     1     -26.131   6.561  14.223  1.00  0.00     0.260 C 
HETATM   19  F1  UNL     1     -25.026   7.064  14.958  1.00  0.00    -0.241 F 
BRANCH  18  20
HETATM   20  C8  UNL     1     -27.012   7.752  14.001  1.00  0.00     0.271 C 
HETATM   21  C9  UNL     1     -26.329   8.858  13.238  1.00  0.00     0.093 C 
HETATM   22  F2  UNL     1     -28.224   7.518  13.451  1.00  0.00    -0.204 F 
HETATM   23  F3  UNL     1     -27.258   8.283  15.283  1.00  0.00    -0.204 F 
ENDBRANCH  18  20
ENDBRANCH  17  18
ENDBRANCH   1  17
BRANCH   1  24
HETATM   24  C10 UNL     1     -24.567   3.840  13.856  1.00  0.00     0.207 A 
HETATM   25  N5  UNL     1     -24.409   3.681  15.161  1.00  0.00    -0.266 N 
HETATM   26  N6  UNL     1     -24.562   2.510  15.756  1.00  0.00    -0.131 N 
ATOM     27  H5  UNL     1     -24.161   4.491  15.728  1.00  0.00     0.189 HD
HETATM   28  C11 UNL     1     -24.891   1.416  15.031  1.00  0.00     0.693 A 
ATOM     29  H6  UNL     1     -24.431   2.432  16.764  1.00  0.00     0.205 HD
HETATM   30  N8  UNL     1     -25.065   1.517  13.690  1.00  0.00    -0.152 N 
HETATM   31  C12 UNL     1     -24.905   2.718  13.114  1.00  0.00     0.305 A 
ATOM     32  H8  UNL     1     -25.312   0.699  13.133  1.00  0.00     0.188 HD
HETATM   33  O3  UNL     1     -25.065   2.823  11.859  1.00  0.00    -0.263 OA
BRANCH  28  34
HETATM   34  N7  UNL     1     -25.054   0.251  15.563  1.00  0.00    -0.233 N 
ATOM     35  H72 UNL     1     -25.924   0.084  16.068  1.00  0.00     0.174 HD
ATOM     36  H71 UNL     1     -24.353  -0.488  15.495  1.00  0.00     0.174 HD
ENDBRANCH  28  34
ENDBRANCH   1  24
TORSDOF 6
ENDMDL
MODEL 2
REMARK VINA RESULT: -6.979425941      2.510      6.481
REMARK  6 active torsions:
REMARK  status: ('A' for Active; 'I' for Inactive)
REMARK    1  A    between atoms: C5_12  and  N4_13 
REMARK    2  A    between atoms: N4_13  and  C6_14 
REMARK    3  A    between atoms: N4_13  and  C10_21 
REMARK    4  A    between atoms: C6_14  and  C7_15 
REMARK    5  A    between atoms: C7_15  and  C8_17 
REMARK    6  A    between atoms: C11_26  and  N7_27 
ROOT
HETATM    1  N4  UNL     1     -24.991   5.390  13.079  1.00  0.00    -0.158 N 
ENDROOT
BRANCH   1   2
HETATM    2  C5  UNL     1     -25.476   4.464  14.040  1.00  0.00     0.688 A 
HETATM    3  N3  UNL     1     -26.368   4.593  15.029  1.00  0.00    -0.182 N 
HETATM    4  C4  UNL     1     -26.525   3.463  15.713  1.00  0.00     0.162 A 
ATOM      5  H3  UNL     1     -26.868   5.458  15.235  1.00  0.00     0.184 HD
HETATM    6  C3  UNL     1     -27.321   3.150  16.787  1.00  0.00     0.280 A 
HETATM    7  C13 UNL     1     -25.678   2.539  15.128  1.00  0.00     0.160 A 
HETATM    8  N2  UNL     1     -27.263   1.897  17.272  1.00  0.00    -0.273 N 
HETATM    9  O2  UNL     1     -28.086   3.998  17.308  1.00  0.00    -0.265 OA
HETATM   10  C2  UNL     1     -26.439   1.013  16.697  1.00  0.00     0.330 A 
ATOM     11  H2  UNL     1     -27.839   1.624  18.068  1.00  0.00     0.173 HD
HETATM   12  N1  UNL     1     -25.654   1.312  15.643  1.00  0.00    -0.287 N 
HETATM   13  O1  UNL     1     -26.370  -0.169  17.139  1.00  0.00    -0.246 OA
HETATM   14  C1  UNL     1     -24.778   0.313  15.067  1.00  0.00     0.163 C 
HETATM   15  N9  UNL     1     -25.052   3.187  14.107  1.00  0.00    -0.173 N 
ATOM     16  H9  UNL     1     -24.363   2.767  13.483  1.00  0.00     0.186 HD
ENDBRANCH   1   2
BRANCH   1  17
HETATM   17  C6  UNL     1     -25.703   6.521  12.602  1.00  0.00     0.193 C 
BRANCH  17  18
HETATM   18  C7  UNL     1     -25.267   7.869  13.039  1.00  0.00     0.260 C 
HETATM   19  F1  UNL     1     -26.005   8.774  12.233  1.00  0.00    -0.241 F 
BRANCH  18  20
HETATM   20  C8  UNL     1     -25.604   8.253  14.446  1.00  0.00     0.271 C 
HETATM   21  C9  UNL     1     -27.077   8.158  14.750  1.00  0.00     0.093 C 
HETATM   22  F2  UNL     1     -24.910   7.637  15.429  1.00  0.00    -0.204 F 
HETATM   23  F3  UNL     1     -25.294   9.624  14.547  1.00  0.00    -0.204 F 
ENDBRANCH  18  20
ENDBRANCH  17  18
ENDBRANCH   1  17
BRANCH   1  24
HETATM   24  C10 UNL     1     -23.666   5.131  12.569  1.00  0.00     0.207 A 
HETATM   25  N5  UNL     1     -23.398   4.824  11.309  1.00  0.00    -0.266 N 
HETATM   26  N6  UNL     1     -22.169   4.593  10.881  1.00  0.00    -0.131 N 
ATOM     27  H5  UNL     1     -24.169   4.763  10.644  1.00  0.00     0.189 HD
HETATM   28  C11 UNL     1     -21.125   4.666  11.739  1.00  0.00     0.693 A 
ATOM     29  H6  UNL     1     -22.007   4.359   9.901  1.00  0.00     0.205 HD
HETATM   30  N8  UNL     1     -21.337   4.976  13.041  1.00  0.00    -0.152 N 
HETATM   31  C12 UNL     1     -22.594   5.206  13.447  1.00  0.00     0.305 A 
ATOM     32  H8  UNL     1     -20.558   5.033  13.698  1.00  0.00     0.188 HD
HETATM   33  O3  UNL     1     -22.803   5.496  14.665  1.00  0.00    -0.263 OA
BRANCH  28  34
HETATM   34  N7  UNL     1     -19.905   4.452  11.371  1.00  0.00    -0.233 N 
ATOM     35  H72 UNL     1     -19.193   4.432  12.101  1.00  0.00     0.174 HD
ATOM     36  H71 UNL     1     -19.642   4.307  10.396  1.00  0.00     0.174 HD
ENDBRANCH  28  34
ENDBRANCH   1  24
TORSDOF 6
ENDMDL
MODEL 3
REMARK VINA RESULT: -6.889068078      1.450      1.682
REMARK  6 active torsions:
REMARK  status: ('A' for Active; 'I' for Inactive)
REMARK    1  A    between atoms: C5_12  and  N4_13 
REMARK    2  A    between atoms: N4_13  and  C6_14 
REMARK    3  A    between atoms: N4_13  and  C10_21 
REMARK    4  A    between atoms: C6_14  and  C7_15 
REMARK    5  A    between atoms: C7_15  and  C8_17 
REMARK    6  A    between atoms: C11_26  and  N7_27 
ROOT
HETATM    1  N4  UNL     1     -24.611   5.243  12.643  1.00  0.00    -0.158 N 
ENDROOT
BRANCH   1   2
HETATM    2  C5  UNL     1     -23.467   5.350  11.809  1.00  0.00     0.688 A 
HETATM    3  N3  UNL     1     -23.258   4.998  10.535  1.00  0.00    -0.182 N 
HETATM    4  C4  UNL     1     -22.018   5.267  10.137  1.00  0.00     0.162 A 
ATOM      5  H3  UNL     1     -23.967   4.571   9.939  1.00  0.00     0.184 HD
HETATM    6  C3  UNL     1     -21.383   5.075   8.935  1.00  0.00     0.280 A 
HETATM    7  C13 UNL     1     -21.379   5.832  11.226  1.00  0.00     0.160 A 
HETATM    8  N2  UNL     1     -20.098   5.455   8.831  1.00  0.00    -0.273 N 
HETATM    9  O2  UNL     1     -21.976   4.561   7.953  1.00  0.00    -0.265 OA
HETATM   10  C2  UNL     1     -19.492   6.001   9.892  1.00  0.00     0.330 A 
ATOM     11  H2  UNL     1     -19.592   5.331   7.954  1.00  0.00     0.173 HD
HETATM   12  N1  UNL     1     -20.107   6.193  11.076  1.00  0.00    -0.287 N 
HETATM   13  O1  UNL     1     -18.284   6.364   9.814  1.00  0.00    -0.246 OA
HETATM   14  C1  UNL     1     -19.395   6.782  12.190  1.00  0.00     0.163 C 
HETATM   15  N9  UNL     1     -22.297   5.867  12.232  1.00  0.00    -0.173 N 
ATOM     16  H9  UNL     1     -22.123   6.232  13.168  1.00  0.00     0.186 HD
ENDBRANCH   1   2
BRANCH   1  17
HETATM   17  C6  UNL     1     -25.644   6.210  12.742  1.00  0.00     0.193 C 
BRANCH  17  18
HETATM   18  C7  UNL     1     -25.446   7.368  13.646  1.00  0.00     0.260 C 
HETATM   19  F1  UNL     1     -25.983   8.479  12.945  1.00  0.00    -0.241 F 
BRANCH  18  20
HETATM   20  C8  UNL     1     -26.196   7.337  14.941  1.00  0.00     0.271 C 
HETATM   21  C9  UNL     1     -27.258   8.402  15.035  1.00  0.00     0.093 C 
HETATM   22  F2  UNL     1     -26.726   6.150  15.310  1.00  0.00    -0.204 F 
HETATM   23  F3  UNL     1     -25.250   7.670  15.932  1.00  0.00    -0.204 F 
ENDBRANCH  18  20
ENDBRANCH  17  18
ENDBRANCH   1  17
BRANCH   1  24
HETATM   24  C10 UNL     1     -24.698   4.042  13.440  1.00  0.00     0.207 A 
HETATM   25  N5  UNL     1     -24.410   3.981  14.731  1.00  0.00    -0.266 N 
HETATM   26  N6  UNL     1     -24.502   2.861  15.426  1.00  0.00    -0.131 N 
ATOM     27  H5  UNL     1     -24.106   4.830  15.207  1.00  0.00     0.189 HD
HETATM   28  C11 UNL     1     -24.904   1.717  14.823  1.00  0.00     0.693 A 
ATOM     29  H6  UNL     1     -24.271   2.858  16.419  1.00  0.00     0.205 HD
HETATM   30  N8  UNL     1     -25.211   1.718  13.503  1.00  0.00    -0.152 N 
HETATM   31  C12 UNL     1     -25.108   2.869  12.823  1.00  0.00     0.305 A 
ATOM     32  H8  UNL     1     -25.513   0.861  13.037  1.00  0.00     0.188 HD
HETATM   33  O3  UNL     1     -25.394   2.880  11.586  1.00  0.00    -0.263 OA
BRANCH  28  34
HETATM   34  N7  UNL     1     -25.012   0.597  15.457  1.00  0.00    -0.233 N 
ATOM     35  H72 UNL     1     -24.802   0.601  16.455  1.00  0.00     0.174 HD
ATOM     36  H71 UNL     1     -25.295  -0.270  14.998  1.00  0.00     0.174 HD
ENDBRANCH  28  34
ENDBRANCH   1  24
TORSDOF 6
ENDMDL
MODEL 4
REMARK VINA RESULT: -6.884065930      0.937      1.920
REMARK  6 active torsions:
REMARK  status: ('A' for Active; 'I' for Inactive)
REMARK    1  A    between atoms: C5_12  and  N4_13 
REMARK    2  A    between atoms: N4_13  and  C6_14 
REMARK    3  A    between atoms: N4_13  and  C10_21 
REMARK    4  A    between atoms: C6_14  and  C7_15 
REMARK    5  A    between atoms: C7_15  and  C8_17 
REMARK    6  A    between atoms: C11_26  and  N7_27 
ROOT
HETATM    1  N4  UNL     1     -24.653   5.322  13.489  1.00  0.00    -0.158 N 
ENDROOT
BRANCH   1   2
HETATM    2  C5  UNL     1     -23.357   5.770  13.122  1.00  0.00     0.688 A 
HETATM    3  N3  UNL     1     -22.709   6.915  13.368  1.00  0.00    -0.182 N 
HETATM    4  C4  UNL     1     -21.496   6.932  12.823  1.00  0.00     0.162 A 
ATOM      5  H3  UNL     1     -23.100   7.685  13.910  1.00  0.00     0.184 HD
HETATM    6  C3  UNL     1     -20.508   7.885  12.822  1.00  0.00     0.280 A 
HETATM    7  C13 UNL     1     -21.347   5.716  12.180  1.00  0.00     0.160 A 
HETATM    8  N2  UNL     1     -19.365   7.611  12.170  1.00  0.00    -0.273 N 
HETATM    9  O2  UNL     1     -20.656   8.985  13.411  1.00  0.00    -0.265 OA
HETATM   10  C2  UNL     1     -19.234   6.430  11.552  1.00  0.00     0.330 A 
ATOM     11  H2  UNL     1     -18.607   8.292  12.148  1.00  0.00     0.173 HD
HETATM   12  N1  UNL     1     -20.198   5.488  11.547  1.00  0.00    -0.287 N 
HETATM   13  O1  UNL     1     -18.168   6.154  10.934  1.00  0.00    -0.246 OA
HETATM   14  C1  UNL     1     -20.000   4.233  10.855  1.00  0.00     0.163 C 
HETATM   15  N9  UNL     1     -22.507   5.031  12.385  1.00  0.00    -0.173 N 
ATOM     16  H9  UNL     1     -22.702   4.094  12.031  1.00  0.00     0.186 HD
ENDBRANCH   1   2
BRANCH   1  17
HETATM   17  C6  UNL     1     -25.846   6.081  13.366  1.00  0.00     0.193 C 
BRANCH  17  18
HETATM   18  C7  UNL     1     -26.378   6.764  14.569  1.00  0.00     0.260 C 
HETATM   19  F1  UNL     1     -25.257   6.930  15.424  1.00  0.00    -0.241 F 
BRANCH  18  20
HETATM   20  C8  UNL     1     -26.910   8.149  14.369  1.00  0.00     0.271 C 
HETATM   21  C9  UNL     1     -26.297   8.853  13.186  1.00  0.00     0.093 C 
HETATM   22  F2  UNL     1     -28.254   8.282  14.315  1.00  0.00    -0.204 F 
HETATM   23  F3  UNL     1     -26.487   8.882  15.496  1.00  0.00    -0.204 F 
ENDBRANCH  18  20
ENDBRANCH  17  18
ENDBRANCH   1  17
BRANCH   1  24
HETATM   24  C10 UNL     1     -24.728   3.984  14.026  1.00  0.00     0.207 A 
HETATM   25  N5  UNL     1     -24.508   3.676  15.294  1.00  0.00    -0.266 N 
HETATM   26  N6  UNL     1     -24.586   2.436  15.747  1.00  0.00    -0.131 N 
ATOM     27  H5  UNL     1     -24.270   4.423  15.947  1.00  0.00     0.189 HD
HETATM   28  C11 UNL     1     -24.900   1.424  14.906  1.00  0.00     0.693 A 
ATOM     29  H6  UNL     1     -24.409   2.243  16.733  1.00  0.00     0.205 HD
HETATM   30  N8  UNL     1     -25.134   1.677  13.596  1.00  0.00    -0.152 N 
HETATM   31  C12 UNL     1     -25.049   2.945  13.165  1.00  0.00     0.305 A 
ATOM     32  H8  UNL     1     -25.371   0.922  12.952  1.00  0.00     0.188 HD
HETATM   33  O3  UNL     1     -25.267   3.193  11.939  1.00  0.00    -0.263 OA
BRANCH  28  34
HETATM   34  N7  UNL     1     -24.990   0.196  15.298  1.00  0.00    -0.233 N 
ATOM     35  H72 UNL     1     -25.880  -0.103  15.697  1.00  0.00     0.174 HD
ATOM     36  H71 UNL     1     -24.217  -0.465  15.221  1.00  0.00     0.174 HD
ENDBRANCH  28  34
ENDBRANCH   1  24
TORSDOF 6
ENDMDL
MODEL 5
REMARK VINA RESULT: -6.842543526      1.886      2.629
REMARK  6 active torsions:
REMARK  status: ('A' for Active; 'I' for Inactive)
REMARK    1  A    between atoms: C5_12  and  N4_13 
REMARK    2  A    between atoms: N4_13  and  C6_14 
REMARK    3  A    between atoms: N4_13  and  C10_21 
REMARK    4  A    between atoms: C6_14  and  C7_15 
REMARK    5  A    between atoms: C7_15  and  C8_17 
REMARK    6  A    between atoms: C11_26  and  N7_27 
ROOT
HETATM    1  N4  UNL     1     -24.605   5.138  12.603  1.00  0.00    -0.158 N 
ENDROOT
BRANCH   1   2
HETATM    2  C5  UNL     1     -23.558   5.114  11.646  1.00  0.00     0.688 A 
HETATM    3  N3  UNL     1     -22.230   5.009  11.781  1.00  0.00    -0.182 N 
HETATM    4  C4  UNL     1     -21.602   5.040  10.609  1.00  0.00     0.162 A 
ATOM      5  H3  UNL     1     -21.756   4.917  12.679  1.00  0.00     0.184 HD
HETATM    6  C3  UNL     1     -20.270   4.967  10.286  1.00  0.00     0.280 A 
HETATM    7  C13 UNL     1     -22.588   5.175   9.648  1.00  0.00     0.160 A 
HETATM    8  N2  UNL     1     -19.931   5.027   8.986  1.00  0.00    -0.273 N 
HETATM    9  O2  UNL     1     -19.384   4.844  11.168  1.00  0.00    -0.265 OA
HETATM   10  C2  UNL     1     -20.896   5.157   8.066  1.00  0.00     0.330 A 
ATOM     11  H2  UNL     1     -18.953   4.975   8.704  1.00  0.00     0.173 HD
HETATM   12  N1  UNL     1     -22.206   5.231   8.375  1.00  0.00    -0.287 N 
HETATM   13  O1  UNL     1     -20.597   5.217   6.840  1.00  0.00    -0.246 OA
HETATM   14  C1  UNL     1     -23.202   5.377   7.336  1.00  0.00     0.163 C 
HETATM   15  N9  UNL     1     -23.773   5.216  10.320  1.00  0.00    -0.173 N 
ATOM     16  H9  UNL     1     -24.689   5.310   9.882  1.00  0.00     0.186 HD
ENDBRANCH   1   2
BRANCH   1  17
HETATM   17  C6  UNL     1     -25.537   6.195  12.770  1.00  0.00     0.193 C 
BRANCH  17  18
HETATM   18  C7  UNL     1     -25.229   7.261  13.753  1.00  0.00     0.260 C 
HETATM   19  F1  UNL     1     -25.502   8.478  13.075  1.00  0.00    -0.241 F 
BRANCH  18  20
HETATM   20  C8  UNL     1     -26.092   7.307  14.976  1.00  0.00     0.271 C 
HETATM   21  C9  UNL     1     -27.150   8.378  14.914  1.00  0.00     0.093 C 
HETATM   22  F2  UNL     1     -26.661   6.145  15.364  1.00  0.00    -0.204 F 
HETATM   23  F3  UNL     1     -25.235   7.694  16.027  1.00  0.00    -0.204 F 
ENDBRANCH  18  20
ENDBRANCH  17  18
ENDBRANCH   1  17
BRANCH   1  24
HETATM   24  C10 UNL     1     -24.701   3.979  13.459  1.00  0.00     0.207 A 
HETATM   25  N5  UNL     1     -24.392   3.974  14.746  1.00  0.00    -0.266 N 
HETATM   26  N6  UNL     1     -24.493   2.891  15.496  1.00  0.00    -0.131 N 
ATOM     27  H5  UNL     1     -24.063   4.839  15.175  1.00  0.00     0.189 HD
HETATM   28  C11 UNL     1     -24.927   1.728  14.957  1.00  0.00     0.693 A 
ATOM     29  H6  UNL     1     -24.244   2.931  16.485  1.00  0.00     0.205 HD
HETATM   30  N8  UNL     1     -25.258   1.671  13.643  1.00  0.00    -0.152 N 
HETATM   31  C12 UNL     1     -25.146   2.786  12.907  1.00  0.00     0.305 A 
ATOM     32  H8  UNL     1     -25.585   0.800  13.225  1.00  0.00     0.188 HD
HETATM   33  O3  UNL     1     -25.453   2.743  11.676  1.00  0.00    -0.263 OA
BRANCH  28  34
HETATM   34  N7  UNL     1     -25.046   0.642  15.646  1.00  0.00    -0.233 N 
ATOM     35  H72 UNL     1     -24.696   0.654  16.604  1.00  0.00     0.174 HD
ATOM     36  H71 UNL     1     -25.470  -0.206  15.268  1.00  0.00     0.174 HD
ENDBRANCH  28  34
ENDBRANCH   1  24
TORSDOF 6
ENDMDL
