MODEL 1
REMARK VINA RESULT: -7.133529925      0.000      0.000
REMARK  8 active torsions:
REMARK  status: ('A' for Active; 'I' for Inactive)
REMARK    1  A    between atoms: N1_1  and  C1_4 
REMARK    2  A    between atoms: N4_9  and  C2_10 
REMARK    3  A    between atoms: C2_10  and  C3_11 
REMARK    4  A    between atoms: N5_12  and  N6_14 
REMARK       I    between atoms: N6_14  and  C4_16 
REMARK    5  A    between atoms: C4_16  and  C5_18 
REMARK    6  A    between atoms: C7_20  and  C8_21 
REMARK    7  A    between atoms: C10_26  and  S1_27 
REMARK    8  A    between atoms: S1_27  and  N7_28 
ROOT
HETATM    1  N6  UNL     1     -24.510   4.726   9.807  1.00  0.00    -0.266 N 
ATOM      2  H6  UNL     1     -25.504   4.950   9.754  1.00  0.00     0.190 HD
HETATM    3  C4  UNL     1     -23.893   4.504  11.061  1.00  0.00     0.270 C 
HETATM    4  O1  UNL     1     -22.644   4.242  11.055  1.00  0.00    -0.266 OA
ENDROOT
BRANCH   3   5
HETATM    5  C5  UNL     1     -24.599   4.556  12.340  1.00  0.00     0.035 A 
HETATM    6  C6  UNL     1     -25.194   5.709  12.766  1.00  0.00     0.033 A 
HETATM    7  C7  UNL     1     -25.833   5.757  14.000  1.00  0.00     0.050 A 
HETATM    8  C9  UNL     1     -25.862   4.606  14.802  1.00  0.00     0.041 A 
HETATM    9  C10 UNL     1     -25.263   3.436  14.378  1.00  0.00     0.081 A 
HETATM   10  C11 UNL     1     -24.633   3.441  13.128  1.00  0.00     0.042 A 
BRANCH   7  11
HETATM   11  C8  UNL     1     -26.465   7.008  14.454  1.00  0.00     0.417 C 
HETATM   12  F1  UNL     1     -26.837   6.876  15.774  1.00  0.00    -0.166 F 
HETATM   13  F2  UNL     1     -27.505   7.400  13.662  1.00  0.00    -0.166 F 
HETATM   14  F3  UNL     1     -25.551   8.072  14.426  1.00  0.00    -0.166 F 
ENDBRANCH   7  11
BRANCH   9  15
HETATM   15  S1  UNL     1     -25.312   2.019  15.398  1.00  0.00     0.256 S 
HETATM   16  O2  UNL     1     -24.156   2.017  16.375  1.00  0.00    -0.201 OA
HETATM   17  O3  UNL     1     -25.164   0.797  14.538  1.00  0.00    -0.201 OA
BRANCH  15  18
HETATM   18  N7  UNL     1     -26.803   1.937  16.252  1.00  0.00    -0.324 N 
ATOM     19  H72 UNL     1     -27.147   2.675  16.867  1.00  0.00     0.169 HD
ATOM     20  H71 UNL     1     -27.282   1.059  16.055  1.00  0.00     0.169 HD
ENDBRANCH  15  18
ENDBRANCH   9  15
ENDBRANCH   3   5
BRANCH   1  21
HETATM   21  N5  UNL     1     -23.749   4.637   8.650  1.00  0.00    -0.311 N 
HETATM   22  C3  UNL     1     -23.144   5.650   8.112  1.00  0.00     0.103 C 
ATOM     23  H5  UNL     1     -23.659   3.726   8.200  1.00  0.00     0.185 HD
BRANCH  22  24
HETATM   24  C2  UNL     1     -22.337   5.502   6.884  1.00  0.00     0.217 C 
BRANCH  24  25
HETATM   25  N4  UNL     1     -21.092   4.817   7.176  1.00  0.00    -0.200 N 
HETATM   26  N3  UNL     1     -20.473   3.918   6.416  1.00  0.00    -0.211 N 
HETATM   27  N2  UNL     1     -19.375   3.498   7.000  1.00  0.00    -0.115 N 
ATOM     28  H3  UNL     1     -20.806   3.600   5.505  1.00  0.00     0.210 HD
HETATM   29  C1  UNL     1     -19.266   4.135   8.169  1.00  0.00     0.707 A 
ATOM     30  H2  UNL     1     -18.721   2.808   6.628  1.00  0.00     0.207 HD
HETATM   31  N8  UNL     1     -20.332   4.952   8.277  1.00  0.00    -0.113 N 
ATOM     32  H8  UNL     1     -20.529   5.570   9.064  1.00  0.00     0.207 HD
BRANCH  29  33
HETATM   33  N1  UNL     1     -18.328   4.041   9.078  1.00  0.00    -0.232 N 
ATOM     34  H12 UNL     1     -17.577   4.722   9.189  1.00  0.00     0.174 HD
ATOM     35  H11 UNL     1     -18.184   3.318   9.783  1.00  0.00     0.174 HD
ENDBRANCH  29  33
ENDBRANCH  24  25
ENDBRANCH  22  24
ENDBRANCH   1  21
TORSDOF 8
ENDMDL
MODEL 2
REMARK VINA RESULT: -6.999490600      1.905      2.295
REMARK  8 active torsions:
REMARK  status: ('A' for Active; 'I' for Inactive)
REMARK    1  A    between atoms: N1_1  and  C1_4 
REMARK    2  A    between atoms: N4_9  and  C2_10 
REMARK    3  A    between atoms: C2_10  and  C3_11 
REMARK    4  A    between atoms: N5_12  and  N6_14 
REMARK       I    between atoms: N6_14  and  C4_16 
REMARK    5  A    between atoms: C4_16  and  C5_18 
REMARK    6  A    between atoms: C7_20  and  C8_21 
REMARK    7  A    between atoms: C10_26  and  S1_27 
REMARK    8  A    between atoms: S1_27  and  N7_28 
ROOT
HETATM    1  N6  UNL     1     -21.314   4.871  12.586  1.00  0.00    -0.266 N 
ATOM      2  H6  UNL     1     -21.215   4.266  13.401  1.00  0.00     0.190 HD
HETATM    3  C4  UNL     1     -22.564   5.458  12.278  1.00  0.00     0.270 C 
HETATM    4  O1  UNL     1     -22.619   6.193  11.236  1.00  0.00    -0.266 OA
ENDROOT
BRANCH   3   5
HETATM    5  C5  UNL     1     -23.774   5.273  13.077  1.00  0.00     0.035 A 
HETATM    6  C6  UNL     1     -24.690   6.278  13.207  1.00  0.00     0.033 A 
HETATM    7  C7  UNL     1     -25.820   6.103  13.998  1.00  0.00     0.050 A 
HETATM    8  C9  UNL     1     -26.010   4.880  14.660  1.00  0.00     0.041 A 
HETATM    9  C10 UNL     1     -25.089   3.859  14.533  1.00  0.00     0.081 A 
HETATM   10  C11 UNL     1     -23.968   4.086  13.726  1.00  0.00     0.042 A 
BRANCH   7  11
HETATM   11  C8  UNL     1     -26.797   7.196  14.137  1.00  0.00     0.417 C 
HETATM   12  F1  UNL     1     -26.979   7.475  15.473  1.00  0.00    -0.166 F 
HETATM   13  F2  UNL     1     -27.976   6.944  13.497  1.00  0.00    -0.166 F 
HETATM   14  F3  UNL     1     -26.309   8.383  13.569  1.00  0.00    -0.166 F 
ENDBRANCH   7  11
BRANCH   9  15
HETATM   15  S1  UNL     1     -25.351   2.349  15.371  1.00  0.00     0.256 S 
HETATM   16  O2  UNL     1     -24.239   2.082  16.362  1.00  0.00    -0.201 OA
HETATM   17  O3  UNL     1     -25.327   1.229  14.371  1.00  0.00    -0.201 OA
BRANCH  15  18
HETATM   18  N7  UNL     1     -26.869   2.359  16.179  1.00  0.00    -0.324 N 
ATOM     19  H72 UNL     1     -27.366   3.209  16.444  1.00  0.00     0.169 HD
ATOM     20  H71 UNL     1     -27.192   1.406  16.349  1.00  0.00     0.169 HD
ENDBRANCH  15  18
ENDBRANCH   9  15
ENDBRANCH   3   5
BRANCH   1  21
HETATM   21  N5  UNL     1     -20.223   5.127  11.767  1.00  0.00    -0.311 N 
HETATM   22  C3  UNL     1     -19.777   4.285  10.887  1.00  0.00     0.103 C 
ATOM     23  H5  UNL     1     -19.747   6.024  11.862  1.00  0.00     0.185 HD
BRANCH  22  24
HETATM   24  C2  UNL     1     -18.617   4.608  10.031  1.00  0.00     0.217 C 
BRANCH  24  25
HETATM   25  N4  UNL     1     -18.836   4.127   8.680  1.00  0.00    -0.200 N 
HETATM   26  N3  UNL     1     -19.851   4.430   7.875  1.00  0.00    -0.211 N 
HETATM   27  N2  UNL     1     -19.732   3.802   6.728  1.00  0.00    -0.115 N 
ATOM     28  H3  UNL     1     -20.615   5.061   8.116  1.00  0.00     0.210 HD
HETATM   29  C1  UNL     1     -18.615   3.073   6.777  1.00  0.00     0.707 A 
ATOM     30  H2  UNL     1     -20.378   3.861   5.940  1.00  0.00     0.207 HD
HETATM   31  N8  UNL     1     -18.061   3.275   7.988  1.00  0.00    -0.113 N 
ATOM     32  H8  UNL     1     -17.196   2.851   8.324  1.00  0.00     0.207 HD
BRANCH  29  33
HETATM   33  N1  UNL     1     -18.092   2.297   5.859  1.00  0.00    -0.232 N 
ATOM     34  H12 UNL     1     -18.552   2.075   4.977  1.00  0.00     0.174 HD
ATOM     35  H11 UNL     1     -17.200   1.803   5.865  1.00  0.00     0.174 HD
ENDBRANCH  29  33
ENDBRANCH  24  25
ENDBRANCH  22  24
ENDBRANCH   1  21
TORSDOF 8
ENDMDL
MODEL 3
REMARK VINA RESULT: -6.911294357      5.064      9.032
REMARK  8 active torsions:
REMARK  status: ('A' for Active; 'I' for Inactive)
REMARK    1  A    between atoms: N1_1  and  C1_4 
REMARK    2  A    between atoms: N4_9  and  C2_10 
REMARK    3  A    between atoms: C2_10  and  C3_11 
REMARK    4  A    between atoms: N5_12  and  N6_14 
REMARK       I    between atoms: N6_14  and  C4_16 
REMARK    5  A    between atoms: C4_16  and  C5_18 
REMARK    6  A    between atoms: C7_20  and  C8_21 
REMARK    7  A    between atoms: C10_26  and  S1_27 
REMARK    8  A    between atoms: S1_27  and  N7_28 
ROOT
HETATM    1  N6  UNL     1     -21.677   3.795  12.425  1.00  0.00    -0.266 N 
ATOM      2  H6  UNL     1     -21.123   2.949  12.561  1.00  0.00     0.190 HD
HETATM    3  C4  UNL     1     -21.171   4.863  11.646  1.00  0.00     0.270 C 
HETATM    4  O1  UNL     1     -21.910   5.896  11.529  1.00  0.00    -0.266 OA
ENDROOT
BRANCH   3   5
HETATM    5  C5  UNL     1     -19.870   4.845  10.979  1.00  0.00     0.035 A 
HETATM    6  C6  UNL     1     -18.770   5.396  11.573  1.00  0.00     0.033 A 
HETATM    7  C7  UNL     1     -17.545   5.404  10.915  1.00  0.00     0.050 A 
HETATM    8  C9  UNL     1     -17.451   4.837   9.634  1.00  0.00     0.041 A 
HETATM    9  C10 UNL     1     -18.559   4.277   9.028  1.00  0.00     0.081 A 
HETATM   10  C11 UNL     1     -19.769   4.295   9.733  1.00  0.00     0.042 A 
BRANCH   7  11
HETATM   11  C8  UNL     1     -16.367   6.008  11.561  1.00  0.00     0.417 C 
HETATM   12  F1  UNL     1     -16.426   5.779  12.917  1.00  0.00    -0.166 F 
HETATM   13  F2  UNL     1     -16.215   7.331  11.266  1.00  0.00    -0.166 F 
HETATM   14  F3  UNL     1     -15.184   5.389  11.127  1.00  0.00    -0.166 F 
ENDBRANCH   7  11
BRANCH   9  15
HETATM   15  S1  UNL     1     -18.413   3.581   7.433  1.00  0.00     0.256 S 
HETATM   16  O2  UNL     1     -18.021   2.122   7.513  1.00  0.00    -0.201 OA
HETATM   17  O3  UNL     1     -17.317   4.292   6.692  1.00  0.00    -0.201 OA
BRANCH  15  18
HETATM   18  N7  UNL     1     -19.888   3.747   6.563  1.00  0.00    -0.324 N 
ATOM     19  H72 UNL     1     -20.680   3.111   6.660  1.00  0.00     0.169 HD
ATOM     20  H71 UNL     1     -19.853   4.560   5.947  1.00  0.00     0.169 HD
ENDBRANCH  15  18
ENDBRANCH   9  15
ENDBRANCH   3   5
BRANCH   1  21
HETATM   21  N5  UNL     1     -22.933   3.910  13.002  1.00  0.00    -0.311 N 
HETATM   22  C3  UNL     1     -23.946   3.176  12.660  1.00  0.00     0.103 C 
ATOM     23  H5  UNL     1     -23.067   4.608  13.733  1.00  0.00     0.185 HD
BRANCH  22  24
HETATM   24  C2  UNL     1     -25.263   3.331  13.311  1.00  0.00     0.217 C 
BRANCH  24  25
HETATM   25  N4  UNL     1     -25.383   2.418  14.432  1.00  0.00    -0.200 N 
HETATM   26  N3  UNL     1     -24.887   1.187  14.521  1.00  0.00    -0.211 N 
HETATM   27  N2  UNL     1     -25.200   0.646  15.675  1.00  0.00    -0.115 N 
ATOM     28  H3  UNL     1     -24.339   0.728  13.793  1.00  0.00     0.210 HD
HETATM   29  C1  UNL     1     -25.916   1.539  16.363  1.00  0.00     0.707 A 
ATOM     30  H2  UNL     1     -24.943  -0.290  15.991  1.00  0.00     0.207 HD
HETATM   31  N8  UNL     1     -26.029   2.637  15.590  1.00  0.00    -0.113 N 
ATOM     32  H8  UNL     1     -26.524   3.492  15.842  1.00  0.00     0.207 HD
BRANCH  29  33
HETATM   33  N1  UNL     1     -26.431   1.439  17.563  1.00  0.00    -0.232 N 
ATOM     34  H12 UNL     1     -26.484   0.565  18.085  1.00  0.00     0.174 HD
ATOM     35  H11 UNL     1     -26.850   2.164  18.147  1.00  0.00     0.174 HD
ENDBRANCH  29  33
ENDBRANCH  24  25
ENDBRANCH  22  24
ENDBRANCH   1  21
TORSDOF 8
ENDMDL
MODEL 4
REMARK VINA RESULT: -6.839536534      0.867      1.486
REMARK  8 active torsions:
REMARK  status: ('A' for Active; 'I' for Inactive)
REMARK    1  A    between atoms: N1_1  and  C1_4 
REMARK    2  A    between atoms: N4_9  and  C2_10 
REMARK    3  A    between atoms: C2_10  and  C3_11 
REMARK    4  A    between atoms: N5_12  and  N6_14 
REMARK       I    between atoms: N6_14  and  C4_16 
REMARK    5  A    between atoms: C4_16  and  C5_18 
REMARK    6  A    between atoms: C7_20  and  C8_21 
REMARK    7  A    between atoms: C10_26  and  S1_27 
REMARK    8  A    between atoms: S1_27  and  N7_28 
ROOT
HETATM    1  N6  UNL     1     -24.526   4.691   9.812  1.00  0.00    -0.266 N 
ATOM      2  H6  UNL     1     -25.526   4.887   9.770  1.00  0.00     0.190 HD
HETATM    3  C4  UNL     1     -23.893   4.471  11.058  1.00  0.00     0.270 C 
HETATM    4  O1  UNL     1     -22.637   4.245  11.039  1.00  0.00    -0.266 OA
ENDROOT
BRANCH   3   5
HETATM    5  C5  UNL     1     -24.589   4.484  12.343  1.00  0.00     0.035 A 
HETATM    6  C6  UNL     1     -25.175   5.627  12.811  1.00  0.00     0.033 A 
HETATM    7  C7  UNL     1     -25.805   5.638  14.051  1.00  0.00     0.050 A 
HETATM    8  C9  UNL     1     -25.835   4.461  14.815  1.00  0.00     0.041 A 
HETATM    9  C10 UNL     1     -25.246   3.302  14.348  1.00  0.00     0.081 A 
HETATM   10  C11 UNL     1     -24.624   3.344  13.095  1.00  0.00     0.042 A 
BRANCH   7  11
HETATM   11  C8  UNL     1     -26.427   6.877  14.549  1.00  0.00     0.417 C 
HETATM   12  F1  UNL     1     -25.535   7.918  14.415  1.00  0.00    -0.166 F 
HETATM   13  F2  UNL     1     -26.899   6.763  15.824  1.00  0.00    -0.166 F 
HETATM   14  F3  UNL     1     -27.538   7.231  13.768  1.00  0.00    -0.166 F 
ENDBRANCH   7  11
BRANCH   9  15
HETATM   15  S1  UNL     1     -25.295   1.854  15.323  1.00  0.00     0.256 S 
HETATM   16  O2  UNL     1     -26.644   1.697  15.990  1.00  0.00    -0.201 OA
HETATM   17  O3  UNL     1     -24.273   1.970  16.417  1.00  0.00    -0.201 OA
BRANCH  15  18
HETATM   18  N7  UNL     1     -24.948   0.467  14.366  1.00  0.00    -0.324 N 
ATOM     19  H72 UNL     1     -24.069   0.325  13.868  1.00  0.00     0.169 HD
ATOM     20  H71 UNL     1     -25.737  -0.179  14.370  1.00  0.00     0.169 HD
ENDBRANCH  15  18
ENDBRANCH   9  15
ENDBRANCH   3   5
BRANCH   1  21
HETATM   21  N5  UNL     1     -23.772   4.639   8.648  1.00  0.00    -0.311 N 
HETATM   22  C3  UNL     1     -23.222   5.681   8.106  1.00  0.00     0.103 C 
ATOM     23  H5  UNL     1     -23.643   3.734   8.196  1.00  0.00     0.185 HD
BRANCH  22  24
HETATM   24  C2  UNL     1     -22.420   5.573   6.871  1.00  0.00     0.217 C 
BRANCH  24  25
HETATM   25  N4  UNL     1     -21.137   4.955   7.152  1.00  0.00    -0.200 N 
HETATM   26  N3  UNL     1     -20.340   5.200   8.189  1.00  0.00    -0.211 N 
HETATM   27  N2  UNL     1     -19.253   4.468   8.117  1.00  0.00    -0.115 N 
ATOM     28  H3  UNL     1     -20.546   5.864   8.936  1.00  0.00     0.210 HD
HETATM   29  C1  UNL     1     -19.336   3.724   7.010  1.00  0.00     0.707 A 
ATOM     30  H2  UNL     1     -18.482   4.468   8.785  1.00  0.00     0.207 HD
HETATM   31  N8  UNL     1     -20.504   4.028   6.414  1.00  0.00    -0.113 N 
ATOM     32  H8  UNL     1     -20.851   3.622   5.545  1.00  0.00     0.207 HD
BRANCH  29  33
HETATM   33  N1  UNL     1     -18.488   2.841   6.541  1.00  0.00    -0.232 N 
ATOM     34  H12 UNL     1     -18.110   2.072   7.093  1.00  0.00     0.174 HD
ATOM     35  H11 UNL     1     -18.078   2.775   5.610  1.00  0.00     0.174 HD
ENDBRANCH  29  33
ENDBRANCH  24  25
ENDBRANCH  22  24
ENDBRANCH   1  21
TORSDOF 8
ENDMDL
MODEL 5
REMARK VINA RESULT: -6.720766458      2.304      3.184
REMARK  8 active torsions:
REMARK  status: ('A' for Active; 'I' for Inactive)
REMARK    1  A    between atoms: N1_1  and  C1_4 
REMARK    2  A    between atoms: N4_9  and  C2_10 
REMARK    3  A    between atoms: C2_10  and  C3_11 
REMARK    4  A    between atoms: N5_12  and  N6_14 
REMARK       I    between atoms: N6_14  and  C4_16 
REMARK    5  A    between atoms: C4_16  and  C5_18 
REMARK    6  A    between atoms: C7_20  and  C8_21 
REMARK    7  A    between atoms: C10_26  and  S1_27 
REMARK    8  A    between atoms: S1_27  and  N7_28 
ROOT
HETATM    1  N6  UNL     1     -22.158   4.999  11.125  1.00  0.00    -0.266 N 
ATOM      2  H6  UNL     1     -22.847   4.398  10.674  1.00  0.00     0.190 HD
HETATM    3  C4  UNL     1     -22.433   5.581  12.385  1.00  0.00     0.270 C 
HETATM    4  O1  UNL     1     -21.532   6.333  12.886  1.00  0.00    -0.266 OA
ENDROOT
BRANCH   3   5
HETATM    5  C5  UNL     1     -23.672   5.368  13.132  1.00  0.00     0.035 A 
HETATM    6  C6  UNL     1     -24.604   6.360  13.241  1.00  0.00     0.033 A 
HETATM    7  C7  UNL     1     -25.763   6.159  13.982  1.00  0.00     0.050 A 
HETATM    8  C9  UNL     1     -25.966   4.922  14.615  1.00  0.00     0.041 A 
HETATM    9  C10 UNL     1     -25.028   3.914  14.508  1.00  0.00     0.081 A 
HETATM   10  C11 UNL     1     -23.878   4.168  13.751  1.00  0.00     0.042 A 
BRANCH   7  11
HETATM   11  C8  UNL     1     -26.759   7.238  14.099  1.00  0.00     0.417 C 
HETATM   12  F1  UNL     1     -26.952   7.535  15.431  1.00  0.00    -0.166 F 
HETATM   13  F2  UNL     1     -27.930   6.957  13.458  1.00  0.00    -0.166 F 
HETATM   14  F3  UNL     1     -26.286   8.424  13.516  1.00  0.00    -0.166 F 
ENDBRANCH   7  11
BRANCH   9  15
HETATM   15  S1  UNL     1     -25.305   2.387  15.310  1.00  0.00     0.256 S 
HETATM   16  O2  UNL     1     -24.208   2.096  16.310  1.00  0.00    -0.201 OA
HETATM   17  O3  UNL     1     -25.270   1.289  14.286  1.00  0.00    -0.201 OA
BRANCH  15  18
HETATM   18  N7  UNL     1     -26.834   2.383  16.096  1.00  0.00    -0.324 N 
ATOM     19  H72 UNL     1     -27.666   2.842  15.724  1.00  0.00     0.169 HD
ATOM     20  H71 UNL     1     -26.786   1.863  16.973  1.00  0.00     0.169 HD
ENDBRANCH  15  18
ENDBRANCH   9  15
ENDBRANCH   3   5
BRANCH   1  21
HETATM   21  N5  UNL     1     -20.941   5.255  10.510  1.00  0.00    -0.311 N 
HETATM   22  C3  UNL     1     -19.965   4.401  10.473  1.00  0.00     0.103 C 
ATOM     23  H5  UNL     1     -20.806   6.162  10.063  1.00  0.00     0.185 HD
BRANCH  22  24
HETATM   24  C2  UNL     1     -18.690   4.718   9.796  1.00  0.00     0.217 C 
BRANCH  24  25
HETATM   25  N4  UNL     1     -17.682   5.096  10.768  1.00  0.00    -0.200 N 
HETATM   26  N3  UNL     1     -17.805   5.095  12.093  1.00  0.00    -0.211 N 
HETATM   27  N2  UNL     1     -16.695   5.510  12.659  1.00  0.00    -0.115 N 
ATOM     28  H3  UNL     1     -18.645   4.812  12.598  1.00  0.00     0.210 HD
HETATM   29  C1  UNL     1     -15.821   5.787  11.687  1.00  0.00     0.707 A 
ATOM     30  H2  UNL     1     -16.529   5.603  13.661  1.00  0.00     0.207 HD
HETATM   31  N8  UNL     1     -16.436   5.531  10.516  1.00  0.00    -0.113 N 
ATOM     32  H8  UNL     1     -16.023   5.647   9.591  1.00  0.00     0.207 HD
BRANCH  29  33
HETATM   33  N1  UNL     1     -14.587   6.217  11.782  1.00  0.00    -0.232 N 
ATOM     34  H12 UNL     1     -14.326   7.201  11.730  1.00  0.00     0.174 HD
ATOM     35  H11 UNL     1     -13.727   5.684  11.906  1.00  0.00     0.174 HD
ENDBRANCH  29  33
ENDBRANCH  24  25
ENDBRANCH  22  24
ENDBRANCH   1  21
TORSDOF 8
ENDMDL
