MODEL 1
REMARK VINA RESULT: -7.441650590      0.000      0.000
REMARK  4 active torsions:
REMARK  status: ('A' for Active; 'I' for Inactive)
REMARK    1  A    between atoms: C2_2  and  C3_3 
REMARK    2  A    between atoms: C10_11  and  O2_12 
REMARK    3  A    between atoms: C11_14  and  C12_15 
REMARK    4  A    between atoms: C17_22  and  C18_23 
ROOT
HETATM    1  C3  UNL     1      12.645  -8.789 -11.454  1.00  0.00     0.074 C 
HETATM    2  C4  UNL     1      12.867  -8.855 -12.942  1.00  0.00     0.050 C 
HETATM    3  C5  UNL     1      12.371 -10.160 -10.855  1.00  0.00     0.043 C 
HETATM    4  C6  UNL     1      11.501  -9.890  -9.617  1.00  0.00     0.018 C 
HETATM    5  C7  UNL     1      10.136  -9.528 -10.138  1.00  0.00     0.024 C 
HETATM    6  C8  UNL     1      10.334  -8.680 -11.371  1.00  0.00     0.182 C 
HETATM    7  O1  UNL     1      11.521  -7.986 -11.229  1.00  0.00    -0.376 OA
HETATM    8  C9  UNL     1       9.139  -8.993  -9.211  1.00  0.00     0.068 C 
HETATM    9  C10 UNL     1       9.512  -8.576  -7.852  1.00  0.00     0.148 C 
HETATM   10  C11 UNL     1       8.419  -8.300  -6.931  1.00  0.00     0.091 C 
HETATM   11  C13 UNL     1       8.220  -6.788  -6.673  1.00  0.00     0.058 C 
HETATM   12  C14 UNL     1       6.952  -6.833  -5.852  1.00  0.00     0.126 C 
HETATM   13  C15 UNL     1       7.156  -6.650  -4.387  1.00  0.00     0.040 C 
HETATM   14  O4  UNL     1       6.319  -8.082  -6.175  1.00  0.00    -0.348 OA
HETATM   15  C16 UNL     1       7.059  -8.697  -7.218  1.00  0.00     0.075 C 
HETATM   16  C17 UNL     1       6.436  -9.414  -8.120  1.00  0.00     0.021 C 
HETATM   17  C20 UNL     1       7.012 -10.116  -9.259  1.00  0.00     0.086 C 
HETATM   18  C21 UNL     1       8.458 -10.323  -9.112  1.00  0.00     0.104 A 
HETATM   19  O6  UNL     1       9.101 -11.511  -9.202  1.00  0.00    -0.362 OA
HETATM   20  C22 UNL     1       9.300 -10.752 -10.319  1.00  0.00     0.100 A 
HETATM   21  C23 UNL     1       8.589 -11.028 -11.605  1.00  0.00     0.050 C 
ENDROOT
BRANCH   9  22
HETATM   22  O2  UNL     1      10.393  -9.530  -7.291  1.00  0.00    -0.393 OA
ATOM     23  H2  UNL     1      10.860  -9.139  -6.561  1.00  0.00     0.210 HD
ENDBRANCH   9  22
BRANCH   1  24
HETATM   24  C2  UNL     1      13.812  -8.197 -10.755  1.00  0.00     0.000 C 
HETATM   25  C1  UNL     1      15.053  -8.562 -11.054  1.00  0.00     0.010 C 
ENDBRANCH   1  24
BRANCH  10  26
HETATM   26  C12 UNL     1       8.794  -8.830  -5.585  1.00  0.00     0.250 C 
HETATM   27  O3  UNL     1       8.580  -9.981  -5.335  1.00  0.00    -0.305 OA
ENDBRANCH  10  26
BRANCH  16  28
HETATM   28  C18 UNL     1       4.985  -9.529  -7.979  1.00  0.00     0.154 C 
HETATM   29  C19 UNL     1       4.388 -10.077  -6.746  1.00  0.00     0.096 C 
HETATM   30  O5  UNL     1       4.219  -9.162  -8.905  1.00  0.00    -0.293 OA
ENDBRANCH  16  28
TORSDOF 4
ENDMDL
MODEL 2
REMARK VINA RESULT: -6.799665445      2.245      6.923
REMARK  4 active torsions:
REMARK  status: ('A' for Active; 'I' for Inactive)
REMARK    1  A    between atoms: C2_2  and  C3_3 
REMARK    2  A    between atoms: C10_11  and  O2_12 
REMARK    3  A    between atoms: C11_14  and  C12_15 
REMARK    4  A    between atoms: C17_22  and  C18_23 
ROOT
HETATM    1  C3  UNL     1       7.670  -8.659  -6.514  1.00  0.00     0.074 C 
HETATM    2  C4  UNL     1       8.234  -8.631  -5.118  1.00  0.00     0.050 C 
HETATM    3  C5  UNL     1       7.732 -10.051  -7.128  1.00  0.00     0.043 C 
HETATM    4  C6  UNL     1       7.833  -9.815  -8.644  1.00  0.00     0.018 C 
HETATM    5  C7  UNL     1       9.234  -9.327  -8.898  1.00  0.00     0.024 C 
HETATM    6  C8  UNL     1       9.604  -8.406  -7.761  1.00  0.00     0.182 C 
HETATM    7  O1  UNL     1       8.447  -7.804  -7.302  1.00  0.00    -0.376 OA
HETATM    8  C9  UNL     1       9.575  -8.797 -10.218  1.00  0.00     0.068 C 
HETATM    9  C10 UNL     1       8.532  -8.506 -11.212  1.00  0.00     0.148 C 
HETATM   10  C11 UNL     1       8.981  -8.227 -12.568  1.00  0.00     0.091 C 
HETATM   11  C13 UNL     1       8.881  -6.728 -12.936  1.00  0.00     0.058 C 
HETATM   12  C14 UNL     1       9.563  -6.749 -14.286  1.00  0.00     0.126 C 
HETATM   13  C15 UNL     1       8.633  -6.689 -15.449  1.00  0.00     0.040 C 
HETATM   14  O4  UNL     1      10.386  -7.928 -14.290  1.00  0.00    -0.348 OA
HETATM   15  C16 UNL     1      10.332  -8.512 -12.998  1.00  0.00     0.075 C 
HETATM   16  C17 UNL     1      11.388  -9.118 -12.517  1.00  0.00     0.021 C 
HETATM   17  C20 UNL     1      11.532  -9.771 -11.222  1.00  0.00     0.086 C 
HETATM   18  C21 UNL     1      10.234 -10.082 -10.609  1.00  0.00     0.104 A 
HETATM   19  O6  UNL     1       9.839 -11.301 -10.170  1.00  0.00    -0.362 OA
HETATM   20  C22 UNL     1      10.158 -10.476  -9.130  1.00  0.00     0.100 A 
HETATM   21  C23 UNL     1      11.441 -10.610  -8.375  1.00  0.00     0.050 C 
ENDROOT
BRANCH   9  22
HETATM   22  O2  UNL     1       7.582  -9.554 -11.220  1.00  0.00    -0.393 OA
ATOM     23  H2  UNL     1       7.652 -10.039 -12.034  1.00  0.00     0.210 HD
ENDBRANCH   9  22
BRANCH   1  24
HETATM   24  C2  UNL     1       6.260  -8.199  -6.543  1.00  0.00     0.000 C 
HETATM   25  C1  UNL     1       5.950  -6.947  -6.859  1.00  0.00     0.010 C 
ENDBRANCH   1  24
BRANCH  10  26
HETATM   26  C12 UNL     1       8.033  -8.878 -13.522  1.00  0.00     0.250 C 
HETATM   27  O3  UNL     1       8.197 -10.028 -13.808  1.00  0.00    -0.305 OA
ENDBRANCH  10  26
BRANCH  16  28
HETATM   28  C18 UNL     1      12.575  -9.147 -13.370  1.00  0.00     0.154 C 
HETATM   29  C19 UNL     1      13.599  -8.088 -13.275  1.00  0.00     0.096 C 
HETATM   30  O5  UNL     1      12.747 -10.075 -14.199  1.00  0.00    -0.293 OA
ENDBRANCH  16  28
TORSDOF 4
ENDMDL
MODEL 3
REMARK VINA RESULT: -6.798850042      2.600      7.166
REMARK  4 active torsions:
REMARK  status: ('A' for Active; 'I' for Inactive)
REMARK    1  A    between atoms: C2_2  and  C3_3 
REMARK    2  A    between atoms: C10_11  and  O2_12 
REMARK    3  A    between atoms: C11_14  and  C12_15 
REMARK    4  A    between atoms: C17_22  and  C18_23 
ROOT
HETATM    1  C3  UNL     1       7.664  -9.694  -7.466  1.00  0.00     0.074 C 
HETATM    2  C4  UNL     1       8.155  -9.819  -6.048  1.00  0.00     0.050 C 
HETATM    3  C5  UNL     1       8.163 -10.831  -8.346  1.00  0.00     0.043 C 
HETATM    4  C6  UNL     1       8.227 -10.241  -9.764  1.00  0.00     0.018 C 
HETATM    5  C7  UNL     1       9.419  -9.323  -9.780  1.00  0.00     0.024 C 
HETATM    6  C8  UNL     1       9.461  -8.614  -8.448  1.00  0.00     0.182 C 
HETATM    7  O1  UNL     1       8.164  -8.495  -7.984  1.00  0.00    -0.376 OA
HETATM    8  C9  UNL     1       9.617  -8.433 -10.924  1.00  0.00     0.068 C 
HETATM    9  C10 UNL     1       8.562  -8.242 -11.930  1.00  0.00     0.148 C 
HETATM   10  C11 UNL     1       8.940  -7.547 -13.150  1.00  0.00     0.091 C 
HETATM   11  C13 UNL     1       8.398  -6.099 -13.208  1.00  0.00     0.058 C 
HETATM   12  C14 UNL     1       9.089  -5.617 -14.464  1.00  0.00     0.126 C 
HETATM   13  C15 UNL     1       8.216  -5.569 -15.671  1.00  0.00     0.040 C 
HETATM   14  O4  UNL     1      10.232  -6.471 -14.635  1.00  0.00    -0.348 OA
HETATM   15  C16 UNL     1      10.324  -7.321 -13.503  1.00  0.00     0.075 C 
HETATM   16  C17 UNL     1      11.502  -7.685 -13.061  1.00  0.00     0.021 C 
HETATM   17  C20 UNL     1      11.803  -8.542 -11.921  1.00  0.00     0.086 C 
HETATM   18  C21 UNL     1      10.647  -9.348 -11.509  1.00  0.00     0.104 A 
HETATM   19  O6  UNL     1      10.630 -10.695 -11.371  1.00  0.00    -0.362 OA
HETATM   20  C22 UNL     1      10.655 -10.070 -10.157  1.00  0.00     0.100 A 
HETATM   21  C23 UNL     1      11.898  -9.990  -9.330  1.00  0.00     0.050 C 
ENDROOT
BRANCH   9  22
HETATM   22  O2  UNL     1       7.976  -9.492 -12.243  1.00  0.00    -0.393 OA
ATOM     23  H2  UNL     1       7.055  -9.477 -12.013  1.00  0.00     0.210 HD
ENDBRANCH   9  22
BRANCH   1  24
HETATM   24  C2  UNL     1       6.182  -9.670  -7.530  1.00  0.00     0.000 C 
HETATM   25  C1  UNL     1       5.513  -8.525  -7.594  1.00  0.00     0.010 C 
ENDBRANCH   1  24
BRANCH  10  26
HETATM   26  C12 UNL     1       8.260  -8.213 -14.302  1.00  0.00     0.250 C 
HETATM   27  O3  UNL     1       8.775  -9.170 -14.804  1.00  0.00    -0.305 OA
ENDBRANCH  10  26
BRANCH  16  28
HETATM   28  C18 UNL     1      12.663  -7.175 -13.787  1.00  0.00     0.154 C 
HETATM   29  C19 UNL     1      13.212  -7.909 -14.944  1.00  0.00     0.096 C 
HETATM   30  O5  UNL     1      13.216  -6.101 -13.442  1.00  0.00    -0.293 OA
ENDBRANCH  16  28
TORSDOF 4
ENDMDL
MODEL 4
REMARK VINA RESULT: -6.656953850      2.452      3.332
REMARK  4 active torsions:
REMARK  status: ('A' for Active; 'I' for Inactive)
REMARK    1  A    between atoms: C2_2  and  C3_3 
REMARK    2  A    between atoms: C10_11  and  O2_12 
REMARK    3  A    between atoms: C11_14  and  C12_15 
REMARK    4  A    between atoms: C17_22  and  C18_23 
ROOT
HETATM    1  C3  UNL     1      10.120  -6.899 -14.456  1.00  0.00     0.074 C 
HETATM    2  C4  UNL     1       9.700  -5.958 -15.555  1.00  0.00     0.050 C 
HETATM    3  C5  UNL     1       9.532  -8.291 -14.639  1.00  0.00     0.043 C 
HETATM    4  C6  UNL     1       9.415  -8.865 -13.219  1.00  0.00     0.018 C 
HETATM    5  C7  UNL     1       8.259  -8.150 -12.574  1.00  0.00     0.024 C 
HETATM    6  C8  UNL     1       8.315  -6.709 -13.019  1.00  0.00     0.182 C 
HETATM    7  O1  UNL     1       9.638  -6.381 -13.249  1.00  0.00    -0.376 OA
HETATM    8  C9  UNL     1       8.033  -8.312 -11.137  1.00  0.00     0.068 C 
HETATM    9  C10 UNL     1       9.040  -8.950 -10.277  1.00  0.00     0.148 C 
HETATM   10  C11 UNL     1       8.623  -9.292  -8.926  1.00  0.00     0.091 C 
HETATM   11  C13 UNL     1       9.215  -8.342  -7.858  1.00  0.00     0.058 C 
HETATM   12  C14 UNL     1       8.477  -8.838  -6.635  1.00  0.00     0.126 C 
HETATM   13  C15 UNL     1       9.285  -9.709  -5.736  1.00  0.00     0.040 C 
HETATM   14  O4  UNL     1       7.295  -9.491  -7.129  1.00  0.00    -0.348 OA
HETATM   15  C16 UNL     1       7.232  -9.291  -8.533  1.00  0.00     0.075 C 
HETATM   16  C17 UNL     1       6.067  -9.163  -9.117  1.00  0.00     0.021 C 
HETATM   17  C20 UNL     1       5.794  -8.950 -10.532  1.00  0.00     0.086 C 
HETATM   18  C21 UNL     1       6.941  -9.305 -11.379  1.00  0.00     0.104 A 
HETATM   19  O6  UNL     1       6.915 -10.162 -12.426  1.00  0.00    -0.362 OA
HETATM   20  C22 UNL     1       6.978  -8.865 -12.847  1.00  0.00     0.100 A 
HETATM   21  C23 UNL     1       5.784  -8.148 -13.392  1.00  0.00     0.050 C 
ENDROOT
BRANCH   9  22
HETATM   22  O2  UNL     1       9.561 -10.093 -10.929  1.00  0.00    -0.393 OA
ATOM     23  H2  UNL     1       9.521 -10.839 -10.342  1.00  0.00     0.210 HD
ENDBRANCH   9  22
BRANCH   1  24
HETATM   24  C2  UNL     1      11.596  -7.021 -14.377  1.00  0.00     0.000 C 
HETATM   25  C1  UNL     1      12.255  -6.707 -13.268  1.00  0.00     0.010 C 
ENDBRANCH   1  24
BRANCH  10  26
HETATM   26  C12 UNL     1       9.215 -10.617  -8.570  1.00  0.00     0.250 C 
HETATM   27  O3  UNL     1       8.643 -11.615  -8.901  1.00  0.00    -0.305 OA
ENDBRANCH  10  26
BRANCH  16  28
HETATM   28  C18 UNL     1       4.888  -9.238  -8.255  1.00  0.00     0.154 C 
HETATM   29  C19 UNL     1       3.736 -10.083  -8.625  1.00  0.00     0.096 C 
HETATM   30  O5  UNL     1       4.833  -8.585  -7.183  1.00  0.00    -0.293 OA
ENDBRANCH  16  28
TORSDOF 4
ENDMDL
MODEL 5
REMARK VINA RESULT: -6.583871424      2.508      6.523
REMARK  4 active torsions:
REMARK  status: ('A' for Active; 'I' for Inactive)
REMARK    1  A    between atoms: C2_2  and  C3_3 
REMARK    2  A    between atoms: C10_11  and  O2_12 
REMARK    3  A    between atoms: C11_14  and  C12_15 
REMARK    4  A    between atoms: C17_22  and  C18_23 
ROOT
HETATM    1  C3  UNL     1       7.866  -8.131  -5.794  1.00  0.00     0.074 C 
HETATM    2  C4  UNL     1       8.833  -7.833  -4.678  1.00  0.00     0.050 C 
HETATM    3  C5  UNL     1       7.806  -9.617  -6.117  1.00  0.00     0.043 C 
HETATM    4  C6  UNL     1       7.420  -9.688  -7.603  1.00  0.00     0.018 C 
HETATM    5  C7  UNL     1       8.646  -9.278  -8.372  1.00  0.00     0.024 C 
HETATM    6  C8  UNL     1       9.303  -8.153  -7.609  1.00  0.00     0.182 C 
HETATM    7  O1  UNL     1       8.316  -7.458  -6.935  1.00  0.00    -0.376 OA
HETATM    8  C9  UNL     1       8.534  -9.025  -9.809  1.00  0.00     0.068 C 
HETATM    9  C10 UNL     1       7.221  -8.924 -10.462  1.00  0.00     0.148 C 
HETATM   10  C11 UNL     1       7.213  -8.926 -11.917  1.00  0.00     0.091 C 
HETATM   11  C13 UNL     1       6.927  -7.528 -12.516  1.00  0.00     0.058 C 
HETATM   12  C14 UNL     1       7.157  -7.826 -13.981  1.00  0.00     0.126 C 
HETATM   13  C15 UNL     1       5.911  -7.986 -14.783  1.00  0.00     0.040 C 
HETATM   14  O4  UNL     1       7.997  -8.991 -14.017  1.00  0.00    -0.348 OA
HETATM   15  C16 UNL     1       8.376  -9.307 -12.687  1.00  0.00     0.075 C 
HETATM   16  C17 UNL     1       9.559  -9.817 -12.454  1.00  0.00     0.021 C 
HETATM   17  C20 UNL     1      10.130 -10.202 -11.169  1.00  0.00     0.086 C 
HETATM   18  C21 UNL     1       9.104 -10.370 -10.132  1.00  0.00     0.104 A 
HETATM   19  O6  UNL     1       8.927 -11.472  -9.366  1.00  0.00    -0.362 OA
HETATM   20  C22 UNL     1       9.510 -10.461  -8.657  1.00  0.00     0.100 A 
HETATM   21  C23 UNL     1      10.970 -10.458  -8.332  1.00  0.00     0.050 C 
ENDROOT
BRANCH   9  22
HETATM   22  O2  UNL     1       6.369  -9.941  -9.970  1.00  0.00    -0.393 OA
ATOM     23  H2  UNL     1       6.761 -10.790 -10.136  1.00  0.00     0.210 HD
ENDBRANCH   9  22
BRANCH   1  24
HETATM   24  C2  UNL     1       6.495  -7.668  -5.466  1.00  0.00     0.000 C 
HETATM   25  C1  UNL     1       5.911  -6.698  -6.160  1.00  0.00     0.010 C 
ENDBRANCH   1  24
BRANCH  10  26
HETATM   26  C12 UNL     1       6.050  -9.741 -12.381  1.00  0.00     0.250 C 
HETATM   27  O3  UNL     1       6.175 -10.928 -12.477  1.00  0.00    -0.305 OA
ENDBRANCH  10  26
BRANCH  16  28
HETATM   28  C18 UNL     1      10.424 -10.030 -13.614  1.00  0.00     0.154 C 
HETATM   29  C19 UNL     1      11.350  -8.975 -14.067  1.00  0.00     0.096 C 
HETATM   30  O5  UNL     1      10.394 -11.116 -14.246  1.00  0.00    -0.293 OA
ENDBRANCH  16  28
TORSDOF 4
ENDMDL
