MODEL 1
REMARK VINA RESULT: -7.139507132      0.000      0.000
REMARK  6 active torsions:
REMARK  status: ('A' for Active; 'I' for Inactive)
REMARK    1  A    between atoms: C2_2  and  C3_3 
REMARK    2  A    between atoms: C3_3  and  C4_4 
REMARK    3  A    between atoms: C6_6  and  O1_7 
REMARK    4  A    between atoms: C7_9  and  O2_10 
REMARK    5  A    between atoms: O2_10  and  C8_11 
REMARK    6  A    between atoms: C8_11  and  C9_13 
ROOT
HETATM    1  C4  UNL     1      11.898  -9.139 -11.669  1.00  0.00     0.134 C 
HETATM    2  C5  UNL     1      11.670  -8.695 -10.236  1.00  0.00     0.067 C 
HETATM    3  C6  UNL     1      11.048  -9.728  -9.399  1.00  0.00     0.150 C 
HETATM    4  C7  UNL     1       9.753  -9.460  -8.757  1.00  0.00     0.161 C 
HETATM    5  C14 UNL     1       8.757  -8.624  -9.472  1.00  0.00     0.047 C 
HETATM    6  C15 UNL     1       7.724  -9.330 -10.275  1.00  0.00     0.054 C 
HETATM    7  C16 UNL     1       7.259 -10.555  -9.464  1.00  0.00     0.018 C 
HETATM    8  C17 UNL     1       8.101  -9.715 -11.649  1.00  0.00     0.140 C 
HETATM    9  O4  UNL     1       8.696 -10.784 -11.722  1.00  0.00    -0.297 OA
HETATM   10  C18 UNL     1       7.854  -8.998 -12.884  1.00  0.00     0.030 C 
HETATM   11  C19 UNL     1       7.460  -9.992 -14.013  1.00  0.00     0.024 C 
HETATM   12  C20 UNL     1       6.765  -7.946 -12.869  1.00  0.00     0.018 C 
HETATM   13  C21 UNL     1       7.860  -6.902 -12.873  1.00  0.00     0.017 C 
HETATM   14  C22 UNL     1       8.758  -8.023 -13.430  1.00  0.00     0.101 C 
HETATM   15  C23 UNL     1      10.144  -7.836 -13.026  1.00  0.00     0.264 C 
HETATM   16  O5  UNL     1      10.459  -6.581 -13.126  1.00  0.00    -0.265 OA
HETATM   17  O6  UNL     1      11.051  -8.683 -12.611  1.00  0.00    -0.316 OA
ENDROOT
BRANCH   4  18
HETATM   18  O2  UNL     1      10.005  -8.968  -7.428  1.00  0.00    -0.313 OA
BRANCH  18  19
HETATM   19  C8  UNL     1       9.078  -8.884  -6.439  1.00  0.00     0.263 C 
HETATM   20  O3  UNL     1       8.815  -9.887  -5.749  1.00  0.00    -0.265 OA
BRANCH  19  21
HETATM   21  C9  UNL     1       8.396  -7.599  -6.197  1.00  0.00     0.085 C 
HETATM   22  C10 UNL     1       8.476  -7.281  -4.720  1.00  0.00     0.014 C 
HETATM   23  C11 UNL     1       7.206  -6.502  -4.404  1.00  0.00     0.001 C 
HETATM   24  C12 UNL     1       6.424  -6.431  -5.696  1.00  0.00     0.001 C 
HETATM   25  C13 UNL     1       6.904  -7.679  -6.415  1.00  0.00     0.014 C 
ENDBRANCH  19  21
ENDBRANCH  18  19
ENDBRANCH   4  18
BRANCH   3  26
HETATM   26  O1  UNL     1      11.963 -10.082  -8.370  1.00  0.00    -0.393 OA
ATOM     27  H1  UNL     1      11.467 -10.402  -7.625  1.00  0.00     0.210 HD
ENDBRANCH   3  26
BRANCH   1  28
HETATM   28  C3  UNL     1      13.367  -8.975 -12.065  1.00  0.00     0.032 C 
BRANCH  28  29
HETATM   29  C2  UNL     1      13.994  -7.739 -11.522  1.00  0.00    -0.002 C 
HETATM   30  C1  UNL     1      13.922  -6.696 -12.647  1.00  0.00     0.005 C 
ENDBRANCH  28  29
ENDBRANCH   1  28
TORSDOF 6
ENDMDL
MODEL 2
REMARK VINA RESULT: -7.099671752      2.069      3.250
REMARK  6 active torsions:
REMARK  status: ('A' for Active; 'I' for Inactive)
REMARK    1  A    between atoms: C2_2  and  C3_3 
REMARK    2  A    between atoms: C3_3  and  C4_4 
REMARK    3  A    between atoms: C6_6  and  O1_7 
REMARK    4  A    between atoms: C7_9  and  O2_10 
REMARK    5  A    between atoms: O2_10  and  C8_11 
REMARK    6  A    between atoms: C8_11  and  C9_13 
ROOT
HETATM    1  C4  UNL     1       9.888  -9.363  -9.494  1.00  0.00     0.134 C 
HETATM    2  C5  UNL     1       9.651  -8.227  -8.516  1.00  0.00     0.067 C 
HETATM    3  C6  UNL     1       8.967  -8.650  -7.288  1.00  0.00     0.150 C 
HETATM    4  C7  UNL     1       7.672  -8.049  -6.934  1.00  0.00     0.161 C 
HETATM    5  C14 UNL     1       6.729  -7.686  -8.021  1.00  0.00     0.047 C 
HETATM    6  C15 UNL     1       5.682  -8.680  -8.377  1.00  0.00     0.054 C 
HETATM    7  C16 UNL     1       5.147  -9.283  -7.064  1.00  0.00     0.018 C 
HETATM    8  C17 UNL     1       6.070  -9.738  -9.329  1.00  0.00     0.140 C 
HETATM    9  O4  UNL     1       6.618 -10.702  -8.808  1.00  0.00    -0.297 OA
HETATM   10  C18 UNL     1       5.880  -9.770 -10.766  1.00  0.00     0.030 C 
HETATM   11  C19 UNL     1       5.465 -11.197 -11.222  1.00  0.00     0.024 C 
HETATM   12  C20 UNL     1       4.839  -8.837 -11.348  1.00  0.00     0.018 C 
HETATM   13  C21 UNL     1       5.979  -7.981 -11.853  1.00  0.00     0.017 C 
HETATM   14  C22 UNL     1       6.837  -9.251 -11.704  1.00  0.00     0.101 C 
HETATM   15  C23 UNL     1       8.222  -8.918 -11.402  1.00  0.00     0.264 C 
HETATM   16  O5  UNL     1       8.594  -7.912 -12.132  1.00  0.00    -0.265 OA
HETATM   17  O6  UNL     1       9.081  -9.446 -10.568  1.00  0.00    -0.316 OA
ENDROOT
BRANCH   4  18
HETATM   18  O2  UNL     1       7.919  -6.940  -6.051  1.00  0.00    -0.313 OA
BRANCH  18  19
HETATM   19  C8  UNL     1       7.505  -6.864  -4.760  1.00  0.00     0.263 C 
HETATM   20  O3  UNL     1       8.078  -7.540  -3.884  1.00  0.00    -0.265 OA
BRANCH  19  21
HETATM   21  C9  UNL     1       6.379  -5.976  -4.414  1.00  0.00     0.085 C 
HETATM   22  C10 UNL     1       6.475  -5.625  -2.947  1.00  0.00     0.014 C 
HETATM   23  C11 UNL     1       5.037  -5.442  -2.478  1.00  0.00     0.001 C 
HETATM   24  C12 UNL     1       4.165  -5.729  -3.680  1.00  0.00     0.001 C 
HETATM   25  C13 UNL     1       5.042  -6.677  -4.478  1.00  0.00     0.014 C 
ENDBRANCH  19  21
ENDBRANCH  18  19
ENDBRANCH   4  18
BRANCH   3  26
HETATM   26  O1  UNL     1       9.844  -8.435  -6.189  1.00  0.00    -0.393 OA
ATOM     27  H1  UNL     1       9.627  -7.601  -5.790  1.00  0.00     0.210 HD
ENDBRANCH   3  26
BRANCH   1  28
HETATM   28  C3  UNL     1      11.371  -9.470  -9.857  1.00  0.00     0.032 C 
BRANCH  28  29
HETATM   29  C2  UNL     1      11.895 -10.863  -9.812  1.00  0.00    -0.002 C 
HETATM   30  C1  UNL     1      12.221 -11.148  -8.339  1.00  0.00     0.005 C 
ENDBRANCH  28  29
ENDBRANCH   1  28
TORSDOF 6
ENDMDL
MODEL 3
REMARK VINA RESULT: -7.053227709      2.398      3.141
REMARK  6 active torsions:
REMARK  status: ('A' for Active; 'I' for Inactive)
REMARK    1  A    between atoms: C2_2  and  C3_3 
REMARK    2  A    between atoms: C3_3  and  C4_4 
REMARK    3  A    between atoms: C6_6  and  O1_7 
REMARK    4  A    between atoms: C7_9  and  O2_10 
REMARK    5  A    between atoms: O2_10  and  C8_11 
REMARK    6  A    between atoms: C8_11  and  C9_13 
ROOT
HETATM    1  C4  UNL     1       9.481 -10.673  -9.314  1.00  0.00     0.134 C 
HETATM    2  C5  UNL     1       9.285  -9.746  -8.128  1.00  0.00     0.067 C 
HETATM    3  C6  UNL     1       8.173 -10.144  -7.257  1.00  0.00     0.150 C 
HETATM    4  C7  UNL     1       7.052  -9.217  -7.040  1.00  0.00     0.161 C 
HETATM    5  C14 UNL     1       6.621  -8.339  -8.156  1.00  0.00     0.047 C 
HETATM    6  C15 UNL     1       5.498  -8.816  -9.005  1.00  0.00     0.054 C 
HETATM    7  C16 UNL     1       4.445  -9.447  -8.074  1.00  0.00     0.018 C 
HETATM    8  C17 UNL     1       5.844  -9.728 -10.112  1.00  0.00     0.140 C 
HETATM    9  O4  UNL     1       5.919 -10.906  -9.783  1.00  0.00    -0.297 OA
HETATM   10  C18 UNL     1       6.096  -9.402 -11.502  1.00  0.00     0.030 C 
HETATM   11  C19 UNL     1       5.459 -10.475 -12.429  1.00  0.00     0.024 C 
HETATM   12  C20 UNL     1       5.583  -8.070 -12.006  1.00  0.00     0.018 C 
HETATM   13  C21 UNL     1       7.012  -7.578 -11.978  1.00  0.00     0.017 C 
HETATM   14  C22 UNL     1       7.397  -9.070 -12.015  1.00  0.00     0.101 C 
HETATM   15  C23 UNL     1       8.661  -9.304 -11.332  1.00  0.00     0.264 C 
HETATM   16  O5  UNL     1       9.501  -8.364 -11.640  1.00  0.00    -0.265 OA
HETATM   17  O6  UNL     1       9.046 -10.253 -10.517  1.00  0.00    -0.316 OA
ENDROOT
BRANCH   4  18
HETATM   18  O2  UNL     1       7.319  -8.464  -5.843  1.00  0.00    -0.313 OA
BRANCH  18  19
HETATM   19  C8  UNL     1       7.646  -7.146  -5.807  1.00  0.00     0.263 C 
HETATM   20  O3  UNL     1       8.714  -6.758  -6.317  1.00  0.00    -0.265 OA
BRANCH  19  21
HETATM   21  C9  UNL     1       6.725  -6.191  -5.163  1.00  0.00     0.085 C 
HETATM   22  C10 UNL     1       7.154  -6.002  -3.726  1.00  0.00     0.014 C 
HETATM   23  C11 UNL     1       5.871  -5.725  -2.952  1.00  0.00     0.001 C 
HETATM   24  C12 UNL     1       4.748  -5.801  -3.961  1.00  0.00     0.001 C 
HETATM   25  C13 UNL     1       5.329  -6.745  -4.998  1.00  0.00     0.014 C 
ENDBRANCH  19  21
ENDBRANCH  18  19
ENDBRANCH   4  18
BRANCH   3  26
HETATM   26  O1  UNL     1       8.700 -10.473  -5.978  1.00  0.00    -0.393 OA
ATOM     27  H1  UNL     1       7.992 -10.446  -5.345  1.00  0.00     0.210 HD
ENDBRANCH   3  26
BRANCH   1  28
HETATM   28  C3  UNL     1      10.912 -11.211  -9.356  1.00  0.00     0.032 C 
BRANCH  28  29
HETATM   29  C2  UNL     1      11.828 -10.542  -8.392  1.00  0.00    -0.002 C 
HETATM   30  C1  UNL     1      13.137 -11.344  -8.422  1.00  0.00     0.005 C 
ENDBRANCH  28  29
ENDBRANCH   1  28
TORSDOF 6
ENDMDL
MODEL 4
REMARK VINA RESULT: -6.937062036      2.216      7.350
REMARK  6 active torsions:
REMARK  status: ('A' for Active; 'I' for Inactive)
REMARK    1  A    between atoms: C2_2  and  C3_3 
REMARK    2  A    between atoms: C3_3  and  C4_4 
REMARK    3  A    between atoms: C6_6  and  O1_7 
REMARK    4  A    between atoms: C7_9  and  O2_10 
REMARK    5  A    between atoms: O2_10  and  C8_11 
REMARK    6  A    between atoms: C8_11  and  C9_13 
ROOT
HETATM    1  C4  UNL     1       5.299  -9.682  -9.423  1.00  0.00     0.134 C 
HETATM    2  C5  UNL     1       6.033  -8.992 -10.558  1.00  0.00     0.067 C 
HETATM    3  C6  UNL     1       7.100  -9.812 -11.144  1.00  0.00     0.150 C 
HETATM    4  C7  UNL     1       8.487  -9.321 -11.125  1.00  0.00     0.161 C 
HETATM    5  C14 UNL     1       8.949  -8.520  -9.965  1.00  0.00     0.047 C 
HETATM    6  C15 UNL     1       9.648  -9.245  -8.871  1.00  0.00     0.054 C 
HETATM    7  C16 UNL     1      10.594 -10.272  -9.521  1.00  0.00     0.018 C 
HETATM    8  C17 UNL     1       8.796  -9.880  -7.847  1.00  0.00     0.140 C 
HETATM    9  O4  UNL     1       8.399 -10.999  -8.153  1.00  0.00    -0.297 OA
HETATM   10  C18 UNL     1       8.389  -9.353  -6.560  1.00  0.00     0.030 C 
HETATM   11  C19 UNL     1       8.424 -10.474  -5.484  1.00  0.00     0.024 C 
HETATM   12  C20 UNL     1       9.205  -8.213  -5.989  1.00  0.00     0.018 C 
HETATM   13  C21 UNL     1       8.062  -7.293  -6.354  1.00  0.00     0.017 C 
HETATM   14  C22 UNL     1       7.200  -8.570  -6.364  1.00  0.00     0.101 C 
HETATM   15  C23 UNL     1       6.099  -8.453  -7.309  1.00  0.00     0.264 C 
HETATM   16  O5  UNL     1       5.579  -7.267  -7.226  1.00  0.00    -0.265 OA
HETATM   17  O6  UNL     1       5.593  -9.305  -8.164  1.00  0.00    -0.316 OA
ENDROOT
BRANCH   4  18
HETATM   18  O2  UNL     1       8.740  -8.647 -12.371  1.00  0.00    -0.313 OA
BRANCH  18  19
HETATM   19  C8  UNL     1       9.937  -8.616 -13.012  1.00  0.00     0.263 C 
HETATM   20  O3  UNL     1      10.276  -9.569 -13.740  1.00  0.00    -0.265 OA
BRANCH  19  21
HETATM   21  C9  UNL     1      10.820  -7.448 -12.836  1.00  0.00     0.085 C 
HETATM   22  C10 UNL     1      11.465  -7.127 -14.165  1.00  0.00     0.014 C 
HETATM   23  C11 UNL     1      12.832  -6.547 -13.823  1.00  0.00     0.001 C 
HETATM   24  C12 UNL     1      12.939  -6.589 -12.315  1.00  0.00     0.001 C 
HETATM   25  C13 UNL     1      12.022  -7.749 -11.973  1.00  0.00     0.014 C 
ENDBRANCH  19  21
ENDBRANCH  18  19
ENDBRANCH   4  18
BRANCH   3  26
HETATM   26  O1  UNL     1       6.768 -10.081 -12.500  1.00  0.00    -0.393 OA
ATOM     27  H1  UNL     1       6.532  -9.262 -12.919  1.00  0.00     0.210 HD
ENDBRANCH   3  26
BRANCH   1  28
HETATM   28  C3  UNL     1       3.793  -9.725  -9.693  1.00  0.00     0.032 C 
BRANCH  28  29
HETATM   29  C2  UNL     1       2.989 -10.141  -8.511  1.00  0.00    -0.002 C 
HETATM   30  C1  UNL     1       2.601 -11.606  -8.756  1.00  0.00     0.005 C 
ENDBRANCH  28  29
ENDBRANCH   1  28
TORSDOF 6
ENDMDL
MODEL 5
REMARK VINA RESULT: -6.926344568      2.719      7.675
REMARK  6 active torsions:
REMARK  status: ('A' for Active; 'I' for Inactive)
REMARK    1  A    between atoms: C2_2  and  C3_3 
REMARK    2  A    between atoms: C3_3  and  C4_4 
REMARK    3  A    between atoms: C6_6  and  O1_7 
REMARK    4  A    between atoms: C7_9  and  O2_10 
REMARK    5  A    between atoms: O2_10  and  C8_11 
REMARK    6  A    between atoms: C8_11  and  C9_13 
ROOT
HETATM    1  C4  UNL     1       4.460 -10.082  -8.172  1.00  0.00     0.134 C 
HETATM    2  C5  UNL     1       4.600  -9.414  -9.528  1.00  0.00     0.067 C 
HETATM    3  C6  UNL     1       5.467 -10.153 -10.453  1.00  0.00     0.150 C 
HETATM    4  C7  UNL     1       6.672  -9.505 -10.994  1.00  0.00     0.161 C 
HETATM    5  C14 UNL     1       7.424  -8.558 -10.135  1.00  0.00     0.047 C 
HETATM    6  C15 UNL     1       8.582  -9.098  -9.374  1.00  0.00     0.054 C 
HETATM    7  C16 UNL     1       9.343 -10.062 -10.305  1.00  0.00     0.018 C 
HETATM    8  C17 UNL     1       8.284  -9.736  -8.077  1.00  0.00     0.140 C 
HETATM    9  O4  UNL     1       7.962 -10.915  -8.164  1.00  0.00    -0.297 OA
HETATM   10  C18 UNL     1       8.329  -9.148  -6.753  1.00  0.00     0.030 C 
HETATM   11  C19 UNL     1       8.929 -10.159  -5.736  1.00  0.00     0.024 C 
HETATM   12  C20 UNL     1       9.132  -7.876  -6.587  1.00  0.00     0.018 C 
HETATM   13  C21 UNL     1       7.819  -7.130  -6.510  1.00  0.00     0.017 C 
HETATM   14  C22 UNL     1       7.207  -8.494  -6.138  1.00  0.00     0.101 C 
HETATM   15  C23 UNL     1       5.824  -8.588  -6.583  1.00  0.00     0.264 C 
HETATM   16  O5  UNL     1       5.214  -7.467  -6.346  1.00  0.00    -0.265 OA
HETATM   17  O6  UNL     1       5.155  -9.565  -7.142  1.00  0.00    -0.316 OA
ENDROOT
BRANCH   4  18
HETATM   18  O2  UNL     1       6.333  -8.918 -12.263  1.00  0.00    -0.313 OA
BRANCH  18  19
HETATM   19  C8  UNL     1       7.013  -9.118 -13.422  1.00  0.00     0.263 C 
HETATM   20  O3  UNL     1       6.893 -10.197 -14.033  1.00  0.00    -0.265 OA
BRANCH  19  21
HETATM   21  C9  UNL     1       7.887  -8.049 -13.940  1.00  0.00     0.085 C 
HETATM   22  C10 UNL     1       9.290  -8.282 -13.429  1.00  0.00     0.014 C 
HETATM   23  C11 UNL     1       9.905  -6.896 -13.283  1.00  0.00     0.001 C 
HETATM   24  C12 UNL     1       8.825  -5.915 -13.680  1.00  0.00     0.001 C 
HETATM   25  C13 UNL     1       7.565  -6.695 -13.352  1.00  0.00     0.014 C 
ENDBRANCH  19  21
ENDBRANCH  18  19
ENDBRANCH   4  18
BRANCH   3  26
HETATM   26  O1  UNL     1       4.684 -10.576 -11.561  1.00  0.00    -0.393 OA
ATOM     27  H1  UNL     1       4.749  -9.918 -12.243  1.00  0.00     0.210 HD
ENDBRANCH   3  26
BRANCH   1  28
HETATM   28  C3  UNL     1       2.987 -10.322  -7.832  1.00  0.00     0.032 C 
BRANCH  28  29
HETATM   29  C2  UNL     1       2.063 -10.056  -8.968  1.00  0.00    -0.002 C 
HETATM   30  C1  UNL     1       0.650 -10.018  -8.367  1.00  0.00     0.005 C 
ENDBRANCH  28  29
ENDBRANCH   1  28
TORSDOF 6
ENDMDL
