MODEL 1
REMARK VINA RESULT: -9.592379537      0.000      0.000
REMARK  5 active torsions:
REMARK  status: ('A' for Active; 'I' for Inactive)
REMARK    1  A    between atoms: N1_6  and  C5_7 
REMARK    2  A    between atoms: C8_10  and  C9_11 
REMARK    3  A    between atoms: C9_11  and  N2_12 
REMARK    4  A    between atoms: C12_15  and  N3_16 
REMARK    5  A    between atoms: C16_24  and  N6_25 
ROOT
HETATM    1  N2  UNL     1      15.798  14.472   5.624  1.00  0.00    -0.393 N 
HETATM    2  C10 UNL     1      16.935  14.513   4.836  1.00  0.00     0.123 C 
HETATM    3  C11 UNL     1      17.464  13.130   4.427  1.00  0.00     0.045 C 
HETATM    4  C12 UNL     1      16.300  12.186   4.371  1.00  0.00     0.095 C 
HETATM    5  C22 UNL     1      15.099  12.922   3.860  1.00  0.00     0.045 C 
HETATM    6  C23 UNL     1      14.668  13.872   4.981  1.00  0.00     0.123 C 
ENDROOT
BRANCH   4   7
HETATM    7  N3  UNL     1      16.603  10.980   3.639  1.00  0.00    -0.322 N 
HETATM    8  C13 UNL     1      16.758  10.860   2.309  1.00  0.00     0.185 A 
HETATM    9  N4  UNL     1      17.033   9.585   1.985  1.00  0.00    -0.348 N 
HETATM   10  C14 UNL     1      17.057   8.869   3.112  1.00  0.00     0.094 A 
ATOM     11  H4  UNL     1      17.194   9.226   1.044  1.00  0.00     0.167 HD
HETATM   12  C15 UNL     1      17.280   7.533   3.424  1.00  0.00     0.139 A 
HETATM   13  C21 UNL     1      16.791   9.725   4.150  1.00  0.00     0.152 A 
HETATM   14  N5  UNL     1      17.216   7.193   4.710  1.00  0.00    -0.199 N 
HETATM   15  C16 UNL     1      16.954   8.031   5.728  1.00  0.00     0.681 A 
ATOM     16  H5  UNL     1      17.379   6.213   4.942  1.00  0.00     0.183 HD
HETATM   17  N7  UNL     1      16.736   9.339   5.421  1.00  0.00    -0.174 N 
ATOM     18  H7  UNL     1      16.533  10.015   6.157  1.00  0.00     0.186 HD
BRANCH  15  19
HETATM   19  N6  UNL     1      16.908   7.570   7.067  1.00  0.00    -0.218 N 
HETATM   20  C17 UNL     1      17.776   6.563   7.627  1.00  0.00     0.141 C 
HETATM   21  C18 UNL     1      17.346   6.364   9.053  1.00  0.00     0.022 C 
HETATM   22  C19 UNL     1      16.551   7.597   9.397  1.00  0.00     0.022 C 
HETATM   23  C20 UNL     1      15.976   8.050   8.067  1.00  0.00     0.141 C 
ENDBRANCH  15  19
ENDBRANCH   4   7
BRANCH   1  24
HETATM   24  C9  UNL     1      15.761  14.520   7.005  1.00  0.00     0.062 C 
BRANCH  24  25
HETATM   25  C8  UNL     1      15.075  13.480   7.787  1.00  0.00     0.026 C 
HETATM   26  C7  UNL     1      14.809  12.178   7.093  1.00  0.00     0.012 C 
HETATM   27  C6  UNL     1      13.557  11.616   7.733  1.00  0.00     0.026 C 
HETATM   28  C5  UNL     1      12.775  12.782   8.193  1.00  0.00     0.087 C 
HETATM   29  C24 UNL     1      13.664  13.975   8.140  1.00  0.00     0.035 C 
BRANCH  28  30
HETATM   30  N1  UNL     1      12.241  12.646   9.528  1.00  0.00    -0.347 N 
HETATM   31  C1  UNL     1      11.763  13.678  10.373  1.00  0.00     0.220 C 
HETATM   32  O1  UNL     1      12.033  14.912  10.340  1.00  0.00    -0.273 OA
HETATM   33  C2  UNL     1      10.852  13.057  11.352  1.00  0.00     0.104 C 
HETATM   34  C3  UNL     1      11.455  11.684  11.540  1.00  0.00     0.029 C 
HETATM   35  C4  UNL     1      12.114  11.387  10.215  1.00  0.00     0.127 C 
ENDBRANCH  28  30
ENDBRANCH  24  25
ENDBRANCH   1  24
TORSDOF 5
ENDMDL
MODEL 2
REMARK VINA RESULT: -9.483426489      3.161      6.264
REMARK  5 active torsions:
REMARK  status: ('A' for Active; 'I' for Inactive)
REMARK    1  A    between atoms: N1_6  and  C5_7 
REMARK    2  A    between atoms: C8_10  and  C9_11 
REMARK    3  A    between atoms: C9_11  and  N2_12 
REMARK    4  A    between atoms: C12_15  and  N3_16 
REMARK    5  A    between atoms: C16_24  and  N6_25 
ROOT
HETATM    1  N2  UNL     1      15.300  12.291   7.408  1.00  0.00    -0.393 N 
HETATM    2  C10 UNL     1      16.475  12.783   6.866  1.00  0.00     0.123 C 
HETATM    3  C11 UNL     1      16.540  12.702   5.334  1.00  0.00     0.045 C 
HETATM    4  C12 UNL     1      15.139  12.783   4.805  1.00  0.00     0.095 C 
HETATM    5  C22 UNL     1      14.347  13.722   5.664  1.00  0.00     0.045 C 
HETATM    6  C23 UNL     1      14.128  13.003   6.998  1.00  0.00     0.123 C 
ENDROOT
BRANCH   4   7
HETATM    7  N3  UNL     1      15.098  13.101   3.398  1.00  0.00    -0.322 N 
HETATM    8  C13 UNL     1      15.363  14.291   2.831  1.00  0.00     0.185 A 
HETATM    9  N4  UNL     1      15.223  14.213   1.496  1.00  0.00    -0.348 N 
HETATM   10  C14 UNL     1      14.864  12.964   1.192  1.00  0.00     0.094 A 
ATOM     11  H4  UNL     1      15.365  14.974   0.833  1.00  0.00     0.167 HD
HETATM   12  C15 UNL     1      14.577  12.281   0.015  1.00  0.00     0.139 A 
HETATM   13  C21 UNL     1      14.782  12.260   2.367  1.00  0.00     0.152 A 
HETATM   14  N5  UNL     1      14.245  10.996   0.125  1.00  0.00    -0.199 N 
HETATM   15  C16 UNL     1      14.165  10.306   1.276  1.00  0.00     0.681 A 
ATOM     16  H5  UNL     1      14.035  10.493  -0.736  1.00  0.00     0.183 HD
HETATM   17  N7  UNL     1      14.445  10.975   2.428  1.00  0.00    -0.174 N 
ATOM     18  H7  UNL     1      14.398  10.497   3.328  1.00  0.00     0.186 HD
BRANCH  15  19
HETATM   19  N6  UNL     1      13.802   8.936   1.289  1.00  0.00    -0.218 N 
HETATM   20  C17 UNL     1      14.347   7.943   2.182  1.00  0.00     0.141 C 
HETATM   21  C18 UNL     1      13.709   6.633   1.815  1.00  0.00     0.022 C 
HETATM   22  C19 UNL     1      12.476   7.004   1.034  1.00  0.00     0.022 C 
HETATM   23  C20 UNL     1      12.825   8.339   0.401  1.00  0.00     0.141 C 
ENDBRANCH  15  19
ENDBRANCH   4   7
BRANCH   1  24
HETATM   24  C9  UNL     1      15.100  11.011   7.892  1.00  0.00     0.062 C 
BRANCH  24  25
HETATM   25  C8  UNL     1      15.910   9.880   7.417  1.00  0.00     0.026 C 
HETATM   26  C7  UNL     1      15.362   9.095   6.262  1.00  0.00     0.012 C 
HETATM   27  C6  UNL     1      15.893   7.687   6.430  1.00  0.00     0.026 C 
HETATM   28  C5  UNL     1      16.086   7.493   7.882  1.00  0.00     0.087 C 
HETATM   29  C24 UNL     1      15.999   8.829   8.534  1.00  0.00     0.035 C 
BRANCH  28  30
HETATM   30  N1  UNL     1      17.341   6.873   8.234  1.00  0.00    -0.347 N 
HETATM   31  C1  UNL     1      17.605   6.031   9.344  1.00  0.00     0.220 C 
HETATM   32  O1  UNL     1      16.973   5.944  10.434  1.00  0.00    -0.273 OA
HETATM   33  C2  UNL     1      18.796   5.229   9.012  1.00  0.00     0.104 C 
HETATM   34  C3  UNL     1      19.598   6.170   8.142  1.00  0.00     0.029 C 
HETATM   35  C4  UNL     1      18.554   7.030   7.473  1.00  0.00     0.127 C 
ENDBRANCH  28  30
ENDBRANCH  24  25
ENDBRANCH   1  24
TORSDOF 5
ENDMDL
MODEL 3
REMARK VINA RESULT: -9.387231114      3.025      6.669
REMARK  5 active torsions:
REMARK  status: ('A' for Active; 'I' for Inactive)
REMARK    1  A    between atoms: N1_6  and  C5_7 
REMARK    2  A    between atoms: C8_10  and  C9_11 
REMARK    3  A    between atoms: C9_11  and  N2_12 
REMARK    4  A    between atoms: C12_15  and  N3_16 
REMARK    5  A    between atoms: C16_24  and  N6_25 
ROOT
HETATM    1  N2  UNL     1      14.025   7.974   1.300  1.00  0.00    -0.393 N 
HETATM    2  C10 UNL     1      12.917   8.787   1.466  1.00  0.00     0.123 C 
HETATM    3  C11 UNL     1      13.255  10.273   1.664  1.00  0.00     0.045 C 
HETATM    4  C12 UNL     1      14.545  10.554   0.953  1.00  0.00     0.095 C 
HETATM    5  C22 UNL     1      14.598   9.736  -0.302  1.00  0.00     0.045 C 
HETATM    6  C23 UNL     1      14.804   8.284   0.140  1.00  0.00     0.123 C 
ENDROOT
BRANCH   4   7
HETATM    7  N3  UNL     1      14.763  11.964   0.742  1.00  0.00    -0.322 N 
HETATM    8  C13 UNL     1      14.800  12.608  -0.438  1.00  0.00     0.185 A 
HETATM    9  N4  UNL     1      15.026  13.920  -0.247  1.00  0.00    -0.348 N 
HETATM   10  C14 UNL     1      15.135  14.132   1.067  1.00  0.00     0.094 A 
ATOM     11  H4  UNL     1      15.100  14.628  -0.977  1.00  0.00     0.167 HD
HETATM   12  C15 UNL     1      15.362  15.245   1.868  1.00  0.00     0.139 A 
HETATM   13  C21 UNL     1      14.973  12.923   1.695  1.00  0.00     0.152 A 
HETATM   14  N5  UNL     1      15.405  15.045   3.184  1.00  0.00    -0.199 N 
HETATM   15  C16 UNL     1      15.247  13.861   3.800  1.00  0.00     0.681 A 
ATOM     16  H5  UNL     1      15.571  15.860   3.774  1.00  0.00     0.183 HD
HETATM   17  N7  UNL     1      15.025  12.771   3.015  1.00  0.00    -0.174 N 
ATOM     18  H7  UNL     1      14.899  11.850   3.433  1.00  0.00     0.186 HD
BRANCH  15  19
HETATM   19  N6  UNL     1      15.310  13.752   5.212  1.00  0.00    -0.218 N 
HETATM   20  C17 UNL     1      16.219  14.483   6.059  1.00  0.00     0.141 C 
HETATM   21  C18 UNL     1      15.962  14.026   7.468  1.00  0.00     0.022 C 
HETATM   22  C19 UNL     1      14.597  13.391   7.429  1.00  0.00     0.022 C 
HETATM   23  C20 UNL     1      14.463  12.884   6.005  1.00  0.00     0.141 C 
ENDBRANCH  15  19
ENDBRANCH   4   7
BRANCH   1  24
HETATM   24  C9  UNL     1      14.666   7.258   2.294  1.00  0.00     0.062 C 
BRANCH  24  25
HETATM   25  C8  UNL     1      15.435   7.937   3.348  1.00  0.00     0.026 C 
HETATM   26  C7  UNL     1      16.929   7.850   3.258  1.00  0.00     0.012 C 
HETATM   27  C6  UNL     1      17.435   7.927   4.683  1.00  0.00     0.026 C 
HETATM   28  C5  UNL     1      16.363   7.363   5.529  1.00  0.00     0.087 C 
HETATM   29  C24 UNL     1      15.134   7.261   4.695  1.00  0.00     0.035 C 
BRANCH  28  30
HETATM   30  N1  UNL     1      16.073   8.137   6.712  1.00  0.00    -0.347 N 
HETATM   31  C1  UNL     1      15.956   7.666   8.043  1.00  0.00     0.220 C 
HETATM   32  O1  UNL     1      15.695   6.497   8.445  1.00  0.00    -0.273 OA
HETATM   33  C2  UNL     1      16.199   8.813   8.937  1.00  0.00     0.104 C 
HETATM   34  C3  UNL     1      15.654   9.976   8.140  1.00  0.00     0.029 C 
HETATM   35  C4  UNL     1      15.854   9.561   6.703  1.00  0.00     0.127 C 
ENDBRANCH  28  30
ENDBRANCH  24  25
ENDBRANCH   1  24
TORSDOF 5
ENDMDL
MODEL 4
REMARK VINA RESULT: -9.322995517      3.341      6.850
REMARK  5 active torsions:
REMARK  status: ('A' for Active; 'I' for Inactive)
REMARK    1  A    between atoms: N1_6  and  C5_7 
REMARK    2  A    between atoms: C8_10  and  C9_11 
REMARK    3  A    between atoms: C9_11  and  N2_12 
REMARK    4  A    between atoms: C12_15  and  N3_16 
REMARK    5  A    between atoms: C16_24  and  N6_25 
ROOT
HETATM    1  N2  UNL     1      16.231  12.280   5.649  1.00  0.00    -0.393 N 
HETATM    2  C10 UNL     1      15.514  11.436   4.819  1.00  0.00     0.123 C 
HETATM    3  C11 UNL     1      14.860  12.143   3.622  1.00  0.00     0.045 C 
HETATM    4  C12 UNL     1      15.697  13.337   3.273  1.00  0.00     0.095 C 
HETATM    5  C22 UNL     1      17.141  13.000   3.492  1.00  0.00     0.045 C 
HETATM    6  C23 UNL     1      17.339  12.921   5.008  1.00  0.00     0.123 C 
ENDROOT
BRANCH   4   7
HETATM    7  N3  UNL     1      15.408  13.848   1.955  1.00  0.00    -0.322 N 
HETATM    8  C13 UNL     1      14.960  13.147   0.898  1.00  0.00     0.185 A 
HETATM    9  N4  UNL     1      14.804  13.956  -0.165  1.00  0.00    -0.348 N 
HETATM   10  C14 UNL     1      15.153  15.191   0.203  1.00  0.00     0.094 A 
ATOM     11  H4  UNL     1      14.478  13.675  -1.089  1.00  0.00     0.167 HD
HETATM   12  C15 UNL     1      15.208  16.428  -0.431  1.00  0.00     0.139 A 
HETATM   13  C21 UNL     1      15.531  15.138   1.521  1.00  0.00     0.152 A 
HETATM   14  N5  UNL     1      15.624  17.463   0.297  1.00  0.00    -0.199 N 
HETATM   15  C16 UNL     1      15.995  17.412   1.588  1.00  0.00     0.681 A 
ATOM     16  H5  UNL     1      15.665  18.371  -0.165  1.00  0.00     0.183 HD
HETATM   17  N7  UNL     1      15.942  16.201   2.207  1.00  0.00    -0.174 N 
ATOM     18  H7  UNL     1      16.214  16.109   3.186  1.00  0.00     0.186 HD
BRANCH  15  19
HETATM   19  N6  UNL     1      16.425  18.573   2.276  1.00  0.00    -0.218 N 
HETATM   20  C17 UNL     1      17.727  18.749   2.872  1.00  0.00     0.141 C 
HETATM   21  C18 UNL     1      17.727  20.104   3.523  1.00  0.00     0.022 C 
HETATM   22  C19 UNL     1      16.586  20.847   2.879  1.00  0.00     0.022 C 
HETATM   23  C20 UNL     1      15.610  19.754   2.479  1.00  0.00     0.141 C 
ENDBRANCH  15  19
ENDBRANCH   4   7
BRANCH   1  24
HETATM   24  C9  UNL     1      15.762  12.879   6.803  1.00  0.00     0.062 C 
BRANCH  24  25
HETATM   25  C8  UNL     1      14.776  12.210   7.664  1.00  0.00     0.026 C 
HETATM   26  C7  UNL     1      13.887  11.195   7.011  1.00  0.00     0.012 C 
HETATM   27  C6  UNL     1      12.593  11.209   7.798  1.00  0.00     0.026 C 
HETATM   28  C5  UNL     1      12.463  12.575   8.346  1.00  0.00     0.087 C 
HETATM   29  C24 UNL     1      13.777  13.256   8.182  1.00  0.00     0.035 C 
BRANCH  28  30
HETATM   30  N1  UNL     1      12.074  12.621   9.735  1.00  0.00    -0.347 N 
HETATM   31  C1  UNL     1      11.754  13.769  10.503  1.00  0.00     0.220 C 
HETATM   32  O1  UNL     1      12.093  14.969  10.302  1.00  0.00    -0.273 OA
HETATM   33  C2  UNL     1      10.922  13.322  11.635  1.00  0.00     0.104 C 
HETATM   34  C3  UNL     1      11.459  11.937  11.914  1.00  0.00     0.029 C 
HETATM   35  C4  UNL     1      11.948  11.454  10.570  1.00  0.00     0.127 C 
ENDBRANCH  28  30
ENDBRANCH  24  25
ENDBRANCH   1  24
TORSDOF 5
ENDMDL
MODEL 5
REMARK VINA RESULT: -9.276534994      3.432      7.773
REMARK  5 active torsions:
REMARK  status: ('A' for Active; 'I' for Inactive)
REMARK    1  A    between atoms: N1_6  and  C5_7 
REMARK    2  A    between atoms: C8_10  and  C9_11 
REMARK    3  A    between atoms: C9_11  and  N2_12 
REMARK    4  A    between atoms: C12_15  and  N3_16 
REMARK    5  A    between atoms: C16_24  and  N6_25 
ROOT
HETATM    1  N2  UNL     1      15.518  12.628   6.869  1.00  0.00    -0.393 N 
HETATM    2  C10 UNL     1      16.703  12.984   6.249  1.00  0.00     0.123 C 
HETATM    3  C11 UNL     1      16.662  12.886   4.717  1.00  0.00     0.045 C 
HETATM    4  C12 UNL     1      15.249  13.118   4.275  1.00  0.00     0.095 C 
HETATM    5  C22 UNL     1      14.621  14.145   5.168  1.00  0.00     0.045 C 
HETATM    6  C23 UNL     1      14.408  13.463   6.523  1.00  0.00     0.123 C 
ENDROOT
BRANCH   4   7
HETATM    7  N3  UNL     1      15.155  13.430   2.869  1.00  0.00    -0.322 N 
HETATM    8  C13 UNL     1      14.690  12.629   1.894  1.00  0.00     0.185 A 
HETATM    9  N4  UNL     1      14.754  13.255   0.706  1.00  0.00    -0.348 N 
HETATM   10  C14 UNL     1      15.263  14.473   0.909  1.00  0.00     0.094 A 
ATOM     11  H4  UNL     1      14.465  12.869  -0.192  1.00  0.00     0.167 HD
HETATM   12  C15 UNL     1      15.564  15.561   0.098  1.00  0.00     0.139 A 
HETATM   13  C21 UNL     1      15.517  14.595   2.252  1.00  0.00     0.152 A 
HETATM   14  N5  UNL     1      16.078  16.636   0.693  1.00  0.00    -0.199 N 
HETATM   15  C16 UNL     1      16.328  16.756   2.008  1.00  0.00     0.681 A 
ATOM     16  H5  UNL     1      16.301  17.435   0.101  1.00  0.00     0.183 HD
HETATM   17  N7  UNL     1      16.032  15.691   2.802  1.00  0.00    -0.174 N 
ATOM     18  H7  UNL     1      16.204  15.731   3.807  1.00  0.00     0.186 HD
BRANCH  15  19
HETATM   19  N6  UNL     1      16.878  17.946   2.547  1.00  0.00    -0.218 N 
HETATM   20  C17 UNL     1      18.285  18.195   2.739  1.00  0.00     0.141 C 
HETATM   21  C18 UNL     1      18.404  19.555   3.368  1.00  0.00     0.022 C 
HETATM   22  C19 UNL     1      17.088  20.231   3.086  1.00  0.00     0.022 C 
HETATM   23  C20 UNL     1      16.097  19.086   2.982  1.00  0.00     0.141 C 
ENDBRANCH  15  19
ENDBRANCH   4   7
BRANCH   1  24
HETATM   24  C9  UNL     1      15.209  11.381   7.382  1.00  0.00     0.062 C 
BRANCH  24  25
HETATM   25  C8  UNL     1      15.932  10.177   6.948  1.00  0.00     0.026 C 
HETATM   26  C7  UNL     1      15.379   9.448   5.760  1.00  0.00     0.012 C 
HETATM   27  C6  UNL     1      15.762   7.995   5.951  1.00  0.00     0.026 C 
HETATM   28  C5  UNL     1      15.853   7.784   7.411  1.00  0.00     0.087 C 
HETATM   29  C24 UNL     1      15.857   9.123   8.063  1.00  0.00     0.035 C 
BRANCH  28  30
HETATM   30  N1  UNL     1      17.021   7.048   7.831  1.00  0.00    -0.347 N 
HETATM   31  C1  UNL     1      17.193   6.320   9.035  1.00  0.00     0.220 C 
HETATM   32  O1  UNL     1      16.579   6.454  10.131  1.00  0.00    -0.273 OA
HETATM   33  C2  UNL     1      18.259   5.329   8.800  1.00  0.00     0.104 C 
HETATM   34  C3  UNL     1      19.160   6.038   7.815  1.00  0.00     0.029 C 
HETATM   35  C4  UNL     1      18.226   6.944   7.050  1.00  0.00     0.127 C 
ENDBRANCH  28  30
ENDBRANCH  24  25
ENDBRANCH   1  24
TORSDOF 5
ENDMDL
