MODEL 1
REMARK VINA RESULT: -8.092681008      0.000      0.000
REMARK  13 active torsions:
REMARK  status: ('A' for Active; 'I' for Inactive)
REMARK    1  A    between atoms: C2_2  and  O2_4 
REMARK    2  A    between atoms: O2_4  and  C3_5 
REMARK    3  A    between atoms: C3_5  and  C4_6 
REMARK    4  A    between atoms: C3_5  and  C9_12 
REMARK    5  A    between atoms: C5_7  and  C6_8 
REMARK    6  A    between atoms: C9_12  and  C10_13 
REMARK    7  A    between atoms: C10_13  and  C11_14 
REMARK    8  A    between atoms: C11_14  and  C12_15 
REMARK    9  A    between atoms: C11_14  and  C17_27 
REMARK   10  A    between atoms: C13_16  and  O3_17 
REMARK   11  A    between atoms: C14_20  and  C15_21 
REMARK   12  A    between atoms: C15_21  and  O5_22 
REMARK   13  A    between atoms: C16_24  and  O6_25 
ROOT
HETATM    1  C11 UNL     1      25.362  -9.993  31.142  1.00  0.00     0.056 C 
ENDROOT
BRANCH   1   2
HETATM    2  C10 UNL     1      25.886 -10.290  29.769  1.00  0.00     0.015 C 
BRANCH   2   3
HETATM    3  C9  UNL     1      27.302  -9.924  29.593  1.00  0.00     0.037 C 
BRANCH   3   4
HETATM    4  C3  UNL     1      28.264 -10.471  30.585  1.00  0.00     0.154 C 
BRANCH   4   5
HETATM    5  O2  UNL     1      29.205  -9.485  30.990  1.00  0.00    -0.312 OA
BRANCH   5   6
HETATM    6  C2  UNL     1      29.346  -9.024  32.280  1.00  0.00     0.255 C 
HETATM    7  C1  UNL     1      30.541  -9.430  33.078  1.00  0.00     0.126 C 
HETATM    8  O1  UNL     1      28.450  -8.266  32.742  1.00  0.00    -0.266 OA
ENDBRANCH   5   6
ENDBRANCH   4   5
BRANCH   4   9
HETATM    9  C4  UNL     1      28.989 -11.662  30.208  1.00  0.00     0.006 C 
HETATM   10  C5  UNL     1      28.471 -12.851  30.414  1.00  0.00     0.006 C 
BRANCH  10  11
HETATM   11  C6  UNL     1      29.159 -14.089  30.052  1.00  0.00    -0.056 C 
HETATM   12  C7  UNL     1      28.970 -14.639  28.696  1.00  0.00     0.048 C 
HETATM   13  C8  UNL     1      29.929 -14.688  30.931  1.00  0.00     0.062 C 
HETATM   14 BR1  UNL     1      30.831 -16.303  30.469  1.00  0.00    -0.063 Br
ENDBRANCH  10  11
ENDBRANCH   4   9
ENDBRANCH   3   4
ENDBRANCH   2   3
ENDBRANCH   1   2
BRANCH   1  15
HETATM   15  C12 UNL     1      24.490  -8.810  31.226  1.00  0.00     0.042 A 
HETATM   16  C13 UNL     1      24.695  -7.710  32.081  1.00  0.00     0.193 A 
HETATM   17  O4  UNL     1      23.710  -6.865  31.946  1.00  0.00    -0.287 OA
HETATM   18  C14 UNL     1      22.840  -7.284  31.070  1.00  0.00     0.113 A 
HETATM   19  C16 UNL     1      23.310  -8.517  30.599  1.00  0.00     0.109 A 
BRANCH  16  20
HETATM   20  O3  UNL     1      25.759  -7.523  32.939  1.00  0.00    -0.340 OA
ATOM     21  H3  UNL     1      25.710  -7.316  33.865  1.00  0.00     0.220 HD
ENDBRANCH  16  20
BRANCH  18  22
HETATM   22  C15 UNL     1      21.576  -6.636  30.613  1.00  0.00     0.232 C 
BRANCH  22  23
HETATM   23  O5  UNL     1      20.734  -6.417  31.703  1.00  0.00    -0.394 OA
ATOM     24  H5  UNL     1      19.840  -6.642  31.472  1.00  0.00     0.209 HD
ENDBRANCH  22  23
ENDBRANCH  18  22
BRANCH  19  25
HETATM   25  O6  UNL     1      22.645  -9.279  29.653  1.00  0.00    -0.357 OA
ATOM     26  H6  UNL     1      21.915  -9.015  29.107  1.00  0.00     0.217 HD
ENDBRANCH  19  25
ENDBRANCH   1  15
BRANCH   1  27
HETATM   27  C17 UNL     1      24.661 -11.240  31.679  1.00  0.00     0.141 C 
HETATM   28  C18 UNL     1      24.017 -10.971  33.003  1.00  0.00     0.043 C 
HETATM   29  C19 UNL     1      22.678 -11.619  32.924  1.00  0.00     0.113 C 
HETATM   30  C20 UNL     1      22.639 -12.285  31.615  1.00  0.00     0.259 C 
HETATM   31  O7  UNL     1      21.908 -13.224  31.193  1.00  0.00    -0.265 OA
HETATM   32  O8  UNL     1      23.615 -11.676  30.828  1.00  0.00    -0.315 OA
ENDBRANCH   1  27
TORSDOF 13
ENDMDL
MODEL 2
REMARK VINA RESULT: -7.724058890      1.620      4.316
REMARK  13 active torsions:
REMARK  status: ('A' for Active; 'I' for Inactive)
REMARK    1  A    between atoms: C2_2  and  O2_4 
REMARK    2  A    between atoms: O2_4  and  C3_5 
REMARK    3  A    between atoms: C3_5  and  C4_6 
REMARK    4  A    between atoms: C3_5  and  C9_12 
REMARK    5  A    between atoms: C5_7  and  C6_8 
REMARK    6  A    between atoms: C9_12  and  C10_13 
REMARK    7  A    between atoms: C10_13  and  C11_14 
REMARK    8  A    between atoms: C11_14  and  C12_15 
REMARK    9  A    between atoms: C11_14  and  C17_27 
REMARK   10  A    between atoms: C13_16  and  O3_17 
REMARK   11  A    between atoms: C14_20  and  C15_21 
REMARK   12  A    between atoms: C15_21  and  O5_22 
REMARK   13  A    between atoms: C16_24  and  O6_25 
ROOT
HETATM    1  C11 UNL     1      23.500 -10.160  30.457  1.00  0.00     0.056 C 
ENDROOT
BRANCH   1   2
HETATM    2  C10 UNL     1      24.939  -9.745  30.388  1.00  0.00     0.015 C 
BRANCH   2   3
HETATM    3  C9  UNL     1      25.788 -10.704  29.659  1.00  0.00     0.037 C 
BRANCH   3   4
HETATM    4  C3  UNL     1      27.227 -10.741  30.029  1.00  0.00     0.154 C 
BRANCH   4   5
HETATM    5  O2  UNL     1      27.890  -9.543  29.645  1.00  0.00    -0.312 OA
BRANCH   5   6
HETATM    6  C2  UNL     1      28.609  -8.739  30.502  1.00  0.00     0.255 C 
HETATM    7  C1  UNL     1      27.889  -7.943  31.540  1.00  0.00     0.126 C 
HETATM    8  O1  UNL     1      29.863  -8.708  30.376  1.00  0.00    -0.266 OA
ENDBRANCH   5   6
ENDBRANCH   4   5
BRANCH   4   9
HETATM    9  C4  UNL     1      28.000 -11.861  29.544  1.00  0.00     0.006 C 
HETATM   10  C5  UNL     1      28.234 -12.894  30.320  1.00  0.00     0.006 C 
BRANCH  10  11
HETATM   11  C6  UNL     1      29.009 -14.054  29.883  1.00  0.00    -0.056 C 
HETATM   12  C7  UNL     1      28.928 -14.474  28.471  1.00  0.00     0.048 C 
HETATM   13  C8  UNL     1      29.761 -14.700  30.746  1.00  0.00     0.062 C 
HETATM   14 BR1  UNL     1      30.774 -16.214  30.184  1.00  0.00    -0.063 Br
ENDBRANCH  10  11
ENDBRANCH   4   9
ENDBRANCH   3   4
ENDBRANCH   2   3
ENDBRANCH   1   2
BRANCH   1  15
HETATM   15  C12 UNL     1      23.277 -11.532  30.941  1.00  0.00     0.042 A 
HETATM   16  C13 UNL     1      22.622 -12.550  30.221  1.00  0.00     0.193 A 
HETATM   17  O4  UNL     1      22.544 -13.623  30.958  1.00  0.00    -0.287 OA
HETATM   18  C14 UNL     1      23.090 -13.438  32.128  1.00  0.00     0.113 A 
HETATM   19  C16 UNL     1      23.562 -12.120  32.143  1.00  0.00     0.109 A 
BRANCH  16  20
HETATM   20  O3  UNL     1      22.126 -12.460  28.936  1.00  0.00    -0.340 OA
ATOM     21  H3  UNL     1      21.248 -12.198  28.685  1.00  0.00     0.220 HD
ENDBRANCH  16  20
BRANCH  18  22
HETATM   22  C15 UNL     1      23.221 -14.392  33.268  1.00  0.00     0.232 C 
BRANCH  22  23
HETATM   23  O5  UNL     1      24.552 -14.464  33.675  1.00  0.00    -0.394 OA
ATOM     24  H5  UNL     1      24.603 -14.433  34.623  1.00  0.00     0.209 HD
ENDBRANCH  22  23
ENDBRANCH  18  22
BRANCH  19  25
HETATM   25  O6  UNL     1      24.204 -11.548  33.230  1.00  0.00    -0.357 OA
ATOM     26  H6  UNL     1      25.131 -11.362  33.322  1.00  0.00     0.217 HD
ENDBRANCH  19  25
ENDBRANCH   1  15
BRANCH   1  27
HETATM   27  C17 UNL     1      22.737  -9.142  31.303  1.00  0.00     0.141 C 
HETATM   28  C18 UNL     1      23.674  -8.207  32.000  1.00  0.00     0.043 C 
HETATM   29  C19 UNL     1      23.066  -6.855  31.841  1.00  0.00     0.113 C 
HETATM   30  C20 UNL     1      21.794  -7.076  31.141  1.00  0.00     0.259 C 
HETATM   31  O7  UNL     1      20.765  -6.348  31.060  1.00  0.00    -0.265 OA
HETATM   32  O8  UNL     1      21.890  -8.319  30.519  1.00  0.00    -0.315 OA
ENDBRANCH   1  27
TORSDOF 13
ENDMDL
MODEL 3
REMARK VINA RESULT: -7.645781541      1.419      4.047
REMARK  13 active torsions:
REMARK  status: ('A' for Active; 'I' for Inactive)
REMARK    1  A    between atoms: C2_2  and  O2_4 
REMARK    2  A    between atoms: O2_4  and  C3_5 
REMARK    3  A    between atoms: C3_5  and  C4_6 
REMARK    4  A    between atoms: C3_5  and  C9_12 
REMARK    5  A    between atoms: C5_7  and  C6_8 
REMARK    6  A    between atoms: C9_12  and  C10_13 
REMARK    7  A    between atoms: C10_13  and  C11_14 
REMARK    8  A    between atoms: C11_14  and  C12_15 
REMARK    9  A    between atoms: C11_14  and  C17_27 
REMARK   10  A    between atoms: C13_16  and  O3_17 
REMARK   11  A    between atoms: C14_20  and  C15_21 
REMARK   12  A    between atoms: C15_21  and  O5_22 
REMARK   13  A    between atoms: C16_24  and  O6_25 
ROOT
HETATM    1  C11 UNL     1      24.226  -9.560  30.211  1.00  0.00     0.056 C 
ENDROOT
BRANCH   1   2
HETATM    2  C10 UNL     1      25.580  -9.306  30.805  1.00  0.00     0.015 C 
BRANCH   2   3
HETATM    3  C9  UNL     1      26.684  -9.848  29.993  1.00  0.00     0.037 C 
BRANCH   3   4
HETATM    4  C3  UNL     1      27.864 -10.370  30.730  1.00  0.00     0.154 C 
BRANCH   4   5
HETATM    5  O2  UNL     1      28.793  -9.334  31.017  1.00  0.00    -0.312 OA
BRANCH   5   6
HETATM    6  C2  UNL     1      29.068  -8.859  32.281  1.00  0.00     0.255 C 
HETATM    7  C1  UNL     1      30.274  -9.358  33.007  1.00  0.00     0.126 C 
HETATM    8  O1  UNL     1      28.281  -8.010  32.780  1.00  0.00    -0.266 OA
ENDBRANCH   5   6
ENDBRANCH   4   5
BRANCH   4   9
HETATM    9  C4  UNL     1      28.581 -11.468  30.124  1.00  0.00     0.006 C 
HETATM   10  C5  UNL     1      28.256 -12.710  30.401  1.00  0.00     0.006 C 
BRANCH  10  11
HETATM   11  C6  UNL     1      28.948 -13.859  29.818  1.00  0.00    -0.056 C 
HETATM   12  C7  UNL     1      29.707 -14.760  30.707  1.00  0.00     0.048 C 
HETATM   13  C8  UNL     1      28.883 -14.071  28.524  1.00  0.00     0.062 C 
HETATM   14 BR1  UNL     1      29.781 -15.567  27.755  1.00  0.00    -0.063 Br
ENDBRANCH  10  11
ENDBRANCH   4   9
ENDBRANCH   3   4
ENDBRANCH   2   3
ENDBRANCH   1   2
BRANCH   1  15
HETATM   15  C12 UNL     1      23.904 -10.980  29.998  1.00  0.00     0.042 A 
HETATM   16  C13 UNL     1      23.699 -11.585  28.743  1.00  0.00     0.193 A 
HETATM   17  O4  UNL     1      23.376 -12.838  28.912  1.00  0.00    -0.287 OA
HETATM   18  C14 UNL     1      23.340 -13.154  30.177  1.00  0.00     0.113 A 
HETATM   19  C16 UNL     1      23.670 -11.993  30.887  1.00  0.00     0.109 A 
BRANCH  16  20
HETATM   20  O3  UNL     1      23.813 -10.978  27.509  1.00  0.00    -0.340 OA
ATOM     21  H3  UNL     1      23.108 -10.801  26.898  1.00  0.00     0.220 HD
ENDBRANCH  16  20
BRANCH  18  22
HETATM   22  C15 UNL     1      23.020 -14.466  30.811  1.00  0.00     0.232 C 
BRANCH  22  23
HETATM   23  O5  UNL     1      22.224 -14.266  31.938  1.00  0.00    -0.394 OA
ATOM     24  H5  UNL     1      21.551 -14.935  31.982  1.00  0.00     0.209 HD
ENDBRANCH  22  23
ENDBRANCH  18  22
BRANCH  19  25
HETATM   25  O6  UNL     1      23.731 -11.932  32.270  1.00  0.00    -0.357 OA
ATOM     26  H6  UNL     1      23.089 -12.253  32.891  1.00  0.00     0.217 HD
ENDBRANCH  19  25
ENDBRANCH   1  15
BRANCH   1  27
HETATM   27  C17 UNL     1      23.173  -8.876  31.083  1.00  0.00     0.141 C 
HETATM   28  C18 UNL     1      23.810  -7.971  32.090  1.00  0.00     0.043 C 
HETATM   29  C19 UNL     1      22.984  -6.730  32.076  1.00  0.00     0.113 C 
HETATM   30  C20 UNL     1      21.886  -6.999  31.138  1.00  0.00     0.259 C 
HETATM   31  O7  UNL     1      20.759  -6.443  31.014  1.00  0.00    -0.265 OA
HETATM   32  O8  UNL     1      22.303  -8.053  30.326  1.00  0.00    -0.315 OA
ENDBRANCH   1  27
TORSDOF 13
ENDMDL
MODEL 4
REMARK VINA RESULT: -7.633745126      1.049      1.919
REMARK  13 active torsions:
REMARK  status: ('A' for Active; 'I' for Inactive)
REMARK    1  A    between atoms: C2_2  and  O2_4 
REMARK    2  A    between atoms: O2_4  and  C3_5 
REMARK    3  A    between atoms: C3_5  and  C4_6 
REMARK    4  A    between atoms: C3_5  and  C9_12 
REMARK    5  A    between atoms: C5_7  and  C6_8 
REMARK    6  A    between atoms: C9_12  and  C10_13 
REMARK    7  A    between atoms: C10_13  and  C11_14 
REMARK    8  A    between atoms: C11_14  and  C12_15 
REMARK    9  A    between atoms: C11_14  and  C17_27 
REMARK   10  A    between atoms: C13_16  and  O3_17 
REMARK   11  A    between atoms: C14_20  and  C15_21 
REMARK   12  A    between atoms: C15_21  and  O5_22 
REMARK   13  A    between atoms: C16_24  and  O6_25 
ROOT
HETATM    1  C11 UNL     1      24.630 -10.396  30.793  1.00  0.00     0.056 C 
ENDROOT
BRANCH   1   2
HETATM    2  C10 UNL     1      25.600 -10.762  29.708  1.00  0.00     0.015 C 
BRANCH   2   3
HETATM    3  C9  UNL     1      26.844  -9.973  29.748  1.00  0.00     0.037 C 
BRANCH   3   4
HETATM    4  C3  UNL     1      27.937 -10.488  30.613  1.00  0.00     0.154 C 
BRANCH   4   5
HETATM    5  O2  UNL     1      28.867  -9.463  30.937  1.00  0.00    -0.312 OA
BRANCH   5   6
HETATM    6  C2  UNL     1      29.070  -8.965  32.205  1.00  0.00     0.255 C 
HETATM    7  C1  UNL     1      30.234  -9.448  33.005  1.00  0.00     0.126 C 
HETATM    8  O1  UNL     1      28.256  -8.109  32.644  1.00  0.00    -0.266 OA
ENDBRANCH   5   6
ENDBRANCH   4   5
BRANCH   4   9
HETATM    9  C4  UNL     1      28.674 -11.631  30.127  1.00  0.00     0.006 C 
HETATM   10  C5  UNL     1      28.419 -12.834  30.587  1.00  0.00     0.006 C 
BRANCH  10  11
HETATM   11  C6  UNL     1      29.133 -14.026  30.132  1.00  0.00    -0.056 C 
HETATM   12  C7  UNL     1      28.986 -14.449  28.725  1.00  0.00     0.048 C 
HETATM   13  C8  UNL     1      29.887 -14.696  30.972  1.00  0.00     0.062 C 
HETATM   14 BR1  UNL     1      30.822 -16.251  30.386  1.00  0.00    -0.063 Br
ENDBRANCH  10  11
ENDBRANCH   4   9
ENDBRANCH   3   4
ENDBRANCH   2   3
ENDBRANCH   1   2
BRANCH   1  15
HETATM   15  C12 UNL     1      23.575  -9.456  30.383  1.00  0.00     0.042 A 
HETATM   16  C13 UNL     1      22.760  -9.598  29.243  1.00  0.00     0.193 A 
HETATM   17  O4  UNL     1      21.970  -8.565  29.141  1.00  0.00    -0.287 OA
HETATM   18  C14 UNL     1      22.166  -7.718  30.114  1.00  0.00     0.113 A 
HETATM   19  C16 UNL     1      23.180  -8.259  30.915  1.00  0.00     0.109 A 
BRANCH  16  20
HETATM   20  O3  UNL     1      22.770 -10.652  28.351  1.00  0.00    -0.340 OA
ATOM     21  H3  UNL     1      23.342 -10.752  27.600  1.00  0.00     0.220 HD
ENDBRANCH  16  20
BRANCH  18  22
HETATM   22  C15 UNL     1      21.487  -6.417  30.382  1.00  0.00     0.232 C 
BRANCH  22  23
HETATM   23  O5  UNL     1      20.804  -6.479  31.595  1.00  0.00    -0.394 OA
ATOM     24  H5  UNL     1      20.936  -5.675  32.083  1.00  0.00     0.209 HD
ENDBRANCH  22  23
ENDBRANCH  18  22
BRANCH  19  25
HETATM   25  O6  UNL     1      23.672  -7.638  32.051  1.00  0.00    -0.357 OA
ATOM     26  H6  UNL     1      23.473  -6.764  32.364  1.00  0.00     0.217 HD
ENDBRANCH  19  25
ENDBRANCH   1  15
BRANCH   1  27
HETATM   27  C17 UNL     1      24.036 -11.680  31.371  1.00  0.00     0.141 C 
HETATM   28  C18 UNL     1      25.073 -12.475  32.101  1.00  0.00     0.043 C 
HETATM   29  C19 UNL     1      24.405 -12.930  33.353  1.00  0.00     0.113 C 
HETATM   30  C20 UNL     1      23.020 -12.453  33.256  1.00  0.00     0.259 C 
HETATM   31  O7  UNL     1      21.976 -12.836  33.855  1.00  0.00    -0.265 OA
HETATM   32  O8  UNL     1      23.017 -11.419  32.320  1.00  0.00    -0.315 OA
ENDBRANCH   1  27
TORSDOF 13
ENDMDL
MODEL 5
REMARK VINA RESULT: -7.614565803      1.204      1.308
REMARK  13 active torsions:
REMARK  status: ('A' for Active; 'I' for Inactive)
REMARK    1  A    between atoms: C2_2  and  O2_4 
REMARK    2  A    between atoms: O2_4  and  C3_5 
REMARK    3  A    between atoms: C3_5  and  C4_6 
REMARK    4  A    between atoms: C3_5  and  C9_12 
REMARK    5  A    between atoms: C5_7  and  C6_8 
REMARK    6  A    between atoms: C9_12  and  C10_13 
REMARK    7  A    between atoms: C10_13  and  C11_14 
REMARK    8  A    between atoms: C11_14  and  C12_15 
REMARK    9  A    between atoms: C11_14  and  C17_27 
REMARK   10  A    between atoms: C13_16  and  O3_17 
REMARK   11  A    between atoms: C14_20  and  C15_21 
REMARK   12  A    between atoms: C15_21  and  O5_22 
REMARK   13  A    between atoms: C16_24  and  O6_25 
ROOT
HETATM    1  C11 UNL     1      24.958 -10.364  31.530  1.00  0.00     0.056 C 
ENDROOT
BRANCH   1   2
HETATM    2  C10 UNL     1      25.057 -11.014  30.182  1.00  0.00     0.015 C 
BRANCH   2   3
HETATM    3  C9  UNL     1      26.347 -10.774  29.512  1.00  0.00     0.037 C 
BRANCH   3   4
HETATM    4  C3  UNL     1      27.560 -10.782  30.371  1.00  0.00     0.154 C 
BRANCH   4   5
HETATM    5  O2  UNL     1      28.249  -9.540  30.305  1.00  0.00    -0.312 OA
BRANCH   5   6
HETATM    6  C2  UNL     1      28.458  -8.705  31.380  1.00  0.00     0.255 C 
HETATM    7  C1  UNL     1      29.444  -9.094  32.432  1.00  0.00     0.126 C 
HETATM    8  O1  UNL     1      27.801  -7.630  31.433  1.00  0.00    -0.266 OA
ENDBRANCH   5   6
ENDBRANCH   4   5
BRANCH   4   9
HETATM    9  C4  UNL     1      28.515 -11.842  30.146  1.00  0.00     0.006 C 
HETATM   10  C5  UNL     1      28.115 -13.088  30.037  1.00  0.00     0.006 C 
BRANCH  10  11
HETATM   11  C6  UNL     1      29.036 -14.200  29.809  1.00  0.00    -0.056 C 
HETATM   12  C7  UNL     1      29.196 -14.723  28.438  1.00  0.00     0.048 C 
HETATM   13  C8  UNL     1      29.703 -14.712  30.818  1.00  0.00     0.062 C 
HETATM   14 BR1  UNL     1      30.907 -16.162  30.530  1.00  0.00    -0.063 Br
ENDBRANCH  10  11
ENDBRANCH   4   9
ENDBRANCH   3   4
ENDBRANCH   2   3
ENDBRANCH   1   2
BRANCH   1  15
HETATM   15  C12 UNL     1      24.267  -9.064  31.537  1.00  0.00     0.042 A 
HETATM   16  C13 UNL     1      24.564  -7.993  32.402  1.00  0.00     0.193 A 
HETATM   17  O4  UNL     1      23.730  -7.014  32.183  1.00  0.00    -0.287 OA
HETATM   18  C14 UNL     1      22.880  -7.313  31.240  1.00  0.00     0.113 A 
HETATM   19  C16 UNL     1      23.199  -8.609  30.814  1.00  0.00     0.109 A 
BRANCH  16  20
HETATM   20  O3  UNL     1      25.572  -7.951  33.344  1.00  0.00    -0.340 OA
ATOM     21  H3  UNL     1      26.121  -7.205  33.553  1.00  0.00     0.220 HD
ENDBRANCH  16  20
BRANCH  18  22
HETATM   22  C15 UNL     1      21.768  -6.493  30.679  1.00  0.00     0.232 C 
BRANCH  22  23
HETATM   23  O5  UNL     1      20.710  -6.444  31.585  1.00  0.00    -0.394 OA
ATOM     24  H5  UNL     1      21.018  -6.673  32.455  1.00  0.00     0.209 HD
ENDBRANCH  22  23
ENDBRANCH  18  22
BRANCH  19  25
HETATM   25  O6  UNL     1      22.507  -9.280  29.819  1.00  0.00    -0.357 OA
ATOM     26  H6  UNL     1      21.726  -8.991  29.363  1.00  0.00     0.217 HD
ENDBRANCH  19  25
ENDBRANCH   1  15
BRANCH   1  27
HETATM   27  C17 UNL     1      24.304 -11.346  32.501  1.00  0.00     0.141 C 
HETATM   28  C18 UNL     1      23.030 -11.895  31.939  1.00  0.00     0.043 C 
HETATM   29  C19 UNL     1      23.065 -13.352  32.244  1.00  0.00     0.113 C 
HETATM   30  C20 UNL     1      24.295 -13.563  33.019  1.00  0.00     0.259 C 
HETATM   31  O7  UNL     1      24.627 -14.505  33.792  1.00  0.00    -0.265 OA
HETATM   32  O8  UNL     1      25.123 -12.473  32.758  1.00  0.00    -0.315 OA
ENDBRANCH   1  27
TORSDOF 13
ENDMDL
