MODEL 1
REMARK VINA RESULT: -5.336060497      0.000      0.000
REMARK  5 active torsions:
REMARK  status: ('A' for Active; 'I' for Inactive)
REMARK    1  A    between atoms: C2_2  and  C3_3 
REMARK    2  A    between atoms: C9_9  and  O1_10 
REMARK    3  A    between atoms: O1_10  and  C10_11 
REMARK    4  A    between atoms: C17_21  and  C18_22 
REMARK    5  A    between atoms: C24_28  and  C25_29 
ROOT
HETATM    1  C3  UNL     1     -10.899  19.070  -8.710  1.00  0.00    -0.026 C 
HETATM    2  C4  UNL     1     -11.184  17.731  -9.402  1.00  0.00     0.019 C 
HETATM    3  C5  UNL     1     -11.781  20.144  -9.210  1.00  0.00     0.020 C 
HETATM    4  C6  UNL     1     -11.211  21.470  -9.448  1.00  0.00     0.023 C 
HETATM    5  C7  UNL     1      -9.712  21.534  -9.791  1.00  0.00    -0.001 C 
HETATM    6  C8  UNL     1      -9.529  22.775 -10.539  1.00  0.00     0.041 C 
HETATM    7  C9  UNL     1     -10.491  23.899 -10.147  1.00  0.00     0.164 C 
HETATM    8  C12 UNL     1     -11.026  23.804  -8.779  1.00  0.00     0.184 C 
HETATM    9  O3  UNL     1     -10.134  24.202  -7.771  1.00  0.00    -0.345 OA
HETATM   10  C13 UNL     1     -10.661  23.503  -6.659  1.00  0.00     0.158 C 
HETATM   11  C14 UNL     1      -9.700  23.537  -5.500  1.00  0.00     0.078 C 
HETATM   12  C15 UNL     1     -11.983  24.045  -6.226  1.00  0.00     0.078 C 
HETATM   13  O4  UNL     1     -10.738  22.220  -7.198  1.00  0.00    -0.348 OA
HETATM   14  C16 UNL     1     -11.457  22.450  -8.344  1.00  0.00     0.161 C 
HETATM   15  C17 UNL     1      -9.294  20.230 -10.216  1.00  0.00    -0.004 C 
HETATM   16  C28 UNL     1      -9.420  19.335  -8.957  1.00  0.00     0.018 C 
ENDROOT
BRANCH  15  17
HETATM   17  C18 UNL     1      -8.153  19.807 -10.978  1.00  0.00    -0.000 C 
HETATM   18  C19 UNL     1      -7.467  18.594 -10.354  1.00  0.00     0.006 C 
HETATM   19  C20 UNL     1      -7.595  17.473 -11.324  1.00  0.00     0.010 C 
HETATM   20  C21 UNL     1      -8.298  17.963 -12.546  1.00  0.00     0.017 C 
HETATM   21  C22 UNL     1      -7.541  17.592 -13.771  1.00  0.00    -0.024 C 
HETATM   22  C26 UNL     1      -8.158  19.482 -12.398  1.00  0.00    -0.017 C 
HETATM   23  C23 UNL     1      -6.656  18.526 -13.987  1.00  0.00    -0.014 C 
HETATM   24  C24 UNL     1      -6.734  19.594 -12.950  1.00  0.00     0.118 C 
HETATM   25  C27 UNL     1      -9.066  20.096 -13.356  1.00  0.00     0.017 C 
BRANCH  24  26
HETATM   26  C25 UNL     1      -6.390  20.904 -13.472  1.00  0.00     0.181 C 
HETATM   27  O5  UNL     1      -6.327  21.953 -12.823  1.00  0.00    -0.647 OA
HETATM   28  O6  UNL     1      -6.098  21.009 -14.844  1.00  0.00    -0.647 OA
ENDBRANCH  24  26
ENDBRANCH  15  17
BRANCH   1  29
HETATM   29  C2  UNL     1     -11.107  18.829  -7.256  1.00  0.00    -0.028 C 
HETATM   30  C1  UNL     1     -11.950  17.908  -6.800  1.00  0.00     0.007 C 
ENDBRANCH   1  29
BRANCH   7  31
HETATM   31  O1  UNL     1      -9.846  25.103 -10.437  1.00  0.00    -0.314 OA
BRANCH  31  32
HETATM   32  C10 UNL     1      -8.502  25.285 -10.583  1.00  0.00     0.255 C 
HETATM   33  C11 UNL     1      -7.825  25.434 -11.909  1.00  0.00     0.126 C 
HETATM   34  O2  UNL     1      -7.825  25.327  -9.528  1.00  0.00    -0.266 OA
ENDBRANCH  31  32
ENDBRANCH   7  31
TORSDOF 5
ENDMDL
MODEL 2
REMARK VINA RESULT: -5.201873239      2.721      6.262
REMARK  5 active torsions:
REMARK  status: ('A' for Active; 'I' for Inactive)
REMARK    1  A    between atoms: C2_2  and  C3_3 
REMARK    2  A    between atoms: C9_9  and  O1_10 
REMARK    3  A    between atoms: O1_10  and  C10_11 
REMARK    4  A    between atoms: C17_21  and  C18_22 
REMARK    5  A    between atoms: C24_28  and  C25_29 
ROOT
HETATM    1  C3  UNL     1      -9.714  19.802 -10.882  1.00  0.00    -0.026 C 
HETATM    2  C4  UNL     1      -9.755  18.269 -10.869  1.00  0.00     0.019 C 
HETATM    3  C5  UNL     1      -9.336  20.353  -9.565  1.00  0.00     0.020 C 
HETATM    4  C6  UNL     1     -10.041  21.533  -9.066  1.00  0.00     0.023 C 
HETATM    5  C7  UNL     1     -11.482  21.746  -9.562  1.00  0.00    -0.001 C 
HETATM    6  C8  UNL     1     -12.139  22.554  -8.537  1.00  0.00     0.041 C 
HETATM    7  C9  UNL     1     -11.208  23.516  -7.795  1.00  0.00     0.164 C 
HETATM    8  C12 UNL     1     -10.004  23.910  -8.544  1.00  0.00     0.184 C 
HETATM    9  O3  UNL     1     -10.224  24.876  -9.539  1.00  0.00    -0.345 OA
HETATM   10  C13 UNL     1      -9.121  24.632 -10.392  1.00  0.00     0.158 C 
HETATM   11  C14 UNL     1      -9.287  25.356 -11.703  1.00  0.00     0.078 C 
HETATM   12  C15 UNL     1      -7.824  25.026  -9.767  1.00  0.00     0.078 C 
HETATM   13  O4  UNL     1      -9.256  23.256 -10.569  1.00  0.00    -0.348 OA
HETATM   14  C16 UNL     1      -9.305  22.819  -9.270  1.00  0.00     0.161 C 
HETATM   15  C17 UNL     1     -11.965  20.502 -10.086  1.00  0.00    -0.004 C 
HETATM   16  C28 UNL     1     -11.101  20.231 -11.344  1.00  0.00     0.018 C 
ENDROOT
BRANCH  15  17
HETATM   17  C18 UNL     1     -13.301  20.034 -10.326  1.00  0.00    -0.000 C 
HETATM   18  C19 UNL     1     -13.347  18.977 -11.427  1.00  0.00     0.006 C 
HETATM   19  C20 UNL     1     -13.817  17.713 -10.797  1.00  0.00     0.010 C 
HETATM   20  C21 UNL     1     -14.106  17.964  -9.355  1.00  0.00     0.017 C 
HETATM   21  C22 UNL     1     -15.455  17.453  -8.994  1.00  0.00    -0.024 C 
HETATM   22  C26 UNL     1     -14.202  19.493  -9.318  1.00  0.00    -0.017 C 
HETATM   23  C23 UNL     1     -16.318  18.393  -9.261  1.00  0.00    -0.014 C 
HETATM   24  C24 UNL     1     -15.647  19.603  -9.815  1.00  0.00     0.118 C 
HETATM   25  C27 UNL     1     -14.171  19.895  -7.919  1.00  0.00     0.017 C 
BRANCH  24  26
HETATM   26  C25 UNL     1     -16.319  20.835  -9.445  1.00  0.00     0.181 C 
HETATM   27  O5  UNL     1     -16.170  21.936  -9.981  1.00  0.00    -0.647 OA
HETATM   28  O6  UNL     1     -17.234  20.787  -8.376  1.00  0.00    -0.647 OA
ENDBRANCH  24  26
ENDBRANCH  15  17
BRANCH   1  29
HETATM   29  C2  UNL     1      -8.724  20.173 -11.931  1.00  0.00    -0.028 C 
HETATM   30  C1  UNL     1      -7.447  20.410 -11.652  1.00  0.00     0.007 C 
ENDBRANCH   1  29
BRANCH   7  31
HETATM   31  O1  UNL     1     -11.995  24.581  -7.354  1.00  0.00    -0.314 OA
BRANCH  31  32
HETATM   32  C10 UNL     1     -12.357  24.839  -6.065  1.00  0.00     0.255 C 
HETATM   33  C11 UNL     1     -12.322  23.817  -4.973  1.00  0.00     0.126 C 
HETATM   34  O2  UNL     1     -12.735  26.008  -5.813  1.00  0.00    -0.266 OA
ENDBRANCH  31  32
ENDBRANCH   7  31
TORSDOF 5
ENDMDL
MODEL 3
REMARK VINA RESULT: -5.038698404      2.937      4.959
REMARK  5 active torsions:
REMARK  status: ('A' for Active; 'I' for Inactive)
REMARK    1  A    between atoms: C2_2  and  C3_3 
REMARK    2  A    between atoms: C9_9  and  O1_10 
REMARK    3  A    between atoms: O1_10  and  C10_11 
REMARK    4  A    between atoms: C17_21  and  C18_22 
REMARK    5  A    between atoms: C24_28  and  C25_29 
ROOT
HETATM    1  C3  UNL     1     -11.011  22.442  -7.569  1.00  0.00    -0.026 C 
HETATM    2  C4  UNL     1      -9.700  22.736  -6.828  1.00  0.00     0.019 C 
HETATM    3  C5  UNL     1     -11.606  21.159  -7.144  1.00  0.00     0.020 C 
HETATM    4  C6  UNL     1     -12.189  20.281  -8.159  1.00  0.00     0.023 C 
HETATM    5  C7  UNL     1     -11.616  20.387  -9.584  1.00  0.00    -0.001 C 
HETATM    6  C8  UNL     1     -11.884  19.096 -10.215  1.00  0.00     0.041 C 
HETATM    7  C9  UNL     1     -13.154  18.400  -9.721  1.00  0.00     0.164 C 
HETATM    8  C12 UNL     1     -14.176  19.303  -9.167  1.00  0.00     0.184 C 
HETATM    9  O3  UNL     1     -14.923  20.002 -10.129  1.00  0.00    -0.345 OA
HETATM   10  C13 UNL     1     -15.360  21.113  -9.368  1.00  0.00     0.158 C 
HETATM   11  C14 UNL     1     -15.949  22.175 -10.260  1.00  0.00     0.078 C 
HETATM   12  C15 UNL     1     -16.358  20.728  -8.327  1.00  0.00     0.078 C 
HETATM   13  O4  UNL     1     -14.141  21.535  -8.839  1.00  0.00    -0.348 OA
HETATM   14  C16 UNL     1     -13.678  20.376  -8.269  1.00  0.00     0.161 C 
HETATM   15  C17 UNL     1     -10.339  21.033  -9.507  1.00  0.00    -0.004 C 
HETATM   16  C28 UNL     1     -10.646  22.482  -9.047  1.00  0.00     0.018 C 
ENDROOT
BRANCH  15  17
HETATM   17  C18 UNL     1      -9.237  21.059 -10.427  1.00  0.00    -0.000 C 
HETATM   18  C19 UNL     1      -8.306  19.863 -10.238  1.00  0.00     0.006 C 
HETATM   19  C20 UNL     1      -8.366  19.061 -11.489  1.00  0.00     0.010 C 
HETATM   20  C21 UNL     1      -9.266  19.743 -12.463  1.00  0.00     0.017 C 
HETATM   21  C22 UNL     1      -8.601  19.878 -13.786  1.00  0.00    -0.024 C 
HETATM   22  C26 UNL     1      -9.348  21.156 -11.876  1.00  0.00    -0.017 C 
HETATM   23  C23 UNL     1      -7.902  20.980 -13.765  1.00  0.00    -0.014 C 
HETATM   24  C24 UNL     1      -8.029  21.676 -12.454  1.00  0.00     0.118 C 
HETATM   25  C27 UNL     1     -10.441  21.842 -12.550  1.00  0.00     0.017 C 
BRANCH  24  26
HETATM   26  C25 UNL     1      -7.953  23.120 -12.579  1.00  0.00     0.181 C 
HETATM   27  O5  UNL     1      -8.337  23.945 -11.745  1.00  0.00    -0.647 OA
HETATM   28  O6  UNL     1      -7.389  23.649 -13.755  1.00  0.00    -0.647 OA
ENDBRANCH  24  26
ENDBRANCH  15  17
BRANCH   1  29
HETATM   29  C2  UNL     1     -11.914  23.587  -7.268  1.00  0.00    -0.028 C 
HETATM   30  C1  UNL     1     -11.975  24.147  -6.064  1.00  0.00     0.007 C 
ENDBRANCH   1  29
BRANCH   7  31
HETATM   31  O1  UNL     1     -13.599  17.584 -10.761  1.00  0.00    -0.314 OA
BRANCH  31  32
HETATM   32  C10 UNL     1     -13.402  17.794 -12.095  1.00  0.00     0.255 C 
HETATM   33  C11 UNL     1     -12.132  17.453 -12.809  1.00  0.00     0.126 C 
HETATM   34  O2  UNL     1     -14.357  18.303 -12.728  1.00  0.00    -0.266 OA
ENDBRANCH  31  32
ENDBRANCH   7  31
TORSDOF 5
ENDMDL
MODEL 4
REMARK VINA RESULT: -4.977826266      3.171      6.636
REMARK  5 active torsions:
REMARK  status: ('A' for Active; 'I' for Inactive)
REMARK    1  A    between atoms: C2_2  and  C3_3 
REMARK    2  A    between atoms: C9_9  and  O1_10 
REMARK    3  A    between atoms: O1_10  and  C10_11 
REMARK    4  A    between atoms: C17_21  and  C18_22 
REMARK    5  A    between atoms: C24_28  and  C25_29 
ROOT
HETATM    1  C3  UNL     1     -13.521  18.582  -9.513  1.00  0.00    -0.026 C 
HETATM    2  C4  UNL     1     -13.281  18.344  -8.017  1.00  0.00     0.019 C 
HETATM    3  C5  UNL     1     -12.434  18.020 -10.339  1.00  0.00     0.020 C 
HETATM    4  C6  UNL     1     -11.945  18.793 -11.481  1.00  0.00     0.023 C 
HETATM    5  C7  UNL     1     -12.087  20.324 -11.398  1.00  0.00    -0.001 C 
HETATM    6  C8  UNL     1     -11.054  20.866 -12.278  1.00  0.00     0.041 C 
HETATM    7  C9  UNL     1     -10.714  19.978 -13.478  1.00  0.00     0.164 C 
HETATM    8  C12 UNL     1     -11.791  19.065 -13.895  1.00  0.00     0.184 C 
HETATM    9  O3  UNL     1     -12.825  19.673 -14.625  1.00  0.00    -0.345 OA
HETATM   10  C13 UNL     1     -13.885  18.767 -14.386  1.00  0.00     0.158 C 
HETATM   11  C14 UNL     1     -15.200  19.351 -14.832  1.00  0.00     0.078 C 
HETATM   12  C15 UNL     1     -13.670  17.454 -15.063  1.00  0.00     0.078 C 
HETATM   13  O4  UNL     1     -13.826  18.689 -12.996  1.00  0.00    -0.348 OA
HETATM   14  C16 UNL     1     -12.508  18.364 -12.798  1.00  0.00     0.161 C 
HETATM   15  C17 UNL     1     -12.290  20.682 -10.025  1.00  0.00    -0.004 C 
HETATM   16  C28 UNL     1     -13.674  20.090  -9.654  1.00  0.00     0.018 C 
ENDROOT
BRANCH  15  17
HETATM   17  C18 UNL     1     -12.117  21.932  -9.340  1.00  0.00    -0.000 C 
HETATM   18  C19 UNL     1     -13.361  22.328  -8.549  1.00  0.00     0.006 C 
HETATM   19  C20 UNL     1     -12.978  22.341  -7.111  1.00  0.00     0.010 C 
HETATM   20  C21 UNL     1     -11.528  22.011  -6.990  1.00  0.00     0.017 C 
HETATM   21  C22 UNL     1     -10.833  23.011  -6.136  1.00  0.00    -0.024 C 
HETATM   22  C26 UNL     1     -11.033  22.250  -8.421  1.00  0.00    -0.017 C 
HETATM   23  C23 UNL     1     -10.474  24.004  -6.903  1.00  0.00    -0.014 C 
HETATM   24  C24 UNL     1     -10.883  23.771  -8.317  1.00  0.00     0.118 C 
HETATM   25  C27 UNL     1      -9.702  21.668  -8.521  1.00  0.00     0.017 C 
BRANCH  24  26
HETATM   26  C25 UNL     1      -9.956  24.352  -9.270  1.00  0.00     0.181 C 
HETATM   27  O5  UNL     1     -10.198  24.623 -10.449  1.00  0.00    -0.647 OA
HETATM   28  O6  UNL     1      -8.653  24.640  -8.825  1.00  0.00    -0.647 OA
ENDBRANCH  24  26
ENDBRANCH  15  17
BRANCH   1  29
HETATM   29  C2  UNL     1     -14.828  17.937  -9.822  1.00  0.00    -0.028 C 
HETATM   30  C1  UNL     1     -15.911  18.640 -10.137  1.00  0.00     0.007 C 
ENDBRANCH   1  29
BRANCH   7  31
HETATM   31  O1  UNL     1     -10.245  20.822 -14.485  1.00  0.00    -0.314 OA
BRANCH  31  32
HETATM   32  C10 UNL     1      -8.970  21.292 -14.618  1.00  0.00     0.255 C 
HETATM   33  C11 UNL     1      -7.753  20.498 -14.264  1.00  0.00     0.126 C 
HETATM   34  O2  UNL     1      -8.847  22.457 -15.066  1.00  0.00    -0.266 OA
ENDBRANCH  31  32
ENDBRANCH   7  31
TORSDOF 5
ENDMDL
MODEL 5
REMARK VINA RESULT: -4.804286424      3.101      6.407
REMARK  5 active torsions:
REMARK  status: ('A' for Active; 'I' for Inactive)
REMARK    1  A    between atoms: C2_2  and  C3_3 
REMARK    2  A    between atoms: C9_9  and  O1_10 
REMARK    3  A    between atoms: O1_10  and  C10_11 
REMARK    4  A    between atoms: C17_21  and  C18_22 
REMARK    5  A    between atoms: C24_28  and  C25_29 
ROOT
HETATM    1  C3  UNL     1     -10.368  19.825 -10.736  1.00  0.00    -0.026 C 
HETATM    2  C4  UNL     1     -10.577  18.308 -10.828  1.00  0.00     0.019 C 
HETATM    3  C5  UNL     1     -10.025  20.249  -9.364  1.00  0.00     0.020 C 
HETATM    4  C6  UNL     1     -10.630  21.470  -8.831  1.00  0.00     0.023 C 
HETATM    5  C7  UNL     1     -12.001  21.875  -9.401  1.00  0.00    -0.001 C 
HETATM    6  C8  UNL     1     -12.635  22.689  -8.368  1.00  0.00     0.041 C 
HETATM    7  C9  UNL     1     -11.659  23.493  -7.506  1.00  0.00     0.164 C 
HETATM    8  C12 UNL     1     -10.370  23.792  -8.150  1.00  0.00     0.184 C 
HETATM    9  O3  UNL     1     -10.413  24.835  -9.089  1.00  0.00    -0.345 OA
HETATM   10  C13 UNL     1      -9.287  24.518  -9.886  1.00  0.00     0.158 C 
HETATM   11  C14 UNL     1      -9.281  25.334 -11.153  1.00  0.00     0.078 C 
HETATM   12  C15 UNL     1      -8.001  24.725  -9.156  1.00  0.00     0.078 C 
HETATM   13  O4  UNL     1      -9.558  23.180 -10.163  1.00  0.00    -0.348 OA
HETATM   14  C16 UNL     1      -9.745  22.674  -8.902  1.00  0.00     0.161 C 
HETATM   15  C17 UNL     1     -12.579  20.726 -10.037  1.00  0.00    -0.004 C 
HETATM   16  C28 UNL     1     -11.664  20.435 -11.253  1.00  0.00     0.018 C 
ENDROOT
BRANCH  15  17
HETATM   17  C18 UNL     1     -13.938  20.429 -10.391  1.00  0.00    -0.000 C 
HETATM   18  C19 UNL     1     -14.157  20.472 -11.902  1.00  0.00     0.006 C 
HETATM   19  C20 UNL     1     -14.529  19.096 -12.328  1.00  0.00     0.010 C 
HETATM   20  C21 UNL     1     -14.592  18.214 -11.127  1.00  0.00     0.017 C 
HETATM   21  C22 UNL     1     -15.872  17.456 -11.100  1.00  0.00    -0.024 C 
HETATM   22  C26 UNL     1     -14.675  19.239  -9.991  1.00  0.00    -0.017 C 
HETATM   23  C23 UNL     1     -16.762  18.206 -10.511  1.00  0.00    -0.014 C 
HETATM   24  C24 UNL     1     -16.179  19.512 -10.094  1.00  0.00     0.118 C 
HETATM   25  C27 UNL     1     -14.428  18.526  -8.746  1.00  0.00     0.017 C 
BRANCH  24  26
HETATM   26  C25 UNL     1     -16.782  20.031  -8.880  1.00  0.00     0.181 C 
HETATM   27  O5  UNL     1     -16.581  21.144  -8.385  1.00  0.00    -0.647 OA
HETATM   28  O6  UNL     1     -17.684  19.202  -8.188  1.00  0.00    -0.647 OA
ENDBRANCH  24  26
ENDBRANCH  15  17
BRANCH   1  29
HETATM   29  C2  UNL     1      -9.273  20.143 -11.693  1.00  0.00    -0.028 C 
HETATM   30  C1  UNL     1      -8.011  20.298 -11.305  1.00  0.00     0.007 C 
ENDBRANCH   1  29
BRANCH   7  31
HETATM   31  O1  UNL     1     -12.354  24.612  -7.044  1.00  0.00    -0.314 OA
BRANCH  31  32
HETATM   32  C10 UNL     1     -12.431  25.039  -5.751  1.00  0.00     0.255 C 
HETATM   33  C11 UNL     1     -11.944  24.241  -4.583  1.00  0.00     0.126 C 
HETATM   34  O2  UNL     1     -12.944  26.169  -5.565  1.00  0.00    -0.266 OA
ENDBRANCH  31  32
ENDBRANCH   7  31
TORSDOF 5
ENDMDL
