MODEL 1
REMARK VINA RESULT: -10.225809986      0.000      0.000
REMARK  11 active torsions:
REMARK  status: ('A' for Active; 'I' for Inactive)
REMARK    1  A    between atoms: C2_2  and  C3_3 
REMARK    2  A    between atoms: C3_3  and  C4_4 
REMARK    3  A    between atoms: C9_9  and  N1_10 
REMARK    4  A    between atoms: C10_11  and  C11_12 
REMARK    5  A    between atoms: C11_12  and  C12_13 
REMARK    6  A    between atoms: C12_13  and  C15_16 
REMARK    7  A    between atoms: C20_25  and  O3_26 
REMARK    8  A    between atoms: O3_26  and  C21_27 
REMARK    9  A    between atoms: C21_27  and  C22_28 
REMARK   10  A    between atoms: C26_34  and  C27_35 
REMARK   11  A    between atoms: C28_39  and  C29_40 
ROOT
HETATM    1  N1  UNL     1     -86.311 162.500 -14.971  1.00  0.00    -0.324 N 
HETATM    2  C10 UNL     1     -86.817 162.111 -13.827  1.00  0.00     0.086 A 
HETATM    3  N2  UNL     1     -88.054 162.685 -13.715  1.00  0.00    -0.347 N 
ATOM      4  H2  UNL     1     -88.685 162.559 -12.923  1.00  0.00     0.167 HD
HETATM    5  C16 UNL     1     -88.316 163.421 -14.769  1.00  0.00     0.049 A 
HETATM    6  C17 UNL     1     -87.220 163.324 -15.588  1.00  0.00     0.037 A 
HETATM    7  C18 UNL     1     -87.285 164.101 -16.846  1.00  0.00     0.062 C 
HETATM    8  C19 UNL     1     -88.610 163.821 -17.467  1.00  0.00     0.039 C 
HETATM    9  C20 UNL     1     -89.808 164.263 -16.586  1.00  0.00     0.140 C 
HETATM   10  C28 UNL     1     -89.519 164.264 -15.149  1.00  0.00     0.174 C 
ENDROOT
BRANCH   9  11
HETATM   11  O3  UNL     1     -90.273 165.401 -17.165  1.00  0.00    -0.379 OA
BRANCH  11  12
HETATM   12  C21 UNL     1     -91.542 165.474 -17.604  1.00  0.00     0.226 C 
BRANCH  12  13
HETATM   13  C22 UNL     1     -92.356 166.635 -17.206  1.00  0.00     0.048 A 
HETATM   14  N3  UNL     1     -92.155 167.287 -16.064  1.00  0.00    -0.367 N 
HETATM   15  C23 UNL     1     -92.865 168.341 -15.668  1.00  0.00     0.088 A 
ATOM     16  H3  UNL     1     -91.407 166.958 -15.453  1.00  0.00     0.165 HD
HETATM   17  C24 UNL     1     -93.868 168.805 -16.458  1.00  0.00     0.018 A 
HETATM   18  C25 UNL     1     -94.127 168.182 -17.640  1.00  0.00     0.019 A 
HETATM   19  C26 UNL     1     -93.387 167.096 -18.040  1.00  0.00     0.072 A 
BRANCH  19  20
HETATM   20  C27 UNL     1     -93.677 166.430 -19.331  1.00  0.00     0.419 C 
HETATM   21  F1  UNL     1     -94.009 165.119 -19.207  1.00  0.00    -0.166 F 
HETATM   22  F2  UNL     1     -92.690 166.670 -20.287  1.00  0.00    -0.166 F 
HETATM   23  F3  UNL     1     -94.817 167.058 -19.868  1.00  0.00    -0.166 F 
ENDBRANCH  19  20
ENDBRANCH  12  13
ENDBRANCH  11  12
ENDBRANCH   9  11
BRANCH  10  24
HETATM   24  C29 UNL     1     -89.499 165.518 -14.373  1.00  0.00     0.399 C 
HETATM   25  F4  UNL     1     -88.574 165.311 -13.319  1.00  0.00    -0.170 F 
HETATM   26  F5  UNL     1     -90.658 165.882 -13.742  1.00  0.00    -0.170 F 
HETATM   27  F6  UNL     1     -89.028 166.646 -14.997  1.00  0.00    -0.170 F 
ENDBRANCH  10  24
BRANCH   1  28
HETATM   28  C9  UNL     1     -85.116 162.206 -15.659  1.00  0.00     0.153 C 
HETATM   29  C8  UNL     1     -83.957 163.048 -15.707  1.00  0.00     0.037 C 
HETATM   30  C7  UNL     1     -82.834 162.239 -16.410  1.00  0.00     0.004 C 
HETATM   31  C6  UNL     1     -81.995 161.642 -15.286  1.00  0.00     0.020 C 
HETATM   32  C4  UNL     1     -82.764 160.493 -14.739  1.00  0.00     0.006 C 
HETATM   33  C5  UNL     1     -82.308 159.242 -15.532  1.00  0.00     0.027 C 
HETATM   34  S1  UNL     1     -84.545 160.572 -15.008  1.00  0.00    -0.134 SA
BRANCH  32  35
HETATM   35  C3  UNL     1     -82.511 160.299 -13.289  1.00  0.00     0.020 C 
BRANCH  35  36
HETATM   36  C2  UNL     1     -81.640 161.242 -12.567  1.00  0.00    -0.003 C 
HETATM   37  C1  UNL     1     -80.882 160.764 -11.386  1.00  0.00     0.005 C 
ENDBRANCH  35  36
ENDBRANCH  32  35
ENDBRANCH   1  28
BRANCH   2  38
HETATM   38  C11 UNL     1     -86.284 161.313 -12.727  1.00  0.00     0.096 C 
BRANCH  38  39
HETATM   39  C12 UNL     1     -85.590 162.115 -11.634  1.00  0.00     0.048 C 
HETATM   40  C13 UNL     1     -86.628 162.675 -10.659  1.00  0.00     0.027 C 
HETATM   41  C14 UNL     1     -84.750 163.244 -12.096  1.00  0.00     0.027 C 
BRANCH  39  42
HETATM   42  C15 UNL     1     -84.748 161.211 -10.814  1.00  0.00     0.181 C 
HETATM   43  O1  UNL     1     -83.956 161.653  -9.963  1.00  0.00    -0.647 OA
HETATM   44  O2  UNL     1     -84.856 159.851 -11.011  1.00  0.00    -0.647 OA
ENDBRANCH  39  42
ENDBRANCH  38  39
ENDBRANCH   2  38
TORSDOF 11
ENDMDL
MODEL 2
REMARK VINA RESULT: -10.184943061      1.417      1.813
REMARK  11 active torsions:
REMARK  status: ('A' for Active; 'I' for Inactive)
REMARK    1  A    between atoms: C2_2  and  C3_3 
REMARK    2  A    between atoms: C3_3  and  C4_4 
REMARK    3  A    between atoms: C9_9  and  N1_10 
REMARK    4  A    between atoms: C10_11  and  C11_12 
REMARK    5  A    between atoms: C11_12  and  C12_13 
REMARK    6  A    between atoms: C12_13  and  C15_16 
REMARK    7  A    between atoms: C20_25  and  O3_26 
REMARK    8  A    between atoms: O3_26  and  C21_27 
REMARK    9  A    between atoms: C21_27  and  C22_28 
REMARK   10  A    between atoms: C26_34  and  C27_35 
REMARK   11  A    between atoms: C28_39  and  C29_40 
ROOT
HETATM    1  N1  UNL     1     -85.923 163.011 -14.767  1.00  0.00    -0.324 N 
HETATM    2  C10 UNL     1     -86.062 163.426 -13.533  1.00  0.00     0.086 A 
HETATM    3  N2  UNL     1     -87.151 164.255 -13.504  1.00  0.00    -0.347 N 
ATOM      4  H2  UNL     1     -87.501 164.727 -12.669  1.00  0.00     0.167 HD
HETATM    5  C16 UNL     1     -87.681 164.358 -14.699  1.00  0.00     0.049 A 
HETATM    6  C17 UNL     1     -86.918 163.576 -15.527  1.00  0.00     0.037 A 
HETATM    7  C18 UNL     1     -87.327 163.556 -16.950  1.00  0.00     0.062 C 
HETATM    8  C19 UNL     1     -88.798 163.324 -16.982  1.00  0.00     0.039 C 
HETATM    9  C20 UNL     1     -89.612 164.444 -16.281  1.00  0.00     0.140 C 
HETATM   10  C28 UNL     1     -88.877 165.135 -15.219  1.00  0.00     0.174 C 
ENDROOT
BRANCH   9  11
HETATM   11  O3  UNL     1     -90.152 165.174 -17.292  1.00  0.00    -0.379 OA
BRANCH  11  12
HETATM   12  C21 UNL     1     -91.478 165.149 -17.519  1.00  0.00     0.226 C 
BRANCH  12  13
HETATM   13  C22 UNL     1     -92.287 166.297 -17.075  1.00  0.00     0.048 A 
HETATM   14  N3  UNL     1     -92.176 166.817 -15.856  1.00  0.00    -0.367 N 
HETATM   15  C23 UNL     1     -92.886 167.853 -15.416  1.00  0.00     0.088 A 
ATOM     16  H3  UNL     1     -91.504 166.393 -15.216  1.00  0.00     0.165 HD
HETATM   17  C24 UNL     1     -93.790 168.441 -16.241  1.00  0.00     0.018 A 
HETATM   18  C25 UNL     1     -93.953 167.958 -17.503  1.00  0.00     0.019 A 
HETATM   19  C26 UNL     1     -93.215 166.887 -17.947  1.00  0.00     0.072 A 
BRANCH  19  20
HETATM   20  C27 UNL     1     -93.399 166.373 -19.324  1.00  0.00     0.419 C 
HETATM   21  F1  UNL     1     -93.675 165.044 -19.379  1.00  0.00    -0.166 F 
HETATM   22  F2  UNL     1     -92.373 166.769 -20.181  1.00  0.00    -0.166 F 
HETATM   23  F3  UNL     1     -94.536 167.015 -19.851  1.00  0.00    -0.166 F 
ENDBRANCH  19  20
ENDBRANCH  12  13
ENDBRANCH  11  12
ENDBRANCH   9  11
BRANCH  10  24
HETATM   24  C29 UNL     1     -88.514 166.560 -15.340  1.00  0.00     0.399 C 
HETATM   25  F4  UNL     1     -88.118 166.749 -16.689  1.00  0.00    -0.170 F 
HETATM   26  F5  UNL     1     -87.446 166.998 -14.607  1.00  0.00    -0.170 F 
HETATM   27  F6  UNL     1     -89.511 167.487 -15.165  1.00  0.00    -0.170 F 
ENDBRANCH  10  24
BRANCH   1  28
HETATM   28  C9  UNL     1     -85.039 162.116 -15.402  1.00  0.00     0.153 C 
HETATM   29  C8  UNL     1     -83.617 162.273 -15.489  1.00  0.00     0.037 C 
HETATM   30  C7  UNL     1     -83.049 160.964 -16.099  1.00  0.00     0.004 C 
HETATM   31  C6  UNL     1     -82.591 160.124 -14.912  1.00  0.00     0.020 C 
HETATM   32  C4  UNL     1     -83.814 159.548 -14.295  1.00  0.00     0.006 C 
HETATM   33  C5  UNL     1     -84.047 158.176 -14.976  1.00  0.00     0.027 C 
HETATM   34  S1  UNL     1     -85.332 160.469 -14.610  1.00  0.00    -0.134 SA
BRANCH  32  35
HETATM   35  C3  UNL     1     -83.663 159.372 -12.828  1.00  0.00     0.020 C 
BRANCH  35  36
HETATM   36  C2  UNL     1     -82.376 159.684 -12.185  1.00  0.00    -0.003 C 
HETATM   37  C1  UNL     1     -82.291 160.845 -11.267  1.00  0.00     0.005 C 
ENDBRANCH  35  36
ENDBRANCH  32  35
ENDBRANCH   1  28
BRANCH   2  38
HETATM   38  C11 UNL     1     -85.265 163.231 -12.326  1.00  0.00     0.096 C 
BRANCH  38  39
HETATM   39  C12 UNL     1     -86.008 162.573 -11.170  1.00  0.00     0.048 C 
HETATM   40  C13 UNL     1     -85.097 162.488  -9.944  1.00  0.00     0.027 C 
HETATM   41  C14 UNL     1     -86.539 161.215 -11.432  1.00  0.00     0.027 C 
BRANCH  39  42
HETATM   42  C15 UNL     1     -87.133 163.441 -10.746  1.00  0.00     0.181 C 
HETATM   43  O1  UNL     1     -88.273 162.983 -10.557  1.00  0.00    -0.647 OA
HETATM   44  O2  UNL     1     -86.895 164.787 -10.564  1.00  0.00    -0.647 OA
ENDBRANCH  39  42
ENDBRANCH  38  39
ENDBRANCH   2  38
TORSDOF 11
ENDMDL
MODEL 3
REMARK VINA RESULT: -10.162609458      0.937      1.243
REMARK  11 active torsions:
REMARK  status: ('A' for Active; 'I' for Inactive)
REMARK    1  A    between atoms: C2_2  and  C3_3 
REMARK    2  A    between atoms: C3_3  and  C4_4 
REMARK    3  A    between atoms: C9_9  and  N1_10 
REMARK    4  A    between atoms: C10_11  and  C11_12 
REMARK    5  A    between atoms: C11_12  and  C12_13 
REMARK    6  A    between atoms: C12_13  and  C15_16 
REMARK    7  A    between atoms: C20_25  and  O3_26 
REMARK    8  A    between atoms: O3_26  and  C21_27 
REMARK    9  A    between atoms: C21_27  and  C22_28 
REMARK   10  A    between atoms: C26_34  and  C27_35 
REMARK   11  A    between atoms: C28_39  and  C29_40 
ROOT
HETATM    1  N1  UNL     1     -86.371 162.566 -14.833  1.00  0.00    -0.324 N 
HETATM    2  C10 UNL     1     -86.863 162.286 -13.652  1.00  0.00     0.086 A 
HETATM    3  N2  UNL     1     -88.089 162.890 -13.571  1.00  0.00    -0.347 N 
ATOM      4  H2  UNL     1     -88.708 162.843 -12.761  1.00  0.00     0.167 HD
HETATM    5  C16 UNL     1     -88.356 163.537 -14.680  1.00  0.00     0.049 A 
HETATM    6  C17 UNL     1     -87.276 163.350 -15.504  1.00  0.00     0.037 A 
HETATM    7  C18 UNL     1     -87.350 164.017 -16.824  1.00  0.00     0.062 C 
HETATM    8  C19 UNL     1     -88.690 163.709 -17.398  1.00  0.00     0.039 C 
HETATM    9  C20 UNL     1     -89.865 164.246 -16.539  1.00  0.00     0.140 C 
HETATM   10  C28 UNL     1     -89.552 164.365 -15.113  1.00  0.00     0.174 C 
ENDROOT
BRANCH   9  11
HETATM   11  O3  UNL     1     -90.321 165.338 -17.207  1.00  0.00    -0.379 OA
BRANCH  11  12
HETATM   12  C21 UNL     1     -91.595 165.393 -17.636  1.00  0.00     0.226 C 
BRANCH  12  13
HETATM   13  C22 UNL     1     -92.413 166.557 -17.255  1.00  0.00     0.048 A 
HETATM   14  N3  UNL     1     -92.235 167.208 -16.109  1.00  0.00    -0.367 N 
HETATM   15  C23 UNL     1     -92.950 168.264 -15.728  1.00  0.00     0.088 A 
ATOM     16  H3  UNL     1     -91.503 166.875 -15.481  1.00  0.00     0.165 HD
HETATM   17  C24 UNL     1     -93.933 168.733 -16.540  1.00  0.00     0.018 A 
HETATM   18  C25 UNL     1     -94.168 168.112 -17.728  1.00  0.00     0.019 A 
HETATM   19  C26 UNL     1     -93.423 167.023 -18.112  1.00  0.00     0.072 A 
BRANCH  19  20
HETATM   20  C27 UNL     1     -93.686 166.358 -19.409  1.00  0.00     0.419 C 
HETATM   21  F1  UNL     1     -94.063 165.059 -19.292  1.00  0.00    -0.166 F 
HETATM   22  F2  UNL     1     -92.659 166.563 -20.330  1.00  0.00    -0.166 F 
HETATM   23  F3  UNL     1     -94.787 167.018 -19.990  1.00  0.00    -0.166 F 
ENDBRANCH  19  20
ENDBRANCH  12  13
ENDBRANCH  11  12
ENDBRANCH   9  11
BRANCH  10  24
HETATM   24  C29 UNL     1     -89.498 165.681 -14.448  1.00  0.00     0.399 C 
HETATM   25  F4  UNL     1     -88.482 165.580 -13.464  1.00  0.00    -0.170 F 
HETATM   26  F5  UNL     1     -90.608 166.076 -13.752  1.00  0.00    -0.170 F 
HETATM   27  F6  UNL     1     -89.110 166.760 -15.202  1.00  0.00    -0.170 F 
ENDBRANCH  10  24
BRANCH   1  28
HETATM   28  C9  UNL     1     -85.193 162.193 -15.512  1.00  0.00     0.153 C 
HETATM   29  C8  UNL     1     -83.988 162.968 -15.573  1.00  0.00     0.037 C 
HETATM   30  C7  UNL     1     -82.910 162.085 -16.256  1.00  0.00     0.004 C 
HETATM   31  C6  UNL     1     -82.108 161.464 -15.119  1.00  0.00     0.020 C 
HETATM   32  C4  UNL     1     -82.941 160.369 -14.552  1.00  0.00     0.006 C 
HETATM   33  C5  UNL     1     -82.555 159.080 -15.320  1.00  0.00     0.027 C 
HETATM   34  S1  UNL     1     -84.714 160.542 -14.828  1.00  0.00    -0.134 SA
BRANCH  32  35
HETATM   35  C3  UNL     1     -82.703 160.190 -13.098  1.00  0.00     0.020 C 
BRANCH  35  36
HETATM   36  C2  UNL     1     -81.864 161.158 -12.371  1.00  0.00    -0.003 C 
HETATM   37  C1  UNL     1     -80.839 160.656 -11.424  1.00  0.00     0.005 C 
ENDBRANCH  35  36
ENDBRANCH  32  35
ENDBRANCH   1  28
BRANCH   2  38
HETATM   38  C11 UNL     1     -86.325 161.576 -12.496  1.00  0.00     0.096 C 
BRANCH  38  39
HETATM   39  C12 UNL     1     -85.722 162.472 -11.421  1.00  0.00     0.048 C 
HETATM   40  C13 UNL     1     -84.697 163.420 -12.047  1.00  0.00     0.027 C 
HETATM   41  C14 UNL     1     -85.062 161.774 -10.294  1.00  0.00     0.027 C 
BRANCH  39  42
HETATM   42  C15 UNL     1     -86.773 163.361 -10.870  1.00  0.00     0.181 C 
HETATM   43  O1  UNL     1     -87.721 162.912 -10.203  1.00  0.00    -0.647 OA
HETATM   44  O2  UNL     1     -86.685 164.715 -11.113  1.00  0.00    -0.647 OA
ENDBRANCH  39  42
ENDBRANCH  38  39
ENDBRANCH   2  38
TORSDOF 11
ENDMDL
MODEL 4
REMARK VINA RESULT: -10.133781206      5.748      9.506
REMARK  11 active torsions:
REMARK  status: ('A' for Active; 'I' for Inactive)
REMARK    1  A    between atoms: C2_2  and  C3_3 
REMARK    2  A    between atoms: C3_3  and  C4_4 
REMARK    3  A    between atoms: C9_9  and  N1_10 
REMARK    4  A    between atoms: C10_11  and  C11_12 
REMARK    5  A    between atoms: C11_12  and  C12_13 
REMARK    6  A    between atoms: C12_13  and  C15_16 
REMARK    7  A    between atoms: C20_25  and  O3_26 
REMARK    8  A    between atoms: O3_26  and  C21_27 
REMARK    9  A    between atoms: C21_27  and  C22_28 
REMARK   10  A    between atoms: C26_34  and  C27_35 
REMARK   11  A    between atoms: C28_39  and  C29_40 
ROOT
HETATM    1  N1  UNL     1     -92.870 167.043 -16.739  1.00  0.00    -0.324 N 
HETATM    2  C10 UNL     1     -93.729 167.449 -17.639  1.00  0.00     0.086 A 
HETATM    3  N2  UNL     1     -94.087 168.729 -17.310  1.00  0.00    -0.347 N 
ATOM      4  H2  UNL     1     -94.746 169.303 -17.837  1.00  0.00     0.167 HD
HETATM    5  C16 UNL     1     -93.464 169.114 -16.222  1.00  0.00     0.049 A 
HETATM    6  C17 UNL     1     -92.680 168.058 -15.833  1.00  0.00     0.037 A 
HETATM    7  C18 UNL     1     -91.890 168.263 -14.598  1.00  0.00     0.062 C 
HETATM    8  C19 UNL     1     -91.215 169.585 -14.722  1.00  0.00     0.039 C 
HETATM    9  C20 UNL     1     -92.206 170.773 -14.842  1.00  0.00     0.140 C 
HETATM   10  C28 UNL     1     -93.497 170.411 -15.435  1.00  0.00     0.174 C 
ENDROOT
BRANCH   9  11
HETATM   11  O3  UNL     1     -92.187 171.374 -13.623  1.00  0.00    -0.379 OA
BRANCH  11  12
HETATM   12  C21 UNL     1     -92.079 172.712 -13.525  1.00  0.00     0.226 C 
BRANCH  12  13
HETATM   13  C22 UNL     1     -90.792 173.338 -13.874  1.00  0.00     0.048 A 
HETATM   14  N3  UNL     1     -89.670 173.080 -13.207  1.00  0.00    -0.367 N 
HETATM   15  C23 UNL     1     -88.489 173.623 -13.490  1.00  0.00     0.088 A 
ATOM     16  H3  UNL     1     -89.720 172.424 -12.427  1.00  0.00     0.165 HD
HETATM   17  C24 UNL     1     -88.387 174.501 -14.522  1.00  0.00     0.018 A 
HETATM   18  C25 UNL     1     -89.498 174.809 -15.246  1.00  0.00     0.019 A 
HETATM   19  C26 UNL     1     -90.713 174.242 -14.945  1.00  0.00     0.072 A 
BRANCH  19  20
HETATM   20  C27 UNL     1     -91.914 174.583 -15.743  1.00  0.00     0.419 C 
HETATM   21  F1  UNL     1     -92.845 175.292 -15.054  1.00  0.00    -0.166 F 
HETATM   22  F2  UNL     1     -92.434 173.480 -16.418  1.00  0.00    -0.166 F 
HETATM   23  F3  UNL     1     -91.486 175.434 -16.780  1.00  0.00    -0.166 F 
ENDBRANCH  19  20
ENDBRANCH  12  13
ENDBRANCH  11  12
ENDBRANCH   9  11
BRANCH  10  24
HETATM   24  C29 UNL     1     -94.744 170.472 -14.650  1.00  0.00     0.399 C 
HETATM   25  F4  UNL     1     -95.172 171.823 -14.701  1.00  0.00    -0.170 F 
HETATM   26  F5  UNL     1     -94.656 170.193 -13.313  1.00  0.00    -0.170 F 
HETATM   27  F6  UNL     1     -95.828 169.773 -15.121  1.00  0.00    -0.170 F 
ENDBRANCH  10  24
BRANCH   1  28
HETATM   28  C9  UNL     1     -92.117 165.863 -16.571  1.00  0.00     0.153 C 
HETATM   29  C8  UNL     1     -91.345 165.217 -17.591  1.00  0.00     0.037 C 
HETATM   30  C7  UNL     1     -90.543 164.078 -16.907  1.00  0.00     0.004 C 
HETATM   31  C6  UNL     1     -89.160 164.658 -16.635  1.00  0.00     0.020 C 
HETATM   32  C4  UNL     1     -89.293 165.553 -15.455  1.00  0.00     0.006 C 
HETATM   33  C5  UNL     1     -89.001 164.682 -14.207  1.00  0.00     0.027 C 
HETATM   34  S1  UNL     1     -90.951 166.201 -15.174  1.00  0.00    -0.134 SA
BRANCH  32  35
HETATM   35  C3  UNL     1     -88.343 166.692 -15.516  1.00  0.00     0.020 C 
BRANCH  35  36
HETATM   36  C2  UNL     1     -87.092 166.560 -16.283  1.00  0.00    -0.003 C 
HETATM   37  C1  UNL     1     -85.918 165.920 -15.642  1.00  0.00     0.005 C 
ENDBRANCH  35  36
ENDBRANCH  32  35
ENDBRANCH   1  28
BRANCH   2  38
HETATM   38  C11 UNL     1     -94.365 166.786 -18.773  1.00  0.00     0.096 C 
BRANCH  38  39
HETATM   39  C12 UNL     1     -95.846 166.480 -18.585  1.00  0.00     0.048 C 
HETATM   40  C13 UNL     1     -96.173 166.384 -17.093  1.00  0.00     0.027 C 
HETATM   41  C14 UNL     1     -96.339 165.245 -19.235  1.00  0.00     0.027 C 
BRANCH  39  42
HETATM   42  C15 UNL     1     -96.654 167.622 -19.077  1.00  0.00     0.181 C 
HETATM   43  O1  UNL     1     -96.972 167.727 -20.274  1.00  0.00    -0.647 OA
HETATM   44  O2  UNL     1     -97.054 168.584 -18.173  1.00  0.00    -0.647 OA
ENDBRANCH  39  42
ENDBRANCH  38  39
ENDBRANCH   2  38
TORSDOF 11
ENDMDL
MODEL 5
REMARK VINA RESULT: -9.938803857      4.597     11.217
REMARK  11 active torsions:
REMARK  status: ('A' for Active; 'I' for Inactive)
REMARK    1  A    between atoms: C2_2  and  C3_3 
REMARK    2  A    between atoms: C3_3  and  C4_4 
REMARK    3  A    between atoms: C9_9  and  N1_10 
REMARK    4  A    between atoms: C10_11  and  C11_12 
REMARK    5  A    between atoms: C11_12  and  C12_13 
REMARK    6  A    between atoms: C12_13  and  C15_16 
REMARK    7  A    between atoms: C20_25  and  O3_26 
REMARK    8  A    between atoms: O3_26  and  C21_27 
REMARK    9  A    between atoms: C21_27  and  C22_28 
REMARK   10  A    between atoms: C26_34  and  C27_35 
REMARK   11  A    between atoms: C28_39  and  C29_40 
ROOT
HETATM    1  N1  UNL     1     -93.513 169.818 -15.351  1.00  0.00    -0.324 N 
HETATM    2  C10 UNL     1     -94.624 169.665 -16.026  1.00  0.00     0.086 A 
HETATM    3  N2  UNL     1     -94.569 168.435 -16.624  1.00  0.00    -0.347 N 
ATOM      4  H2  UNL     1     -95.301 168.042 -17.216  1.00  0.00     0.167 HD
HETATM    5  C16 UNL     1     -93.442 167.832 -16.329  1.00  0.00     0.049 A 
HETATM    6  C17 UNL     1     -92.746 168.692 -15.518  1.00  0.00     0.037 A 
HETATM    7  C18 UNL     1     -91.415 168.220 -15.072  1.00  0.00     0.062 C 
HETATM    8  C19 UNL     1     -91.586 166.826 -14.577  1.00  0.00     0.039 C 
HETATM    9  C20 UNL     1     -92.085 165.842 -15.668  1.00  0.00     0.140 C 
HETATM   10  C28 UNL     1     -92.878 166.479 -16.723  1.00  0.00     0.174 C 
ENDROOT
BRANCH   9  11
HETATM   11  O3  UNL     1     -90.991 165.114 -16.014  1.00  0.00    -0.379 OA
BRANCH  11  12
HETATM   12  C21 UNL     1     -90.076 164.775 -15.088  1.00  0.00     0.226 C 
BRANCH  12  13
HETATM   13  C22 UNL     1     -88.674 165.166 -15.314  1.00  0.00     0.048 A 
HETATM   14  N3  UNL     1     -88.311 165.979 -16.303  1.00  0.00    -0.367 N 
HETATM   15  C23 UNL     1     -87.058 166.358 -16.540  1.00  0.00     0.088 A 
ATOM     16  H3  UNL     1     -89.042 166.334 -16.919  1.00  0.00     0.165 HD
HETATM   17  C24 UNL     1     -86.060 165.903 -15.738  1.00  0.00     0.018 A 
HETATM   18  C25 UNL     1     -86.363 165.067 -14.707  1.00  0.00     0.019 A 
HETATM   19  C26 UNL     1     -87.660 164.683 -14.471  1.00  0.00     0.072 A 
BRANCH  19  20
HETATM   20  C27 UNL     1     -87.977 163.776 -13.344  1.00  0.00     0.419 C 
HETATM   21  F1  UNL     1     -88.355 162.531 -13.733  1.00  0.00    -0.166 F 
HETATM   22  F2  UNL     1     -88.839 164.360 -12.417  1.00  0.00    -0.166 F 
HETATM   23  F3  UNL     1     -86.784 163.595 -12.617  1.00  0.00    -0.166 F 
ENDBRANCH  19  20
ENDBRANCH  12  13
ENDBRANCH  11  12
ENDBRANCH   9  11
BRANCH  10  24
HETATM   24  C29 UNL     1     -92.392 166.541 -18.114  1.00  0.00     0.399 C 
HETATM   25  F4  UNL     1     -92.766 165.312 -18.714  1.00  0.00    -0.170 F 
HETATM   26  F5  UNL     1     -91.038 166.614 -18.302  1.00  0.00    -0.170 F 
HETATM   27  F6  UNL     1     -92.949 167.484 -18.941  1.00  0.00    -0.170 F 
ENDBRANCH  10  24
BRANCH   1  28
HETATM   28  C9  UNL     1     -93.019 170.829 -14.502  1.00  0.00     0.153 C 
HETATM   29  C8  UNL     1     -91.666 170.942 -14.044  1.00  0.00     0.037 C 
HETATM   30  C7  UNL     1     -91.546 172.299 -13.300  1.00  0.00     0.004 C 
HETATM   31  C6  UNL     1     -90.975 173.276 -14.321  1.00  0.00     0.020 C 
HETATM   32  C4  UNL     1     -92.089 173.642 -15.236  1.00  0.00     0.006 C 
HETATM   33  C5  UNL     1     -92.757 174.904 -14.634  1.00  0.00     0.027 C 
HETATM   34  S1  UNL     1     -93.421 172.431 -15.335  1.00  0.00    -0.134 SA
BRANCH  32  35
HETATM   35  C3  UNL     1     -91.604 173.926 -16.611  1.00  0.00     0.020 C 
BRANCH  35  36
HETATM   36  C2  UNL     1     -91.161 175.286 -16.962  1.00  0.00    -0.003 C 
HETATM   37  C1  UNL     1     -89.709 175.566 -17.071  1.00  0.00     0.005 C 
ENDBRANCH  35  36
ENDBRANCH  32  35
ENDBRANCH   1  28
BRANCH   2  38
HETATM   38  C11 UNL     1     -95.758 170.548 -16.284  1.00  0.00     0.096 C 
BRANCH  38  39
HETATM   39  C12 UNL     1     -97.060 170.127 -15.614  1.00  0.00     0.048 C 
HETATM   40  C13 UNL     1     -98.235 170.883 -16.236  1.00  0.00     0.027 C 
HETATM   41  C14 UNL     1     -97.124 170.321 -14.147  1.00  0.00     0.027 C 
BRANCH  39  42
HETATM   42  C15 UNL     1     -97.330 168.699 -15.909  1.00  0.00     0.181 C 
HETATM   43  O1  UNL     1     -97.674 168.322 -17.043  1.00  0.00    -0.647 OA
HETATM   44  O2  UNL     1     -97.194 167.778 -14.892  1.00  0.00    -0.647 OA
ENDBRANCH  39  42
ENDBRANCH  38  39
ENDBRANCH   2  38
TORSDOF 11
ENDMDL
