MODEL 1
REMARK VINA RESULT: -5.916239997      0.000      0.000
REMARK  1 active torsions:
REMARK  status: ('A' for Active; 'I' for Inactive)
REMARK    1  A    between atoms: C4_6  and  C5_7 
ROOT
HETATM    1  C1  UNL     1     -29.674  -5.388  10.463  1.00  0.00     0.069 C 
HETATM    2  C2  UNL     1     -29.209  -4.634   9.252  1.00  0.00     0.022 A 
HETATM    3  C3  UNL     1     -29.855  -3.583   8.637  1.00  0.00     0.114 A 
HETATM    4  N1  UNL     1     -29.100  -3.202   7.592  1.00  0.00    -0.349 N 
ATOM      5  H1  UNL     1     -29.330  -2.442   6.952  1.00  0.00     0.167 HD
HETATM    6  C4  UNL     1     -27.991  -3.971   7.515  1.00  0.00     0.134 A 
HETATM    7  N4  UNL     1     -28.086  -4.835   8.539  1.00  0.00    -0.343 N 
ATOM      8  H4  UNL     1     -27.394  -5.554   8.750  1.00  0.00     0.167 HD
ENDROOT
BRANCH   6   9
HETATM    9  C5  UNL     1     -26.924  -3.870   6.518  1.00  0.00     0.093 A 
HETATM   10  C6  UNL     1     -26.357  -2.725   6.018  1.00  0.00     0.122 A 
HETATM   11  N2  UNL     1     -25.415  -3.070   5.128  1.00  0.00    -0.360 N 
HETATM   12  C7  UNL     1     -25.366  -4.433   5.046  1.00  0.00     0.180 A 
ATOM     13  H2  UNL     1     -24.831  -2.421   4.600  1.00  0.00     0.166 HD
HETATM   14  N3  UNL     1     -26.302  -4.889   5.910  1.00  0.00    -0.348 N 
ATOM     15  H3  UNL     1     -26.507  -5.875   6.076  1.00  0.00     0.167 HD
ENDBRANCH   6   9
TORSDOF 1
ENDMDL
MODEL 2
REMARK VINA RESULT: -5.821493539      0.815      1.411
REMARK  1 active torsions:
REMARK  status: ('A' for Active; 'I' for Inactive)
REMARK    1  A    between atoms: C4_6  and  C5_7 
ROOT
HETATM    1  C1  UNL     1     -30.561  -2.916  10.384  1.00  0.00     0.069 C 
HETATM    2  C2  UNL     1     -29.554  -3.636   9.534  1.00  0.00     0.022 A 
HETATM    3  C3  UNL     1     -29.167  -4.954   9.652  1.00  0.00     0.114 A 
HETATM    4  N1  UNL     1     -28.250  -5.192   8.700  1.00  0.00    -0.349 N 
ATOM      5  H1  UNL     1     -27.784  -6.087   8.547  1.00  0.00     0.167 HD
HETATM    6  C4  UNL     1     -28.035  -4.073   7.973  1.00  0.00     0.134 A 
HETATM    7  N4  UNL     1     -28.844  -3.142   8.505  1.00  0.00    -0.343 N 
ATOM      8  H4  UNL     1     -28.910  -2.181   8.171  1.00  0.00     0.167 HD
ENDROOT
BRANCH   6   9
HETATM    9  C5  UNL     1     -27.111  -3.925   6.847  1.00  0.00     0.093 A 
HETATM   10  C6  UNL     1     -26.529  -2.768   6.394  1.00  0.00     0.122 A 
HETATM   11  N2  UNL     1     -25.750  -3.066   5.343  1.00  0.00    -0.360 N 
HETATM   12  C7  UNL     1     -25.822  -4.410   5.110  1.00  0.00     0.180 A 
ATOM     13  H2  UNL     1     -25.195  -2.398   4.807  1.00  0.00     0.166 HD
HETATM   14  N3  UNL     1     -26.663  -4.904   6.049  1.00  0.00    -0.348 N 
ATOM     15  H3  UNL     1     -26.920  -5.887   6.136  1.00  0.00     0.167 HD
ENDBRANCH   6   9
TORSDOF 1
ENDMDL
MODEL 3
REMARK VINA RESULT: -5.061531806      2.269      3.594
REMARK  1 active torsions:
REMARK  status: ('A' for Active; 'I' for Inactive)
REMARK    1  A    between atoms: C4_6  and  C5_7 
ROOT
HETATM    1  C1  UNL     1     -32.186  -2.899  12.800  1.00  0.00     0.069 C 
HETATM    2  C2  UNL     1     -31.319  -3.660  11.839  1.00  0.00     0.022 A 
HETATM    3  C3  UNL     1     -31.038  -5.009  11.875  1.00  0.00     0.114 A 
HETATM    4  N1  UNL     1     -30.227  -5.279  10.837  1.00  0.00    -0.349 N 
ATOM      5  H1  UNL     1     -29.854  -6.201  10.612  1.00  0.00     0.167 HD
HETATM    6  C4  UNL     1     -29.978  -4.150  10.137  1.00  0.00     0.134 A 
HETATM    7  N4  UNL     1     -30.657  -3.180  10.772  1.00  0.00    -0.343 N 
ATOM      8  H4  UNL     1     -30.669  -2.203  10.481  1.00  0.00     0.167 HD
ENDROOT
BRANCH   6   9
HETATM    9  C5  UNL     1     -29.142  -4.029   8.941  1.00  0.00     0.093 A 
HETATM   10  C6  UNL     1     -29.357  -3.220   7.854  1.00  0.00     0.122 A 
HETATM   11  N2  UNL     1     -28.358  -3.407   6.979  1.00  0.00    -0.360 N 
HETATM   12  C7  UNL     1     -27.494  -4.334   7.490  1.00  0.00     0.180 A 
ATOM     13  H2  UNL     1     -28.260  -2.936   6.080  1.00  0.00     0.166 HD
HETATM   14  N3  UNL     1     -28.006  -4.692   8.692  1.00  0.00    -0.348 N 
ATOM     15  H3  UNL     1     -27.582  -5.374   9.321  1.00  0.00     0.167 HD
ENDBRANCH   6   9
TORSDOF 1
ENDMDL
MODEL 4
REMARK VINA RESULT: -4.871264227      2.313      3.476
REMARK  1 active torsions:
REMARK  status: ('A' for Active; 'I' for Inactive)
REMARK    1  A    between atoms: C4_6  and  C5_7 
ROOT
HETATM    1  C1  UNL     1     -31.800  -4.991  13.133  1.00  0.00     0.069 C 
HETATM    2  C2  UNL     1     -31.253  -4.193  11.985  1.00  0.00     0.022 A 
HETATM    3  C3  UNL     1     -31.516  -2.869  11.702  1.00  0.00     0.114 A 
HETATM    4  N1  UNL     1     -30.829  -2.550  10.592  1.00  0.00    -0.349 N 
ATOM      5  H1  UNL     1     -30.832  -1.632  10.147  1.00  0.00     0.167 HD
HETATM    6  C4  UNL     1     -30.133  -3.621  10.153  1.00  0.00     0.134 A 
HETATM    7  N4  UNL     1     -30.413  -4.607  11.021  1.00  0.00    -0.343 N 
ATOM      8  H4  UNL     1     -30.034  -5.552  10.958  1.00  0.00     0.167 HD
ENDROOT
BRANCH   6   9
HETATM    9  C5  UNL     1     -29.264  -3.678   8.976  1.00  0.00     0.093 A 
HETATM   10  C6  UNL     1     -29.460  -3.061   7.766  1.00  0.00     0.122 A 
HETATM   11  N2  UNL     1     -28.433  -3.368   6.960  1.00  0.00    -0.360 N 
HETATM   12  C7  UNL     1     -27.570  -4.181   7.639  1.00  0.00     0.180 A 
ATOM     13  H2  UNL     1     -28.315  -3.047   5.999  1.00  0.00     0.166 HD
HETATM   14  N3  UNL     1     -28.111  -4.349   8.868  1.00  0.00    -0.348 N 
ATOM     15  H3  UNL     1     -27.695  -4.911   9.611  1.00  0.00     0.167 HD
ENDBRANCH   6   9
TORSDOF 1
ENDMDL
MODEL 5
REMARK VINA RESULT: -4.852898195      2.546      4.053
REMARK  1 active torsions:
REMARK  status: ('A' for Active; 'I' for Inactive)
REMARK    1  A    between atoms: C4_6  and  C5_7 
ROOT
HETATM    1  C1  UNL     1     -32.187  -5.374  13.489  1.00  0.00     0.069 C 
HETATM    2  C2  UNL     1     -31.538  -4.567  12.401  1.00  0.00     0.022 A 
HETATM    3  C3  UNL     1     -31.718  -3.223  12.154  1.00  0.00     0.114 A 
HETATM    4  N1  UNL     1     -30.956  -2.903  11.094  1.00  0.00    -0.349 N 
ATOM      5  H1  UNL     1     -30.888  -1.972  10.683  1.00  0.00     0.167 HD
HETATM    6  C4  UNL     1     -30.292  -3.994  10.654  1.00  0.00     0.134 A 
HETATM    7  N4  UNL     1     -30.668  -4.993  11.470  1.00  0.00    -0.343 N 
ATOM      8  H4  UNL     1     -30.334  -5.953  11.393  1.00  0.00     0.167 HD
ENDROOT
BRANCH   6   9
HETATM    9  C5  UNL     1     -29.363  -4.056   9.523  1.00  0.00     0.093 A 
HETATM   10  C6  UNL     1     -28.560  -5.109   9.163  1.00  0.00     0.122 A 
HETATM   11  N2  UNL     1     -27.864  -4.760   8.071  1.00  0.00    -0.360 N 
HETATM   12  C7  UNL     1     -28.210  -3.485   7.719  1.00  0.00     0.180 A 
ATOM     13  H2  UNL     1     -27.188  -5.348   7.584  1.00  0.00     0.166 HD
HETATM   14  N3  UNL     1     -29.129  -3.087   8.629  1.00  0.00    -0.348 N 
ATOM     15  H3  UNL     1     -29.581  -2.173   8.633  1.00  0.00     0.167 HD
ENDBRANCH   6   9
TORSDOF 1
ENDMDL
