MODEL 1
REMARK VINA RESULT: -7.521288900      0.000      0.000
REMARK  11 active torsions:
REMARK  status: ('A' for Active; 'I' for Inactive)
REMARK       I    between atoms: C2_2  and  N1_4 
REMARK    1  A    between atoms: N1_4  and  C3_6 
REMARK    2  A    between atoms: C3_6  and  C4_7 
REMARK    3  A    between atoms: C4_7  and  N2_8 
REMARK    4  A    between atoms: C4_7  and  C14_39 
REMARK    5  A    between atoms: N2_8  and  C5_10 
REMARK    6  A    between atoms: C5_10  and  C6_11 
REMARK    7  A    between atoms: C7_15  and  N4_16 
REMARK    8  A    between atoms: C9_22  and  N7_23 
REMARK    9  A    between atoms: C10_28  and  N9_29 
REMARK   10  A    between atoms: C13_36  and  O2_37 
REMARK       I    between atoms: C14_39  and  N11_41 
REMARK   11  A    between atoms: N11_41  and  N12_43 
ROOT
HETATM    1  C6  UNL     1      -3.414 -36.417  21.448  1.00  0.00     0.254 C 
HETATM    2  N3  UNL     1      -3.469 -37.752  20.825  1.00  0.00    -0.041 N 
ATOM      3  H31 UNL     1      -2.689 -38.363  21.068  1.00  0.00     0.280 HD
ATOM      4  H32 UNL     1      -3.299 -37.755  19.819  1.00  0.00     0.280 HD
HETATM    5  C7  UNL     1      -4.785 -38.265  21.218  1.00  0.00     0.313 C 
HETATM    6  C12 UNL     1      -5.625 -37.061  21.587  1.00  0.00     0.090 C 
HETATM    7  C13 UNL     1      -4.780 -35.929  21.032  1.00  0.00     0.157 C 
ENDROOT
BRANCH   5   8
HETATM    8  N4  UNL     1      -5.454 -38.962  20.139  1.00  0.00    -0.228 N 
HETATM    9  N5  UNL     1      -6.333 -38.548  19.245  1.00  0.00    -0.236 N 
HETATM   10  N6  UNL     1      -6.704 -39.488  18.428  1.00  0.00    -0.279 N 
ATOM     11  H5  UNL     1      -6.683 -37.592  19.200  1.00  0.00     0.208 HD
HETATM   12  C8  UNL     1      -6.046 -40.591  18.785  1.00  0.00     0.140 A 
ATOM     13  H6  UNL     1      -7.370 -39.398  17.660  1.00  0.00     0.189 HD
HETATM   14  C9  UNL     1      -6.031 -41.888  18.290  1.00  0.00     0.147 A 
HETATM   15  C11 UNL     1      -5.259 -40.280  19.856  1.00  0.00     0.173 A 
HETATM   16  N8  UNL     1      -5.245 -42.823  18.868  1.00  0.00    -0.175 N 
HETATM   17  C10 UNL     1      -4.474 -42.509  19.921  1.00  0.00     0.679 A 
ATOM     18  H8  UNL     1      -5.237 -43.774  18.501  1.00  0.00     0.186 HD
HETATM   19  N10 UNL     1      -4.496 -41.243  20.393  1.00  0.00    -0.173 N 
ATOM     20  H10 UNL     1      -3.907 -41.010  21.192  1.00  0.00     0.186 HD
BRANCH  14  21
HETATM   21  N7  UNL     1      -6.777 -42.154  17.288  1.00  0.00    -0.383 N 
ATOM     22  H72 UNL     1      -7.181 -41.422  16.703  1.00  0.00     0.157 HD
ATOM     23  H71 UNL     1      -6.965 -43.134  17.080  1.00  0.00     0.157 HD
ENDBRANCH  14  21
BRANCH  17  24
HETATM   24  N9  UNL     1      -3.734 -43.417  20.451  1.00  0.00    -0.234 N 
ATOM     25  H92 UNL     1      -2.997 -43.886  19.924  1.00  0.00     0.174 HD
ATOM     26  H91 UNL     1      -3.888 -43.679  21.424  1.00  0.00     0.174 HD
ENDBRANCH  17  24
ENDBRANCH   5   8
BRANCH   1  27
HETATM   27  C5  UNL     1      -2.274 -35.614  20.889  1.00  0.00     0.092 C 
BRANCH  27  28
HETATM   28  N2  UNL     1      -2.002 -34.468  21.611  1.00  0.00    -0.386 N 
ATOM     29  H2  UNL     1      -2.655 -34.227  22.356  1.00  0.00     0.159 HD
BRANCH  28  30
HETATM   30  C4  UNL     1      -0.926 -33.614  21.418  1.00  0.00     0.193 C 
BRANCH  30  31
HETATM   31  C3  UNL     1       0.388 -33.936  22.059  1.00  0.00     0.157 C 
BRANCH  31  32
HETATM   32  N1  UNL     1       0.448 -34.994  22.989  1.00  0.00    -0.359 N 
HETATM   33  C2  UNL     1       0.871 -36.271  22.541  1.00  0.00     0.213 C 
HETATM   34  C1  UNL     1       0.954 -37.422  23.470  1.00  0.00     0.117 C 
HETATM   35  O1  UNL     1       1.185 -36.457  21.346  1.00  0.00    -0.274 OA
ATOM     36  H1  UNL     1       0.191 -34.845  23.965  1.00  0.00     0.162 HD
ENDBRANCH  31  32
ENDBRANCH  30  31
BRANCH  30  37
HETATM   37  C14 UNL     1      -0.612 -33.520  19.935  1.00  0.00     0.260 C 
HETATM   38  O3  UNL     1      -1.373 -32.793  19.255  1.00  0.00    -0.269 OA
HETATM   39  N11 UNL     1       0.453 -34.186  19.323  1.00  0.00    -0.275 N 
ATOM     40  H11 UNL     1       1.071 -34.775  19.882  1.00  0.00     0.189 HD
BRANCH  39  41
HETATM   41  N12 UNL     1       0.676 -34.051  17.956  1.00  0.00    -0.343 N 
ATOM     42 2H12 UNL     1       0.193 -33.309  17.450  1.00  0.00     0.176 HD
ATOM     43 1H12 UNL     1       1.311 -34.685  17.472  1.00  0.00     0.176 HD
ENDBRANCH  39  41
ENDBRANCH  30  37
ENDBRANCH  28  30
ENDBRANCH  27  28
ENDBRANCH   1  27
BRANCH   7  44
HETATM   44  O2  UNL     1      -5.116 -34.698  21.521  1.00  0.00    -0.393 OA
ATOM     45  H2  UNL     1      -4.776 -33.968  21.017  1.00  0.00     0.210 HD
ENDBRANCH   7  44
TORSDOF 11
ENDMDL
MODEL 2
REMARK VINA RESULT: -7.406324708      2.007      2.600
REMARK  11 active torsions:
REMARK  status: ('A' for Active; 'I' for Inactive)
REMARK       I    between atoms: C2_2  and  N1_4 
REMARK    1  A    between atoms: N1_4  and  C3_6 
REMARK    2  A    between atoms: C3_6  and  C4_7 
REMARK    3  A    between atoms: C4_7  and  N2_8 
REMARK    4  A    between atoms: C4_7  and  C14_39 
REMARK    5  A    between atoms: N2_8  and  C5_10 
REMARK    6  A    between atoms: C5_10  and  C6_11 
REMARK    7  A    between atoms: C7_15  and  N4_16 
REMARK    8  A    between atoms: C9_22  and  N7_23 
REMARK    9  A    between atoms: C10_28  and  N9_29 
REMARK   10  A    between atoms: C13_36  and  O2_37 
REMARK       I    between atoms: C14_39  and  N11_41 
REMARK   11  A    between atoms: N11_41  and  N12_43 
ROOT
HETATM    1  C6  UNL     1      -3.922 -37.839  21.100  1.00  0.00     0.254 C 
HETATM    2  N3  UNL     1      -3.723 -38.721  19.934  1.00  0.00    -0.041 N 
ATOM      3  H31 UNL     1      -2.746 -38.876  19.685  1.00  0.00     0.280 HD
ATOM      4  H32 UNL     1      -3.998 -38.309  19.043  1.00  0.00     0.280 HD
HETATM    5  C7  UNL     1      -4.457 -39.939  20.290  1.00  0.00     0.313 C 
HETATM    6  C12 UNL     1      -5.453 -39.546  21.359  1.00  0.00     0.090 C 
HETATM    7  C13 UNL     1      -5.410 -38.032  21.262  1.00  0.00     0.157 C 
ENDROOT
BRANCH   5   8
HETATM    8  N4  UNL     1      -5.195 -40.489  19.172  1.00  0.00    -0.228 N 
HETATM    9  N5  UNL     1      -5.839 -39.904  18.180  1.00  0.00    -0.236 N 
HETATM   10  N6  UNL     1      -6.384 -40.753  17.361  1.00  0.00    -0.279 N 
ATOM     11  H5  UNL     1      -5.902 -38.893  18.067  1.00  0.00     0.208 HD
HETATM   12  C8  UNL     1      -6.096 -41.971  17.820  1.00  0.00     0.140 A 
ATOM     13  H6  UNL     1      -6.928 -40.530  16.526  1.00  0.00     0.189 HD
HETATM   14  C9  UNL     1      -6.401 -43.250  17.373  1.00  0.00     0.147 A 
HETATM   15  C11 UNL     1      -5.352 -41.825  18.955  1.00  0.00     0.173 A 
HETATM   16  N8  UNL     1      -5.963 -44.328  18.059  1.00  0.00    -0.175 N 
HETATM   17  C10 UNL     1      -5.232 -44.176  19.174  1.00  0.00     0.679 A 
ATOM     18  H8  UNL     1      -6.189 -45.265  17.727  1.00  0.00     0.186 HD
HETATM   19  N10 UNL     1      -4.941 -42.926  19.599  1.00  0.00    -0.173 N 
ATOM     20  H10 UNL     1      -4.384 -42.817  20.446  1.00  0.00     0.186 HD
BRANCH  14  21
HETATM   21  N7  UNL     1      -7.099 -43.360  16.309  1.00  0.00    -0.383 N 
ATOM     22  H72 UNL     1      -7.309 -44.265  15.888  1.00  0.00     0.157 HD
ATOM     23  H71 UNL     1      -7.450 -42.504  15.879  1.00  0.00     0.157 HD
ENDBRANCH  14  21
BRANCH  17  24
HETATM   24  N9  UNL     1      -4.827 -45.219  19.808  1.00  0.00    -0.234 N 
ATOM     25  H92 UNL     1      -5.469 -45.960  20.089  1.00  0.00     0.174 HD
ATOM     26  H91 UNL     1      -3.838 -45.309  20.037  1.00  0.00     0.174 HD
ENDBRANCH  17  24
ENDBRANCH   5   8
BRANCH   1  27
HETATM   27  C5  UNL     1      -3.513 -36.430  20.779  1.00  0.00     0.092 C 
BRANCH  27  28
HETATM   28  N2  UNL     1      -2.864 -36.309  19.566  1.00  0.00    -0.386 N 
ATOM     29  H2  UNL     1      -3.099 -36.994  18.847  1.00  0.00     0.159 HD
BRANCH  28  30
HETATM   30  C4  UNL     1      -1.925 -35.344  19.231  1.00  0.00     0.193 C 
BRANCH  30  31
HETATM   31  C3  UNL     1      -1.927 -34.037  19.959  1.00  0.00     0.157 C 
BRANCH  31  32
HETATM   32  N1  UNL     1      -0.706 -33.351  20.124  1.00  0.00    -0.359 N 
HETATM   33  C2  UNL     1      -0.097 -33.345  21.405  1.00  0.00     0.213 C 
HETATM   34  C1  UNL     1       1.185 -32.642  21.641  1.00  0.00     0.117 C 
HETATM   35  O1  UNL     1      -0.629 -33.936  22.368  1.00  0.00    -0.274 OA
ATOM     36  H1  UNL     1      -0.269 -32.868  19.339  1.00  0.00     0.162 HD
ENDBRANCH  31  32
ENDBRANCH  30  31
BRANCH  30  37
HETATM   37  C14 UNL     1      -0.528 -35.899  19.449  1.00  0.00     0.260 C 
HETATM   38  O3  UNL     1       0.319 -35.626  18.568  1.00  0.00    -0.269 OA
HETATM   39  N11 UNL     1      -0.165 -36.673  20.555  1.00  0.00    -0.275 N 
ATOM     40  H11 UNL     1      -0.858 -36.891  21.272  1.00  0.00     0.189 HD
BRANCH  39  41
HETATM   41  N12 UNL     1       1.137 -37.148  20.685  1.00  0.00    -0.343 N 
ATOM     42 2H12 UNL     1       1.468 -37.430  21.607  1.00  0.00     0.176 HD
ATOM     43 1H12 UNL     1       1.747 -37.210  19.869  1.00  0.00     0.176 HD
ENDBRANCH  39  41
ENDBRANCH  30  37
ENDBRANCH  28  30
ENDBRANCH  27  28
ENDBRANCH   1  27
BRANCH   7  44
HETATM   44  O2  UNL     1      -5.951 -37.393  22.342  1.00  0.00    -0.393 OA
ATOM     45  H2  UNL     1      -5.997 -36.448  22.259  1.00  0.00     0.210 HD
ENDBRANCH   7  44
TORSDOF 11
ENDMDL
MODEL 3
REMARK VINA RESULT: -7.335119969      1.525      1.945
REMARK  11 active torsions:
REMARK  status: ('A' for Active; 'I' for Inactive)
REMARK       I    between atoms: C2_2  and  N1_4 
REMARK    1  A    between atoms: N1_4  and  C3_6 
REMARK    2  A    between atoms: C3_6  and  C4_7 
REMARK    3  A    between atoms: C4_7  and  N2_8 
REMARK    4  A    between atoms: C4_7  and  C14_39 
REMARK    5  A    between atoms: N2_8  and  C5_10 
REMARK    6  A    between atoms: C5_10  and  C6_11 
REMARK    7  A    between atoms: C7_15  and  N4_16 
REMARK    8  A    between atoms: C9_22  and  N7_23 
REMARK    9  A    between atoms: C10_28  and  N9_29 
REMARK   10  A    between atoms: C13_36  and  O2_37 
REMARK       I    between atoms: C14_39  and  N11_41 
REMARK   11  A    between atoms: N11_41  and  N12_43 
ROOT
HETATM    1  C6  UNL     1      -4.233 -34.037  22.348  1.00  0.00     0.254 C 
HETATM    2  N3  UNL     1      -4.089 -35.422  21.859  1.00  0.00    -0.041 N 
ATOM      3  H31 UNL     1      -3.267 -35.910  22.213  1.00  0.00     0.280 HD
ATOM      4  H32 UNL     1      -3.843 -35.496  20.872  1.00  0.00     0.280 HD
HETATM    5  C7  UNL     1      -5.366 -36.049  22.213  1.00  0.00     0.313 C 
HETATM    6  C12 UNL     1      -6.361 -34.926  22.403  1.00  0.00     0.090 C 
HETATM    7  C13 UNL     1      -5.609 -33.757  21.795  1.00  0.00     0.157 C 
ENDROOT
BRANCH   5   8
HETATM    8  N4  UNL     1      -5.867 -36.917  21.167  1.00  0.00    -0.228 N 
HETATM    9  N5  UNL     1      -6.645 -36.674  20.130  1.00  0.00    -0.236 N 
HETATM   10  N6  UNL     1      -6.872 -37.731  19.409  1.00  0.00    -0.279 N 
ATOM     11  H5  UNL     1      -7.028 -35.753  19.916  1.00  0.00     0.208 HD
HETATM   12  C8  UNL     1      -6.218 -38.738  19.985  1.00  0.00     0.140 A 
ATOM     13  H6  UNL     1      -7.443 -37.780  18.564  1.00  0.00     0.189 HD
HETATM   14  C9  UNL     1      -6.087 -40.086  19.676  1.00  0.00     0.147 A 
HETATM   15  C11 UNL     1      -5.582 -38.247  21.089  1.00  0.00     0.173 A 
HETATM   16  N8  UNL     1      -5.339 -40.890  20.461  1.00  0.00    -0.175 N 
HETATM   17  C10 UNL     1      -4.717 -40.400  21.545  1.00  0.00     0.679 A 
ATOM     18  H8  UNL     1      -5.245 -41.879  20.229  1.00  0.00     0.186 HD
HETATM   19  N10 UNL     1      -4.851 -39.087  21.836  1.00  0.00    -0.173 N 
ATOM     20  H10 UNL     1      -4.376 -38.719  22.660  1.00  0.00     0.186 HD
BRANCH  14  21
HETATM   21  N7  UNL     1      -6.692 -40.521  18.638  1.00  0.00    -0.383 N 
ATOM     22  H72 UNL     1      -7.628 -40.206  18.383  1.00  0.00     0.157 HD
ATOM     23  H71 UNL     1      -6.208 -41.205  18.056  1.00  0.00     0.157 HD
ENDBRANCH  14  21
BRANCH  17  24
HETATM   24  N9  UNL     1      -4.011 -41.187  22.275  1.00  0.00    -0.234 N 
ATOM     25  H92 UNL     1      -3.664 -42.080  21.923  1.00  0.00     0.174 HD
ATOM     26  H91 UNL     1      -3.791 -40.916  23.233  1.00  0.00     0.174 HD
ENDBRANCH  17  24
ENDBRANCH   5   8
BRANCH   1  27
HETATM   27  C5  UNL     1      -3.150 -33.159  21.788  1.00  0.00     0.092 C 
BRANCH  27  28
HETATM   28  N2  UNL     1      -1.937 -33.803  21.648  1.00  0.00    -0.386 N 
ATOM     29  H2  UNL     1      -1.929 -34.811  21.804  1.00  0.00     0.159 HD
BRANCH  28  30
HETATM   30  C4  UNL     1      -0.727 -33.210  21.316  1.00  0.00     0.193 C 
BRANCH  30  31
HETATM   31  C3  UNL     1       0.535 -33.728  21.932  1.00  0.00     0.157 C 
BRANCH  31  32
HETATM   32  N1  UNL     1       0.450 -34.770  22.878  1.00  0.00    -0.359 N 
HETATM   33  C2  UNL     1       0.746 -36.092  22.462  1.00  0.00     0.213 C 
HETATM   34  C1  UNL     1       0.675 -37.229  23.409  1.00  0.00     0.117 C 
HETATM   35  O1  UNL     1       1.075 -36.332  21.281  1.00  0.00    -0.274 OA
ATOM     36  H1  UNL     1       0.181 -34.576  23.843  1.00  0.00     0.162 HD
ENDBRANCH  31  32
ENDBRANCH  30  31
BRANCH  30  37
HETATM   37  C14 UNL     1      -0.497 -33.332  19.819  1.00  0.00     0.260 C 
HETATM   38  O3  UNL     1      -1.327 -32.747  19.085  1.00  0.00    -0.269 OA
HETATM   39  N11 UNL     1       0.564 -34.043  19.253  1.00  0.00    -0.275 N 
ATOM     40  H11 UNL     1       1.238 -34.515  19.855  1.00  0.00     0.189 HD
BRANCH  39  41
HETATM   41  N12 UNL     1       0.707 -34.109  17.869  1.00  0.00    -0.343 N 
ATOM     42 2H12 UNL     1       0.684 -33.244  17.330  1.00  0.00     0.176 HD
ATOM     43 1H12 UNL     1       0.832 -35.010  17.407  1.00  0.00     0.176 HD
ENDBRANCH  39  41
ENDBRANCH  30  37
ENDBRANCH  28  30
ENDBRANCH  27  28
ENDBRANCH   1  27
BRANCH   7  44
HETATM   44  O2  UNL     1      -6.118 -32.535  22.134  1.00  0.00    -0.393 OA
ATOM     45  H2  UNL     1      -6.092 -32.341  23.064  1.00  0.00     0.210 HD
ENDBRANCH   7  44
TORSDOF 11
ENDMDL
MODEL 4
REMARK VINA RESULT: -7.266319080      1.918      2.705
REMARK  11 active torsions:
REMARK  status: ('A' for Active; 'I' for Inactive)
REMARK       I    between atoms: C2_2  and  N1_4 
REMARK    1  A    between atoms: N1_4  and  C3_6 
REMARK    2  A    between atoms: C3_6  and  C4_7 
REMARK    3  A    between atoms: C4_7  and  N2_8 
REMARK    4  A    between atoms: C4_7  and  C14_39 
REMARK    5  A    between atoms: N2_8  and  C5_10 
REMARK    6  A    between atoms: C5_10  and  C6_11 
REMARK    7  A    between atoms: C7_15  and  N4_16 
REMARK    8  A    between atoms: C9_22  and  N7_23 
REMARK    9  A    between atoms: C10_28  and  N9_29 
REMARK   10  A    between atoms: C13_36  and  O2_37 
REMARK       I    between atoms: C14_39  and  N11_41 
REMARK   11  A    between atoms: N11_41  and  N12_43 
ROOT
HETATM    1  C6  UNL     1      -4.062 -33.671  22.260  1.00  0.00     0.254 C 
HETATM    2  N3  UNL     1      -3.836 -35.106  22.003  1.00  0.00    -0.041 N 
ATOM      3  H31 UNL     1      -3.046 -35.505  22.510  1.00  0.00     0.280 HD
ATOM      4  H32 UNL     1      -3.483 -35.316  21.070  1.00  0.00     0.280 HD
HETATM    5  C7  UNL     1      -5.129 -35.723  22.315  1.00  0.00     0.313 C 
HETATM    6  C12 UNL     1      -6.164 -34.623  22.229  1.00  0.00     0.090 C 
HETATM    7  C13 UNL     1      -5.377 -33.528  21.533  1.00  0.00     0.157 C 
ENDROOT
BRANCH   5   8
HETATM    8  N4  UNL     1      -5.494 -36.754  21.366  1.00  0.00    -0.228 N 
HETATM    9  N5  UNL     1      -6.260 -36.720  20.292  1.00  0.00    -0.236 N 
HETATM   10  N6  UNL     1      -6.344 -37.870  19.693  1.00  0.00    -0.279 N 
ATOM     11  H5  UNL     1      -6.737 -35.880  19.966  1.00  0.00     0.208 HD
HETATM   12  C8  UNL     1      -5.599 -38.725  20.394  1.00  0.00     0.140 A 
ATOM     13  H6  UNL     1      -6.877 -38.079  18.848  1.00  0.00     0.189 HD
HETATM   14  C9  UNL     1      -5.308 -40.074  20.244  1.00  0.00     0.147 A 
HETATM   15  C11 UNL     1      -5.060 -38.043  21.447  1.00  0.00     0.173 A 
HETATM   16  N8  UNL     1      -4.500 -40.694  21.132  1.00  0.00    -0.175 N 
HETATM   17  C10 UNL     1      -3.974 -40.017  22.164  1.00  0.00     0.679 A 
ATOM     18  H8  UNL     1      -4.289 -41.685  21.017  1.00  0.00     0.186 HD
HETATM   19  N10 UNL     1      -4.264 -38.704  22.300  1.00  0.00    -0.173 N 
ATOM     20  H10 UNL     1      -3.860 -38.194  23.085  1.00  0.00     0.186 HD
BRANCH  14  21
HETATM   21  N7  UNL     1      -5.826 -40.690  19.251  1.00  0.00    -0.383 N 
ATOM     22  H72 UNL     1      -5.781 -41.704  19.159  1.00  0.00     0.157 HD
ATOM     23  H71 UNL     1      -6.295 -40.132  18.538  1.00  0.00     0.157 HD
ENDBRANCH  14  21
BRANCH  17  24
HETATM   24  N9  UNL     1      -3.208 -40.631  22.994  1.00  0.00    -0.234 N 
ATOM     25  H92 UNL     1      -3.569 -41.336  23.638  1.00  0.00     0.174 HD
ATOM     26  H91 UNL     1      -2.213 -40.409  23.013  1.00  0.00     0.174 HD
ENDBRANCH  17  24
ENDBRANCH   5   8
BRANCH   1  27
HETATM   27  C5  UNL     1      -2.946 -32.844  21.689  1.00  0.00     0.092 C 
BRANCH  27  28
HETATM   28  N2  UNL     1      -2.744 -33.052  20.339  1.00  0.00    -0.386 N 
ATOM     29  H2  UNL     1      -3.557 -32.957  19.731  1.00  0.00     0.159 HD
BRANCH  28  30
HETATM   30  C4  UNL     1      -1.540 -33.377  19.730  1.00  0.00     0.193 C 
BRANCH  30  31
HETATM   31  C3  UNL     1      -0.286 -33.386  20.547  1.00  0.00     0.157 C 
BRANCH  31  32
HETATM   32  N1  UNL     1       0.389 -34.609  20.741  1.00  0.00    -0.359 N 
HETATM   33  C2  UNL     1       0.425 -35.166  22.045  1.00  0.00     0.213 C 
HETATM   34  C1  UNL     1       1.119 -36.447  22.312  1.00  0.00     0.117 C 
HETATM   35  O1  UNL     1      -0.128 -34.586  23.003  1.00  0.00    -0.274 OA
ATOM     36  H1  UNL     1       0.841 -35.084  19.960  1.00  0.00     0.162 HD
ENDBRANCH  31  32
ENDBRANCH  30  31
BRANCH  30  37
HETATM   37  C14 UNL     1      -1.627 -34.779  19.152  1.00  0.00     0.260 C 
HETATM   38  O3  UNL     1      -0.809 -35.052  18.243  1.00  0.00    -0.269 OA
HETATM   39  N11 UNL     1      -2.547 -35.739  19.579  1.00  0.00    -0.275 N 
ATOM     40  H11 UNL     1      -3.210 -35.512  20.321  1.00  0.00     0.189 HD
BRANCH  39  41
HETATM   41  N12 UNL     1      -2.566 -37.004  18.999  1.00  0.00    -0.343 N 
ATOM     42 2H12 UNL     1      -1.687 -37.509  18.891  1.00  0.00     0.176 HD
ATOM     43 1H12 UNL     1      -3.446 -37.415  18.687  1.00  0.00     0.176 HD
ENDBRANCH  39  41
ENDBRANCH  30  37
ENDBRANCH  28  30
ENDBRANCH  27  28
ENDBRANCH   1  27
BRANCH   7  44
HETATM   44  O2  UNL     1      -5.947 -32.290  21.629  1.00  0.00    -0.393 OA
ATOM     45  H2  UNL     1      -6.802 -32.217  21.221  1.00  0.00     0.210 HD
ENDBRANCH   7  44
TORSDOF 11
ENDMDL
MODEL 5
REMARK VINA RESULT: -7.219144730      3.259      7.365
REMARK  11 active torsions:
REMARK  status: ('A' for Active; 'I' for Inactive)
REMARK       I    between atoms: C2_2  and  N1_4 
REMARK    1  A    between atoms: N1_4  and  C3_6 
REMARK    2  A    between atoms: C3_6  and  C4_7 
REMARK    3  A    between atoms: C4_7  and  N2_8 
REMARK    4  A    between atoms: C4_7  and  C14_39 
REMARK    5  A    between atoms: N2_8  and  C5_10 
REMARK    6  A    between atoms: C5_10  and  C6_11 
REMARK    7  A    between atoms: C7_15  and  N4_16 
REMARK    8  A    between atoms: C9_22  and  N7_23 
REMARK    9  A    between atoms: C10_28  and  N9_29 
REMARK   10  A    between atoms: C13_36  and  O2_37 
REMARK       I    between atoms: C14_39  and  N11_41 
REMARK   11  A    between atoms: N11_41  and  N12_43 
ROOT
HETATM    1  C6  UNL     1      -5.649 -39.089  21.669  1.00  0.00     0.254 C 
HETATM    2  N3  UNL     1      -4.647 -38.069  22.029  1.00  0.00    -0.041 N 
ATOM      3  H31 UNL     1      -4.426 -38.029  23.024  1.00  0.00     0.280 HD
ATOM      4  H32 UNL     1      -4.979 -37.108  21.953  1.00  0.00     0.280 HD
HETATM    5  C7  UNL     1      -3.503 -38.385  21.168  1.00  0.00     0.313 C 
HETATM    6  C12 UNL     1      -4.044 -39.200  20.014  1.00  0.00     0.090 C 
HETATM    7  C13 UNL     1      -5.537 -38.977  20.168  1.00  0.00     0.157 C 
ENDROOT
BRANCH   5   8
HETATM    8  N4  UNL     1      -2.877 -37.199  20.621  1.00  0.00    -0.228 N 
HETATM    9  N5  UNL     1      -3.260 -36.369  19.669  1.00  0.00    -0.236 N 
HETATM   10  N6  UNL     1      -2.410 -35.408  19.463  1.00  0.00    -0.279 N 
ATOM     11  H5  UNL     1      -4.132 -36.471  19.150  1.00  0.00     0.208 HD
HETATM   12  C8  UNL     1      -1.403 -35.595  20.316  1.00  0.00     0.140 A 
ATOM     13  H6  UNL     1      -2.498 -34.655  18.781  1.00  0.00     0.189 HD
HETATM   14  C9  UNL     1      -0.224 -34.902  20.559  1.00  0.00     0.147 A 
HETATM   15  C11 UNL     1      -1.678 -36.713  21.049  1.00  0.00     0.173 A 
HETATM   16  N8  UNL     1       0.631 -35.336  21.510  1.00  0.00    -0.175 N 
HETATM   17  C10 UNL     1       0.353 -36.436  22.227  1.00  0.00     0.679 A 
ATOM     18  H8  UNL     1       1.495 -34.823  21.686  1.00  0.00     0.186 HD
HETATM   19  N10 UNL     1      -0.796 -37.102  21.982  1.00  0.00    -0.173 N 
ATOM     20  H10 UNL     1      -1.003 -37.937  22.530  1.00  0.00     0.186 HD
BRANCH  14  21
HETATM   21  N7  UNL     1       0.010 -33.859  19.859  1.00  0.00    -0.383 N 
ATOM     22  H72 UNL     1       0.021 -32.924  20.266  1.00  0.00     0.157 HD
ATOM     23  H71 UNL     1       0.190 -33.984  18.863  1.00  0.00     0.157 HD
ENDBRANCH  14  21
BRANCH  17  24
HETATM   24  N9  UNL     1       1.185 -36.827  23.126  1.00  0.00    -0.234 N 
ATOM     25  H92 UNL     1       1.390 -36.261  23.950  1.00  0.00     0.174 HD
ATOM     26  H91 UNL     1       1.653 -37.725  23.015  1.00  0.00     0.174 HD
ENDBRANCH  17  24
ENDBRANCH   5   8
BRANCH   1  27
HETATM   27  C5  UNL     1      -7.000 -38.728  22.217  1.00  0.00     0.092 C 
BRANCH  27  28
HETATM   28  N2  UNL     1      -7.152 -37.377  22.457  1.00  0.00    -0.386 N 
ATOM     29  H2  UNL     1      -6.786 -37.021  23.340  1.00  0.00     0.159 HD
BRANCH  28  30
HETATM   30  C4  UNL     1      -7.755 -36.456  21.612  1.00  0.00     0.193 C 
BRANCH  30  31
HETATM   31  C3  UNL     1      -9.086 -35.882  21.986  1.00  0.00     0.157 C 
BRANCH  31  32
HETATM   32  N1  UNL     1      -9.772 -36.423  23.092  1.00  0.00    -0.359 N 
HETATM   33  C2  UNL     1      -9.629 -35.794  24.355  1.00  0.00     0.213 C 
HETATM   34  C1  UNL     1     -10.324 -36.316  25.555  1.00  0.00     0.117 C 
HETATM   35  O1  UNL     1      -8.911 -34.781  24.486  1.00  0.00    -0.274 OA
ATOM     36  H1  UNL     1     -10.359 -37.251  22.987  1.00  0.00     0.162 HD
ENDBRANCH  31  32
ENDBRANCH  30  31
BRANCH  30  37
HETATM   37  C14 UNL     1      -6.851 -35.247  21.451  1.00  0.00     0.260 C 
HETATM   38  O3  UNL     1      -5.821 -35.416  20.758  1.00  0.00    -0.269 OA
HETATM   39  N11 UNL     1      -7.114 -34.000  22.025  1.00  0.00    -0.275 N 
ATOM     40  H11 UNL     1      -7.955 -33.866  22.587  1.00  0.00     0.189 HD
BRANCH  39  41
HETATM   41  N12 UNL     1      -6.235 -32.937  21.833  1.00  0.00    -0.343 N 
ATOM     42 2H12 UNL     1      -6.617 -32.008  21.659  1.00  0.00     0.176 HD
ATOM     43 1H12 UNL     1      -5.226 -33.090  21.868  1.00  0.00     0.176 HD
ENDBRANCH  39  41
ENDBRANCH  30  37
ENDBRANCH  28  30
ENDBRANCH  27  28
ENDBRANCH   1  27
BRANCH   7  44
HETATM   44  O2  UNL     1      -6.304 -39.870  19.473  1.00  0.00    -0.393 OA
ATOM     45  H2  UNL     1      -6.259 -39.778  18.529  1.00  0.00     0.210 HD
ENDBRANCH   7  44
TORSDOF 11
ENDMDL
