MODEL 1
REMARK VINA RESULT: -7.359962170      0.000      0.000
REMARK  10 active torsions:
REMARK  status: ('A' for Active; 'I' for Inactive)
REMARK    1  A    between atoms: N1_1  and  C1_4 
REMARK    2  A    between atoms: C5_15  and  N5_16 
REMARK    3  A    between atoms: N5_16  and  C6_17 
REMARK    4  A    between atoms: C6_17  and  C7_18 
REMARK    5  A    between atoms: C6_17  and  C14_36 
REMARK    6  A    between atoms: C7_18  and  C8_19 
REMARK    7  A    between atoms: C8_19  and  N6_20 
REMARK    8  A    between atoms: C12_29  and  N9_30 
REMARK    9  A    between atoms: C14_36  and  N11_37 
REMARK   10  A    between atoms: C14_36  and  O3_41 
ROOT
HETATM    1  C6  UNL     1      -6.272 -36.742  22.425  1.00  0.00     0.222 C 
ENDROOT
BRANCH   1   2
HETATM    2  N5  UNL     1      -5.649 -37.906  22.328  1.00  0.00    -0.418 NA
BRANCH   2   3
HETATM    3  C5  UNL     1      -5.217 -39.012  22.317  1.00  0.00     0.204 A 
HETATM    4  N4  UNL     1      -4.709 -39.572  23.479  1.00  0.00    -0.326 N 
HETATM    5  C4  UNL     1      -4.236 -40.807  23.424  1.00  0.00     0.183 A 
ATOM      6  H4  UNL     1      -4.700 -39.047  24.354  1.00  0.00     0.169 HD
HETATM    7  N3  UNL     1      -4.219 -41.554  22.307  1.00  0.00    -0.346 N 
HETATM    8  C3  UNL     1      -4.701 -41.045  21.162  1.00  0.00     0.135 A 
ATOM      9  H3  UNL     1      -3.841 -42.501  22.328  1.00  0.00     0.167 HD
HETATM   10  C2  UNL     1      -4.707 -41.772  19.983  1.00  0.00     0.288 A 
HETATM   11  C15 UNL     1      -5.206 -39.782  21.137  1.00  0.00     0.139 A 
HETATM   12  N2  UNL     1      -5.184 -41.291  18.824  1.00  0.00    -0.154 N 
HETATM   13  O1  UNL     1      -4.232 -42.943  20.044  1.00  0.00    -0.265 OA
HETATM   14  C1  UNL     1      -5.675 -40.039  18.829  1.00  0.00     0.679 A 
ATOM     15  H2  UNL     1      -5.173 -41.853  17.973  1.00  0.00     0.187 HD
HETATM   16  N12 UNL     1      -5.678 -39.315  19.970  1.00  0.00    -0.185 N 
ATOM     17  H12 UNL     1      -6.057 -38.369  19.944  1.00  0.00     0.184 HD
BRANCH  14  18
HETATM   18  N1  UNL     1      -6.135 -39.570  17.719  1.00  0.00    -0.234 N 
ATOM     19  H12 UNL     1      -5.577 -39.549  16.866  1.00  0.00     0.174 HD
ATOM     20  H11 UNL     1      -7.091 -39.212  17.713  1.00  0.00     0.174 HD
ENDBRANCH  14  18
ENDBRANCH   2   3
ENDBRANCH   1   2
BRANCH   1  21
HETATM   21  C7  UNL     1      -5.422 -35.584  23.022  1.00  0.00     0.064 C 
BRANCH  21  22
HETATM   22  C8  UNL     1      -3.982 -35.861  22.722  1.00  0.00     0.134 C 
BRANCH  22  23
HETATM   23  N6  UNL     1      -3.363 -34.888  21.887  1.00  0.00    -0.327 N 
HETATM   24  C9  UNL     1      -3.755 -33.626  21.623  1.00  0.00     0.185 A 
HETATM   25  N7  UNL     1      -2.884 -33.032  20.777  1.00  0.00    -0.345 N 
HETATM   26  C10 UNL     1      -1.918 -33.905  20.484  1.00  0.00     0.147 A 
ATOM     27  H7  UNL     1      -2.953 -32.078  20.423  1.00  0.00     0.167 HD
HETATM   28  C11 UNL     1      -0.772 -33.888  19.692  1.00  0.00     0.290 A 
HETATM   29  C13 UNL     1      -2.213 -35.063  21.175  1.00  0.00     0.156 A 
HETATM   30  O2  UNL     1      -0.513 -32.829  19.068  1.00  0.00    -0.265 OA
HETATM   31  N8  UNL     1      -0.000 -34.985  19.627  1.00  0.00    -0.154 N 
HETATM   32  C12 UNL     1      -0.297 -36.109  20.304  1.00  0.00     0.680 A 
ATOM     33  H8  UNL     1       0.837 -34.967  19.045  1.00  0.00     0.187 HD
HETATM   34  N10 UNL     1      -1.397 -36.125  21.063  1.00  0.00    -0.174 N 
ATOM     35  H10 UNL     1      -1.626 -36.975  21.578  1.00  0.00     0.186 HD
BRANCH  32  36
HETATM   36  N9  UNL     1       0.484 -37.154  20.211  1.00  0.00    -0.234 N 
ATOM     37  H92 UNL     1       0.582 -37.670  19.336  1.00  0.00     0.174 HD
ATOM     38  H91 UNL     1       1.013 -37.471  21.024  1.00  0.00     0.174 HD
ENDBRANCH  32  36
ENDBRANCH  22  23
ENDBRANCH  21  22
ENDBRANCH   1  21
BRANCH   1  39
HETATM   39  C14 UNL     1      -6.831 -36.166  21.109  1.00  0.00     0.352 C 
BRANCH  39  40
HETATM   40  N11 UNL     1      -7.126 -34.761  21.259  1.00  0.00    -0.050 N 
ATOM     41 3H11 UNL     1      -8.080 -34.606  21.585  1.00  0.00     0.277 HD
ATOM     42 2H11 UNL     1      -6.627 -34.351  22.048  1.00  0.00     0.277 HD
ATOM     43 1H11 UNL     1      -6.937 -34.263  20.390  1.00  0.00     0.277 HD
ENDBRANCH  39  40
BRANCH  39  44
HETATM   44  O3  UNL     1      -5.871 -36.308  20.122  1.00  0.00    -0.368 OA
ATOM     45  H3  UNL     1      -5.769 -37.233  19.930  1.00  0.00     0.212 HD
ENDBRANCH  39  44
ENDBRANCH   1  39
TORSDOF 10
ENDMDL
MODEL 2
REMARK VINA RESULT: -7.348784512      2.021      2.376
REMARK  10 active torsions:
REMARK  status: ('A' for Active; 'I' for Inactive)
REMARK    1  A    between atoms: N1_1  and  C1_4 
REMARK    2  A    between atoms: C5_15  and  N5_16 
REMARK    3  A    between atoms: N5_16  and  C6_17 
REMARK    4  A    between atoms: C6_17  and  C7_18 
REMARK    5  A    between atoms: C6_17  and  C14_36 
REMARK    6  A    between atoms: C7_18  and  C8_19 
REMARK    7  A    between atoms: C8_19  and  N6_20 
REMARK    8  A    between atoms: C12_29  and  N9_30 
REMARK    9  A    between atoms: C14_36  and  N11_37 
REMARK   10  A    between atoms: C14_36  and  O3_41 
ROOT
HETATM    1  C6  UNL     1      -6.612 -36.006  21.833  1.00  0.00     0.222 C 
ENDROOT
BRANCH   1   2
HETATM    2  N5  UNL     1      -6.260 -37.062  21.116  1.00  0.00    -0.418 NA
BRANCH   2   3
HETATM    3  C5  UNL     1      -5.952 -38.091  20.611  1.00  0.00     0.204 A 
HETATM    4  N4  UNL     1      -4.643 -38.304  20.207  1.00  0.00    -0.326 N 
HETATM    5  C4  UNL     1      -4.341 -39.465  19.647  1.00  0.00     0.183 A 
ATOM      6  H4  UNL     1      -3.930 -37.586  20.339  1.00  0.00     0.169 HD
HETATM    7  N3  UNL     1      -5.229 -40.453  19.445  1.00  0.00    -0.346 N 
HETATM    8  C3  UNL     1      -6.506 -40.284  19.823  1.00  0.00     0.135 A 
ATOM      9  H3  UNL     1      -4.935 -41.326  19.009  1.00  0.00     0.167 HD
HETATM   10  C2  UNL     1      -7.461 -41.270  19.638  1.00  0.00     0.288 A 
HETATM   11  C15 UNL     1      -6.895 -39.118  20.407  1.00  0.00     0.139 A 
HETATM   12  N2  UNL     1      -8.744 -41.130  20.005  1.00  0.00    -0.154 N 
HETATM   13  O1  UNL     1      -7.063 -42.340  19.094  1.00  0.00    -0.265 OA
HETATM   14  C1  UNL     1      -9.101 -39.966  20.580  1.00  0.00     0.679 A 
ATOM     15  H2  UNL     1      -9.423 -41.877  19.855  1.00  0.00     0.187 HD
HETATM   16  N12 UNL     1      -8.182 -38.993  20.768  1.00  0.00    -0.185 N 
ATOM     17  H12 UNL     1      -8.481 -38.122  21.206  1.00  0.00     0.184 HD
BRANCH  14  18
HETATM   18  N1  UNL     1     -10.332 -39.825  20.936  1.00  0.00    -0.234 N 
ATOM     19  H12 UNL     1     -10.927 -40.622  21.162  1.00  0.00     0.174 HD
ATOM     20  H11 UNL     1     -10.707 -38.877  20.987  1.00  0.00     0.174 HD
ENDBRANCH  14  18
ENDBRANCH   2   3
ENDBRANCH   1   2
BRANCH   1  21
HETATM   21  C7  UNL     1      -5.621 -34.809  21.778  1.00  0.00     0.064 C 
BRANCH  21  22
HETATM   22  C8  UNL     1      -4.245 -35.330  22.054  1.00  0.00     0.134 C 
BRANCH  22  23
HETATM   23  N6  UNL     1      -3.206 -34.383  21.825  1.00  0.00    -0.327 N 
HETATM   24  C9  UNL     1      -3.212 -33.052  22.036  1.00  0.00     0.185 A 
HETATM   25  N7  UNL     1      -2.021 -32.517  21.688  1.00  0.00    -0.345 N 
HETATM   26  C10 UNL     1      -1.231 -33.497  21.247  1.00  0.00     0.147 A 
ATOM     27  H7  UNL     1      -1.768 -31.531  21.753  1.00  0.00     0.167 HD
HETATM   28  C11 UNL     1       0.073 -33.579  20.761  1.00  0.00     0.290 A 
HETATM   29  C13 UNL     1      -1.966 -34.663  21.331  1.00  0.00     0.156 A 
HETATM   30  O2  UNL     1       0.733 -32.513  20.689  1.00  0.00    -0.265 OA
HETATM   31  N8  UNL     1       0.565 -34.774  20.394  1.00  0.00    -0.154 N 
HETATM   32  C12 UNL     1      -0.161 -35.903  20.481  1.00  0.00     0.680 A 
ATOM     33  H8  UNL     1       1.519 -34.827  20.039  1.00  0.00     0.187 HD
HETATM   34  N10 UNL     1      -1.411 -35.824  20.947  1.00  0.00    -0.174 N 
ATOM     35  H10 UNL     1      -1.965 -36.678  21.013  1.00  0.00     0.186 HD
BRANCH  32  36
HETATM   36  N9  UNL     1       0.360 -37.045  20.112  1.00  0.00    -0.234 N 
ATOM     37  H92 UNL     1       0.389 -37.326  19.132  1.00  0.00     0.174 HD
ATOM     38  H91 UNL     1       0.750 -37.677  20.811  1.00  0.00     0.174 HD
ENDBRANCH  32  36
ENDBRANCH  22  23
ENDBRANCH  21  22
ENDBRANCH   1  21
BRANCH   1  39
HETATM   39  C14 UNL     1      -7.980 -35.386  21.491  1.00  0.00     0.352 C 
BRANCH  39  40
HETATM   40  N11 UNL     1      -8.861 -35.450  22.633  1.00  0.00    -0.050 N 
ATOM     41 3H11 UNL     1      -8.358 -35.685  23.488  1.00  0.00     0.277 HD
ATOM     42 2H11 UNL     1      -9.198 -34.526  22.904  1.00  0.00     0.277 HD
ATOM     43 1H11 UNL     1      -9.629 -36.096  22.454  1.00  0.00     0.277 HD
ENDBRANCH  39  40
BRANCH  39  44
HETATM   44  O3  UNL     1      -7.791 -34.056  21.159  1.00  0.00    -0.368 OA
ATOM     45  H3  UNL     1      -8.563 -33.566  21.420  1.00  0.00     0.212 HD
ENDBRANCH  39  44
ENDBRANCH   1  39
TORSDOF 10
ENDMDL
MODEL 3
REMARK VINA RESULT: -7.345671541      2.307      6.695
REMARK  10 active torsions:
REMARK  status: ('A' for Active; 'I' for Inactive)
REMARK    1  A    between atoms: N1_1  and  C1_4 
REMARK    2  A    between atoms: C5_15  and  N5_16 
REMARK    3  A    between atoms: N5_16  and  C6_17 
REMARK    4  A    between atoms: C6_17  and  C7_18 
REMARK    5  A    between atoms: C6_17  and  C14_36 
REMARK    6  A    between atoms: C7_18  and  C8_19 
REMARK    7  A    between atoms: C8_19  and  N6_20 
REMARK    8  A    between atoms: C12_29  and  N9_30 
REMARK    9  A    between atoms: C14_36  and  N11_37 
REMARK   10  A    between atoms: C14_36  and  O3_41 
ROOT
HETATM    1  C6  UNL     1      -3.287 -38.147  23.432  1.00  0.00     0.222 C 
ENDROOT
BRANCH   1   2
HETATM    2  N5  UNL     1      -3.173 -36.917  22.958  1.00  0.00    -0.418 NA
BRANCH   2   3
HETATM    3  C5  UNL     1      -3.131 -35.872  22.394  1.00  0.00     0.204 A 
HETATM    4  N4  UNL     1      -4.092 -34.905  22.646  1.00  0.00    -0.326 N 
HETATM    5  C4  UNL     1      -4.009 -33.755  21.996  1.00  0.00     0.183 A 
ATOM      6  H4  UNL     1      -4.843 -35.075  23.315  1.00  0.00     0.169 HD
HETATM    7  N3  UNL     1      -3.046 -33.466  21.105  1.00  0.00    -0.346 N 
HETATM    8  C3  UNL     1      -2.098 -34.377  20.834  1.00  0.00     0.135 A 
ATOM      9  H3  UNL     1      -3.035 -32.561  20.636  1.00  0.00     0.167 HD
HETATM   10  C2  UNL     1      -1.084 -34.130  19.924  1.00  0.00     0.288 A 
HETATM   11  C15 UNL     1      -2.114 -35.584  21.462  1.00  0.00     0.139 A 
HETATM   12  N2  UNL     1      -0.122 -35.021  19.634  1.00  0.00    -0.154 N 
HETATM   13  O1  UNL     1      -1.099 -32.998  19.361  1.00  0.00    -0.265 OA
HETATM   14  C1  UNL     1      -0.163 -36.206  20.269  1.00  0.00     0.679 A 
ATOM     15  H2  UNL     1       0.612 -34.807  18.958  1.00  0.00     0.187 HD
HETATM   16  N12 UNL     1      -1.146 -36.464  21.160  1.00  0.00    -0.185 N 
ATOM     17  H12 UNL     1      -1.152 -37.371  21.627  1.00  0.00     0.184 HD
BRANCH  14  18
HETATM   18  N1  UNL     1       0.758 -37.067  19.995  1.00  0.00    -0.234 N 
ATOM     19  H12 UNL     1       1.549 -36.841  19.393  1.00  0.00     0.174 HD
ATOM     20  H11 UNL     1       0.675 -37.998  20.403  1.00  0.00     0.174 HD
ENDBRANCH  14  18
ENDBRANCH   2   3
ENDBRANCH   1   2
BRANCH   1  21
HETATM   21  C7  UNL     1      -3.836 -39.197  22.426  1.00  0.00     0.064 C 
BRANCH  21  22
HETATM   22  C8  UNL     1      -5.331 -39.164  22.487  1.00  0.00     0.134 C 
BRANCH  22  23
HETATM   23  N6  UNL     1      -5.916 -38.039  21.838  1.00  0.00    -0.327 N 
HETATM   24  C9  UNL     1      -5.855 -37.685  20.539  1.00  0.00     0.185 A 
HETATM   25  N7  UNL     1      -6.551 -36.545  20.332  1.00  0.00    -0.345 N 
HETATM   26  C10 UNL     1      -7.069 -36.148  21.495  1.00  0.00     0.147 A 
ATOM     27  H7  UNL     1      -6.662 -36.069  19.436  1.00  0.00     0.167 HD
HETATM   28  C11 UNL     1      -7.859 -35.081  21.918  1.00  0.00     0.290 A 
HETATM   29  C13 UNL     1      -6.676 -37.078  22.437  1.00  0.00     0.156 A 
HETATM   30  O2  UNL     1      -8.211 -34.241  21.053  1.00  0.00    -0.265 OA
HETATM   31  N8  UNL     1      -8.207 -34.992  23.212  1.00  0.00    -0.154 N 
HETATM   32  C12 UNL     1      -7.818 -35.903  24.122  1.00  0.00     0.680 A 
ATOM     33  H8  UNL     1      -8.784 -34.208  23.515  1.00  0.00     0.187 HD
HETATM   34  N10 UNL     1      -7.061 -36.927  23.715  1.00  0.00    -0.174 N 
ATOM     35  H10 UNL     1      -6.763 -37.620  24.402  1.00  0.00     0.186 HD
BRANCH  32  36
HETATM   36  N9  UNL     1      -8.182 -35.776  25.372  1.00  0.00    -0.234 N 
ATOM     37  H92 UNL     1      -7.968 -34.933  25.905  1.00  0.00     0.174 HD
ATOM     38  H91 UNL     1      -8.691 -36.529  25.835  1.00  0.00     0.174 HD
ENDBRANCH  32  36
ENDBRANCH  22  23
ENDBRANCH  21  22
ENDBRANCH   1  21
BRANCH   1  39
HETATM   39  C14 UNL     1      -1.992 -38.780  23.977  1.00  0.00     0.352 C 
BRANCH  39  40
HETATM   40  N11 UNL     1      -1.948 -40.188  23.661  1.00  0.00    -0.050 N 
ATOM     41 3H11 UNL     1      -2.741 -40.473  23.087  1.00  0.00     0.277 HD
ATOM     42 2H11 UNL     1      -1.199 -40.406  23.003  1.00  0.00     0.277 HD
ATOM     43 1H11 UNL     1      -1.877 -40.742  24.513  1.00  0.00     0.277 HD
ENDBRANCH  39  40
BRANCH  39  44
HETATM   44  O3  UNL     1      -0.911 -38.163  23.372  1.00  0.00    -0.368 OA
ATOM     45  H3  UNL     1      -1.159 -37.915  22.489  1.00  0.00     0.212 HD
ENDBRANCH  39  44
ENDBRANCH   1  39
TORSDOF 10
ENDMDL
MODEL 4
REMARK VINA RESULT: -7.336465036      2.374      6.780
REMARK  10 active torsions:
REMARK  status: ('A' for Active; 'I' for Inactive)
REMARK    1  A    between atoms: N1_1  and  C1_4 
REMARK    2  A    between atoms: C5_15  and  N5_16 
REMARK    3  A    between atoms: N5_16  and  C6_17 
REMARK    4  A    between atoms: C6_17  and  C7_18 
REMARK    5  A    between atoms: C6_17  and  C14_36 
REMARK    6  A    between atoms: C7_18  and  C8_19 
REMARK    7  A    between atoms: C8_19  and  N6_20 
REMARK    8  A    between atoms: C12_29  and  N9_30 
REMARK    9  A    between atoms: C14_36  and  N11_37 
REMARK   10  A    between atoms: C14_36  and  O3_41 
ROOT
HETATM    1  C6  UNL     1      -2.807 -38.244  23.036  1.00  0.00     0.222 C 
ENDROOT
BRANCH   1   2
HETATM    2  N5  UNL     1      -2.223 -37.331  22.276  1.00  0.00    -0.418 NA
BRANCH   2   3
HETATM    3  C5  UNL     1      -1.631 -36.636  21.517  1.00  0.00     0.204 A 
HETATM    4  N4  UNL     1      -0.458 -37.086  20.930  1.00  0.00    -0.326 N 
HETATM    5  C4  UNL     1       0.172 -36.278  20.091  1.00  0.00     0.183 A 
ATOM      6  H4  UNL     1      -0.090 -38.014  21.139  1.00  0.00     0.169 HD
HETATM    7  N3  UNL     1      -0.258 -35.046  19.771  1.00  0.00    -0.346 N 
HETATM    8  C3  UNL     1      -1.389 -34.576  20.320  1.00  0.00     0.135 A 
ATOM      9  H3  UNL     1       0.272 -34.472  19.117  1.00  0.00     0.167 HD
HETATM   10  C2  UNL     1      -1.875 -33.313  20.024  1.00  0.00     0.288 A 
HETATM   11  C15 UNL     1      -2.095 -35.345  21.192  1.00  0.00     0.139 A 
HETATM   12  N2  UNL     1      -3.003 -32.816  20.555  1.00  0.00    -0.154 N 
HETATM   13  O1  UNL     1      -1.194 -32.627  19.209  1.00  0.00    -0.265 OA
HETATM   14  C1  UNL     1      -3.680 -33.598  21.416  1.00  0.00     0.679 A 
ATOM     15  H2  UNL     1      -3.335 -31.881  20.316  1.00  0.00     0.187 HD
HETATM   16  N12 UNL     1      -3.220 -34.833  21.715  1.00  0.00    -0.185 N 
ATOM     17  H12 UNL     1      -3.754 -35.404  22.370  1.00  0.00     0.184 HD
BRANCH  14  18
HETATM   18  N1  UNL     1      -4.765 -33.127  21.930  1.00  0.00    -0.234 N 
ATOM     19  H12 UNL     1      -4.765 -32.315  22.545  1.00  0.00     0.174 HD
ATOM     20  H11 UNL     1      -5.642 -33.597  21.703  1.00  0.00     0.174 HD
ENDBRANCH  14  18
ENDBRANCH   2   3
ENDBRANCH   1   2
BRANCH   1  21
HETATM   21  C7  UNL     1      -3.663 -39.292  22.272  1.00  0.00     0.064 C 
BRANCH  21  22
HETATM   22  C8  UNL     1      -5.105 -39.020  22.566  1.00  0.00     0.134 C 
BRANCH  22  23
HETATM   23  N6  UNL     1      -5.626 -37.869  21.908  1.00  0.00    -0.327 N 
HETATM   24  C9  UNL     1      -5.446 -37.467  20.635  1.00  0.00     0.185 A 
HETATM   25  N7  UNL     1      -6.118 -36.316  20.408  1.00  0.00    -0.345 N 
HETATM   26  C10 UNL     1      -6.739 -35.960  21.534  1.00  0.00     0.147 A 
ATOM     27  H7  UNL     1      -6.145 -35.806  19.525  1.00  0.00     0.167 HD
HETATM   28  C11 UNL     1      -7.562 -34.905  21.923  1.00  0.00     0.290 A 
HETATM   29  C13 UNL     1      -6.436 -36.926  22.472  1.00  0.00     0.156 A 
HETATM   30  O2  UNL     1      -7.832 -34.032  21.061  1.00  0.00    -0.265 OA
HETATM   31  N8  UNL     1      -8.026 -34.862  23.182  1.00  0.00    -0.154 N 
HETATM   32  C12 UNL     1      -7.724 -35.809  24.089  1.00  0.00     0.680 A 
ATOM     33  H8  UNL     1      -8.627 -34.086  23.461  1.00  0.00     0.187 HD
HETATM   34  N10 UNL     1      -6.935 -36.821  23.715  1.00  0.00    -0.174 N 
ATOM     35  H10 UNL     1      -6.702 -37.541  24.399  1.00  0.00     0.186 HD
BRANCH  32  36
HETATM   36  N9  UNL     1      -8.200 -35.726  25.304  1.00  0.00    -0.234 N 
ATOM     37  H92 UNL     1      -8.136 -34.863  25.844  1.00  0.00     0.174 HD
ATOM     38  H91 UNL     1      -8.647 -36.536  25.733  1.00  0.00     0.174 HD
ENDBRANCH  32  36
ENDBRANCH  22  23
ENDBRANCH  21  22
ENDBRANCH   1  21
BRANCH   1  39
HETATM   39  C14 UNL     1      -1.866 -39.087  23.918  1.00  0.00     0.352 C 
BRANCH  39  40
HETATM   40  N11 UNL     1      -1.942 -40.480  23.547  1.00  0.00    -0.050 N 
ATOM     41 3H11 UNL     1      -2.908 -40.795  23.453  1.00  0.00     0.277 HD
ATOM     42 2H11 UNL     1      -1.638 -40.634  22.586  1.00  0.00     0.277 HD
ATOM     43 1H11 UNL     1      -1.419 -41.053  24.208  1.00  0.00     0.277 HD
ENDBRANCH  39  40
BRANCH  39  44
HETATM   44  O3  UNL     1      -0.567 -38.653  23.717  1.00  0.00    -0.368 OA
ATOM     45  H3  UNL     1      -0.066 -39.363  23.334  1.00  0.00     0.212 HD
ENDBRANCH  39  44
ENDBRANCH   1  39
TORSDOF 10
ENDMDL
MODEL 5
REMARK VINA RESULT: -7.329905220      1.871      3.002
REMARK  10 active torsions:
REMARK  status: ('A' for Active; 'I' for Inactive)
REMARK    1  A    between atoms: N1_1  and  C1_4 
REMARK    2  A    between atoms: C5_15  and  N5_16 
REMARK    3  A    between atoms: N5_16  and  C6_17 
REMARK    4  A    between atoms: C6_17  and  C7_18 
REMARK    5  A    between atoms: C6_17  and  C14_36 
REMARK    6  A    between atoms: C7_18  and  C8_19 
REMARK    7  A    between atoms: C8_19  and  N6_20 
REMARK    8  A    between atoms: C12_29  and  N9_30 
REMARK    9  A    between atoms: C14_36  and  N11_37 
REMARK   10  A    between atoms: C14_36  and  O3_41 
ROOT
HETATM    1  C6  UNL     1      -6.119 -35.558  22.434  1.00  0.00     0.222 C 
ENDROOT
BRANCH   1   2
HETATM    2  N5  UNL     1      -6.240 -36.643  21.685  1.00  0.00    -0.418 NA
BRANCH   2   3
HETATM    3  C5  UNL     1      -6.320 -37.519  20.888  1.00  0.00     0.204 A 
HETATM    4  N4  UNL     1      -7.155 -37.386  19.789  1.00  0.00    -0.326 N 
HETATM    5  C4  UNL     1      -7.217 -38.387  18.925  1.00  0.00     0.183 A 
ATOM      6  H4  UNL     1      -7.707 -36.540  19.649  1.00  0.00     0.169 HD
HETATM    7  N3  UNL     1      -6.517 -39.527  19.047  1.00  0.00    -0.346 N 
HETATM    8  C3  UNL     1      -5.698 -39.693  20.098  1.00  0.00     0.135 A 
ATOM      9  H3  UNL     1      -6.607 -40.263  18.347  1.00  0.00     0.167 HD
HETATM   10  C2  UNL     1      -4.955 -40.848  20.272  1.00  0.00     0.288 A 
HETATM   11  C15 UNL     1      -5.580 -38.709  21.031  1.00  0.00     0.139 A 
HETATM   12  N2  UNL     1      -4.128 -41.042  21.312  1.00  0.00    -0.154 N 
HETATM   13  O1  UNL     1      -5.089 -41.740  19.386  1.00  0.00    -0.265 OA
HETATM   14  C1  UNL     1      -4.031 -40.053  22.219  1.00  0.00     0.679 A 
ATOM     15  H2  UNL     1      -3.594 -41.906  21.410  1.00  0.00     0.187 HD
HETATM   16  N12 UNL     1      -4.749 -38.919  22.065  1.00  0.00    -0.185 N 
ATOM     17  H12 UNL     1      -4.655 -38.186  22.768  1.00  0.00     0.184 HD
BRANCH  14  18
HETATM   18  N1  UNL     1      -3.238 -40.232  23.220  1.00  0.00    -0.234 N 
ATOM     19  H12 UNL     1      -2.348 -40.722  23.127  1.00  0.00     0.174 HD
ATOM     20  H11 UNL     1      -3.527 -39.866  24.127  1.00  0.00     0.174 HD
ENDBRANCH  14  18
ENDBRANCH   2   3
ENDBRANCH   1   2
BRANCH   1  21
HETATM   21  C7  UNL     1      -5.032 -34.550  21.967  1.00  0.00     0.064 C 
BRANCH  21  22
HETATM   22  C8  UNL     1      -3.689 -35.154  22.237  1.00  0.00     0.134 C 
BRANCH  22  23
HETATM   23  N6  UNL     1      -2.915 -35.399  21.067  1.00  0.00    -0.327 N 
HETATM   24  C9  UNL     1      -3.176 -36.229  20.038  1.00  0.00     0.185 A 
HETATM   25  N7  UNL     1      -2.183 -36.167  19.123  1.00  0.00    -0.345 N 
HETATM   26  C10 UNL     1      -1.268 -35.296  19.551  1.00  0.00     0.147 A 
ATOM     27  H7  UNL     1      -2.141 -36.696  18.252  1.00  0.00     0.167 HD
HETATM   28  C11 UNL     1      -0.054 -34.813  19.067  1.00  0.00     0.290 A 
HETATM   29  C13 UNL     1      -1.721 -34.814  20.763  1.00  0.00     0.156 A 
HETATM   30  O2  UNL     1       0.349 -35.258  17.964  1.00  0.00    -0.265 OA
HETATM   31  N8  UNL     1       0.629 -33.907  19.787  1.00  0.00    -0.154 N 
HETATM   32  C12 UNL     1       0.178 -33.444  20.967  1.00  0.00     0.680 A 
ATOM     33  H8  UNL     1       1.517 -33.558  19.427  1.00  0.00     0.187 HD
HETATM   34  N10 UNL     1      -0.987 -33.908  21.430  1.00  0.00    -0.174 N 
ATOM     35  H10 UNL     1      -1.333 -33.561  22.325  1.00  0.00     0.186 HD
BRANCH  32  36
HETATM   36  N9  UNL     1       0.876 -32.562  21.633  1.00  0.00    -0.234 N 
ATOM     37  H92 UNL     1       1.527 -31.932  21.163  1.00  0.00     0.174 HD
ATOM     38  H91 UNL     1       0.775 -32.491  22.646  1.00  0.00     0.174 HD
ENDBRANCH  32  36
ENDBRANCH  22  23
ENDBRANCH  21  22
ENDBRANCH   1  21
BRANCH   1  39
HETATM   39  C14 UNL     1      -7.391 -34.704  22.592  1.00  0.00     0.352 C 
BRANCH  39  40
HETATM   40  N11 UNL     1      -8.101 -35.074  23.793  1.00  0.00    -0.050 N 
ATOM     41 3H11 UNL     1      -7.483 -35.501  24.483  1.00  0.00     0.277 HD
ATOM     42 2H11 UNL     1      -8.388 -34.257  24.331  1.00  0.00     0.277 HD
ATOM     43 1H11 UNL     1      -8.892 -35.677  23.567  1.00  0.00     0.277 HD
ENDBRANCH  39  40
BRANCH  39  44
HETATM   44  O3  UNL     1      -7.020 -33.374  22.697  1.00  0.00    -0.368 OA
ATOM     45  H3  UNL     1      -7.657 -32.924  23.240  1.00  0.00     0.212 HD
ENDBRANCH  39  44
ENDBRANCH   1  39
TORSDOF 10
ENDMDL
