MODEL 1
REMARK VINA RESULT: -6.739339796      0.000      0.000
REMARK  5 active torsions:
REMARK  status: ('A' for Active; 'I' for Inactive)
REMARK    1  A    between atoms: C4_9  and  N3_10 
REMARK    2  A    between atoms: N4_13  and  C5_14 
REMARK    3  A    between atoms: C5_14  and  C6_15 
REMARK    4  A    between atoms: C9_18  and  S1_19 
REMARK    5  A    between atoms: S1_19  and  N5_20 
ROOT
HETATM    1  C1  UNL     1     -15.514 -17.357  12.697  1.00  0.00     0.183 C 
HETATM    2  N1  UNL     1     -14.686 -16.509  11.904  1.00  0.00    -0.237 N 
HETATM    3  C2  UNL     1     -14.420 -16.917  10.618  1.00  0.00     0.331 A 
HETATM    4  O1  UNL     1     -14.915 -17.989  10.194  1.00  0.00    -0.260 OA
HETATM    5  C3  UNL     1     -13.631 -16.175   9.796  1.00  0.00     0.329 A 
HETATM    6  O2  UNL     1     -13.365 -16.515   8.615  1.00  0.00    -0.261 OA
HETATM    7  N2  UNL     1     -13.131 -15.048  10.297  1.00  0.00    -0.150 N 
ATOM      8  H2  UNL     1     -12.532 -14.463   9.715  1.00  0.00     0.188 HD
HETATM    9  C4  UNL     1     -13.405 -14.666  11.567  1.00  0.00     0.700 A 
HETATM   10  N4  UNL     1     -14.198 -15.396  12.407  1.00  0.00    -0.092 N 
ENDROOT
BRANCH  10  11
HETATM   11  C5  UNL     1     -14.499 -14.958  13.727  1.00  0.00     0.146 C 
BRANCH  11  12
HETATM   12  C6  UNL     1     -15.595 -14.043  13.952  1.00  0.00    -0.018 A 
HETATM   13  C7  UNL     1     -16.895 -14.501  13.922  1.00  0.00     0.014 A 
HETATM   14  C8  UNL     1     -17.999 -13.676  14.117  1.00  0.00     0.026 A 
HETATM   15  C9  UNL     1     -17.803 -12.334  14.353  1.00  0.00     0.079 A 
HETATM   16  C10 UNL     1     -16.517 -11.847  14.389  1.00  0.00     0.026 A 
HETATM   17  C11 UNL     1     -15.422 -12.707  14.188  1.00  0.00     0.014 A 
BRANCH  15  18
HETATM   18  S1  UNL     1     -19.162 -11.261  14.604  1.00  0.00     0.256 S 
HETATM   19  O3  UNL     1     -20.057 -11.380  13.401  1.00  0.00    -0.201 OA
HETATM   20  O4  UNL     1     -18.712  -9.842  14.777  1.00  0.00    -0.201 OA
BRANCH  18  21
HETATM   21  N5  UNL     1     -20.045 -11.824  15.972  1.00  0.00    -0.324 N 
ATOM     22  H52 UNL     1     -20.321 -11.252  16.770  1.00  0.00     0.169 HD
ATOM     23  H51 UNL     1     -20.236 -12.818  15.839  1.00  0.00     0.169 HD
ENDBRANCH  18  21
ENDBRANCH  15  18
ENDBRANCH  11  12
ENDBRANCH  10  11
BRANCH   9  24
HETATM   24  N3  UNL     1     -12.864 -13.586  12.026  1.00  0.00    -0.233 N 
ATOM     25  H32 UNL     1     -12.212 -13.083  11.424  1.00  0.00     0.174 HD
ATOM     26  H31 UNL     1     -13.128 -13.257  12.954  1.00  0.00     0.174 HD
ENDBRANCH   9  24
TORSDOF 5
ENDMDL
MODEL 2
REMARK VINA RESULT: -6.685906147      1.027      1.460
REMARK  5 active torsions:
REMARK  status: ('A' for Active; 'I' for Inactive)
REMARK    1  A    between atoms: C4_9  and  N3_10 
REMARK    2  A    between atoms: N4_13  and  C5_14 
REMARK    3  A    between atoms: C5_14  and  C6_15 
REMARK    4  A    between atoms: C9_18  and  S1_19 
REMARK    5  A    between atoms: S1_19  and  N5_20 
ROOT
HETATM    1  C1  UNL     1     -15.700 -17.149  12.604  1.00  0.00     0.183 C 
HETATM    2  N1  UNL     1     -14.790 -16.370  11.830  1.00  0.00    -0.237 N 
HETATM    3  C2  UNL     1     -14.576 -16.766  10.530  1.00  0.00     0.331 A 
HETATM    4  O1  UNL     1     -15.184 -17.767  10.079  1.00  0.00    -0.260 OA
HETATM    5  C3  UNL     1     -13.716 -16.087   9.724  1.00  0.00     0.329 A 
HETATM    6  O2  UNL     1     -13.494 -16.418   8.531  1.00  0.00    -0.261 OA
HETATM    7  N2  UNL     1     -13.097 -15.035  10.253  1.00  0.00    -0.150 N 
ATOM      8  H2  UNL     1     -12.443 -14.499   9.683  1.00  0.00     0.188 HD
HETATM    9  C4  UNL     1     -13.323 -14.664  11.536  1.00  0.00     0.700 A 
HETATM   10  N4  UNL     1     -14.185 -15.330  12.360  1.00  0.00    -0.092 N 
ENDROOT
BRANCH  10  11
HETATM   11  C5  UNL     1     -14.431 -14.902  13.695  1.00  0.00     0.146 C 
BRANCH  11  12
HETATM   12  C6  UNL     1     -15.354 -13.818  13.946  1.00  0.00    -0.018 A 
HETATM   13  C7  UNL     1     -14.885 -12.529  14.086  1.00  0.00     0.014 A 
HETATM   14  C8  UNL     1     -15.713 -11.439  14.341  1.00  0.00     0.026 A 
HETATM   15  C9  UNL     1     -17.070 -11.639  14.463  1.00  0.00     0.079 A 
HETATM   16  C10 UNL     1     -17.568 -12.914  14.329  1.00  0.00     0.026 A 
HETATM   17  C11 UNL     1     -16.704 -13.995  14.071  1.00  0.00     0.014 A 
BRANCH  15  18
HETATM   18  S1  UNL     1     -18.147 -10.298  14.784  1.00  0.00     0.256 S 
HETATM   19  O3  UNL     1     -19.485 -10.876  15.157  1.00  0.00    -0.201 OA
HETATM   20  O4  UNL     1     -18.282  -9.409  13.586  1.00  0.00    -0.201 OA
BRANCH  18  21
HETATM   21  N5  UNL     1     -17.545  -9.443  16.154  1.00  0.00    -0.324 N 
ATOM     22  H52 UNL     1     -18.006  -8.651  16.601  1.00  0.00     0.169 HD
ATOM     23  H51 UNL     1     -16.659  -9.868  16.428  1.00  0.00     0.169 HD
ENDBRANCH  18  21
ENDBRANCH  15  18
ENDBRANCH  11  12
ENDBRANCH  10  11
BRANCH   9  24
HETATM   24  N3  UNL     1     -12.669 -13.661  12.021  1.00  0.00    -0.233 N 
ATOM     25  H32 UNL     1     -13.169 -12.784  12.164  1.00  0.00     0.174 HD
ATOM     26  H31 UNL     1     -11.689 -13.787  12.273  1.00  0.00     0.174 HD
ENDBRANCH   9  24
TORSDOF 5
ENDMDL
MODEL 3
REMARK VINA RESULT: -6.385766049      0.852      1.433
REMARK  5 active torsions:
REMARK  status: ('A' for Active; 'I' for Inactive)
REMARK    1  A    between atoms: C4_9  and  N3_10 
REMARK    2  A    between atoms: N4_13  and  C5_14 
REMARK    3  A    between atoms: C5_14  and  C6_15 
REMARK    4  A    between atoms: C9_18  and  S1_19 
REMARK    5  A    between atoms: S1_19  and  N5_20 
ROOT
HETATM    1  C1  UNL     1     -15.625 -17.378  12.820  1.00  0.00     0.183 C 
HETATM    2  N1  UNL     1     -14.766 -16.536  12.054  1.00  0.00    -0.237 N 
HETATM    3  C2  UNL     1     -14.425 -16.970  10.794  1.00  0.00     0.331 A 
HETATM    4  O1  UNL     1     -14.881 -18.059  10.369  1.00  0.00    -0.260 OA
HETATM    5  C3  UNL     1     -13.601 -16.236  10.000  1.00  0.00     0.329 A 
HETATM    6  O2  UNL     1     -13.267 -16.599   8.843  1.00  0.00    -0.261 OA
HETATM    7  N2  UNL     1     -13.145 -15.090  10.499  1.00  0.00    -0.150 N 
ATOM      8  H2  UNL     1     -12.523 -14.509   9.937  1.00  0.00     0.188 HD
HETATM    9  C4  UNL     1     -13.494 -14.683  11.743  1.00  0.00     0.700 A 
HETATM   10  N4  UNL     1     -14.322 -15.404  12.555  1.00  0.00    -0.092 N 
ENDROOT
BRANCH  10  11
HETATM   11  C5  UNL     1     -14.701 -14.940  13.846  1.00  0.00     0.146 C 
BRANCH  11  12
HETATM   12  C6  UNL     1     -15.863 -14.094  13.996  1.00  0.00    -0.018 A 
HETATM   13  C7  UNL     1     -15.709 -12.744  14.231  1.00  0.00     0.014 A 
HETATM   14  C8  UNL     1     -16.780 -11.871  14.398  1.00  0.00     0.026 A 
HETATM   15  C9  UNL     1     -18.065 -12.362  14.329  1.00  0.00     0.079 A 
HETATM   16  C10 UNL     1     -18.251 -13.705  14.095  1.00  0.00     0.026 A 
HETATM   17  C11 UNL     1     -17.146 -14.561  13.931  1.00  0.00     0.014 A 
BRANCH  15  18
HETATM   18  S1  UNL     1     -19.441 -11.301  14.533  1.00  0.00     0.256 S 
HETATM   19  O3  UNL     1     -18.915  -9.896  14.625  1.00  0.00    -0.201 OA
HETATM   20  O4  UNL     1     -20.217 -11.647  15.767  1.00  0.00    -0.201 OA
BRANCH  18  21
HETATM   21  N5  UNL     1     -20.414 -11.406  13.114  1.00  0.00    -0.324 N 
ATOM     22  H52 UNL     1     -20.060 -11.554  12.169  1.00  0.00     0.169 HD
ATOM     23  H51 UNL     1     -21.390 -11.294  13.390  1.00  0.00     0.169 HD
ENDBRANCH  18  21
ENDBRANCH  15  18
ENDBRANCH  11  12
ENDBRANCH  10  11
BRANCH   9  24
HETATM   24  N3  UNL     1     -12.994 -13.584  12.205  1.00  0.00    -0.233 N 
ATOM     25  H32 UNL     1     -13.406 -12.703  11.899  1.00  0.00     0.174 HD
ATOM     26  H31 UNL     1     -12.230 -13.635  12.878  1.00  0.00     0.174 HD
ENDBRANCH   9  24
TORSDOF 5
ENDMDL
MODEL 4
REMARK VINA RESULT: -6.364160097      5.947      9.031
REMARK  5 active torsions:
REMARK  status: ('A' for Active; 'I' for Inactive)
REMARK    1  A    between atoms: C4_9  and  N3_10 
REMARK    2  A    between atoms: N4_13  and  C5_14 
REMARK    3  A    between atoms: C5_14  and  C6_15 
REMARK    4  A    between atoms: C9_18  and  S1_19 
REMARK    5  A    between atoms: S1_19  and  N5_20 
ROOT
HETATM    1  C1  UNL     1     -23.926 -11.106  14.610  1.00  0.00     0.183 C 
HETATM    2  N1  UNL     1     -24.033 -10.751  13.233  1.00  0.00    -0.237 N 
HETATM    3  C2  UNL     1     -25.061  -9.908  12.881  1.00  0.00     0.331 A 
HETATM    4  O1  UNL     1     -25.843  -9.482  13.766  1.00  0.00    -0.260 OA
HETATM    5  C3  UNL     1     -25.244  -9.527  11.589  1.00  0.00     0.329 A 
HETATM    6  O2  UNL     1     -26.172  -8.759  11.229  1.00  0.00    -0.261 OA
HETATM    7  N2  UNL     1     -24.388 -10.009  10.692  1.00  0.00    -0.150 N 
ATOM      8  H2  UNL     1     -24.490  -9.750   9.711  1.00  0.00     0.188 HD
HETATM    9  C4  UNL     1     -23.383 -10.839  11.061  1.00  0.00     0.700 A 
HETATM   10  N4  UNL     1     -23.181 -11.230  12.354  1.00  0.00    -0.092 N 
ENDROOT
BRANCH  10  11
HETATM   11  C5  UNL     1     -22.098 -12.077  12.723  1.00  0.00     0.146 C 
BRANCH  11  12
HETATM   12  C6  UNL     1     -20.855 -11.499  13.184  1.00  0.00    -0.018 A 
HETATM   13  C7  UNL     1     -19.818 -12.317  13.579  1.00  0.00     0.014 A 
HETATM   14  C8  UNL     1     -18.599 -11.832  14.045  1.00  0.00     0.026 A 
HETATM   15  C9  UNL     1     -18.401 -10.471  14.121  1.00  0.00     0.079 A 
HETATM   16  C10 UNL     1     -19.418  -9.629  13.733  1.00  0.00     0.026 A 
HETATM   17  C11 UNL     1     -20.639 -10.152  13.267  1.00  0.00     0.014 A 
BRANCH  15  18
HETATM   18  S1  UNL     1     -16.885  -9.818  14.701  1.00  0.00     0.256 S 
HETATM   19  O3  UNL     1     -16.582  -8.593  13.883  1.00  0.00    -0.201 OA
HETATM   20  O4  UNL     1     -15.776 -10.817  14.570  1.00  0.00    -0.201 OA
BRANCH  18  21
HETATM   21  N5  UNL     1     -17.108  -9.316  16.334  1.00  0.00    -0.324 N 
ATOM     22  H52 UNL     1     -16.414  -9.408  17.077  1.00  0.00     0.169 HD
ATOM     23  H51 UNL     1     -18.043  -8.918  16.419  1.00  0.00     0.169 HD
ENDBRANCH  18  21
ENDBRANCH  15  18
ENDBRANCH  11  12
ENDBRANCH  10  11
BRANCH   9  24
HETATM   24  N3  UNL     1     -22.601 -11.317  10.150  1.00  0.00    -0.233 N 
ATOM     25  H32 UNL     1     -22.348 -10.713   9.369  1.00  0.00     0.174 HD
ATOM     26  H31 UNL     1     -22.239 -12.264  10.258  1.00  0.00     0.174 HD
ENDBRANCH   9  24
TORSDOF 5
ENDMDL
MODEL 5
REMARK VINA RESULT: -6.347922880      2.713      7.151
REMARK  5 active torsions:
REMARK  status: ('A' for Active; 'I' for Inactive)
REMARK    1  A    between atoms: C4_9  and  N3_10 
REMARK    2  A    between atoms: N4_13  and  C5_14 
REMARK    3  A    between atoms: C5_14  and  C6_15 
REMARK    4  A    between atoms: C9_18  and  S1_19 
REMARK    5  A    between atoms: S1_19  and  N5_20 
ROOT
HETATM    1  C1  UNL     1     -15.680 -11.087  15.646  1.00  0.00     0.183 C 
HETATM    2  N1  UNL     1     -16.906 -11.309  14.952  1.00  0.00    -0.237 N 
HETATM    3  C2  UNL     1     -17.619 -10.197  14.568  1.00  0.00     0.331 A 
HETATM    4  O1  UNL     1     -17.170  -9.054  14.826  1.00  0.00    -0.260 OA
HETATM    5  C3  UNL     1     -18.803 -10.317  13.912  1.00  0.00     0.329 A 
HETATM    6  O2  UNL     1     -19.484  -9.325  13.545  1.00  0.00    -0.261 OA
HETATM    7  N2  UNL     1     -19.234 -11.552  13.665  1.00  0.00    -0.150 N 
ATOM      8  H2  UNL     1     -20.118 -11.687  13.176  1.00  0.00     0.188 HD
HETATM    9  C4  UNL     1     -18.515 -12.632  14.054  1.00  0.00     0.700 A 
HETATM   10  N4  UNL     1     -17.322 -12.533  14.711  1.00  0.00    -0.092 N 
ENDROOT
BRANCH  10  11
HETATM   11  C5  UNL     1     -16.568 -13.682  15.080  1.00  0.00     0.146 C 
BRANCH  11  12
HETATM   12  C6  UNL     1     -15.683 -14.303  14.121  1.00  0.00    -0.018 A 
HETATM   13  C7  UNL     1     -15.869 -15.621  13.761  1.00  0.00     0.014 A 
HETATM   14  C8  UNL     1     -15.049 -16.287  12.854  1.00  0.00     0.026 A 
HETATM   15  C9  UNL     1     -13.995 -15.612  12.278  1.00  0.00     0.079 A 
HETATM   16  C10 UNL     1     -13.784 -14.296  12.618  1.00  0.00     0.026 A 
HETATM   17  C11 UNL     1     -14.631 -13.651  13.538  1.00  0.00     0.014 A 
BRANCH  15  18
HETATM   18  S1  UNL     1     -12.939 -16.410  11.134  1.00  0.00     0.256 S 
HETATM   19  O3  UNL     1     -13.479 -16.135   9.757  1.00  0.00    -0.201 OA
HETATM   20  O4  UNL     1     -12.882 -17.887  11.383  1.00  0.00    -0.201 OA
BRANCH  18  21
HETATM   21  N5  UNL     1     -11.382 -15.680  11.242  1.00  0.00    -0.324 N 
ATOM     22  H52 UNL     1     -10.877 -15.255  10.465  1.00  0.00     0.169 HD
ATOM     23  H51 UNL     1     -11.066 -15.751  12.210  1.00  0.00     0.169 HD
ENDBRANCH  18  21
ENDBRANCH  15  18
ENDBRANCH  11  12
ENDBRANCH  10  11
BRANCH   9  24
HETATM   24  N3  UNL     1     -18.991 -13.813  13.831  1.00  0.00    -0.233 N 
ATOM     25  H32 UNL     1     -19.794 -14.118  14.381  1.00  0.00     0.174 HD
ATOM     26  H31 UNL     1     -18.573 -14.384  13.098  1.00  0.00     0.174 HD
ENDBRANCH   9  24
TORSDOF 5
ENDMDL
