MODEL 1
REMARK VINA RESULT: -7.974995469      0.000      0.000
REMARK  14 active torsions:
REMARK  status: ('A' for Active; 'I' for Inactive)
REMARK    1  A    between atoms: N1_2  and  C2_5 
REMARK    2  A    between atoms: C4_8  and  C5_9 
REMARK    3  A    between atoms: C5_9  and  S1_10 
REMARK    4  A    between atoms: S1_10  and  C6_11 
REMARK    5  A    between atoms: C7_16  and  C8_17 
REMARK    6  A    between atoms: C8_17  and  N4_18 
REMARK    7  A    between atoms: C9_22  and  C10_23 
REMARK       I    between atoms: C10_23  and  N7_25 
REMARK    8  A    between atoms: N7_25  and  N8_27 
REMARK    9  A    between atoms: C11_30  and  N9_31 
REMARK   10  A    between atoms: N10_34  and  C12_35 
REMARK   11  A    between atoms: C12_35  and  N11_37 
REMARK   12  A    between atoms: N11_37  and  O3_39 
REMARK   13  A    between atoms: C15_45  and  N13_46 
REMARK   14  A    between atoms: C16_50  and  N14_51 
ROOT
HETATM    1  C6  UNL     1      -6.402 -37.978  20.294  1.00  0.00     0.168 A 
HETATM    2  N2  UNL     1      -5.157 -38.309  19.865  1.00  0.00    -0.278 N 
ATOM      3  H2  UNL     1      -4.929 -39.105  19.269  1.00  0.00     0.189 HD
HETATM    4  N3  UNL     1      -4.292 -37.441  20.340  1.00  0.00    -0.285 N 
ATOM      5  H3  UNL     1      -3.286 -37.455  20.172  1.00  0.00     0.188 HD
HETATM    6  C7  UNL     1      -4.946 -36.535  21.082  1.00  0.00     0.125 A 
HETATM    7  N10 UNL     1      -6.244 -36.878  21.044  1.00  0.00    -0.265 N 
ENDROOT
BRANCH   1   8
HETATM    8  S1  UNL     1      -7.924 -38.851  19.944  1.00  0.00    -0.087 SA
BRANCH   8   9
HETATM    9  C5  UNL     1      -7.578 -40.555  19.437  1.00  0.00     0.154 C 
BRANCH   9  10
HETATM   10  C4  UNL     1      -7.723 -41.584  20.468  1.00  0.00     0.272 C 
HETATM   11  O1  UNL     1      -8.388 -42.687  19.954  1.00  0.00    -0.350 OA
HETATM   12  C3  UNL     1      -7.586 -43.220  18.963  1.00  0.00     0.206 C 
HETATM   13  C2  UNL     1      -6.167 -43.457  19.209  1.00  0.00     0.242 C 
HETATM   14  C16 UNL     1      -5.496 -42.585  20.281  1.00  0.00     0.258 C 
HETATM   15  C15 UNL     1      -6.590 -42.234  21.184  1.00  0.00     0.234 C 
HETATM   16  C14 UNL     1      -6.696 -41.166  22.127  1.00  0.00     0.282 C 
HETATM   17  N12 UNL     1      -8.084 -41.039  21.713  1.00  0.00    -0.037 N 
ATOM     18 2H12 UNL     1      -8.563 -40.141  21.770  1.00  0.00     0.281 HD
ATOM     19 1H12 UNL     1      -8.831 -41.457  22.267  1.00  0.00     0.281 HD
BRANCH  13  20
HETATM   20  N1  UNL     1      -5.438 -43.297  17.936  1.00  0.00    -0.071 N 
HETATM   21  C1  UNL     1      -6.491 -43.101  16.928  1.00  0.00     0.267 C 
ATOM     22  H12 UNL     1      -4.797 -44.062  17.725  1.00  0.00     0.277 HD
ATOM     23  H11 UNL     1      -4.734 -42.559  17.950  1.00  0.00     0.277 HD
ENDBRANCH  13  20
BRANCH  14  24
HETATM   24  N14 UNL     1      -4.697 -41.551  19.732  1.00  0.00    -0.070 N 
ATOM     25 3H14 UNL     1      -3.764 -41.895  19.501  1.00  0.00     0.274 HD
ATOM     26 2H14 UNL     1      -5.018 -41.299  18.798  1.00  0.00     0.274 HD
ATOM     27 1H14 UNL     1      -4.642 -40.729  20.334  1.00  0.00     0.274 HD
ENDBRANCH  14  24
BRANCH  15  28
HETATM   28  N13 UNL     1      -7.070 -43.480  21.837  1.00  0.00    -0.062 N 
ATOM     29 3H13 UNL     1      -7.344 -43.327  22.807  1.00  0.00     0.275 HD
ATOM     30 2H13 UNL     1      -7.975 -43.783  21.476  1.00  0.00     0.275 HD
ATOM     31 1H13 UNL     1      -6.357 -44.204  21.747  1.00  0.00     0.275 HD
ENDBRANCH  15  28
ENDBRANCH   9  10
ENDBRANCH   8   9
ENDBRANCH   1   8
BRANCH   7  32
HETATM   32  C12 UNL     1      -7.335 -36.204  21.706  1.00  0.00     0.107 C 
HETATM   33  C13 UNL     1      -7.632 -36.500  23.123  1.00  0.00     0.091 C 
BRANCH  32  34
HETATM   34  N11 UNL     1      -8.038 -35.340  21.030  1.00  0.00    -0.257 N 
ATOM     35  H11 UNL     1      -9.009 -35.541  20.790  1.00  0.00     0.195 HD
BRANCH  34  36
HETATM   36  O3  UNL     1      -7.461 -34.163  20.647  1.00  0.00    -0.288 OA
ATOM     37  H3  UNL     1      -6.760 -33.797  21.174  1.00  0.00     0.244 HD
ENDBRANCH  34  36
ENDBRANCH  32  34
ENDBRANCH   7  32
BRANCH   6  38
HETATM   38  C8  UNL     1      -4.312 -35.422  21.789  1.00  0.00     0.227 C 
BRANCH  38  39
HETATM   39  N4  UNL     1      -3.391 -34.675  20.961  1.00  0.00    -0.252 N 
HETATM   40  N5  UNL     1      -3.615 -33.630  20.175  1.00  0.00    -0.018 NA
HETATM   41  N6  UNL     1      -2.484 -33.237  19.580  1.00  0.00    -0.276 N 
HETATM   42  C9  UNL     1      -1.490 -34.028  19.973  1.00  0.00     0.160 A 
ATOM     43  H6  UNL     1      -2.397 -32.456  18.929  1.00  0.00     0.184 HD
HETATM   44  C11 UNL     1      -2.060 -34.948  20.854  1.00  0.00     0.148 A 
BRANCH  42  45
HETATM   45  C10 UNL     1      -0.070 -33.991  19.595  1.00  0.00     0.291 C 
HETATM   46  O2  UNL     1       0.295 -34.511  18.509  1.00  0.00    -0.264 OA
HETATM   47  N7  UNL     1       0.905 -33.384  20.426  1.00  0.00    -0.271 N 
ATOM     48  H7  UNL     1       0.619 -32.960  21.308  1.00  0.00     0.189 HD
BRANCH  47  49
HETATM   49  N8  UNL     1       2.242 -33.357  20.058  1.00  0.00    -0.342 N 
ATOM     50  H82 UNL     1       2.693 -32.452  19.930  1.00  0.00     0.176 HD
ATOM     51  H81 UNL     1       2.765 -34.221  19.917  1.00  0.00     0.176 HD
ENDBRANCH  47  49
ENDBRANCH  42  45
BRANCH  44  52
HETATM   52  N9  UNL     1      -1.423 -35.879  21.461  1.00  0.00    -0.382 N 
ATOM     53  H92 UNL     1      -1.848 -36.586  22.060  1.00  0.00     0.157 HD
ATOM     54  H91 UNL     1      -0.418 -36.048  21.425  1.00  0.00     0.157 HD
ENDBRANCH  44  52
ENDBRANCH  38  39
ENDBRANCH   6  38
TORSDOF 14
ENDMDL
MODEL 2
REMARK VINA RESULT: -7.953605480      2.174      2.519
REMARK  14 active torsions:
REMARK  status: ('A' for Active; 'I' for Inactive)
REMARK    1  A    between atoms: N1_2  and  C2_5 
REMARK    2  A    between atoms: C4_8  and  C5_9 
REMARK    3  A    between atoms: C5_9  and  S1_10 
REMARK    4  A    between atoms: S1_10  and  C6_11 
REMARK    5  A    between atoms: C7_16  and  C8_17 
REMARK    6  A    between atoms: C8_17  and  N4_18 
REMARK    7  A    between atoms: C9_22  and  C10_23 
REMARK       I    between atoms: C10_23  and  N7_25 
REMARK    8  A    between atoms: N7_25  and  N8_27 
REMARK    9  A    between atoms: C11_30  and  N9_31 
REMARK   10  A    between atoms: N10_34  and  C12_35 
REMARK   11  A    between atoms: C12_35  and  N11_37 
REMARK   12  A    between atoms: N11_37  and  O3_39 
REMARK   13  A    between atoms: C15_45  and  N13_46 
REMARK   14  A    between atoms: C16_50  and  N14_51 
ROOT
HETATM    1  C6  UNL     1      -7.235 -38.652  20.818  1.00  0.00     0.168 A 
HETATM    2  N2  UNL     1      -7.030 -38.054  19.617  1.00  0.00    -0.278 N 
ATOM      3  H2  UNL     1      -7.402 -38.378  18.725  1.00  0.00     0.189 HD
HETATM    4  N3  UNL     1      -6.277 -36.991  19.787  1.00  0.00    -0.285 N 
ATOM      5  H3  UNL     1      -5.970 -36.357  19.049  1.00  0.00     0.188 HD
HETATM    6  C7  UNL     1      -5.976 -36.873  21.089  1.00  0.00     0.125 A 
HETATM    7  N10 UNL     1      -6.572 -37.903  21.713  1.00  0.00    -0.265 N 
ENDROOT
BRANCH   1   8
HETATM    8  S1  UNL     1      -8.174 -40.144  21.128  1.00  0.00    -0.087 SA
BRANCH   8   9
HETATM    9  C5  UNL     1      -7.770 -41.415  19.903  1.00  0.00     0.154 C 
BRANCH   9  10
HETATM   10  C4  UNL     1      -6.589 -42.234  20.178  1.00  0.00     0.272 C 
HETATM   11  O1  UNL     1      -6.869 -43.572  19.944  1.00  0.00    -0.350 OA
HETATM   12  C3  UNL     1      -7.142 -43.701  18.595  1.00  0.00     0.206 C 
HETATM   13  C2  UNL     1      -6.251 -43.108  17.602  1.00  0.00     0.242 C 
HETATM   14  C16 UNL     1      -5.422 -41.896  18.053  1.00  0.00     0.258 C 
HETATM   15  C15 UNL     1      -5.275 -42.087  19.494  1.00  0.00     0.234 C 
HETATM   16  C14 UNL     1      -4.953 -41.143  20.517  1.00  0.00     0.282 C 
HETATM   17  N12 UNL     1      -5.926 -41.830  21.351  1.00  0.00    -0.037 N 
ATOM     18 2H12 UNL     1      -6.426 -41.330  22.086  1.00  0.00     0.281 HD
ATOM     19 1H12 UNL     1      -5.625 -42.517  22.042  1.00  0.00     0.281 HD
BRANCH  13  20
HETATM   20  N1  UNL     1      -7.053 -42.728  16.422  1.00  0.00    -0.071 N 
HETATM   21  C1  UNL     1      -6.887 -43.850  15.485  1.00  0.00     0.267 C 
ATOM     22  H12 UNL     1      -6.809 -41.819  16.030  1.00  0.00     0.277 HD
ATOM     23  H11 UNL     1      -8.025 -42.504  16.635  1.00  0.00     0.277 HD
ENDBRANCH  13  20
BRANCH  14  24
HETATM   24  N14 UNL     1      -5.933 -40.665  17.569  1.00  0.00    -0.070 N 
ATOM     25 3H14 UNL     1      -5.295 -39.898  17.782  1.00  0.00     0.274 HD
ATOM     26 2H14 UNL     1      -5.899 -40.632  16.551  1.00  0.00     0.274 HD
ATOM     27 1H14 UNL     1      -6.873 -40.463  17.910  1.00  0.00     0.274 HD
ENDBRANCH  14  24
BRANCH  15  28
HETATM   28  N13 UNL     1      -4.462 -43.311  19.718  1.00  0.00    -0.062 N 
ATOM     29 3H13 UNL     1      -4.753 -43.822  20.551  1.00  0.00     0.275 HD
ATOM     30 2H13 UNL     1      -4.657 -44.037  19.028  1.00  0.00     0.275 HD
ATOM     31 1H13 UNL     1      -3.473 -43.060  19.745  1.00  0.00     0.275 HD
ENDBRANCH  15  28
ENDBRANCH   9  10
ENDBRANCH   8   9
ENDBRANCH   1   8
BRANCH   7  32
HETATM   32  C12 UNL     1      -6.523 -38.205  23.122  1.00  0.00     0.107 C 
HETATM   33  C13 UNL     1      -7.418 -37.495  24.059  1.00  0.00     0.091 C 
BRANCH  32  34
HETATM   34  N11 UNL     1      -5.681 -39.108  23.539  1.00  0.00    -0.257 N 
ATOM     35  H11 UNL     1      -6.015 -39.936  24.032  1.00  0.00     0.195 HD
BRANCH  34  36
HETATM   36  O3  UNL     1      -4.346 -38.934  23.307  1.00  0.00    -0.288 OA
ATOM     37  H3  UNL     1      -4.050 -38.735  22.426  1.00  0.00     0.244 HD
ENDBRANCH  34  36
ENDBRANCH  32  34
ENDBRANCH   7  32
BRANCH   6  38
HETATM   38  C8  UNL     1      -5.137 -35.818  21.659  1.00  0.00     0.227 C 
BRANCH  38  39
HETATM   39  N4  UNL     1      -3.865 -35.679  20.987  1.00  0.00    -0.252 N 
HETATM   40  N5  UNL     1      -3.574 -35.084  19.837  1.00  0.00    -0.018 NA
HETATM   41  N6  UNL     1      -2.267 -35.183  19.572  1.00  0.00    -0.276 N 
HETATM   42  C9  UNL     1      -1.674 -35.852  20.557  1.00  0.00     0.160 A 
ATOM     43  H6  UNL     1      -1.799 -34.805  18.748  1.00  0.00     0.184 HD
HETATM   44  C11 UNL     1      -2.686 -36.172  21.464  1.00  0.00     0.148 A 
BRANCH  42  45
HETATM   45  C10 UNL     1      -0.258 -36.210  20.715  1.00  0.00     0.291 C 
HETATM   46  O2  UNL     1       0.577 -35.317  21.011  1.00  0.00    -0.264 OA
HETATM   47  N7  UNL     1       0.196 -37.542  20.541  1.00  0.00    -0.271 N 
ATOM     48  H7  UNL     1      -0.473 -38.273  20.302  1.00  0.00     0.189 HD
BRANCH  47  49
HETATM   49  N8  UNL     1       1.536 -37.865  20.692  1.00  0.00    -0.342 N 
ATOM     50  H82 UNL     1       2.144 -37.816  19.875  1.00  0.00     0.176 HD
ATOM     51  H81 UNL     1       1.909 -38.147  21.598  1.00  0.00     0.176 HD
ENDBRANCH  47  49
ENDBRANCH  42  45
BRANCH  44  52
HETATM   52  N9  UNL     1      -2.518 -36.813  22.560  1.00  0.00    -0.382 N 
ATOM     53  H92 UNL     1      -3.156 -36.793  23.355  1.00  0.00     0.157 HD
ATOM     54  H91 UNL     1      -1.739 -37.430  22.787  1.00  0.00     0.157 HD
ENDBRANCH  44  52
ENDBRANCH  38  39
ENDBRANCH   6  38
TORSDOF 14
ENDMDL
MODEL 3
REMARK VINA RESULT: -7.949929999      4.378      6.679
REMARK  14 active torsions:
REMARK  status: ('A' for Active; 'I' for Inactive)
REMARK    1  A    between atoms: N1_2  and  C2_5 
REMARK    2  A    between atoms: C4_8  and  C5_9 
REMARK    3  A    between atoms: C5_9  and  S1_10 
REMARK    4  A    between atoms: S1_10  and  C6_11 
REMARK    5  A    between atoms: C7_16  and  C8_17 
REMARK    6  A    between atoms: C8_17  and  N4_18 
REMARK    7  A    between atoms: C9_22  and  C10_23 
REMARK       I    between atoms: C10_23  and  N7_25 
REMARK    8  A    between atoms: N7_25  and  N8_27 
REMARK    9  A    between atoms: C11_30  and  N9_31 
REMARK   10  A    between atoms: N10_34  and  C12_35 
REMARK   11  A    between atoms: C12_35  and  N11_37 
REMARK   12  A    between atoms: N11_37  and  O3_39 
REMARK   13  A    between atoms: C15_45  and  N13_46 
REMARK   14  A    between atoms: C16_50  and  N14_51 
ROOT
HETATM    1  C6  UNL     1      -7.847 -37.149  23.710  1.00  0.00     0.168 A 
HETATM    2  N2  UNL     1      -7.121 -38.272  23.944  1.00  0.00    -0.278 N 
ATOM      3  H2  UNL     1      -7.096 -38.787  24.823  1.00  0.00     0.189 HD
HETATM    4  N3  UNL     1      -6.456 -38.590  22.855  1.00  0.00    -0.285 N 
ATOM      5  H3  UNL     1      -5.833 -39.392  22.755  1.00  0.00     0.188 HD
HETATM    6  C7  UNL     1      -6.730 -37.691  21.898  1.00  0.00     0.125 A 
HETATM    7  N10 UNL     1      -7.588 -36.810  22.438  1.00  0.00    -0.265 N 
ENDROOT
BRANCH   1   8
HETATM    8  S1  UNL     1      -8.906 -36.295  24.873  1.00  0.00    -0.087 SA
BRANCH   8   9
HETATM    9  C5  UNL     1     -10.371 -37.291  25.248  1.00  0.00     0.154 C 
BRANCH   9  10
HETATM   10  C4  UNL     1     -11.071 -36.976  26.495  1.00  0.00     0.272 C 
HETATM   11  O1  UNL     1     -11.779 -35.791  26.361  1.00  0.00    -0.350 OA
HETATM   12  C3  UNL     1     -12.747 -36.002  25.398  1.00  0.00     0.206 C 
HETATM   13  C2  UNL     1     -13.598 -37.187  25.453  1.00  0.00     0.242 C 
HETATM   14  C16 UNL     1     -13.024 -38.417  26.174  1.00  0.00     0.258 C 
HETATM   15  C15 UNL     1     -12.086 -37.851  27.142  1.00  0.00     0.234 C 
HETATM   16  C14 UNL     1     -10.989 -38.463  27.823  1.00  0.00     0.282 C 
HETATM   17  N12 UNL     1     -10.270 -37.215  27.627  1.00  0.00    -0.037 N 
ATOM     18 2H12 UNL     1      -9.253 -37.206  27.556  1.00  0.00     0.281 HD
ATOM     19 1H12 UNL     1     -10.210 -36.526  28.376  1.00  0.00     0.281 HD
BRANCH  13  20
HETATM   20  N1  UNL     1     -13.962 -37.567  24.075  1.00  0.00    -0.071 N 
HETATM   21  C1  UNL     1     -14.912 -36.531  23.643  1.00  0.00     0.267 C 
ATOM     22  H12 UNL     1     -14.317 -38.519  23.986  1.00  0.00     0.277 HD
ATOM     23  H11 UNL     1     -13.163 -37.684  23.451  1.00  0.00     0.277 HD
ENDBRANCH  13  20
BRANCH  14  24
HETATM   24  N14 UNL     1     -12.571 -39.420  25.281  1.00  0.00    -0.070 N 
ATOM     25 3H14 UNL     1     -13.305 -40.108  25.104  1.00  0.00     0.274 HD
ATOM     26 2H14 UNL     1     -12.462 -39.047  24.339  1.00  0.00     0.274 HD
ATOM     27 1H14 UNL     1     -11.714 -39.875  25.596  1.00  0.00     0.274 HD
ENDBRANCH  14  24
BRANCH  15  28
HETATM   28  N13 UNL     1     -12.863 -37.058  28.131  1.00  0.00    -0.062 N 
ATOM     29 3H13 UNL     1     -12.369 -36.217  28.425  1.00  0.00     0.275 HD
ATOM     30 2H13 UNL     1     -13.678 -36.609  27.711  1.00  0.00     0.275 HD
ATOM     31 1H13 UNL     1     -13.115 -37.654  28.919  1.00  0.00     0.275 HD
ENDBRANCH  15  28
ENDBRANCH   9  10
ENDBRANCH   8   9
ENDBRANCH   1   8
BRANCH   7  32
HETATM   32  C12 UNL     1      -8.157 -35.652  21.793  1.00  0.00     0.107 C 
HETATM   33  C13 UNL     1      -9.513 -35.725  21.213  1.00  0.00     0.091 C 
BRANCH  32  34
HETATM   34  N11 UNL     1      -7.452 -34.557  21.738  1.00  0.00    -0.257 N 
ATOM     35  H11 UNL     1      -7.063 -34.151  22.589  1.00  0.00     0.195 HD
BRANCH  34  36
HETATM   36  O3  UNL     1      -7.240 -33.960  20.528  1.00  0.00    -0.288 OA
ATOM     37  H3  UNL     1      -6.350 -33.846  20.216  1.00  0.00     0.244 HD
ENDBRANCH  34  36
ENDBRANCH  32  34
ENDBRANCH   7  32
BRANCH   6  38
HETATM   38  C8  UNL     1      -6.158 -37.707  20.552  1.00  0.00     0.227 C 
BRANCH  38  39
HETATM   39  N4  UNL     1      -4.883 -37.029  20.468  1.00  0.00    -0.252 N 
HETATM   40  N5  UNL     1      -4.585 -35.754  20.681  1.00  0.00    -0.018 NA
HETATM   41  N6  UNL     1      -3.279 -35.538  20.495  1.00  0.00    -0.276 N 
HETATM   42  C9  UNL     1      -2.694 -36.682  20.153  1.00  0.00     0.160 A 
ATOM     43  H6  UNL     1      -2.806 -34.640  20.599  1.00  0.00     0.184 HD
HETATM   44  C11 UNL     1      -3.710 -37.639  20.134  1.00  0.00     0.148 A 
BRANCH  42  45
HETATM   45  C10 UNL     1      -1.281 -36.948  19.849  1.00  0.00     0.291 C 
HETATM   46  O2  UNL     1      -0.809 -36.590  18.739  1.00  0.00    -0.264 OA
HETATM   47  N7  UNL     1      -0.431 -37.601  20.776  1.00  0.00    -0.271 N 
ATOM     48  H7  UNL     1      -0.804 -37.895  21.679  1.00  0.00     0.189 HD
BRANCH  47  49
HETATM   49  N8  UNL     1       0.900 -37.847  20.476  1.00  0.00    -0.342 N 
ATOM     50  H82 UNL     1       1.220 -37.689  19.521  1.00  0.00     0.176 HD
ATOM     51  H81 UNL     1       1.548 -38.177  21.190  1.00  0.00     0.176 HD
ENDBRANCH  47  49
ENDBRANCH  42  45
BRANCH  44  52
HETATM   52  N9  UNL     1      -3.549 -38.879  19.858  1.00  0.00    -0.382 N 
ATOM     53  H92 UNL     1      -4.281 -39.588  19.897  1.00  0.00     0.157 HD
ATOM     54  H91 UNL     1      -2.683 -39.325  19.556  1.00  0.00     0.157 HD
ENDBRANCH  44  52
ENDBRANCH  38  39
ENDBRANCH   6  38
TORSDOF 14
ENDMDL
MODEL 4
REMARK VINA RESULT: -7.949686567      4.173      6.410
REMARK  14 active torsions:
REMARK  status: ('A' for Active; 'I' for Inactive)
REMARK    1  A    between atoms: N1_2  and  C2_5 
REMARK    2  A    between atoms: C4_8  and  C5_9 
REMARK    3  A    between atoms: C5_9  and  S1_10 
REMARK    4  A    between atoms: S1_10  and  C6_11 
REMARK    5  A    between atoms: C7_16  and  C8_17 
REMARK    6  A    between atoms: C8_17  and  N4_18 
REMARK    7  A    between atoms: C9_22  and  C10_23 
REMARK       I    between atoms: C10_23  and  N7_25 
REMARK    8  A    between atoms: N7_25  and  N8_27 
REMARK    9  A    between atoms: C11_30  and  N9_31 
REMARK   10  A    between atoms: N10_34  and  C12_35 
REMARK   11  A    between atoms: C12_35  and  N11_37 
REMARK   12  A    between atoms: N11_37  and  O3_39 
REMARK   13  A    between atoms: C15_45  and  N13_46 
REMARK   14  A    between atoms: C16_50  and  N14_51 
ROOT
HETATM    1  C6  UNL     1      -7.967 -37.202  23.812  1.00  0.00     0.168 A 
HETATM    2  N2  UNL     1      -7.319 -38.359  24.104  1.00  0.00    -0.278 N 
ATOM      3  H2  UNL     1      -7.338 -38.836  25.005  1.00  0.00     0.189 HD
HETATM    4  N3  UNL     1      -6.664 -38.766  23.040  1.00  0.00    -0.285 N 
ATOM      5  H3  UNL     1      -6.093 -39.610  22.982  1.00  0.00     0.188 HD
HETATM    6  C7  UNL     1      -6.866 -37.893  22.042  1.00  0.00     0.125 A 
HETATM    7  N10 UNL     1      -7.671 -36.935  22.531  1.00  0.00    -0.265 N 
ENDROOT
BRANCH   1   8
HETATM    8  S1  UNL     1      -8.981 -36.232  24.922  1.00  0.00    -0.087 SA
BRANCH   8   9
HETATM    9  C5  UNL     1     -10.452 -37.164  25.418  1.00  0.00     0.154 C 
BRANCH   9  10
HETATM   10  C4  UNL     1     -11.577 -37.154  24.482  1.00  0.00     0.272 C 
HETATM   11  O1  UNL     1     -11.676 -38.379  23.839  1.00  0.00    -0.350 OA
HETATM   12  C3  UNL     1     -11.965 -39.324  24.805  1.00  0.00     0.206 C 
HETATM   13  C2  UNL     1     -13.030 -39.086  25.775  1.00  0.00     0.242 C 
HETATM   14  C16 UNL     1     -13.370 -37.619  26.081  1.00  0.00     0.258 C 
HETATM   15  C15 UNL     1     -12.995 -36.909  24.861  1.00  0.00     0.234 C 
HETATM   16  C14 UNL     1     -12.713 -35.523  24.656  1.00  0.00     0.282 C 
HETATM   17  N12 UNL     1     -11.653 -35.951  23.758  1.00  0.00    -0.037 N 
ATOM     18 2H12 UNL     1     -10.824 -35.373  23.619  1.00  0.00     0.281 HD
ATOM     19 1H12 UNL     1     -11.798 -35.959  22.749  1.00  0.00     0.281 HD
BRANCH  13  20
HETATM   20  N1  UNL     1     -12.677 -39.770  27.034  1.00  0.00    -0.071 N 
HETATM   21  C1  UNL     1     -11.495 -40.578  26.699  1.00  0.00     0.267 C 
ATOM     22  H12 UNL     1     -13.443 -40.304  27.445  1.00  0.00     0.277 HD
ATOM     23  H11 UNL     1     -12.540 -39.140  27.825  1.00  0.00     0.277 HD
ENDBRANCH  13  20
BRANCH  14  24
HETATM   24  N14 UNL     1     -12.850 -37.179  27.324  1.00  0.00    -0.070 N 
ATOM     25 3H14 UNL     1     -13.226 -36.263  27.573  1.00  0.00     0.274 HD
ATOM     26 2H14 UNL     1     -13.229 -37.729  28.094  1.00  0.00     0.274 HD
ATOM     27 1H14 UNL     1     -11.830 -37.172  27.348  1.00  0.00     0.274 HD
ENDBRANCH  14  24
BRANCH  15  28
HETATM   28  N13 UNL     1     -13.887 -37.369  23.764  1.00  0.00    -0.062 N 
ATOM     29 3H13 UNL     1     -14.736 -36.809  23.696  1.00  0.00     0.275 HD
ATOM     30 2H13 UNL     1     -13.502 -37.163  22.842  1.00  0.00     0.275 HD
ATOM     31 1H13 UNL     1     -14.087 -38.362  23.885  1.00  0.00     0.275 HD
ENDBRANCH  15  28
ENDBRANCH   9  10
ENDBRANCH   8   9
ENDBRANCH   1   8
BRANCH   7  32
HETATM   32  C12 UNL     1      -8.155 -35.772  21.829  1.00  0.00     0.107 C 
HETATM   33  C13 UNL     1      -9.430 -35.839  21.086  1.00  0.00     0.091 C 
BRANCH  32  34
HETATM   34  N11 UNL     1      -7.448 -34.679  21.869  1.00  0.00    -0.257 N 
ATOM     35  H11 UNL     1      -7.036 -34.363  22.748  1.00  0.00     0.195 HD
BRANCH  34  36
HETATM   36  O3  UNL     1      -7.263 -33.960  20.722  1.00  0.00    -0.288 OA
ATOM     37  H3  UNL     1      -6.722 -33.180  20.745  1.00  0.00     0.244 HD
ENDBRANCH  34  36
ENDBRANCH  32  34
ENDBRANCH   7  32
BRANCH   6  38
HETATM   38  C8  UNL     1      -6.281 -38.004  20.706  1.00  0.00     0.227 C 
BRANCH  38  39
HETATM   39  N4  UNL     1      -5.042 -37.271  20.566  1.00  0.00    -0.252 N 
HETATM   40  N5  UNL     1      -4.796 -35.980  20.747  1.00  0.00    -0.018 NA
HETATM   41  N6  UNL     1      -3.508 -35.707  20.511  1.00  0.00    -0.276 N 
HETATM   42  C9  UNL     1      -2.884 -36.830  20.168  1.00  0.00     0.160 A 
ATOM     43  H6  UNL     1      -3.075 -34.787  20.583  1.00  0.00     0.184 HD
HETATM   44  C11 UNL     1      -3.854 -37.832  20.201  1.00  0.00     0.148 A 
BRANCH  42  45
HETATM   45  C10 UNL     1      -1.471 -37.037  19.818  1.00  0.00     0.291 C 
HETATM   46  O2  UNL     1      -1.054 -36.674  18.688  1.00  0.00    -0.264 OA
HETATM   47  N7  UNL     1      -0.561 -37.636  20.725  1.00  0.00    -0.271 N 
ATOM     48  H7  UNL     1      -0.889 -37.933  21.644  1.00  0.00     0.189 HD
BRANCH  47  49
HETATM   49  N8  UNL     1       0.769 -37.826  20.381  1.00  0.00    -0.342 N 
ATOM     50  H82 UNL     1       1.236 -37.108  19.828  1.00  0.00     0.176 HD
ATOM     51  H81 UNL     1       1.273 -38.663  20.673  1.00  0.00     0.176 HD
ENDBRANCH  47  49
ENDBRANCH  42  45
BRANCH  44  52
HETATM   52  N9  UNL     1      -3.646 -39.069  19.939  1.00  0.00    -0.382 N 
ATOM     53  H92 UNL     1      -3.274 -39.753  20.597  1.00  0.00     0.157 HD
ATOM     54  H91 UNL     1      -3.828 -39.540  19.053  1.00  0.00     0.157 HD
ENDBRANCH  44  52
ENDBRANCH  38  39
ENDBRANCH   6  38
TORSDOF 14
ENDMDL
MODEL 5
REMARK VINA RESULT: -7.910179778      2.341      8.107
REMARK  14 active torsions:
REMARK  status: ('A' for Active; 'I' for Inactive)
REMARK    1  A    between atoms: N1_2  and  C2_5 
REMARK    2  A    between atoms: C4_8  and  C5_9 
REMARK    3  A    between atoms: C5_9  and  S1_10 
REMARK    4  A    between atoms: S1_10  and  C6_11 
REMARK    5  A    between atoms: C7_16  and  C8_17 
REMARK    6  A    between atoms: C8_17  and  N4_18 
REMARK    7  A    between atoms: C9_22  and  C10_23 
REMARK       I    between atoms: C10_23  and  N7_25 
REMARK    8  A    between atoms: N7_25  and  N8_27 
REMARK    9  A    between atoms: C11_30  and  N9_31 
REMARK   10  A    between atoms: N10_34  and  C12_35 
REMARK   11  A    between atoms: C12_35  and  N11_37 
REMARK   12  A    between atoms: N11_37  and  O3_39 
REMARK   13  A    between atoms: C15_45  and  N13_46 
REMARK   14  A    between atoms: C16_50  and  N14_51 
ROOT
HETATM    1  C6  UNL     1      -5.104 -37.900  22.546  1.00  0.00     0.168 A 
HETATM    2  N2  UNL     1      -4.713 -39.193  22.683  1.00  0.00    -0.278 N 
ATOM      3  H2  UNL     1      -3.805 -39.503  23.029  1.00  0.00     0.189 HD
HETATM    4  N3  UNL     1      -5.692 -39.982  22.300  1.00  0.00    -0.285 N 
ATOM      5  H3  UNL     1      -5.666 -41.002  22.301  1.00  0.00     0.188 HD
HETATM    6  C7  UNL     1      -6.731 -39.230  21.908  1.00  0.00     0.125 A 
HETATM    7  N10 UNL     1      -6.355 -37.949  22.065  1.00  0.00    -0.265 N 
ENDROOT
BRANCH   1   8
HETATM    8  S1  UNL     1      -4.132 -36.441  22.911  1.00  0.00    -0.087 SA
BRANCH   8   9
HETATM    9  C5  UNL     1      -2.574 -36.469  21.989  1.00  0.00     0.154 C 
BRANCH   9  10
HETATM   10  C4  UNL     1      -2.667 -36.247  20.545  1.00  0.00     0.272 C 
HETATM   11  O1  UNL     1      -2.586 -34.892  20.263  1.00  0.00    -0.350 OA
HETATM   12  C3  UNL     1      -1.329 -34.469  20.655  1.00  0.00     0.206 C 
HETATM   13  C2  UNL     1      -0.141 -35.220  20.261  1.00  0.00     0.242 C 
HETATM   14  C16 UNL     1      -0.335 -36.715  19.966  1.00  0.00     0.258 C 
HETATM   15  C15 UNL     1      -1.728 -36.812  19.537  1.00  0.00     0.234 C 
HETATM   16  C14 UNL     1      -2.600 -37.943  19.496  1.00  0.00     0.282 C 
HETATM   17  N12 UNL     1      -3.655 -37.051  19.947  1.00  0.00    -0.037 N 
ATOM     18 2H12 UNL     1      -4.438 -37.406  20.495  1.00  0.00     0.281 HD
ATOM     19 1H12 UNL     1      -4.319 -36.652  19.284  1.00  0.00     0.281 HD
BRANCH  13  20
HETATM   20  N1  UNL     1       0.880 -35.067  21.315  1.00  0.00    -0.071 N 
HETATM   21  C1  UNL     1       1.246 -33.643  21.273  1.00  0.00     0.267 C 
ATOM     22  H12 UNL     1       1.672 -35.703  21.221  1.00  0.00     0.277 HD
ATOM     23  H11 UNL     1       0.580 -35.393  22.234  1.00  0.00     0.277 HD
ENDBRANCH  13  20
BRANCH  14  24
HETATM   24  N14 UNL     1       0.122 -37.550  21.017  1.00  0.00    -0.070 N 
ATOM     25 3H14 UNL     1       0.751 -38.271  20.662  1.00  0.00     0.274 HD
ATOM     26 2H14 UNL     1       0.769 -37.048  21.625  1.00  0.00     0.274 HD
ATOM     27 1H14 UNL     1      -0.639 -37.963  21.556  1.00  0.00     0.274 HD
ENDBRANCH  14  24
BRANCH  15  28
HETATM   28  N13 UNL     1      -1.871 -36.068  18.258  1.00  0.00    -0.062 N 
ATOM     29 3H13 UNL     1      -2.299 -36.636  17.527  1.00  0.00     0.275 HD
ATOM     30 2H13 UNL     1      -2.584 -35.340  18.312  1.00  0.00     0.275 HD
ATOM     31 1H13 UNL     1      -0.963 -35.698  17.978  1.00  0.00     0.275 HD
ENDBRANCH  15  28
ENDBRANCH   9  10
ENDBRANCH   8   9
ENDBRANCH   1   8
BRANCH   7  32
HETATM   32  C12 UNL     1      -7.138 -36.776  21.762  1.00  0.00     0.107 C 
HETATM   33  C13 UNL     1      -7.885 -36.091  22.837  1.00  0.00     0.091 C 
BRANCH  32  34
HETATM   34  N11 UNL     1      -7.165 -36.344  20.533  1.00  0.00    -0.257 N 
ATOM     35  H11 UNL     1      -7.728 -35.530  20.285  1.00  0.00     0.195 HD
BRANCH  34  36
HETATM   36  O3  UNL     1      -6.430 -36.992  19.581  1.00  0.00    -0.288 OA
ATOM     37  H3  UNL     1      -6.662 -37.882  19.343  1.00  0.00     0.244 HD
ENDBRANCH  34  36
ENDBRANCH  32  34
ENDBRANCH   7  32
BRANCH   6  38
HETATM   38  C8  UNL     1      -7.997 -39.757  21.398  1.00  0.00     0.227 C 
BRANCH  38  39
HETATM   39  N4  UNL     1      -7.826 -40.901  20.529  1.00  0.00    -0.252 N 
HETATM   40  N5  UNL     1      -8.262 -42.146  20.672  1.00  0.00    -0.018 NA
HETATM   41  N6  UNL     1      -7.883 -42.900  19.635  1.00  0.00    -0.276 N 
HETATM   42  C9  UNL     1      -7.184 -42.150  18.787  1.00  0.00     0.160 A 
ATOM     43  H6  UNL     1      -8.095 -43.890  19.513  1.00  0.00     0.184 HD
HETATM   44  C11 UNL     1      -7.143 -40.874  19.349  1.00  0.00     0.148 A 
BRANCH  42  45
HETATM   45  C10 UNL     1      -6.562 -42.528  17.510  1.00  0.00     0.291 C 
HETATM   46  O2  UNL     1      -5.348 -42.266  17.311  1.00  0.00    -0.264 OA
HETATM   47  N7  UNL     1      -7.297 -43.184  16.490  1.00  0.00    -0.271 N 
ATOM     48  H7  UNL     1      -8.281 -43.402  16.642  1.00  0.00     0.189 HD
BRANCH  47  49
HETATM   49  N8  UNL     1      -6.697 -43.535  15.290  1.00  0.00    -0.342 N 
ATOM     50  H82 UNL     1      -6.572 -44.524  15.080  1.00  0.00     0.176 HD
ATOM     51  H81 UNL     1      -6.387 -42.822  14.630  1.00  0.00     0.176 HD
ENDBRANCH  47  49
ENDBRANCH  42  45
BRANCH  44  52
HETATM   52  N9  UNL     1      -6.567 -39.856  18.827  1.00  0.00    -0.382 N 
ATOM     53  H92 UNL     1      -5.558 -39.722  18.765  1.00  0.00     0.157 HD
ATOM     54  H91 UNL     1      -7.027 -39.053  18.399  1.00  0.00     0.157 HD
ENDBRANCH  44  52
ENDBRANCH  38  39
ENDBRANCH   6  38
TORSDOF 14
ENDMDL
