MODEL 1
REMARK VINA RESULT: -8.252605461      0.000      0.000
REMARK  11 active torsions:
REMARK  status: ('A' for Active; 'I' for Inactive)
REMARK    1  A    between atoms: C2_2  and  C13_43 
REMARK    2  A    between atoms: N1_3  and  N2_5 
REMARK       I    between atoms: N2_5  and  C3_7 
REMARK       I    between atoms: C3_7  and  N4_11 
REMARK       I    between atoms: N4_11  and  C4_13 
REMARK    3  A    between atoms: C4_13  and  C5_15 
REMARK    4  A    between atoms: C5_15  and  O2_16 
REMARK    5  A    between atoms: C5_15  and  C6_18 
REMARK    6  A    between atoms: C5_15  and  C9_31 
REMARK    7  A    between atoms: C6_18  and  S1_19 
REMARK    8  A    between atoms: S1_19  and  C7_20 
REMARK       I    between atoms: N7_25  and  C8_26 
REMARK    9  A    between atoms: C10_34  and  C11_35 
REMARK   10  A    between atoms: C11_35  and  O4_36 
REMARK   11  A    between atoms: C11_35  and  O5_38 
ROOT
HETATM    1  C5  UNL     1       2.040 -35.013  22.194  1.00  0.00     0.192 C 
ENDROOT
BRANCH   1   2
HETATM    2  C4  UNL     1       0.896 -35.066  21.237  1.00  0.00     0.277 C 
HETATM    3  N4  UNL     1       1.074 -35.275  19.852  1.00  0.00    -0.156 N 
HETATM    4  C3  UNL     1      -0.040 -35.316  18.979  1.00  0.00     0.693 C 
ATOM      5  H4  UNL     1       2.015 -35.396  19.476  1.00  0.00     0.187 HD
HETATM    6  N2  UNL     1      -1.358 -35.144  19.471  1.00  0.00    -0.132 N 
HETATM    7  N3  UNL     1       0.171 -35.511  17.728  1.00  0.00    -0.233 N 
ATOM      8  H2  UNL     1      -1.629 -34.219  19.803  1.00  0.00     0.205 HD
ATOM      9  H32 UNL     1      -0.632 -35.542  17.099  1.00  0.00     0.174 HD
ATOM     10  H31 UNL     1       1.119 -35.635  17.373  1.00  0.00     0.174 HD
HETATM   11  O1  UNL     1      -0.265 -34.915  21.699  1.00  0.00    -0.269 OA
BRANCH   6  12
HETATM   12  N1  UNL     1      -2.301 -36.164  19.528  1.00  0.00    -0.286 N 
HETATM   13  C2  UNL     1      -3.310 -36.222  20.313  1.00  0.00     0.087 C 
HETATM   14  C1  UNL     1      -4.235 -37.415  20.234  1.00  0.00     0.075 C 
ATOM     15  H1  UNL     1      -2.178 -36.943  18.881  1.00  0.00     0.187 HD
BRANCH  13  16
HETATM   16  C13 UNL     1      -3.600 -35.180  21.276  1.00  0.00     0.278 C 
HETATM   17  N12 UNL     1      -4.089 -33.932  20.841  1.00  0.00    -0.056 NA
HETATM   18  O6  UNL     1      -3.414 -35.396  22.490  1.00  0.00    -0.270 OA
ENDBRANCH  13  16
ENDBRANCH   6  12
ENDBRANCH   1   2
BRANCH   1  19
HETATM   19  O2  UNL     1       3.204 -35.558  21.666  1.00  0.00    -0.373 OA
ATOM     20  H2  UNL     1       3.959 -35.422  22.228  1.00  0.00     0.211 HD
ENDBRANCH   1  19
BRANCH   1  21
HETATM   21  C6  UNL     1       1.678 -35.712  23.468  1.00  0.00     0.137 C 
BRANCH  21  22
HETATM   22  S1  UNL     1       1.608 -37.491  23.186  1.00  0.00    -0.087 SA
BRANCH  22  23
HETATM   23  C7  UNL     1      -0.070 -38.107  23.116  1.00  0.00     0.176 A 
HETATM   24  N5  UNL     1      -1.209 -37.416  23.129  1.00  0.00    -0.262 N 
HETATM   25  N6  UNL     1      -2.202 -38.268  23.063  1.00  0.00    -0.215 N 
ATOM     26  H5  UNL     1      -1.293 -36.401  23.181  1.00  0.00     0.190 HD
HETATM   27  N7  UNL     1      -1.694 -39.484  23.010  1.00  0.00    -0.128 N 
ATOM     28  H6  UNL     1      -3.194 -38.031  23.054  1.00  0.00     0.210 HD
HETATM   29  C8  UNL     1      -2.427 -40.707  22.930  1.00  0.00     0.370 C 
HETATM   30  N9  UNL     1      -0.379 -39.402  23.042  1.00  0.00    -0.252 N 
HETATM   31  N8  UNL     1      -3.833 -40.668  22.904  1.00  0.00    -0.037 NA
HETATM   32  O3  UNL     1      -1.799 -41.802  22.884  1.00  0.00    -0.247 OA
ATOM     33  H9  UNL     1       0.278 -40.182  23.014  1.00  0.00     0.191 HD
ENDBRANCH  22  23
ENDBRANCH  21  22
ENDBRANCH   1  21
BRANCH   1  34
HETATM   34  C9  UNL     1       2.356 -33.549  22.463  1.00  0.00     0.086 A 
HETATM   35  N10 UNL     1       2.165 -32.954  23.612  1.00  0.00    -0.348 N 
HETATM   36  C10 UNL     1       2.467 -31.681  23.747  1.00  0.00     0.108 A 
ATOM     37  H10 UNL     1       1.782 -33.474  24.401  1.00  0.00     0.166 HD
HETATM   38  S2  UNL     1       3.054 -31.264  22.207  1.00  0.00    -0.055 SA
HETATM   39  C12 UNL     1       2.875 -32.793  21.444  1.00  0.00     0.115 A 
HETATM   40  N11 UNL     1       3.185 -33.189  20.092  1.00  0.00    -0.092 NA
BRANCH  36  41
HETATM   41  C11 UNL     1       2.351 -30.765  24.930  1.00  0.00     0.312 C 
BRANCH  41  42
HETATM   42  O4  UNL     1       3.596 -30.234  25.266  1.00  0.00    -0.365 OA
ATOM     43  H4  UNL     1       3.879 -29.603  24.615  1.00  0.00     0.213 HD
ENDBRANCH  41  42
BRANCH  41  44
HETATM   44  O5  UNL     1       1.566 -29.678  24.489  1.00  0.00    -0.365 OA
ATOM     45  H5  UNL     1       0.698 -29.832  24.845  1.00  0.00     0.213 HD
ENDBRANCH  41  44
ENDBRANCH  36  41
ENDBRANCH   1  34
TORSDOF 11
ENDMDL
MODEL 2
REMARK VINA RESULT: -8.178683152      2.890      7.432
REMARK  11 active torsions:
REMARK  status: ('A' for Active; 'I' for Inactive)
REMARK    1  A    between atoms: C2_2  and  C13_43 
REMARK    2  A    between atoms: N1_3  and  N2_5 
REMARK       I    between atoms: N2_5  and  C3_7 
REMARK       I    between atoms: C3_7  and  N4_11 
REMARK       I    between atoms: N4_11  and  C4_13 
REMARK    3  A    between atoms: C4_13  and  C5_15 
REMARK    4  A    between atoms: C5_15  and  O2_16 
REMARK    5  A    between atoms: C5_15  and  C6_18 
REMARK    6  A    between atoms: C5_15  and  C9_31 
REMARK    7  A    between atoms: C6_18  and  S1_19 
REMARK    8  A    between atoms: S1_19  and  C7_20 
REMARK       I    between atoms: N7_25  and  C8_26 
REMARK    9  A    between atoms: C10_34  and  C11_35 
REMARK   10  A    between atoms: C11_35  and  O4_36 
REMARK   11  A    between atoms: C11_35  and  O5_38 
ROOT
HETATM    1  C5  UNL     1      -1.971 -35.851  19.981  1.00  0.00     0.192 C 
ENDROOT
BRANCH   1   2
HETATM    2  C4  UNL     1      -1.012 -36.410  20.979  1.00  0.00     0.277 C 
HETATM    3  N4  UNL     1      -1.017 -36.024  22.337  1.00  0.00    -0.156 N 
HETATM    4  C3  UNL     1      -0.088 -36.579  23.249  1.00  0.00     0.693 C 
ATOM      5  H4  UNL     1      -1.697 -35.337  22.663  1.00  0.00     0.187 HD
HETATM    6  N2  UNL     1       0.872 -37.530  22.823  1.00  0.00    -0.132 N 
HETATM    7  N3  UNL     1      -0.133 -36.198  24.475  1.00  0.00    -0.233 N 
ATOM      8  H2  UNL     1       1.629 -37.210  22.218  1.00  0.00     0.205 HD
ATOM      9  H32 UNL     1       0.536 -36.598  25.132  1.00  0.00     0.174 HD
ATOM     10  H31 UNL     1      -0.824 -35.514  24.781  1.00  0.00     0.174 HD
HETATM   11  O1  UNL     1      -0.172 -37.257  20.577  1.00  0.00    -0.269 OA
BRANCH   6  12
HETATM   12  N1  UNL     1       0.841 -38.873  23.181  1.00  0.00    -0.286 N 
HETATM   13  C2  UNL     1       1.392 -39.397  24.211  1.00  0.00     0.087 C 
HETATM   14  C1  UNL     1       1.254 -40.884  24.440  1.00  0.00     0.075 C 
ATOM     15  H1  UNL     1       0.330 -39.503  22.563  1.00  0.00     0.187 HD
BRANCH  13  16
HETATM   16  C13 UNL     1       2.143 -38.612  25.168  1.00  0.00     0.278 C 
HETATM   17  N12 UNL     1       2.036 -38.886  26.546  1.00  0.00    -0.056 NA
HETATM   18  O6  UNL     1       2.884 -37.694  24.763  1.00  0.00    -0.270 OA
ENDBRANCH  13  16
ENDBRANCH   6  12
ENDBRANCH   1   2
BRANCH   1  19
HETATM   19  O2  UNL     1      -1.915 -36.510  18.759  1.00  0.00    -0.373 OA
ATOM     20  H2  UNL     1      -2.303 -37.377  18.793  1.00  0.00     0.211 HD
ENDBRANCH   1  19
BRANCH   1  21
HETATM   21  C6  UNL     1      -1.719 -34.388  19.788  1.00  0.00     0.137 C 
BRANCH  21  22
HETATM   22  S1  UNL     1      -0.196 -34.153  18.853  1.00  0.00    -0.087 SA
BRANCH  22  23
HETATM   23  C7  UNL     1       1.210 -33.824  19.908  1.00  0.00     0.176 A 
HETATM   24  N5  UNL     1       2.465 -33.543  19.557  1.00  0.00    -0.262 N 
HETATM   25  N6  UNL     1       3.165 -33.375  20.651  1.00  0.00    -0.215 N 
ATOM     26  H5  UNL     1       2.818 -33.471  18.602  1.00  0.00     0.190 HD
HETATM   27  N7  UNL     1       2.361 -33.549  21.682  1.00  0.00    -0.128 N 
ATOM     28  H6  UNL     1       4.159 -33.149  20.697  1.00  0.00     0.210 HD
HETATM   29  C8  UNL     1       2.718 -33.456  23.062  1.00  0.00     0.370 C 
HETATM   30  N9  UNL     1       1.151 -33.827  21.240  1.00  0.00    -0.252 N 
HETATM   31  N8  UNL     1       4.047 -33.154  23.411  1.00  0.00    -0.037 NA
HETATM   32  O3  UNL     1       1.834 -33.649  23.943  1.00  0.00    -0.247 OA
ATOM     33  H9  UNL     1       0.325 -34.009  21.811  1.00  0.00     0.191 HD
ENDBRANCH  22  23
ENDBRANCH  21  22
ENDBRANCH   1  21
BRANCH   1  34
HETATM   34  C9  UNL     1      -3.380 -36.083  20.508  1.00  0.00     0.086 A 
HETATM   35  N10 UNL     1      -4.166 -35.134  20.949  1.00  0.00    -0.348 N 
HETATM   36  C10 UNL     1      -5.369 -35.433  21.388  1.00  0.00     0.108 A 
ATOM     37  H10 UNL     1      -3.847 -34.165  20.951  1.00  0.00     0.166 HD
HETATM   38  S2  UNL     1      -5.438 -37.119  21.187  1.00  0.00    -0.055 SA
HETATM   39  C12 UNL     1      -3.870 -37.362  20.530  1.00  0.00     0.115 A 
HETATM   40  N11 UNL     1      -3.228 -38.583  20.107  1.00  0.00    -0.092 NA
BRANCH  36  41
HETATM   41  C11 UNL     1      -6.457 -34.560  21.939  1.00  0.00     0.312 C 
BRANCH  41  42
HETATM   42  O4  UNL     1      -6.042 -33.230  21.996  1.00  0.00    -0.365 OA
ATOM     43  H4  UNL     1      -6.017 -32.848  21.126  1.00  0.00     0.213 HD
ENDBRANCH  41  42
BRANCH  41  44
HETATM   44  O5  UNL     1      -7.497 -34.606  20.985  1.00  0.00    -0.365 OA
ATOM     45  H5  UNL     1      -7.881 -35.471  21.072  1.00  0.00     0.213 HD
ENDBRANCH  41  44
ENDBRANCH  36  41
ENDBRANCH   1  34
TORSDOF 11
ENDMDL
MODEL 3
REMARK VINA RESULT: -8.111778783      4.147      7.410
REMARK  11 active torsions:
REMARK  status: ('A' for Active; 'I' for Inactive)
REMARK    1  A    between atoms: C2_2  and  C13_43 
REMARK    2  A    between atoms: N1_3  and  N2_5 
REMARK       I    between atoms: N2_5  and  C3_7 
REMARK       I    between atoms: C3_7  and  N4_11 
REMARK       I    between atoms: N4_11  and  C4_13 
REMARK    3  A    between atoms: C4_13  and  C5_15 
REMARK    4  A    between atoms: C5_15  and  O2_16 
REMARK    5  A    between atoms: C5_15  and  C6_18 
REMARK    6  A    between atoms: C5_15  and  C9_31 
REMARK    7  A    between atoms: C6_18  and  S1_19 
REMARK    8  A    between atoms: S1_19  and  C7_20 
REMARK       I    between atoms: N7_25  and  C8_26 
REMARK    9  A    between atoms: C10_34  and  C11_35 
REMARK   10  A    between atoms: C11_35  and  O4_36 
REMARK   11  A    between atoms: C11_35  and  O5_38 
ROOT
HETATM    1  C5  UNL     1      -3.269 -38.306  21.407  1.00  0.00     0.192 C 
ENDROOT
BRANCH   1   2
HETATM    2  C4  UNL     1      -1.967 -37.588  21.543  1.00  0.00     0.277 C 
HETATM    3  N4  UNL     1      -0.848 -37.888  20.737  1.00  0.00    -0.156 N 
HETATM    4  C3  UNL     1       0.369 -37.182  20.900  1.00  0.00     0.693 C 
ATOM      5  H4  UNL     1      -0.916 -38.620  20.029  1.00  0.00     0.187 HD
HETATM    6  N2  UNL     1       0.495 -36.166  21.879  1.00  0.00    -0.132 N 
HETATM    7  N3  UNL     1       1.359 -37.488  20.142  1.00  0.00    -0.233 N 
ATOM      8  H2  UNL     1       0.502 -36.442  22.860  1.00  0.00     0.205 HD
ATOM      9  H32 UNL     1       2.236 -36.980  20.259  1.00  0.00     0.174 HD
ATOM     10  H31 UNL     1       1.268 -38.220  19.438  1.00  0.00     0.174 HD
HETATM   11  O1  UNL     1      -1.882 -36.686  22.416  1.00  0.00    -0.269 OA
BRANCH   6  12
HETATM   12  N1  UNL     1       0.610 -34.813  21.577  1.00  0.00    -0.286 N 
HETATM   13  C2  UNL     1       1.653 -34.087  21.731  1.00  0.00     0.087 C 
HETATM   14  C1  UNL     1       1.594 -32.626  21.348  1.00  0.00     0.075 C 
ATOM     15  H1  UNL     1      -0.217 -34.354  21.197  1.00  0.00     0.187 HD
BRANCH  13  16
HETATM   16  C13 UNL     1       2.892 -34.618  22.257  1.00  0.00     0.278 C 
HETATM   17  N12 UNL     1       3.671 -33.849  23.145  1.00  0.00    -0.056 NA
HETATM   18  O6  UNL     1       3.264 -35.760  21.920  1.00  0.00    -0.270 OA
ENDBRANCH  13  16
ENDBRANCH   6  12
ENDBRANCH   1   2
BRANCH   1  19
HETATM   19  O2  UNL     1      -3.431 -39.305  22.358  1.00  0.00    -0.373 OA
ATOM     20  H2  UNL     1      -3.655 -40.144  21.972  1.00  0.00     0.211 HD
ENDBRANCH   1  19
BRANCH   1  21
HETATM   21  C6  UNL     1      -3.400 -38.880  20.031  1.00  0.00     0.137 C 
BRANCH  21  22
HETATM   22  S1  UNL     1      -3.769 -40.642  20.142  1.00  0.00    -0.087 SA
BRANCH  22  23
HETATM   23  C7  UNL     1      -4.577 -41.264  18.673  1.00  0.00     0.176 A 
HETATM   24  N5  UNL     1      -5.302 -40.595  17.777  1.00  0.00    -0.262 N 
HETATM   25  N6  UNL     1      -5.704 -41.444  16.863  1.00  0.00    -0.215 N 
ATOM     26  H5  UNL     1      -5.508 -39.596  17.798  1.00  0.00     0.190 HD
HETATM   27  N7  UNL     1      -5.238 -42.636  17.180  1.00  0.00    -0.128 N 
ATOM     28  H6  UNL     1      -6.277 -41.221  16.049  1.00  0.00     0.210 HD
HETATM   29  C8  UNL     1      -5.441 -43.849  16.452  1.00  0.00     0.370 C 
HETATM   30  N9  UNL     1      -4.540 -42.543  18.294  1.00  0.00    -0.252 N 
HETATM   31  N8  UNL     1      -6.208 -43.824  15.273  1.00  0.00    -0.037 NA
HETATM   32  O3  UNL     1      -4.928 -44.920  16.881  1.00  0.00    -0.247 OA
ATOM     33  H9  UNL     1      -4.062 -43.304  18.776  1.00  0.00     0.191 HD
ENDBRANCH  22  23
ENDBRANCH  21  22
ENDBRANCH   1  21
BRANCH   1  34
HETATM   34  C9  UNL     1      -4.384 -37.303  21.672  1.00  0.00     0.086 A 
HETATM   35  N10 UNL     1      -4.363 -36.057  21.272  1.00  0.00    -0.348 N 
HETATM   36  C10 UNL     1      -5.375 -35.265  21.552  1.00  0.00     0.108 A 
ATOM     37  H10 UNL     1      -3.566 -35.702  20.746  1.00  0.00     0.166 HD
HETATM   38  S2  UNL     1      -6.427 -36.282  22.416  1.00  0.00    -0.055 SA
HETATM   39  C12 UNL     1      -5.486 -37.718  22.373  1.00  0.00     0.115 A 
HETATM   40  N11 UNL     1      -5.768 -39.021  22.924  1.00  0.00    -0.092 NA
BRANCH  36  41
HETATM   41  C11 UNL     1      -5.609 -33.820  21.223  1.00  0.00     0.312 C 
BRANCH  41  42
HETATM   42  O4  UNL     1      -6.307 -33.694  20.023  1.00  0.00    -0.365 OA
ATOM     43  H4  UNL     1      -6.005 -32.935  19.537  1.00  0.00     0.213 HD
ENDBRANCH  41  42
BRANCH  41  44
HETATM   44  O5  UNL     1      -6.472 -33.339  22.232  1.00  0.00    -0.365 OA
ATOM     45  H5  UNL     1      -7.210 -32.957  21.773  1.00  0.00     0.213 HD
ENDBRANCH  41  44
ENDBRANCH  36  41
ENDBRANCH   1  34
TORSDOF 11
ENDMDL
MODEL 4
REMARK VINA RESULT: -8.060009431      1.253      1.355
REMARK  11 active torsions:
REMARK  status: ('A' for Active; 'I' for Inactive)
REMARK    1  A    between atoms: C2_2  and  C13_43 
REMARK    2  A    between atoms: N1_3  and  N2_5 
REMARK       I    between atoms: N2_5  and  C3_7 
REMARK       I    between atoms: C3_7  and  N4_11 
REMARK       I    between atoms: N4_11  and  C4_13 
REMARK    3  A    between atoms: C4_13  and  C5_15 
REMARK    4  A    between atoms: C5_15  and  O2_16 
REMARK    5  A    between atoms: C5_15  and  C6_18 
REMARK    6  A    between atoms: C5_15  and  C9_31 
REMARK    7  A    between atoms: C6_18  and  S1_19 
REMARK    8  A    between atoms: S1_19  and  C7_20 
REMARK       I    between atoms: N7_25  and  C8_26 
REMARK    9  A    between atoms: C10_34  and  C11_35 
REMARK   10  A    between atoms: C11_35  and  O4_36 
REMARK   11  A    between atoms: C11_35  and  O5_38 
ROOT
HETATM    1  C5  UNL     1       2.216 -35.050  22.369  1.00  0.00     0.192 C 
ENDROOT
BRANCH   1   2
HETATM    2  C4  UNL     1       1.079 -35.384  21.461  1.00  0.00     0.277 C 
HETATM    3  N4  UNL     1       1.124 -36.465  20.554  1.00  0.00    -0.156 N 
HETATM    4  C3  UNL     1       0.022 -36.745  19.710  1.00  0.00     0.693 C 
ATOM      5  H4  UNL     1       1.958 -37.050  20.506  1.00  0.00     0.187 HD
HETATM    6  N2  UNL     1      -1.147 -35.946  19.749  1.00  0.00    -0.132 N 
HETATM    7  N3  UNL     1       0.108 -37.741  18.903  1.00  0.00    -0.233 N 
ATOM      8  H2  UNL     1      -1.090 -34.993  19.389  1.00  0.00     0.205 HD
ATOM      9  H32 UNL     1      -0.686 -37.943  18.295  1.00  0.00     0.174 HD
ATOM     10  H31 UNL     1       0.949 -38.316  18.875  1.00  0.00     0.174 HD
HETATM   11  O1  UNL     1       0.050 -34.662  21.518  1.00  0.00    -0.269 OA
BRANCH   6  12
HETATM   12  N1  UNL     1      -2.368 -36.385  20.250  1.00  0.00    -0.286 N 
HETATM   13  C2  UNL     1      -3.316 -35.648  20.692  1.00  0.00     0.087 C 
HETATM   14  C1  UNL     1      -4.579 -36.305  21.202  1.00  0.00     0.075 C 
ATOM     15  H1  UNL     1      -2.522 -37.393  20.268  1.00  0.00     0.187 HD
BRANCH  13  16
HETATM   16  C13 UNL     1      -3.224 -34.204  20.717  1.00  0.00     0.278 C 
HETATM   17  N12 UNL     1      -2.874 -33.497  19.549  1.00  0.00    -0.056 NA
HETATM   18  O6  UNL     1      -3.456 -33.592  21.779  1.00  0.00    -0.270 OA
ENDBRANCH  13  16
ENDBRANCH   6  12
ENDBRANCH   1   2
BRANCH   1  19
HETATM   19  O2  UNL     1       3.430 -35.547  21.910  1.00  0.00    -0.373 OA
ATOM     20  H2  UNL     1       4.095 -34.872  21.833  1.00  0.00     0.211 HD
ENDBRANCH   1  19
BRANCH   1  21
HETATM   21  C6  UNL     1       1.940 -35.560  23.749  1.00  0.00     0.137 C 
BRANCH  21  22
HETATM   22  S1  UNL     1       2.220 -37.341  23.804  1.00  0.00    -0.087 SA
BRANCH  22  23
HETATM   23  C7  UNL     1       0.695 -38.269  23.921  1.00  0.00     0.176 A 
HETATM   24  N5  UNL     1       0.206 -38.933  24.967  1.00  0.00    -0.262 N 
HETATM   25  N6  UNL     1      -0.936 -39.469  24.611  1.00  0.00    -0.215 N 
ATOM     26  H5  UNL     1       0.643 -39.011  25.885  1.00  0.00     0.190 HD
HETATM   27  N7  UNL     1      -1.163 -39.146  23.352  1.00  0.00    -0.128 N 
ATOM     28  H6  UNL     1      -1.542 -40.036  25.203  1.00  0.00     0.210 HD
HETATM   29  C8  UNL     1      -2.298 -39.524  22.570  1.00  0.00     0.370 C 
HETATM   30  N9  UNL     1      -0.166 -38.406  22.911  1.00  0.00    -0.252 N 
HETATM   31  N8  UNL     1      -3.301 -40.320  23.152  1.00  0.00    -0.037 NA
HETATM   32  O3  UNL     1      -2.378 -39.136  21.371  1.00  0.00    -0.247 OA
ATOM     33  H9  UNL     1      -0.071 -38.012  21.975  1.00  0.00     0.191 HD
ENDBRANCH  22  23
ENDBRANCH  21  22
ENDBRANCH   1  21
BRANCH   1  34
HETATM   34  C9  UNL     1       2.371 -33.536  22.384  1.00  0.00     0.086 A 
HETATM   35  N10 UNL     1       2.149 -32.784  23.432  1.00  0.00    -0.348 N 
HETATM   36  C10 UNL     1       2.308 -31.481  23.346  1.00  0.00     0.108 A 
ATOM     37  H10 UNL     1       1.852 -33.206  24.311  1.00  0.00     0.166 HD
HETATM   38  S2  UNL     1       2.796 -31.263  21.733  1.00  0.00    -0.055 SA
HETATM   39  C12 UNL     1       2.769 -32.906  21.234  1.00  0.00     0.115 A 
HETATM   40  N11 UNL     1       3.081 -33.483  19.949  1.00  0.00    -0.092 NA
BRANCH  36  41
HETATM   41  C11 UNL     1       2.125 -30.401  24.372  1.00  0.00     0.312 C 
BRANCH  41  42
HETATM   42  O4  UNL     1       1.915 -30.952  25.635  1.00  0.00    -0.365 OA
ATOM     43  H4  UNL     1       1.030 -31.288  25.712  1.00  0.00     0.213 HD
ENDBRANCH  41  42
BRANCH  41  44
HETATM   44  O5  UNL     1       3.365 -29.730  24.437  1.00  0.00    -0.365 OA
ATOM     45  H5  UNL     1       3.353 -29.254  25.259  1.00  0.00     0.213 HD
ENDBRANCH  41  44
ENDBRANCH  36  41
ENDBRANCH   1  34
TORSDOF 11
ENDMDL
MODEL 5
REMARK VINA RESULT: -7.940849414      2.880      6.431
REMARK  11 active torsions:
REMARK  status: ('A' for Active; 'I' for Inactive)
REMARK    1  A    between atoms: C2_2  and  C13_43 
REMARK    2  A    between atoms: N1_3  and  N2_5 
REMARK       I    between atoms: N2_5  and  C3_7 
REMARK       I    between atoms: C3_7  and  N4_11 
REMARK       I    between atoms: N4_11  and  C4_13 
REMARK    3  A    between atoms: C4_13  and  C5_15 
REMARK    4  A    between atoms: C5_15  and  O2_16 
REMARK    5  A    between atoms: C5_15  and  C6_18 
REMARK    6  A    between atoms: C5_15  and  C9_31 
REMARK    7  A    between atoms: C6_18  and  S1_19 
REMARK    8  A    between atoms: S1_19  and  C7_20 
REMARK       I    between atoms: N7_25  and  C8_26 
REMARK    9  A    between atoms: C10_34  and  C11_35 
REMARK   10  A    between atoms: C11_35  and  O4_36 
REMARK   11  A    between atoms: C11_35  and  O5_38 
ROOT
HETATM    1  C5  UNL     1      -2.075 -35.308  20.518  1.00  0.00     0.192 C 
ENDROOT
BRANCH   1   2
HETATM    2  C4  UNL     1      -3.347 -36.086  20.461  1.00  0.00     0.277 C 
HETATM    3  N4  UNL     1      -3.390 -37.443  20.074  1.00  0.00    -0.156 N 
HETATM    4  C3  UNL     1      -4.620 -38.143  20.033  1.00  0.00     0.693 C 
ATOM      5  H4  UNL     1      -2.527 -37.924  19.822  1.00  0.00     0.187 HD
HETATM    6  N2  UNL     1      -5.836 -37.500  20.372  1.00  0.00    -0.132 N 
HETATM    7  N3  UNL     1      -4.610 -39.377  19.678  1.00  0.00    -0.233 N 
ATOM      8  H2  UNL     1      -6.198 -36.790  19.735  1.00  0.00     0.205 HD
ATOM      9  H32 UNL     1      -5.495 -39.882  19.648  1.00  0.00     0.174 HD
ATOM     10  H31 UNL     1      -3.734 -39.840  19.434  1.00  0.00     0.174 HD
HETATM   11  O1  UNL     1      -4.413 -35.494  20.772  1.00  0.00    -0.269 OA
BRANCH   6  12
HETATM   12  N1  UNL     1      -6.565 -37.780  21.523  1.00  0.00    -0.286 N 
HETATM   13  C2  UNL     1      -7.592 -37.144  21.945  1.00  0.00     0.087 C 
HETATM   14  C1  UNL     1      -8.258 -37.593  23.225  1.00  0.00     0.075 C 
ATOM     15  H1  UNL     1      -6.249 -38.570  22.087  1.00  0.00     0.187 HD
BRANCH  13  16
HETATM   16  C13 UNL     1      -8.140 -36.007  21.236  1.00  0.00     0.278 C 
HETATM   17  N12 UNL     1      -9.436 -36.077  20.684  1.00  0.00    -0.056 NA
HETATM   18  O6  UNL     1      -7.460 -34.969  21.119  1.00  0.00    -0.270 OA
ENDBRANCH  13  16
ENDBRANCH   6  12
ENDBRANCH   1   2
BRANCH   1  19
HETATM   19  O2  UNL     1      -2.241 -34.052  21.090  1.00  0.00    -0.373 OA
ATOM     20  H2  UNL     1      -1.424 -33.683  21.405  1.00  0.00     0.211 HD
ENDBRANCH   1  19
BRANCH   1  21
HETATM   21  C6  UNL     1      -1.490 -35.174  19.147  1.00  0.00     0.137 C 
BRANCH  21  22
HETATM   22  S1  UNL     1      -0.629 -33.596  19.006  1.00  0.00    -0.087 SA
BRANCH  22  23
HETATM   23  C7  UNL     1       0.878 -33.551  19.969  1.00  0.00     0.176 A 
HETATM   24  N5  UNL     1       2.115 -33.869  19.590  1.00  0.00    -0.262 N 
HETATM   25  N6  UNL     1       2.912 -33.690  20.614  1.00  0.00    -0.215 N 
ATOM     26  H5  UNL     1       2.393 -34.195  18.665  1.00  0.00     0.190 HD
HETATM   27  N7  UNL     1       2.184 -33.263  21.628  1.00  0.00    -0.128 N 
ATOM     28  H6  UNL     1       3.919 -33.852  20.625  1.00  0.00     0.210 HD
HETATM   29  C8  UNL     1       2.657 -32.945  22.938  1.00  0.00     0.370 C 
HETATM   30  N9  UNL     1       0.926 -33.172  21.247  1.00  0.00    -0.252 N 
HETATM   31  N8  UNL     1       4.027 -33.083  23.229  1.00  0.00    -0.037 NA
HETATM   32  O3  UNL     1       1.837 -32.545  23.811  1.00  0.00    -0.247 OA
ATOM     33  H9  UNL     1       0.139 -32.869  21.820  1.00  0.00     0.191 HD
ENDBRANCH  22  23
ENDBRANCH  21  22
ENDBRANCH   1  21
BRANCH   1  34
HETATM   34  C9  UNL     1      -1.114 -36.052  21.435  1.00  0.00     0.086 A 
HETATM   35  N10 UNL     1       0.065 -36.485  21.069  1.00  0.00    -0.348 N 
HETATM   36  C10 UNL     1       0.825 -37.121  21.934  1.00  0.00     0.108 A 
ATOM     37  H10 UNL     1       0.395 -36.330  20.116  1.00  0.00     0.166 HD
HETATM   38  S2  UNL     1      -0.128 -37.131  23.341  1.00  0.00    -0.055 SA
HETATM   39  C12 UNL     1      -1.496 -36.292  22.729  1.00  0.00     0.115 A 
HETATM   40  N11 UNL     1      -2.725 -35.929  23.391  1.00  0.00    -0.092 NA
BRANCH  36  41
HETATM   41  C11 UNL     1       2.195 -37.715  21.785  1.00  0.00     0.312 C 
BRANCH  41  42
HETATM   42  O4  UNL     1       2.354 -38.278  20.520  1.00  0.00    -0.365 OA
ATOM     43  H4  UNL     1       1.559 -38.723  20.248  1.00  0.00     0.213 HD
ENDBRANCH  41  42
BRANCH  41  44
HETATM   44  O5  UNL     1       3.087 -36.622  21.844  1.00  0.00    -0.365 OA
ATOM     45  H5  UNL     1       3.084 -36.341  22.751  1.00  0.00     0.213 HD
ENDBRANCH  41  44
ENDBRANCH  36  41
ENDBRANCH   1  34
TORSDOF 11
ENDMDL
