MODEL 1
REMARK VINA RESULT: -8.831163158      0.000      0.000
REMARK  11 active torsions:
REMARK  status: ('A' for Active; 'I' for Inactive)
REMARK    1  A    between atoms: C2_2  and  O1_3 
REMARK    2  A    between atoms: C2_2  and  C3_5 
REMARK    3  A    between atoms: C3_5  and  N1_6 
REMARK    4  A    between atoms: C3_5  and  C6_13 
REMARK       I    between atoms: N1_6  and  C4_8 
REMARK    5  A    between atoms: C4_8  and  C5_10 
REMARK    6  A    between atoms: C5_10  and  O3_11 
REMARK       I    between atoms: N2_16  and  C9_18 
REMARK       I    between atoms: C9_18  and  N3_19 
REMARK       I    between atoms: C9_18  and  N4_23 
REMARK    7  A    between atoms: C11_29  and  C12_30 
REMARK    8  A    between atoms: C12_30  and  N6_31 
REMARK    9  A    between atoms: C12_30  and  C13_35 
REMARK   10  A    between atoms: C19_49  and  C20_50 
REMARK   11  A    between atoms: C20_50  and  N11_51 
ROOT
HETATM    1  C6  UNL     1      -5.293 -36.704  21.602  1.00  0.00     0.081 A 
HETATM    2  C7  UNL     1      -5.700 -37.512  20.589  1.00  0.00     0.066 A 
HETATM    3  C8  UNL     1      -4.906 -38.638  20.270  1.00  0.00     0.060 A 
HETATM    4  N2  UNL     1      -5.334 -39.337  19.325  1.00  0.00    -0.339 N 
ATOM      5  H2  UNL     1      -6.201 -38.958  18.945  1.00  0.00     0.163 HD
HETATM    6  C9  UNL     1      -4.946 -40.496  18.649  1.00  0.00     0.480 C 
HETATM    7  N3  UNL     1      -5.458 -40.460  17.257  1.00  0.00    -0.033 N 
ATOM      8  H31 UNL     1      -5.173 -41.307  16.763  1.00  0.00     0.278 HD
ATOM      9  H32 UNL     1      -5.171 -39.614  16.763  1.00  0.00     0.278 HD
ATOM     10  H33 UNL     1      -6.466 -40.316  17.222  1.00  0.00     0.278 HD
HETATM   11  N4  UNL     1      -5.610 -41.654  19.283  1.00  0.00    -0.033 N 
ATOM     12  H41 UNL     1      -5.326 -42.501  18.790  1.00  0.00     0.278 HD
ATOM     13  H42 UNL     1      -6.624 -41.548  19.327  1.00  0.00     0.278 HD
ATOM     14  H43 UNL     1      -5.432 -41.707  20.286  1.00  0.00     0.278 HD
HETATM   15  C10 UNL     1      -3.775 -38.805  21.037  1.00  0.00     0.105 A 
HETATM   16  N5  UNL     1      -2.959 -39.922  20.737  1.00  0.00    -0.097 NA
HETATM   17  C11 UNL     1      -3.401 -37.962  22.054  1.00  0.00     0.116 A 
HETATM   18  O4  UNL     1      -4.207 -36.939  22.275  1.00  0.00    -0.312 OA
ENDROOT
BRANCH  17  19
HETATM   19  C12 UNL     1      -2.190 -38.189  22.836  1.00  0.00     0.291 C 
BRANCH  19  20
HETATM   20  N6  UNL     1      -2.429 -38.377  24.268  1.00  0.00    -0.064 N 
ATOM     21  H63 UNL     1      -3.075 -37.670  24.619  1.00  0.00     0.275 HD
ATOM     22  H62 UNL     1      -2.986 -39.216  24.430  1.00  0.00     0.275 HD
ATOM     23  H61 UNL     1      -1.579 -38.397  24.833  1.00  0.00     0.275 HD
ENDBRANCH  19  20
BRANCH  19  24
HETATM   24  C13 UNL     1      -1.062 -37.274  22.569  1.00  0.00     0.048 A 
HETATM   25  C14 UNL     1      -0.060 -36.995  23.491  1.00  0.00     0.028 A 
HETATM   26  C15 UNL     1       0.966 -36.111  23.189  1.00  0.00     0.019 A 
HETATM   27  C16 UNL     1       0.991 -35.500  21.955  1.00  0.00     0.034 A 
HETATM   28  C17 UNL     1      -0.011 -35.791  21.059  1.00  0.00     0.118 A 
HETATM   29  C19 UNL     1       2.132 -34.595  21.783  1.00  0.00     0.065 C 
HETATM   30  N7  UNL     1      -0.968 -36.644  21.400  1.00  0.00    -0.343 N 
HETATM   31  N8  UNL     1      -0.134 -35.249  19.751  1.00  0.00    -0.337 N 
ATOM     32  H7  UNL     1      -1.694 -36.833  20.708  1.00  0.00     0.167 HD
HETATM   33  C18 UNL     1       0.444 -34.086  19.123  1.00  0.00     0.199 C 
ATOM     34  H8  UNL     1      -0.748 -35.786  19.138  1.00  0.00     0.168 HD
HETATM   35  N9  UNL     1       1.790 -33.803  19.497  1.00  0.00    -0.296 N 
HETATM   36  N10 UNL     1       2.410 -33.913  20.724  1.00  0.00    -0.301 N 
ATOM     37  H9  UNL     1       2.386 -33.468  18.740  1.00  0.00     0.187 HD
ATOM     38  H10 UNL     1       3.252 -33.343  20.811  1.00  0.00     0.186 HD
BRANCH  29  39
HETATM   39  C20 UNL     1       3.043 -34.470  22.958  1.00  0.00     0.288 C 
BRANCH  39  40
HETATM   40  N11 UNL     1       3.413 -33.057  23.070  1.00  0.00    -0.074 N 
ATOM     41 3H11 UNL     1       2.606 -32.439  23.161  1.00  0.00     0.274 HD
ATOM     42 2H11 UNL     1       3.855 -32.828  23.960  1.00  0.00     0.274 HD
ATOM     43 1H11 UNL     1       3.998 -32.834  22.264  1.00  0.00     0.274 HD
ENDBRANCH  39  40
ENDBRANCH  29  39
ENDBRANCH  19  24
ENDBRANCH  17  19
BRANCH   1  44
HETATM   44  C3  UNL     1      -6.148 -35.507  21.933  1.00  0.00     0.170 C 
BRANCH  44  45
HETATM   45  C2  UNL     1      -5.603 -34.227  21.391  1.00  0.00     0.143 C 
HETATM   46  C1  UNL     1      -4.134 -34.314  21.016  1.00  0.00     0.042 C 
BRANCH  45  47
HETATM   47  O1  UNL     1      -6.263 -33.939  20.166  1.00  0.00    -0.393 OA
ATOM     48  H1  UNL     1      -6.267 -34.767  19.699  1.00  0.00     0.210 HD
ENDBRANCH  45  47
ENDBRANCH  44  45
BRANCH  44  49
HETATM   49  N1  UNL     1      -7.496 -35.715  21.386  1.00  0.00    -0.346 N 
HETATM   50  C4  UNL     1      -8.453 -36.404  22.161  1.00  0.00     0.241 C 
HETATM   51  O2  UNL     1      -8.149 -36.829  23.297  1.00  0.00    -0.271 OA
ATOM     52  H1  UNL     1      -7.737 -35.365  20.459  1.00  0.00     0.163 HD
BRANCH  50  53
HETATM   53  C5  UNL     1      -9.811 -36.629  21.643  1.00  0.00     0.266 C 
BRANCH  53  54
HETATM   54  O3  UNL     1      -9.831 -37.185  20.384  1.00  0.00    -0.392 OA
ATOM     55  H3  UNL     1     -10.707 -37.383  20.073  1.00  0.00     0.210 HD
ENDBRANCH  53  54
ENDBRANCH  50  53
ENDBRANCH  44  49
ENDBRANCH   1  44
TORSDOF 11
ENDMDL
MODEL 2
REMARK VINA RESULT: -8.766519059      1.794      3.275
REMARK  11 active torsions:
REMARK  status: ('A' for Active; 'I' for Inactive)
REMARK    1  A    between atoms: C2_2  and  O1_3 
REMARK    2  A    between atoms: C2_2  and  C3_5 
REMARK    3  A    between atoms: C3_5  and  N1_6 
REMARK    4  A    between atoms: C3_5  and  C6_13 
REMARK       I    between atoms: N1_6  and  C4_8 
REMARK    5  A    between atoms: C4_8  and  C5_10 
REMARK    6  A    between atoms: C5_10  and  O3_11 
REMARK       I    between atoms: N2_16  and  C9_18 
REMARK       I    between atoms: C9_18  and  N3_19 
REMARK       I    between atoms: C9_18  and  N4_23 
REMARK    7  A    between atoms: C11_29  and  C12_30 
REMARK    8  A    between atoms: C12_30  and  N6_31 
REMARK    9  A    between atoms: C12_30  and  C13_35 
REMARK   10  A    between atoms: C19_49  and  C20_50 
REMARK   11  A    between atoms: C20_50  and  N11_51 
ROOT
HETATM    1  C6  UNL     1      -5.936 -38.479  21.787  1.00  0.00     0.081 A 
HETATM    2  C7  UNL     1      -6.540 -39.507  21.136  1.00  0.00     0.066 A 
HETATM    3  C8  UNL     1      -5.740 -40.592  20.710  1.00  0.00     0.060 A 
HETATM    4  N2  UNL     1      -6.357 -41.502  20.112  1.00  0.00    -0.339 N 
ATOM      5  H2  UNL     1      -7.352 -41.290  20.038  1.00  0.00     0.163 HD
HETATM    6  C9  UNL     1      -6.052 -42.728  19.519  1.00  0.00     0.480 C 
HETATM    7  N3  UNL     1      -7.025 -43.018  18.436  1.00  0.00    -0.033 N 
ATOM      8  H31 UNL     1      -6.801 -43.915  18.002  1.00  0.00     0.278 HD
ATOM      9  H32 UNL     1      -7.074 -42.263  17.751  1.00  0.00     0.278 HD
ATOM     10  H33 UNL     1      -7.989 -42.981  18.766  1.00  0.00     0.278 HD
HETATM   11  N4  UNL     1      -6.249 -43.797  20.522  1.00  0.00    -0.033 N 
ATOM     12  H41 UNL     1      -6.026 -44.694  20.088  1.00  0.00     0.278 HD
ATOM     13  H42 UNL     1      -7.184 -43.781  20.930  1.00  0.00     0.278 HD
ATOM     14  H43 UNL     1      -5.720 -43.633  21.378  1.00  0.00     0.278 HD
HETATM   15  C10 UNL     1      -4.399 -40.495  21.006  1.00  0.00     0.105 A 
HETATM   16  N5  UNL     1      -3.574 -41.566  20.587  1.00  0.00    -0.097 NA
HETATM   17  C11 UNL     1      -3.830 -39.435  21.668  1.00  0.00     0.116 A 
HETATM   18  O4  UNL     1      -4.659 -38.471  22.024  1.00  0.00    -0.312 OA
ENDROOT
BRANCH  17  19
HETATM   19  C12 UNL     1      -2.400 -39.386  21.955  1.00  0.00     0.291 C 
BRANCH  19  20
HETATM   20  N6  UNL     1      -2.044 -39.847  23.299  1.00  0.00    -0.064 N 
ATOM     21  H63 UNL     1      -1.117 -40.274  23.297  1.00  0.00     0.275 HD
ATOM     22  H62 UNL     1      -1.867 -39.052  23.914  1.00  0.00     0.275 HD
ATOM     23  H61 UNL     1      -2.728 -40.478  23.718  1.00  0.00     0.275 HD
ENDBRANCH  19  20
BRANCH  19  24
HETATM   24  C13 UNL     1      -1.703 -38.138  21.586  1.00  0.00     0.048 A 
HETATM   25  C14 UNL     1      -1.783 -37.552  20.329  1.00  0.00     0.028 A 
HETATM   26  C15 UNL     1      -1.090 -36.387  20.036  1.00  0.00     0.019 A 
HETATM   27  C16 UNL     1      -0.309 -35.801  21.009  1.00  0.00     0.034 A 
HETATM   28  C17 UNL     1      -0.246 -36.399  22.246  1.00  0.00     0.118 A 
HETATM   29  C19 UNL     1       0.360 -34.579  20.551  1.00  0.00     0.065 C 
HETATM   30  N7  UNL     1      -0.929 -37.513  22.472  1.00  0.00    -0.343 N 
HETATM   31  N8  UNL     1       0.509 -35.927  23.353  1.00  0.00    -0.337 N 
ATOM     32  H7  UNL     1      -0.855 -37.926  23.402  1.00  0.00     0.167 HD
HETATM   33  C18 UNL     1       1.615 -35.006  23.454  1.00  0.00     0.199 C 
ATOM     34  H8  UNL     1       0.213 -36.314  24.249  1.00  0.00     0.168 HD
HETATM   35  N9  UNL     1       1.555 -33.891  22.569  1.00  0.00    -0.296 N 
HETATM   36  N10 UNL     1       1.130 -33.822  21.258  1.00  0.00    -0.301 N 
ATOM     37  H9  UNL     1       1.878 -33.008  22.965  1.00  0.00     0.187 HD
ATOM     38  H10 UNL     1       1.495 -33.017  20.750  1.00  0.00     0.186 HD
BRANCH  29  39
HETATM   39  C20 UNL     1       0.110 -34.195  19.132  1.00  0.00     0.288 C 
BRANCH  39  40
HETATM   40  N11 UNL     1       1.391 -34.292  18.426  1.00  0.00    -0.074 N 
ATOM     41 3H11 UNL     1       1.556 -35.215  18.024  1.00  0.00     0.274 HD
ATOM     42 2H11 UNL     1       1.408 -33.764  17.554  1.00  0.00     0.274 HD
ATOM     43 1H11 UNL     1       2.118 -34.006  19.081  1.00  0.00     0.274 HD
ENDBRANCH  39  40
ENDBRANCH  29  39
ENDBRANCH  19  24
ENDBRANCH  17  19
BRANCH   1  44
HETATM   44  C3  UNL     1      -6.800 -37.328  22.237  1.00  0.00     0.170 C 
BRANCH  44  45
HETATM   45  C2  UNL     1      -7.252 -37.450  23.654  1.00  0.00     0.143 C 
HETATM   46  C1  UNL     1      -8.655 -38.017  23.787  1.00  0.00     0.042 C 
BRANCH  45  47
HETATM   47  O1  UNL     1      -6.424 -38.400  24.311  1.00  0.00    -0.393 OA
ATOM     48  H1  UNL     1      -6.035 -38.903  23.605  1.00  0.00     0.210 HD
ENDBRANCH  45  47
ENDBRANCH  44  45
BRANCH  44  49
HETATM   49  N1  UNL     1      -6.044 -36.075  22.089  1.00  0.00    -0.346 N 
HETATM   50  C4  UNL     1      -6.653 -34.978  21.444  1.00  0.00     0.241 C 
HETATM   51  O2  UNL     1      -7.821 -35.078  21.007  1.00  0.00    -0.271 OA
ATOM     52  H1  UNL     1      -5.093 -36.000  22.448  1.00  0.00     0.163 HD
BRANCH  50  53
HETATM   53  C5  UNL     1      -5.925 -33.711  21.280  1.00  0.00     0.266 C 
BRANCH  53  54
HETATM   54  O3  UNL     1      -6.255 -32.765  22.223  1.00  0.00    -0.392 OA
ATOM     55  H3  UNL     1      -5.763 -31.956  22.135  1.00  0.00     0.210 HD
ENDBRANCH  53  54
ENDBRANCH  50  53
ENDBRANCH  44  49
ENDBRANCH   1  44
TORSDOF 11
ENDMDL
MODEL 3
REMARK VINA RESULT: -8.671650066      1.705      2.760
REMARK  11 active torsions:
REMARK  status: ('A' for Active; 'I' for Inactive)
REMARK    1  A    between atoms: C2_2  and  O1_3 
REMARK    2  A    between atoms: C2_2  and  C3_5 
REMARK    3  A    between atoms: C3_5  and  N1_6 
REMARK    4  A    between atoms: C3_5  and  C6_13 
REMARK       I    between atoms: N1_6  and  C4_8 
REMARK    5  A    between atoms: C4_8  and  C5_10 
REMARK    6  A    between atoms: C5_10  and  O3_11 
REMARK       I    between atoms: N2_16  and  C9_18 
REMARK       I    between atoms: C9_18  and  N3_19 
REMARK       I    between atoms: C9_18  and  N4_23 
REMARK    7  A    between atoms: C11_29  and  C12_30 
REMARK    8  A    between atoms: C12_30  and  N6_31 
REMARK    9  A    between atoms: C12_30  and  C13_35 
REMARK   10  A    between atoms: C19_49  and  C20_50 
REMARK   11  A    between atoms: C20_50  and  N11_51 
ROOT
HETATM    1  C6  UNL     1      -5.937 -38.527  21.811  1.00  0.00     0.081 A 
HETATM    2  C7  UNL     1      -6.394 -39.443  20.918  1.00  0.00     0.066 A 
HETATM    3  C8  UNL     1      -5.565 -40.544  20.603  1.00  0.00     0.060 A 
HETATM    4  N2  UNL     1      -6.044 -41.346  19.770  1.00  0.00    -0.339 N 
ATOM      5  H2  UNL     1      -6.970 -41.052  19.461  1.00  0.00     0.163 HD
HETATM    6  C9  UNL     1      -5.652 -42.534  19.151  1.00  0.00     0.480 C 
HETATM    7  N3  UNL     1      -6.311 -42.650  17.825  1.00  0.00    -0.033 N 
ATOM      8  H31 UNL     1      -6.024 -43.518  17.372  1.00  0.00     0.278 HD
ATOM      9  H32 UNL     1      -6.136 -41.834  17.237  1.00  0.00     0.278 HD
ATOM     10  H33 UNL     1      -7.325 -42.568  17.893  1.00  0.00     0.278 HD
HETATM   11  N4  UNL     1      -6.165 -43.670  19.946  1.00  0.00    -0.033 N 
ATOM     12  H41 UNL     1      -5.879 -44.538  19.492  1.00  0.00     0.278 HD
ATOM     13  H42 UNL     1      -7.173 -43.619  20.094  1.00  0.00     0.278 HD
ATOM     14  H43 UNL     1      -5.878 -43.625  20.923  1.00  0.00     0.278 HD
HETATM   15  C10 UNL     1      -4.350 -40.577  21.250  1.00  0.00     0.105 A 
HETATM   16  N5  UNL     1      -3.497 -41.666  20.950  1.00  0.00    -0.097 NA
HETATM   17  C11 UNL     1      -3.927 -39.628  22.148  1.00  0.00     0.116 A 
HETATM   18  O4  UNL     1      -4.772 -38.638  22.375  1.00  0.00    -0.312 OA
ENDROOT
BRANCH  17  19
HETATM   19  C12 UNL     1      -2.627 -39.715  22.804  1.00  0.00     0.291 C 
BRANCH  19  20
HETATM   20  N6  UNL     1      -2.700 -39.947  24.248  1.00  0.00    -0.064 N 
ATOM     21  H63 UNL     1      -3.648 -40.209  24.520  1.00  0.00     0.275 HD
ATOM     22  H62 UNL     1      -2.206 -40.803  24.498  1.00  0.00     0.275 HD
ATOM     23  H61 UNL     1      -2.369 -39.164  24.813  1.00  0.00     0.275 HD
ENDBRANCH  19  20
BRANCH  19  24
HETATM   24  C13 UNL     1      -1.648 -38.668  22.452  1.00  0.00     0.048 A 
HETATM   25  C14 UNL     1      -0.679 -38.192  23.326  1.00  0.00     0.028 A 
HETATM   26  C15 UNL     1       0.203 -37.191  22.943  1.00  0.00     0.019 A 
HETATM   27  C16 UNL     1       0.116 -36.662  21.674  1.00  0.00     0.034 A 
HETATM   28  C17 UNL     1      -0.852 -37.149  20.826  1.00  0.00     0.118 A 
HETATM   29  C19 UNL     1       1.111 -35.616  21.417  1.00  0.00     0.065 C 
HETATM   30  N7  UNL     1      -1.669 -38.106  21.244  1.00  0.00    -0.343 N 
HETATM   31  N8  UNL     1      -1.076 -36.713  19.492  1.00  0.00    -0.337 N 
ATOM     32  H7  UNL     1      -2.373 -38.440  20.586  1.00  0.00     0.167 HD
HETATM   33  C18 UNL     1      -0.684 -35.521  18.780  1.00  0.00     0.199 C 
ATOM     34  H8  UNL     1      -1.619 -37.369  18.930  1.00  0.00     0.168 HD
HETATM   35  N9  UNL     1       0.614 -35.027  19.098  1.00  0.00    -0.296 N 
HETATM   36  N10 UNL     1       1.267 -34.969  20.312  1.00  0.00    -0.301 N 
ATOM     37  H9  UNL     1       1.141 -34.658  18.306  1.00  0.00     0.187 HD
ATOM     38  H10 UNL     1       2.020 -34.281  20.340  1.00  0.00     0.186 HD
BRANCH  29  39
HETATM   39  C20 UNL     1       2.017 -35.289  22.556  1.00  0.00     0.288 C 
BRANCH  39  40
HETATM   40  N11 UNL     1       3.381 -35.617  22.132  1.00  0.00    -0.074 N 
ATOM     41 3H11 UNL     1       3.430 -36.461  21.561  1.00  0.00     0.274 HD
ATOM     42 2H11 UNL     1       3.752 -34.968  21.439  1.00  0.00     0.274 HD
ATOM     43 1H11 UNL     1       3.953 -35.671  22.975  1.00  0.00     0.274 HD
ENDBRANCH  39  40
ENDBRANCH  29  39
ENDBRANCH  19  24
ENDBRANCH  17  19
BRANCH   1  44
HETATM   44  C3  UNL     1      -6.831 -37.358  22.139  1.00  0.00     0.170 C 
BRANCH  44  45
HETATM   45  C2  UNL     1      -7.465 -37.461  23.487  1.00  0.00     0.143 C 
HETATM   46  C1  UNL     1      -8.922 -37.884  23.431  1.00  0.00     0.042 C 
BRANCH  45  47
HETATM   47  O1  UNL     1      -6.822 -38.503  24.208  1.00  0.00    -0.393 OA
ATOM     48  H1  UNL     1      -6.939 -39.274  23.664  1.00  0.00     0.210 HD
ENDBRANCH  45  47
ENDBRANCH  44  45
BRANCH  44  49
HETATM   49  N1  UNL     1      -6.041 -36.119  22.083  1.00  0.00    -0.346 N 
HETATM   50  C4  UNL     1      -6.595 -34.978  21.467  1.00  0.00     0.241 C 
HETATM   51  O2  UNL     1      -7.746 -35.027  20.979  1.00  0.00    -0.271 OA
ATOM     52  H1  UNL     1      -5.103 -36.086  22.484  1.00  0.00     0.163 HD
BRANCH  50  53
HETATM   53  C5  UNL     1      -5.831 -33.723  21.394  1.00  0.00     0.266 C 
BRANCH  53  54
HETATM   54  O3  UNL     1      -6.305 -32.745  22.239  1.00  0.00    -0.392 OA
ATOM     55  H3  UNL     1      -6.140 -31.863  21.925  1.00  0.00     0.210 HD
ENDBRANCH  53  54
ENDBRANCH  50  53
ENDBRANCH  44  49
ENDBRANCH   1  44
TORSDOF 11
ENDMDL
MODEL 4
REMARK VINA RESULT: -8.669884440      2.414      3.785
REMARK  11 active torsions:
REMARK  status: ('A' for Active; 'I' for Inactive)
REMARK    1  A    between atoms: C2_2  and  O1_3 
REMARK    2  A    between atoms: C2_2  and  C3_5 
REMARK    3  A    between atoms: C3_5  and  N1_6 
REMARK    4  A    between atoms: C3_5  and  C6_13 
REMARK       I    between atoms: N1_6  and  C4_8 
REMARK    5  A    between atoms: C4_8  and  C5_10 
REMARK    6  A    between atoms: C5_10  and  O3_11 
REMARK       I    between atoms: N2_16  and  C9_18 
REMARK       I    between atoms: C9_18  and  N3_19 
REMARK       I    between atoms: C9_18  and  N4_23 
REMARK    7  A    between atoms: C11_29  and  C12_30 
REMARK    8  A    between atoms: C12_30  and  N6_31 
REMARK    9  A    between atoms: C12_30  and  C13_35 
REMARK   10  A    between atoms: C19_49  and  C20_50 
REMARK   11  A    between atoms: C20_50  and  N11_51 
ROOT
HETATM    1  C6  UNL     1      -3.166 -38.368  21.270  1.00  0.00     0.081 A 
HETATM    2  C7  UNL     1      -3.320 -39.717  21.263  1.00  0.00     0.066 A 
HETATM    3  C8  UNL     1      -2.515 -40.488  22.134  1.00  0.00     0.060 A 
HETATM    4  N2  UNL     1      -2.702 -41.723  22.074  1.00  0.00    -0.339 N 
ATOM      5  H2  UNL     1      -3.421 -41.957  21.389  1.00  0.00     0.163 HD
HETATM    6  C9  UNL     1      -2.194 -42.868  22.691  1.00  0.00     0.480 C 
HETATM    7  N3  UNL     1      -2.314 -44.028  21.774  1.00  0.00    -0.033 N 
ATOM      8  H31 UNL     1      -1.942 -44.865  22.225  1.00  0.00     0.278 HD
ATOM      9  H32 UNL     1      -1.872 -43.851  20.871  1.00  0.00     0.278 HD
ATOM     10  H33 UNL     1      -3.270 -44.162  21.446  1.00  0.00     0.278 HD
HETATM   11  N4  UNL     1      -3.049 -43.195  23.852  1.00  0.00    -0.033 N 
ATOM     12  H41 UNL     1      -2.677 -44.031  24.303  1.00  0.00     0.278 HD
ATOM     13  H42 UNL     1      -4.032 -43.291  23.599  1.00  0.00     0.278 HD
ATOM     14  H43 UNL     1      -3.147 -42.412  24.499  1.00  0.00     0.278 HD
HETATM   15  C10 UNL     1      -1.637 -39.774  22.919  1.00  0.00     0.105 A 
HETATM   16  N5  UNL     1      -0.816 -40.521  23.797  1.00  0.00    -0.097 NA
HETATM   17  C11 UNL     1      -1.515 -38.407  22.894  1.00  0.00     0.116 A 
HETATM   18  O4  UNL     1      -2.310 -37.777  22.047  1.00  0.00    -0.312 OA
ENDROOT
BRANCH  17  19
HETATM   19  C12 UNL     1      -0.566 -37.704  23.751  1.00  0.00     0.291 C 
BRANCH  19  20
HETATM   20  N6  UNL     1      -1.124 -37.277  25.036  1.00  0.00    -0.064 N 
ATOM     21  H63 UNL     1      -1.048 -36.264  25.139  1.00  0.00     0.275 HD
ATOM     22  H62 UNL     1      -2.139 -37.376  25.035  1.00  0.00     0.275 HD
ATOM     23  H61 UNL     1      -0.718 -37.749  25.844  1.00  0.00     0.275 HD
ENDBRANCH  19  20
BRANCH  19  24
HETATM   24  C13 UNL     1       0.233 -36.644  23.105  1.00  0.00     0.048 A 
HETATM   25  C14 UNL     1       1.032 -35.746  23.802  1.00  0.00     0.028 A 
HETATM   26  C15 UNL     1       1.747 -34.758  23.140  1.00  0.00     0.019 A 
HETATM   27  C16 UNL     1       1.662 -34.666  21.768  1.00  0.00     0.034 A 
HETATM   28  C17 UNL     1       0.865 -35.566  21.099  1.00  0.00     0.118 A 
HETATM   29  C19 UNL     1       2.471 -33.576  21.213  1.00  0.00     0.065 C 
HETATM   30  N7  UNL     1       0.203 -36.490  21.782  1.00  0.00    -0.343 N 
HETATM   31  N8  UNL     1       0.668 -35.608  19.692  1.00  0.00    -0.337 N 
ATOM     32  H7  UNL     1      -0.378 -37.138  21.250  1.00  0.00     0.167 HD
HETATM   33  C18 UNL     1       0.892 -34.637  18.650  1.00  0.00     0.199 C 
ATOM     34  H8  UNL     1       0.295 -36.496  19.355  1.00  0.00     0.168 HD
HETATM   35  N9  UNL     1       2.053 -33.827  18.818  1.00  0.00    -0.296 N 
HETATM   36  N10 UNL     1       2.592 -33.278  19.963  1.00  0.00    -0.301 N 
ATOM     37  H9  UNL     1       2.564 -33.622  17.959  1.00  0.00     0.187 HD
ATOM     38  H10 UNL     1       3.204 -32.482  19.788  1.00  0.00     0.186 HD
BRANCH  29  39
HETATM   39  C20 UNL     1       3.215 -32.749  22.207  1.00  0.00     0.288 C 
BRANCH  39  40
HETATM   40  N11 UNL     1       2.892 -31.347  21.930  1.00  0.00    -0.074 N 
ATOM     41 3H11 UNL     1       3.712 -30.786  21.699  1.00  0.00     0.274 HD
ATOM     42 2H11 UNL     1       2.392 -31.217  21.051  1.00  0.00     0.274 HD
ATOM     43 1H11 UNL     1       2.379 -30.991  22.737  1.00  0.00     0.274 HD
ENDBRANCH  39  40
ENDBRANCH  29  39
ENDBRANCH  19  24
ENDBRANCH  17  19
BRANCH   1  44
HETATM   44  C3  UNL     1      -4.030 -37.558  20.337  1.00  0.00     0.170 C 
BRANCH  44  45
HETATM   45  C2  UNL     1      -5.481 -37.900  20.433  1.00  0.00     0.143 C 
HETATM   46  C1  UNL     1      -6.338 -36.740  20.906  1.00  0.00     0.042 C 
BRANCH  45  47
HETATM   47  O1  UNL     1      -5.963 -38.186  19.127  1.00  0.00    -0.393 OA
ATOM     48  H1  UNL     1      -5.393 -37.691  18.550  1.00  0.00     0.210 HD
ENDBRANCH  45  47
ENDBRANCH  44  45
BRANCH  44  49
HETATM   49  N1  UNL     1      -3.861 -36.130  20.644  1.00  0.00    -0.346 N 
HETATM   50  C4  UNL     1      -2.820 -35.412  20.019  1.00  0.00     0.241 C 
HETATM   51  O2  UNL     1      -2.056 -35.990  19.215  1.00  0.00    -0.271 OA
ATOM     52  H1  UNL     1      -4.488 -35.665  21.300  1.00  0.00     0.163 HD
BRANCH  50  53
HETATM   53  C5  UNL     1      -2.623 -33.983  20.304  1.00  0.00     0.266 C 
BRANCH  53  54
HETATM   54  O3  UNL     1      -3.082 -33.157  19.304  1.00  0.00    -0.392 OA
ATOM     55  H3  UNL     1      -3.032 -32.234  19.522  1.00  0.00     0.210 HD
ENDBRANCH  53  54
ENDBRANCH  50  53
ENDBRANCH  44  49
ENDBRANCH   1  44
TORSDOF 11
ENDMDL
MODEL 5
REMARK VINA RESULT: -8.537817469      3.403      8.457
REMARK  11 active torsions:
REMARK  status: ('A' for Active; 'I' for Inactive)
REMARK    1  A    between atoms: C2_2  and  O1_3 
REMARK    2  A    between atoms: C2_2  and  C3_5 
REMARK    3  A    between atoms: C3_5  and  N1_6 
REMARK    4  A    between atoms: C3_5  and  C6_13 
REMARK       I    between atoms: N1_6  and  C4_8 
REMARK    5  A    between atoms: C4_8  and  C5_10 
REMARK    6  A    between atoms: C5_10  and  O3_11 
REMARK       I    between atoms: N2_16  and  C9_18 
REMARK       I    between atoms: C9_18  and  N3_19 
REMARK       I    between atoms: C9_18  and  N4_23 
REMARK    7  A    between atoms: C11_29  and  C12_30 
REMARK    8  A    between atoms: C12_30  and  N6_31 
REMARK    9  A    between atoms: C12_30  and  C13_35 
REMARK   10  A    between atoms: C19_49  and  C20_50 
REMARK   11  A    between atoms: C20_50  and  N11_51 
ROOT
HETATM    1  C6  UNL     1       1.210 -36.976  22.356  1.00  0.00     0.081 A 
HETATM    2  C7  UNL     1       2.210 -36.971  23.276  1.00  0.00     0.066 A 
HETATM    3  C8  UNL     1       2.132 -37.880  24.356  1.00  0.00     0.060 A 
HETATM    4  N2  UNL     1       3.081 -37.819  25.169  1.00  0.00    -0.339 N 
ATOM      5  H2  UNL     1       3.757 -37.105  24.898  1.00  0.00     0.163 HD
HETATM    6  C9  UNL     1       3.464 -38.464  26.346  1.00  0.00     0.480 C 
HETATM    7  N3  UNL     1       4.288 -37.549  27.175  1.00  0.00    -0.033 N 
ATOM      8  H31 UNL     1       4.568 -38.021  28.036  1.00  0.00     0.278 HD
ATOM      9  H32 UNL     1       3.812 -36.665  27.359  1.00  0.00     0.278 HD
ATOM     10  H33 UNL     1       5.088 -37.181  26.661  1.00  0.00     0.278 HD
HETATM   11  N4  UNL     1       4.358 -39.589  25.996  1.00  0.00    -0.033 N 
ATOM     12  H41 UNL     1       4.638 -40.061  26.857  1.00  0.00     0.278 HD
ATOM     13  H42 UNL     1       5.156 -39.293  25.434  1.00  0.00     0.278 HD
ATOM     14  H43 UNL     1       3.938 -40.226  25.319  1.00  0.00     0.278 HD
HETATM   15  C10 UNL     1       1.024 -38.699  24.365  1.00  0.00     0.105 A 
HETATM   16  N5  UNL     1       0.919 -39.616  25.437  1.00  0.00    -0.097 NA
HETATM   17  C11 UNL     1       0.036 -38.671  23.412  1.00  0.00     0.116 A 
HETATM   18  O4  UNL     1       0.199 -37.786  22.444  1.00  0.00    -0.312 OA
ENDROOT
BRANCH  17  19
HETATM   19  C12 UNL     1      -1.116 -39.564  23.473  1.00  0.00     0.291 C 
BRANCH  19  20
HETATM   20  N6  UNL     1      -0.776 -40.985  23.381  1.00  0.00    -0.064 N 
ATOM     21  H63 UNL     1       0.230 -41.105  23.263  1.00  0.00     0.275 HD
ATOM     22  H62 UNL     1      -0.900 -41.441  24.285  1.00  0.00     0.275 HD
ATOM     23  H61 UNL     1      -1.284 -41.489  22.653  1.00  0.00     0.275 HD
ENDBRANCH  19  20
BRANCH  19  24
HETATM   24  C13 UNL     1      -2.265 -39.204  22.618  1.00  0.00     0.048 A 
HETATM   25  C14 UNL     1      -3.164 -38.190  22.921  1.00  0.00     0.028 A 
HETATM   26  C15 UNL     1      -4.237 -37.910  22.087  1.00  0.00     0.019 A 
HETATM   27  C16 UNL     1      -4.413 -38.652  20.939  1.00  0.00     0.034 A 
HETATM   28  C17 UNL     1      -3.510 -39.651  20.660  1.00  0.00     0.118 A 
HETATM   29  C19 UNL     1      -5.586 -38.241  20.162  1.00  0.00     0.065 C 
HETATM   30  N7  UNL     1      -2.502 -39.876  21.493  1.00  0.00    -0.343 N 
HETATM   31  N8  UNL     1      -3.547 -40.505  19.525  1.00  0.00    -0.337 N 
ATOM     32  H7  UNL     1      -1.854 -40.626  21.251  1.00  0.00     0.167 HD
HETATM   33  C18 UNL     1      -4.596 -40.837  18.593  1.00  0.00     0.199 C 
ATOM     34  H8  UNL     1      -2.661 -40.972  19.331  1.00  0.00     0.168 HD
HETATM   35  N9  UNL     1      -5.466 -39.761  18.252  1.00  0.00    -0.296 N 
HETATM   36  N10 UNL     1      -5.973 -38.748  19.040  1.00  0.00    -0.301 N 
ATOM     37  H9  UNL     1      -5.760 -39.736  17.275  1.00  0.00     0.187 HD
ATOM     38  H10 UNL     1      -6.816 -38.317  18.663  1.00  0.00     0.186 HD
BRANCH  29  39
HETATM   39  C20 UNL     1      -6.393 -37.129  20.744  1.00  0.00     0.288 C 
BRANCH  39  40
HETATM   40  N11 UNL     1      -7.792 -37.565  20.747  1.00  0.00    -0.074 N 
ATOM     41 3H11 UNL     1      -8.452 -36.791  20.822  1.00  0.00     0.274 HD
ATOM     42 2H11 UNL     1      -8.103 -37.916  19.842  1.00  0.00     0.274 HD
ATOM     43 1H11 UNL     1      -7.892 -38.249  21.497  1.00  0.00     0.274 HD
ENDBRANCH  39  40
ENDBRANCH  29  39
ENDBRANCH  19  24
ENDBRANCH  17  19
BRANCH   1  44
HETATM   44  C3  UNL     1       1.305 -36.002  21.209  1.00  0.00     0.170 C 
BRANCH  44  45
HETATM   45  C2  UNL     1       0.343 -36.296  20.106  1.00  0.00     0.143 C 
HETATM   46  C1  UNL     1       0.329 -35.230  19.025  1.00  0.00     0.042 C 
BRANCH  45  47
HETATM   47  O1  UNL     1       0.772 -37.473  19.436  1.00  0.00    -0.393 OA
ATOM     48  H1  UNL     1       1.546 -37.748  19.913  1.00  0.00     0.210 HD
ENDBRANCH  45  47
ENDBRANCH  44  45
BRANCH  44  49
HETATM   49  N1  UNL     1       1.049 -34.644  21.711  1.00  0.00    -0.346 N 
HETATM   50  C4  UNL     1       2.042 -33.655  21.553  1.00  0.00     0.241 C 
HETATM   51  O2  UNL     1       3.123 -33.937  20.993  1.00  0.00    -0.271 OA
ATOM     52  H1  UNL     1       0.164 -34.421  22.166  1.00  0.00     0.163 HD
BRANCH  50  53
HETATM   53  C5  UNL     1       1.816 -32.287  22.044  1.00  0.00     0.266 C 
BRANCH  53  54
HETATM   54  O3  UNL     1       2.485 -31.328  21.317  1.00  0.00    -0.392 OA
ATOM     55  H3  UNL     1       2.274 -30.440  21.580  1.00  0.00     0.210 HD
ENDBRANCH  53  54
ENDBRANCH  50  53
ENDBRANCH  44  49
ENDBRANCH   1  44
TORSDOF 11
ENDMDL
