MODEL 1
REMARK VINA RESULT: -8.923797453      0.000      0.000
REMARK  13 active torsions:
REMARK  status: ('A' for Active; 'I' for Inactive)
REMARK    1  A    between atoms: N3_8  and  C3_9 
REMARK    2  A    between atoms: C4_12  and  O1_13 
REMARK    3  A    between atoms: O1_13  and  C5_14 
REMARK    4  A    between atoms: C5_14  and  O2_15 
REMARK    5  A    between atoms: C6_17  and  C7_18 
REMARK    6  A    between atoms: C7_18  and  N5_19 
REMARK       I    between atoms: N5_19  and  C8_21 
REMARK    7  A    between atoms: C8_21  and  S1_23 
REMARK    8  A    between atoms: S1_23  and  C9_24 
REMARK    9  A    between atoms: C10_29  and  C11_30 
REMARK   10  A    between atoms: C11_30  and  C12_31 
REMARK   11  A    between atoms: C13_34  and  N9_35 
REMARK   12  A    between atoms: C14_40  and  N11_41 
REMARK   13  A    between atoms: N13_46  and  N14_47 
ROOT
HETATM    1  C9  UNL     1      -6.162 -37.206  20.933  1.00  0.00     0.191 A 
HETATM    2  N6  UNL     1      -6.534 -37.238  19.653  1.00  0.00    -0.277 N 
ATOM      3  H6  UNL     1      -6.506 -36.442  19.015  1.00  0.00     0.189 HD
HETATM    4  N7  UNL     1      -6.943 -38.450  19.333  1.00  0.00    -0.285 N 
ATOM      5  H7  UNL     1      -7.280 -38.736  18.414  1.00  0.00     0.188 HD
HETATM    6  C10 UNL     1      -6.843 -39.268  20.436  1.00  0.00     0.125 A 
HETATM    7  N13 UNL     1      -6.365 -38.484  21.393  1.00  0.00    -0.225 N 
ENDROOT
BRANCH   1   8
HETATM    8  S1  UNL     1      -5.490 -35.823  21.872  1.00  0.00     0.010 SA
BRANCH   8   9
HETATM    9  C8  UNL     1      -3.846 -35.466  21.283  1.00  0.00     0.287 C 
HETATM   10  N5  UNL     1      -2.983 -34.513  21.871  1.00  0.00    -0.349 N 
ATOM     11  H5  UNL     1      -3.295 -33.969  22.676  1.00  0.00     0.163 HD
HETATM   12  O3  UNL     1      -3.425 -36.113  20.272  1.00  0.00    -0.260 OA
BRANCH  10  13
HETATM   13  C7  UNL     1      -1.673 -34.314  21.336  1.00  0.00     0.160 C 
BRANCH  13  14
HETATM   14  C6  UNL     1      -0.548 -34.846  22.142  1.00  0.00     0.198 C 
HETATM   15  C4  UNL     1       0.487 -35.453  21.221  1.00  0.00     0.257 C 
HETATM   16  N4  UNL     1       1.433 -34.376  21.114  1.00  0.00    -0.325 N 
HETATM   17  C3  UNL     1       1.280 -33.469  22.007  1.00  0.00     0.259 C 
ATOM     18  H4  UNL     1       2.157 -34.338  20.397  1.00  0.00     0.165 HD
HETATM   19  O4  UNL     1       0.213 -33.853  22.803  1.00  0.00    -0.308 OA
BRANCH  15  20
HETATM   20  O1  UNL     1      -0.051 -35.752  19.969  1.00  0.00    -0.340 OA
BRANCH  20  21
HETATM   21  C5  UNL     1      -0.031 -37.115  19.704  1.00  0.00     0.337 C 
BRANCH  21  22
HETATM   22  O2  UNL     1       1.153 -37.685  20.188  1.00  0.00    -0.377 OA
ATOM     23  H2  UNL     1       1.523 -37.138  20.872  1.00  0.00     0.212 HD
ENDBRANCH  21  22
ENDBRANCH  20  21
ENDBRANCH  15  20
BRANCH  17  24
HETATM   24  N3  UNL     1       2.073 -32.267  22.161  1.00  0.00    -0.154 N 
HETATM   25  N2  UNL     1       2.455 -31.408  21.242  1.00  0.00    -0.284 N 
HETATM   26  C2  UNL     1       3.183 -30.418  21.785  1.00  0.00     0.158 A 
ATOM     27  H2  UNL     1       2.227 -31.482  20.251  1.00  0.00     0.188 HD
HETATM   28  C1  UNL     1       3.257 -30.684  23.125  1.00  0.00     0.132 A 
HETATM   29  N1  UNL     1       3.867 -29.985  24.026  1.00  0.00    -0.383 N 
HETATM   30  N15 UNL     1       2.561 -31.827  23.310  1.00  0.00    -0.260 N 
ATOM     31  H12 UNL     1       4.392 -29.121  23.885  1.00  0.00     0.157 HD
ATOM     32  H11 UNL     1       3.921 -30.184  25.024  1.00  0.00     0.157 HD
ATOM     33  H15 UNL     1       2.430 -32.288  24.211  1.00  0.00     0.191 HD
ENDBRANCH  17  24
ENDBRANCH  13  14
ENDBRANCH  10  13
ENDBRANCH   8   9
ENDBRANCH   1   8
BRANCH   7  34
HETATM   34  N14 UNL     1      -6.048 -38.820  22.719  1.00  0.00    -0.335 N 
ATOM     35 2H14 UNL     1      -5.672 -38.220  23.453  1.00  0.00     0.177 HD
ATOM     36 1H14 UNL     1      -6.208 -39.767  23.064  1.00  0.00     0.177 HD
ENDBRANCH   7  34
BRANCH   6  37
HETATM   37  C11 UNL     1      -7.152 -40.699  20.472  1.00  0.00     0.139 C 
BRANCH  37  38
HETATM   38  C12 UNL     1      -6.283 -41.590  19.698  1.00  0.00     0.061 A 
HETATM   39  N8  UNL     1      -6.539 -41.784  18.361  1.00  0.00    -0.193 N 
HETATM   40  C13 UNL     1      -5.780 -42.589  17.602  1.00  0.00     0.677 A 
ATOM     41  H8  UNL     1      -7.330 -41.301  17.934  1.00  0.00     0.184 HD
HETATM   42  N10 UNL     1      -4.733 -43.241  18.123  1.00  0.00    -0.175 N 
HETATM   43  C14 UNL     1      -4.422 -43.104  19.408  1.00  0.00     0.141 A 
ATOM     44  H10 UNL     1      -4.169 -43.849  17.528  1.00  0.00     0.186 HD
HETATM   45  C15 UNL     1      -5.214 -42.268  20.187  1.00  0.00     0.114 A 
HETATM   46  N12 UNL     1      -4.845 -42.127  21.564  1.00  0.00    -0.096 NA
BRANCH  40  47
HETATM   47  N9  UNL     1      -6.005 -42.783  16.348  1.00  0.00    -0.234 N 
ATOM     48  H92 UNL     1      -6.838 -43.325  16.119  1.00  0.00     0.174 HD
ATOM     49  H91 UNL     1      -5.395 -42.422  15.614  1.00  0.00     0.174 HD
ENDBRANCH  40  47
BRANCH  43  50
HETATM   50  N11 UNL     1      -3.430 -43.694  19.964  1.00  0.00    -0.383 N 
ATOM     51 2H11 UNL     1      -2.691 -44.066  19.367  1.00  0.00     0.157 HD
ATOM     52 1H11 UNL     1      -3.341 -43.817  20.972  1.00  0.00     0.157 HD
ENDBRANCH  43  50
ENDBRANCH  37  38
ENDBRANCH   6  37
TORSDOF 13
ENDMDL
MODEL 2
REMARK VINA RESULT: -8.890599690      1.404      1.783
REMARK  13 active torsions:
REMARK  status: ('A' for Active; 'I' for Inactive)
REMARK    1  A    between atoms: N3_8  and  C3_9 
REMARK    2  A    between atoms: C4_12  and  O1_13 
REMARK    3  A    between atoms: O1_13  and  C5_14 
REMARK    4  A    between atoms: C5_14  and  O2_15 
REMARK    5  A    between atoms: C6_17  and  C7_18 
REMARK    6  A    between atoms: C7_18  and  N5_19 
REMARK       I    between atoms: N5_19  and  C8_21 
REMARK    7  A    between atoms: C8_21  and  S1_23 
REMARK    8  A    between atoms: S1_23  and  C9_24 
REMARK    9  A    between atoms: C10_29  and  C11_30 
REMARK   10  A    between atoms: C11_30  and  C12_31 
REMARK   11  A    between atoms: C13_34  and  N9_35 
REMARK   12  A    between atoms: C14_40  and  N11_41 
REMARK   13  A    between atoms: N13_46  and  N14_47 
ROOT
HETATM    1  C9  UNL     1      -7.070 -36.928  20.867  1.00  0.00     0.191 A 
HETATM    2  N6  UNL     1      -6.708 -37.204  19.614  1.00  0.00    -0.277 N 
ATOM      3  H6  UNL     1      -6.462 -36.509  18.908  1.00  0.00     0.189 HD
HETATM    4  N7  UNL     1      -6.715 -38.509  19.421  1.00  0.00    -0.285 N 
ATOM      5  H7  UNL     1      -6.478 -38.977  18.547  1.00  0.00     0.188 HD
HETATM    6  C10 UNL     1      -7.094 -39.138  20.586  1.00  0.00     0.125 A 
HETATM    7  N13 UNL     1      -7.303 -38.151  21.447  1.00  0.00    -0.225 N 
ENDROOT
BRANCH   1   8
HETATM    8  S1  UNL     1      -7.190 -35.320  21.671  1.00  0.00     0.010 SA
BRANCH   8   9
HETATM    9  C8  UNL     1      -5.571 -34.574  21.721  1.00  0.00     0.287 C 
HETATM   10  N5  UNL     1      -4.365 -35.286  21.535  1.00  0.00    -0.349 N 
ATOM     11  H5  UNL     1      -4.385 -36.294  21.375  1.00  0.00     0.163 HD
HETATM   12  O3  UNL     1      -5.503 -33.322  21.934  1.00  0.00    -0.260 OA
BRANCH  10  13
HETATM   13  C7  UNL     1      -3.116 -34.592  21.573  1.00  0.00     0.160 C 
BRANCH  13  14
HETATM   14  C6  UNL     1      -1.976 -35.327  22.169  1.00  0.00     0.198 C 
HETATM   15  C4  UNL     1      -1.351 -36.220  21.119  1.00  0.00     0.257 C 
HETATM   16  N4  UNL     1      -0.246 -35.411  20.683  1.00  0.00    -0.325 N 
HETATM   17  C3  UNL     1       0.023 -34.441  21.476  1.00  0.00     0.259 C 
ATOM     18  H4  UNL     1       0.274 -35.592  19.825  1.00  0.00     0.165 HD
HETATM   19  O4  UNL     1      -0.879 -34.507  22.526  1.00  0.00    -0.308 OA
BRANCH  15  20
HETATM   20  O1  UNL     1      -2.227 -36.458  20.059  1.00  0.00    -0.340 OA
BRANCH  20  21
HETATM   21  C5  UNL     1      -2.479 -37.813  19.884  1.00  0.00     0.337 C 
BRANCH  21  22
HETATM   22  O2  UNL     1      -3.842 -38.079  20.062  1.00  0.00    -0.377 OA
ATOM     23  H2  UNL     1      -4.007 -39.012  19.987  1.00  0.00     0.212 HD
ENDBRANCH  21  22
ENDBRANCH  20  21
ENDBRANCH  15  20
BRANCH  17  24
HETATM   24  N3  UNL     1       1.073 -33.457  21.311  1.00  0.00    -0.154 N 
HETATM   25  N2  UNL     1       2.088 -33.466  20.476  1.00  0.00    -0.284 N 
HETATM   26  C2  UNL     1       2.846 -32.368  20.631  1.00  0.00     0.158 A 
ATOM     27  H2  UNL     1       2.274 -34.208  19.800  1.00  0.00     0.188 HD
HETATM   28  C1  UNL     1       2.261 -31.634  21.627  1.00  0.00     0.132 A 
HETATM   29  N1  UNL     1       2.666 -30.500  22.098  1.00  0.00    -0.383 N 
HETATM   30  N15 UNL     1       1.177 -32.340  22.014  1.00  0.00    -0.260 N 
ATOM     31  H12 UNL     1       3.486 -29.967  21.806  1.00  0.00     0.157 HD
ATOM     32  H11 UNL     1       2.230 -29.953  22.840  1.00  0.00     0.157 HD
ATOM     33  H15 UNL     1       0.528 -32.052  22.747  1.00  0.00     0.191 HD
ENDBRANCH  17  24
ENDBRANCH  13  14
ENDBRANCH  10  13
ENDBRANCH   8   9
ENDBRANCH   1   8
BRANCH   7  34
HETATM   34  N14 UNL     1      -7.683 -38.236  22.796  1.00  0.00    -0.335 N 
ATOM     35 2H14 UNL     1      -7.128 -38.026  23.626  1.00  0.00     0.177 HD
ATOM     36 1H14 UNL     1      -8.630 -38.521  23.048  1.00  0.00     0.177 HD
ENDBRANCH   7  34
BRANCH   6  37
HETATM   37  C11 UNL     1      -7.173 -40.585  20.792  1.00  0.00     0.139 C 
BRANCH  37  38
HETATM   38  C12 UNL     1      -6.341 -41.429  19.929  1.00  0.00     0.061 A 
HETATM   39  N8  UNL     1      -6.669 -41.561  18.600  1.00  0.00    -0.193 N 
HETATM   40  C13 UNL     1      -5.947 -42.321  17.763  1.00  0.00     0.677 A 
ATOM     41  H8  UNL     1      -7.487 -41.068  18.241  1.00  0.00     0.184 HD
HETATM   42  N10 UNL     1      -4.867 -42.986  18.192  1.00  0.00    -0.175 N 
HETATM   43  C14 UNL     1      -4.486 -42.906  19.463  1.00  0.00     0.141 A 
ATOM     44  H10 UNL     1      -4.332 -43.558  17.539  1.00  0.00     0.186 HD
HETATM   45  C15 UNL     1      -5.240 -42.117  20.325  1.00  0.00     0.114 A 
HETATM   46  N12 UNL     1      -4.796 -42.038  21.684  1.00  0.00    -0.096 NA
BRANCH  40  47
HETATM   47  N9  UNL     1      -6.240 -42.458  16.515  1.00  0.00    -0.234 N 
ATOM     48  H92 UNL     1      -6.059 -43.375  16.109  1.00  0.00     0.174 HD
ATOM     49  H91 UNL     1      -6.632 -41.702  15.952  1.00  0.00     0.174 HD
ENDBRANCH  40  47
BRANCH  43  50
HETATM   50  N11 UNL     1      -3.459 -43.511  19.934  1.00  0.00    -0.383 N 
ATOM     51 2H11 UNL     1      -3.605 -44.250  20.622  1.00  0.00     0.157 HD
ATOM     52 1H11 UNL     1      -2.502 -43.290  19.662  1.00  0.00     0.157 HD
ENDBRANCH  43  50
ENDBRANCH  37  38
ENDBRANCH   6  37
TORSDOF 13
ENDMDL
MODEL 3
REMARK VINA RESULT: -8.766677366      1.711      2.287
REMARK  13 active torsions:
REMARK  status: ('A' for Active; 'I' for Inactive)
REMARK    1  A    between atoms: N3_8  and  C3_9 
REMARK    2  A    between atoms: C4_12  and  O1_13 
REMARK    3  A    between atoms: O1_13  and  C5_14 
REMARK    4  A    between atoms: C5_14  and  O2_15 
REMARK    5  A    between atoms: C6_17  and  C7_18 
REMARK    6  A    between atoms: C7_18  and  N5_19 
REMARK       I    between atoms: N5_19  and  C8_21 
REMARK    7  A    between atoms: C8_21  and  S1_23 
REMARK    8  A    between atoms: S1_23  and  C9_24 
REMARK    9  A    between atoms: C10_29  and  C11_30 
REMARK   10  A    between atoms: C11_30  and  C12_31 
REMARK   11  A    between atoms: C13_34  and  N9_35 
REMARK   12  A    between atoms: C14_40  and  N11_41 
REMARK   13  A    between atoms: N13_46  and  N14_47 
ROOT
HETATM    1  C9  UNL     1      -6.817 -37.091  20.773  1.00  0.00     0.191 A 
HETATM    2  N6  UNL     1      -7.001 -37.352  19.479  1.00  0.00    -0.277 N 
ATOM      3  H6  UNL     1      -7.278 -36.665  18.777  1.00  0.00     0.189 HD
HETATM    4  N7  UNL     1      -6.773 -38.629  19.240  1.00  0.00    -0.285 N 
ATOM      5  H7  UNL     1      -6.847 -39.081  18.329  1.00  0.00     0.188 HD
HETATM    6  C10 UNL     1      -6.420 -39.254  20.415  1.00  0.00     0.125 A 
HETATM    7  N13 UNL     1      -6.455 -38.294  21.330  1.00  0.00    -0.225 N 
ENDROOT
BRANCH   1   8
HETATM    8  S1  UNL     1      -6.954 -35.513  21.631  1.00  0.00     0.010 SA
BRANCH   8   9
HETATM    9  C8  UNL     1      -5.356 -34.720  21.645  1.00  0.00     0.287 C 
HETATM   10  N5  UNL     1      -4.169 -35.338  22.099  1.00  0.00    -0.349 N 
ATOM     11  H5  UNL     1      -4.195 -36.292  22.460  1.00  0.00     0.163 HD
HETATM   12  O3  UNL     1      -5.285 -33.525  21.216  1.00  0.00    -0.260 OA
BRANCH  10  13
HETATM   13  C7  UNL     1      -2.932 -34.624  22.050  1.00  0.00     0.160 C 
BRANCH  13  14
HETATM   14  C6  UNL     1      -1.728 -35.368  22.489  1.00  0.00     0.198 C 
HETATM   15  C4  UNL     1      -1.232 -36.237  21.354  1.00  0.00     0.257 C 
HETATM   16  N4  UNL     1      -0.188 -35.415  20.807  1.00  0.00    -0.325 N 
HETATM   17  C3  UNL     1       0.173 -34.461  21.584  1.00  0.00     0.259 C 
ATOM     18  H4  UNL     1       0.227 -35.575  19.890  1.00  0.00     0.165 HD
HETATM   19  O4  UNL     1      -0.598 -34.553  22.732  1.00  0.00    -0.308 OA
BRANCH  15  20
HETATM   20  O1  UNL     1      -2.229 -36.453  20.400  1.00  0.00    -0.340 OA
BRANCH  20  21
HETATM   21  C5  UNL     1      -1.705 -36.880  19.186  1.00  0.00     0.337 C 
BRANCH  21  22
HETATM   22  O2  UNL     1      -1.618 -35.805  18.293  1.00  0.00    -0.377 OA
ATOM     23  H2  UNL     1      -1.028 -35.142  18.634  1.00  0.00     0.212 HD
ENDBRANCH  21  22
ENDBRANCH  20  21
ENDBRANCH  15  20
BRANCH  17  24
HETATM   24  N3  UNL     1       1.195 -33.471  21.317  1.00  0.00    -0.154 N 
HETATM   25  N2  UNL     1       2.160 -33.501  20.425  1.00  0.00    -0.284 N 
HETATM   26  C2  UNL     1       2.908 -32.387  20.490  1.00  0.00     0.158 A 
ATOM     27  H2  UNL     1       2.318 -34.267  19.770  1.00  0.00     0.188 HD
HETATM   28  C1  UNL     1       2.371 -31.620  21.487  1.00  0.00     0.132 A 
HETATM   29  N1  UNL     1       2.783 -30.461  21.887  1.00  0.00    -0.383 N 
HETATM   30  N15 UNL     1       1.322 -32.323  21.966  1.00  0.00    -0.260 N 
ATOM     31  H12 UNL     1       3.576 -29.930  21.525  1.00  0.00     0.157 HD
ATOM     32  H11 UNL     1       2.383 -29.890  22.631  1.00  0.00     0.157 HD
ATOM     33  H15 UNL     1       0.712 -32.014  22.723  1.00  0.00     0.191 HD
ENDBRANCH  17  24
ENDBRANCH  13  14
ENDBRANCH  10  13
ENDBRANCH   8   9
ENDBRANCH   1   8
BRANCH   7  34
HETATM   34  N14 UNL     1      -6.154 -38.381  22.698  1.00  0.00    -0.335 N 
ATOM     35 2H14 UNL     1      -5.238 -38.395  23.147  1.00  0.00     0.177 HD
ATOM     36 1H14 UNL     1      -6.903 -38.422  23.390  1.00  0.00     0.177 HD
ENDBRANCH   7  34
BRANCH   6  37
HETATM   37  C11 UNL     1      -6.039 -40.661  20.556  1.00  0.00     0.139 C 
BRANCH  37  38
HETATM   38  C12 UNL     1      -6.605 -41.607  19.591  1.00  0.00     0.061 A 
HETATM   39  N8  UNL     1      -7.660 -42.403  19.970  1.00  0.00    -0.193 N 
HETATM   40  C13 UNL     1      -8.218 -43.289  19.131  1.00  0.00     0.677 A 
ATOM     41  H8  UNL     1      -8.028 -42.319  20.918  1.00  0.00     0.184 HD
HETATM   42  N10 UNL     1      -7.766 -43.432  17.878  1.00  0.00    -0.175 N 
HETATM   43  C14 UNL     1      -6.750 -42.696  17.438  1.00  0.00     0.141 A 
ATOM     44  H10 UNL     1      -8.205 -44.111  17.257  1.00  0.00     0.186 HD
HETATM   45  C15 UNL     1      -6.177 -41.781  18.315  1.00  0.00     0.114 A 
HETATM   46  N12 UNL     1      -5.096 -40.991  17.808  1.00  0.00    -0.096 NA
BRANCH  40  47
HETATM   47  N9  UNL     1      -9.206 -44.045  19.469  1.00  0.00    -0.234 N 
ATOM     48  H92 UNL     1      -8.968 -44.990  19.767  1.00  0.00     0.174 HD
ATOM     49  H91 UNL     1     -10.177 -43.730  19.445  1.00  0.00     0.174 HD
ENDBRANCH  40  47
BRANCH  43  50
HETATM   50  N11 UNL     1      -6.277 -42.779  16.251  1.00  0.00    -0.383 N 
ATOM     51 2H11 UNL     1      -6.790 -43.330  15.562  1.00  0.00     0.157 HD
ATOM     52 1H11 UNL     1      -5.411 -42.329  15.957  1.00  0.00     0.157 HD
ENDBRANCH  43  50
ENDBRANCH  37  38
ENDBRANCH   6  37
TORSDOF 13
ENDMDL
MODEL 4
REMARK VINA RESULT: -8.728596536      1.399      1.667
REMARK  13 active torsions:
REMARK  status: ('A' for Active; 'I' for Inactive)
REMARK    1  A    between atoms: N3_8  and  C3_9 
REMARK    2  A    between atoms: C4_12  and  O1_13 
REMARK    3  A    between atoms: O1_13  and  C5_14 
REMARK    4  A    between atoms: C5_14  and  O2_15 
REMARK    5  A    between atoms: C6_17  and  C7_18 
REMARK    6  A    between atoms: C7_18  and  N5_19 
REMARK       I    between atoms: N5_19  and  C8_21 
REMARK    7  A    between atoms: C8_21  and  S1_23 
REMARK    8  A    between atoms: S1_23  and  C9_24 
REMARK    9  A    between atoms: C10_29  and  C11_30 
REMARK   10  A    between atoms: C11_30  and  C12_31 
REMARK   11  A    between atoms: C13_34  and  N9_35 
REMARK   12  A    between atoms: C14_40  and  N11_41 
REMARK   13  A    between atoms: N13_46  and  N14_47 
ROOT
HETATM    1  C9  UNL     1      -5.885 -36.718  20.985  1.00  0.00     0.191 A 
HETATM    2  N6  UNL     1      -6.509 -37.039  19.851  1.00  0.00    -0.277 N 
ATOM      3  H6  UNL     1      -7.092 -36.404  19.304  1.00  0.00     0.189 HD
HETATM    4  N7  UNL     1      -6.262 -38.296  19.542  1.00  0.00    -0.285 N 
ATOM      5  H7  UNL     1      -6.623 -38.785  18.722  1.00  0.00     0.188 HD
HETATM    6  C10 UNL     1      -5.439 -38.846  20.499  1.00  0.00     0.125 A 
HETATM    7  N13 UNL     1      -5.226 -37.863  21.364  1.00  0.00    -0.225 N 
ENDROOT
BRANCH   1   8
HETATM    8  S1  UNL     1      -5.848 -35.130  21.835  1.00  0.00     0.010 SA
BRANCH   8   9
HETATM    9  C8  UNL     1      -4.311 -34.307  21.462  1.00  0.00     0.287 C 
HETATM   10  N5  UNL     1      -3.098 -34.547  22.147  1.00  0.00    -0.349 N 
ATOM     11  H5  UNL     1      -3.069 -35.215  22.918  1.00  0.00     0.163 HD
HETATM   12  O3  UNL     1      -4.309 -33.455  20.519  1.00  0.00    -0.260 OA
BRANCH  10  13
HETATM   13  C7  UNL     1      -1.912 -33.849  21.758  1.00  0.00     0.160 C 
BRANCH  13  14
HETATM   14  C6  UNL     1      -0.636 -34.584  21.926  1.00  0.00     0.198 C 
HETATM   15  C4  UNL     1       0.024 -34.758  20.576  1.00  0.00     0.257 C 
HETATM   16  N4  UNL     1       0.966 -33.673  20.582  1.00  0.00    -0.325 N 
HETATM   17  C3  UNL     1       1.157 -33.165  21.743  1.00  0.00     0.259 C 
ATOM     18  H4  UNL     1       1.437 -33.338  19.742  1.00  0.00     0.165 HD
HETATM   19  O4  UNL     1       0.358 -33.866  22.633  1.00  0.00    -0.308 OA
BRANCH  15  20
HETATM   20  O1  UNL     1      -0.890 -34.603  19.533  1.00  0.00    -0.340 OA
BRANCH  20  21
HETATM   21  C5  UNL     1      -0.769 -35.605  18.579  1.00  0.00     0.337 C 
BRANCH  21  22
HETATM   22  O2  UNL     1       0.459 -35.494  17.914  1.00  0.00    -0.377 OA
ATOM     23  H2  UNL     1       0.628 -36.278  17.405  1.00  0.00     0.212 HD
ENDBRANCH  21  22
ENDBRANCH  20  21
ENDBRANCH  15  20
BRANCH  17  24
HETATM   24  N3  UNL     1       2.041 -32.066  22.070  1.00  0.00    -0.154 N 
HETATM   25  N2  UNL     1       2.508 -31.122  21.285  1.00  0.00    -0.284 N 
HETATM   26  C2  UNL     1       3.304 -30.281  21.967  1.00  0.00     0.158 A 
ATOM     27  H2  UNL     1       2.295 -31.039  20.290  1.00  0.00     0.188 HD
HETATM   28  C1  UNL     1       3.329 -30.736  23.257  1.00  0.00     0.132 A 
HETATM   29  N1  UNL     1       3.976 -30.222  24.252  1.00  0.00    -0.383 N 
HETATM   30  N15 UNL     1       2.540 -31.832  23.274  1.00  0.00    -0.260 N 
ATOM     31  H12 UNL     1       4.572 -29.394  24.238  1.00  0.00     0.157 HD
ATOM     32  H11 UNL     1       3.994 -30.561  25.213  1.00  0.00     0.157 HD
ATOM     33  H15 UNL     1       2.354 -32.401  24.101  1.00  0.00     0.191 HD
ENDBRANCH  17  24
ENDBRANCH  13  14
ENDBRANCH  10  13
ENDBRANCH   8   9
ENDBRANCH   1   8
BRANCH   7  34
HETATM   34  N14 UNL     1      -4.433 -37.875  22.522  1.00  0.00    -0.335 N 
ATOM     35 2H14 UNL     1      -4.734 -37.890  23.497  1.00  0.00     0.177 HD
ATOM     36 1H14 UNL     1      -3.416 -37.891  22.450  1.00  0.00     0.177 HD
ENDBRANCH   7  34
BRANCH   6  37
HETATM   37  C11 UNL     1      -4.897 -40.206  20.485  1.00  0.00     0.139 C 
BRANCH  37  38
HETATM   38  C12 UNL     1      -5.619 -41.205  19.692  1.00  0.00     0.061 A 
HETATM   39  N8  UNL     1      -5.101 -41.606  18.484  1.00  0.00    -0.193 N 
HETATM   40  C13 UNL     1      -5.718 -42.515  17.713  1.00  0.00     0.677 A 
ATOM     41  H8  UNL     1      -4.221 -41.201  18.163  1.00  0.00     0.184 HD
HETATM   42  N10 UNL     1      -6.874 -43.073  18.096  1.00  0.00    -0.175 N 
HETATM   43  C14 UNL     1      -7.437 -42.736  19.252  1.00  0.00     0.141 A 
ATOM     44  H10 UNL     1      -7.327 -43.761  17.494  1.00  0.00     0.186 HD
HETATM   45  C15 UNL     1      -6.790 -41.793  20.044  1.00  0.00     0.114 A 
HETATM   46  N12 UNL     1      -7.412 -41.462  21.292  1.00  0.00    -0.096 NA
BRANCH  40  47
HETATM   47  N9  UNL     1      -5.248 -42.903  16.577  1.00  0.00    -0.234 N 
ATOM     48  H92 UNL     1      -4.244 -42.787  16.443  1.00  0.00     0.174 HD
ATOM     49  H91 UNL     1      -5.834 -43.304  15.844  1.00  0.00     0.174 HD
ENDBRANCH  40  47
BRANCH  43  50
HETATM   50  N11 UNL     1      -8.536 -43.237  19.678  1.00  0.00    -0.383 N 
ATOM     51 2H11 UNL     1      -9.398 -43.007  19.182  1.00  0.00     0.157 HD
ATOM     52 1H11 UNL     1      -8.598 -43.851  20.490  1.00  0.00     0.157 HD
ENDBRANCH  43  50
ENDBRANCH  37  38
ENDBRANCH   6  37
TORSDOF 13
ENDMDL
MODEL 5
REMARK VINA RESULT: -8.706966479      1.731      2.363
REMARK  13 active torsions:
REMARK  status: ('A' for Active; 'I' for Inactive)
REMARK    1  A    between atoms: N3_8  and  C3_9 
REMARK    2  A    between atoms: C4_12  and  O1_13 
REMARK    3  A    between atoms: O1_13  and  C5_14 
REMARK    4  A    between atoms: C5_14  and  O2_15 
REMARK    5  A    between atoms: C6_17  and  C7_18 
REMARK    6  A    between atoms: C7_18  and  N5_19 
REMARK       I    between atoms: N5_19  and  C8_21 
REMARK    7  A    between atoms: C8_21  and  S1_23 
REMARK    8  A    between atoms: S1_23  and  C9_24 
REMARK    9  A    between atoms: C10_29  and  C11_30 
REMARK   10  A    between atoms: C11_30  and  C12_31 
REMARK   11  A    between atoms: C13_34  and  N9_35 
REMARK   12  A    between atoms: C14_40  and  N11_41 
REMARK   13  A    between atoms: N13_46  and  N14_47 
ROOT
HETATM    1  C9  UNL     1      -6.327 -38.340  20.412  1.00  0.00     0.191 A 
HETATM    2  N6  UNL     1      -6.974 -38.311  19.246  1.00  0.00    -0.277 N 
ATOM      3  H6  UNL     1      -7.565 -37.545  18.923  1.00  0.00     0.189 HD
HETATM    4  N7  UNL     1      -6.736 -39.420  18.572  1.00  0.00    -0.285 N 
ATOM      5  H7  UNL     1      -7.114 -39.643  17.652  1.00  0.00     0.188 HD
HETATM    6  C10 UNL     1      -5.897 -40.227  19.308  1.00  0.00     0.125 A 
HETATM    7  N13 UNL     1      -5.666 -39.544  20.421  1.00  0.00    -0.225 N 
ENDROOT
BRANCH   1   8
HETATM    8  S1  UNL     1      -6.270 -37.077  21.695  1.00  0.00     0.010 SA
BRANCH   8   9
HETATM    9  C8  UNL     1      -4.774 -36.125  21.506  1.00  0.00     0.287 C 
HETATM   10  N5  UNL     1      -3.742 -36.072  22.470  1.00  0.00    -0.349 N 
ATOM     11  H5  UNL     1      -3.834 -36.587  23.346  1.00  0.00     0.163 HD
HETATM   12  O3  UNL     1      -4.629 -35.456  20.434  1.00  0.00    -0.260 OA
BRANCH  10  13
HETATM   13  C7  UNL     1      -2.570 -35.294  22.215  1.00  0.00     0.160 C 
BRANCH  13  14
HETATM   14  C6  UNL     1      -1.279 -35.912  22.597  1.00  0.00     0.198 C 
HETATM   15  C4  UNL     1      -0.721 -36.680  21.418  1.00  0.00     0.257 C 
HETATM   16  N4  UNL     1       0.208 -35.728  20.876  1.00  0.00    -0.325 N 
HETATM   17  C3  UNL     1       0.482 -34.766  21.678  1.00  0.00     0.259 C 
ATOM     18  H4  UNL     1       0.611 -35.809  19.944  1.00  0.00     0.165 HD
HETATM   19  O4  UNL     1      -0.240 -34.983  22.841  1.00  0.00    -0.308 OA
BRANCH  15  20
HETATM   20  O1  UNL     1      -1.714 -36.976  20.483  1.00  0.00    -0.340 OA
BRANCH  20  21
HETATM   21  C5  UNL     1      -1.339 -36.621  19.193  1.00  0.00     0.337 C 
BRANCH  21  22
HETATM   22  O2  UNL     1      -2.002 -35.452  18.801  1.00  0.00    -0.377 OA
ATOM     23  H2  UNL     1      -2.671 -35.655  18.157  1.00  0.00     0.212 HD
ENDBRANCH  21  22
ENDBRANCH  20  21
ENDBRANCH  15  20
BRANCH  17  24
HETATM   24  N3  UNL     1       1.379 -33.658  21.422  1.00  0.00    -0.154 N 
HETATM   25  N2  UNL     1       2.397 -33.596  20.593  1.00  0.00    -0.284 N 
HETATM   26  C2  UNL     1       2.984 -32.388  20.645  1.00  0.00     0.158 A 
ATOM     27  H2  UNL     1       2.701 -34.361  19.991  1.00  0.00     0.188 HD
HETATM   28  C1  UNL     1       2.283 -31.658  21.566  1.00  0.00     0.132 A 
HETATM   29  N1  UNL     1       2.509 -30.438  21.928  1.00  0.00    -0.383 N 
HETATM   30  N15 UNL     1       1.307 -32.477  22.016  1.00  0.00    -0.260 N 
ATOM     31  H12 UNL     1       3.246 -29.819  21.588  1.00  0.00     0.157 HD
ATOM     32  H11 UNL     1       1.986 -29.894  22.615  1.00  0.00     0.157 HD
ATOM     33  H15 UNL     1       0.612 -32.221  22.717  1.00  0.00     0.191 HD
ENDBRANCH  17  24
ENDBRANCH  13  14
ENDBRANCH  10  13
ENDBRANCH   8   9
ENDBRANCH   1   8
BRANCH   7  34
HETATM   34  N14 UNL     1      -4.851 -39.898  21.508  1.00  0.00    -0.335 N 
ATOM     35 2H14 UNL     1      -3.900 -39.591  21.715  1.00  0.00     0.177 HD
ATOM     36 1H14 UNL     1      -5.201 -40.526  22.233  1.00  0.00     0.177 HD
ENDBRANCH   7  34
BRANCH   6  37
HETATM   37  C11 UNL     1      -5.360 -41.520  18.880  1.00  0.00     0.139 C 
BRANCH  37  38
HETATM   38  C12 UNL     1      -6.240 -42.379  18.084  1.00  0.00     0.061 A 
HETATM   39  N8  UNL     1      -5.966 -42.570  16.750  1.00  0.00    -0.193 N 
HETATM   40  C13 UNL     1      -6.738 -43.343  15.970  1.00  0.00     0.677 A 
ATOM     41  H8  UNL     1      -5.153 -42.110  16.341  1.00  0.00     0.184 HD
HETATM   42  N10 UNL     1      -7.815 -43.966  16.466  1.00  0.00    -0.175 N 
HETATM   43  C14 UNL     1      -8.143 -43.831  17.747  1.00  0.00     0.141 A 
ATOM     44  H10 UNL     1      -8.387 -44.549  15.856  1.00  0.00     0.186 HD
HETATM   45  C15 UNL     1      -7.339 -43.027  18.548  1.00  0.00     0.114 A 
HETATM   46  N12 UNL     1      -7.708 -42.913  19.927  1.00  0.00    -0.096 NA
BRANCH  40  47
HETATM   47  N9  UNL     1      -6.497 -43.533  14.718  1.00  0.00    -0.234 N 
ATOM     48  H92 UNL     1      -5.646 -43.106  14.354  1.00  0.00     0.174 HD
ATOM     49  H91 UNL     1      -7.114 -44.076  14.112  1.00  0.00     0.174 HD
ENDBRANCH  40  47
BRANCH  43  50
HETATM   50  N11 UNL     1      -9.155 -44.405  18.284  1.00  0.00    -0.383 N 
ATOM     51 2H11 UNL     1      -9.083 -45.396  18.515  1.00  0.00     0.157 HD
ATOM     52 1H11 UNL     1     -10.032 -43.926  18.488  1.00  0.00     0.157 HD
ENDBRANCH  43  50
ENDBRANCH  37  38
ENDBRANCH   6  37
TORSDOF 13
ENDMDL
