MODEL 1
REMARK VINA RESULT: -9.417832618      0.000      0.000
REMARK  12 active torsions:
REMARK  status: ('A' for Active; 'I' for Inactive)
REMARK    1  A    between atoms: N1_1  and  C1_4 
REMARK    2  A    between atoms: C3_9  and  C4_10 
REMARK    3  A    between atoms: C5_15  and  C6_16 
REMARK    4  A    between atoms: C6_16  and  O1_17 
REMARK    5  A    between atoms: C6_16  and  C7_19 
REMARK    6  A    between atoms: C8_22  and  N6_23 
REMARK    7  A    between atoms: N6_23  and  N7_25 
REMARK    8  A    between atoms: N8_28  and  N9_29 
REMARK    9  A    between atoms: N9_29  and  N10_31 
REMARK   10  A    between atoms: N10_31  and  C9_33 
REMARK   11  A    between atoms: C11_40  and  N13_41 
REMARK   12  A    between atoms: C13_45  and  N14_46 
ROOT
HETATM    1  C4  UNL     1      -1.286 -37.156  21.276  1.00  0.00     0.164 A 
HETATM    2  N4  UNL     1       0.019 -37.351  21.025  1.00  0.00    -0.283 N 
ATOM      3  H4  UNL     1       0.304 -38.237  20.609  1.00  0.00     0.188 HD
HETATM    4  N5  UNL     1       0.940 -36.468  21.285  1.00  0.00    -0.296 N 
ATOM      5  H5  UNL     1       1.917 -36.669  21.074  1.00  0.00     0.187 HD
HETATM    6  C5  UNL     1       0.590 -35.265  21.845  1.00  0.00     0.112 A 
HETATM    7  C8  UNL     1      -0.731 -35.049  22.109  1.00  0.00     0.172 A 
HETATM    8  N8  UNL     1      -1.675 -36.026  21.811  1.00  0.00    -0.203 N 
ENDROOT
BRANCH   8   9
HETATM    9  N9  UNL     1      -3.031 -35.738  22.105  1.00  0.00    -0.231 N 
ATOM     10  H9  UNL     1      -3.362 -35.719  23.070  1.00  0.00     0.209 HD
BRANCH   9  11
HETATM   11  N10 UNL     1      -3.817 -35.505  21.151  1.00  0.00    -0.268 N 
ATOM     12  H10 UNL     1      -3.420 -35.067  20.320  1.00  0.00     0.190 HD
BRANCH  11  13
HETATM   13  C9  UNL     1      -5.193 -35.793  21.127  1.00  0.00     0.156 A 
HETATM   14  N11 UNL     1      -5.685 -36.986  20.755  1.00  0.00    -0.324 N 
HETATM   15  C10 UNL     1      -7.015 -37.276  20.727  1.00  0.00     0.134 A 
ATOM     16  H11 UNL     1      -5.027 -37.715  20.477  1.00  0.00     0.169 HD
HETATM   17  N12 UNL     1      -7.364 -38.434  20.373  1.00  0.00    -0.383 N 
HETATM   18  C11 UNL     1      -7.894 -36.313  21.095  1.00  0.00     0.148 A 
ATOM     19 2H12 UNL     1      -6.702 -39.159  20.096  1.00  0.00     0.157 HD
ATOM     20 1H12 UNL     1      -8.360 -38.651  20.352  1.00  0.00     0.157 HD
HETATM   21  C12 UNL     1      -7.437 -35.058  21.491  1.00  0.00     0.080 A 
HETATM   22  C13 UNL     1      -6.095 -34.815  21.502  1.00  0.00     0.150 A 
BRANCH  18  23
HETATM   23  N13 UNL     1      -9.305 -36.450  21.127  1.00  0.00    -0.112 N 
HETATM   24  O4  UNL     1     -10.038 -35.507  20.851  1.00  0.00    -0.532 OA
HETATM   25  O5  UNL     1      -9.923 -37.636  21.497  1.00  0.00    -0.532 OA
ENDBRANCH  18  23
BRANCH  22  26
HETATM   26  N14 UNL     1      -5.601 -33.528  21.907  1.00  0.00    -0.112 N 
HETATM   27  O6  UNL     1      -4.381 -33.263  21.936  1.00  0.00    -0.532 OA
HETATM   28  O7  UNL     1      -6.471 -32.539  22.280  1.00  0.00    -0.532 OA
ENDBRANCH  22  26
ENDBRANCH  11  13
ENDBRANCH   9  11
ENDBRANCH   8   9
BRANCH   1  29
HETATM   29  C3  UNL     1      -2.290 -38.174  20.967  1.00  0.00     0.121 A 
HETATM   30  C2  UNL     1      -2.616 -38.421  19.653  1.00  0.00     0.151 A 
HETATM   31  N2  UNL     1      -3.545 -39.360  19.358  1.00  0.00    -0.178 N 
HETATM   32  N3  UNL     1      -2.027 -37.735  18.561  1.00  0.00    -0.081 NA
HETATM   33  C1  UNL     1      -4.140 -40.046  20.352  1.00  0.00     0.680 A 
ATOM     34  H2  UNL     1      -3.793 -39.548  18.386  1.00  0.00     0.185 HD
HETATM   35  N15 UNL     1      -3.814 -39.801  21.639  1.00  0.00    -0.155 N 
HETATM   36  C14 UNL     1      -2.901 -38.878  21.980  1.00  0.00     0.277 A 
ATOM     37  H15 UNL     1      -4.278 -40.333  22.376  1.00  0.00     0.187 HD
HETATM   38  O8  UNL     1      -2.654 -38.709  23.199  1.00  0.00    -0.267 OA
BRANCH  33  39
HETATM   39  N1  UNL     1      -5.028 -40.947  20.095  1.00  0.00    -0.234 N 
ATOM     40  H12 UNL     1      -4.996 -41.428  19.196  1.00  0.00     0.174 HD
ATOM     41  H11 UNL     1      -5.752 -41.176  20.777  1.00  0.00     0.174 HD
ENDBRANCH  33  39
ENDBRANCH   1  29
BRANCH   7  42
HETATM   42  N6  UNL     1      -1.207 -34.025  22.656  1.00  0.00    -0.289 N 
ATOM     43  H6  UNL     1      -1.295 -34.107  23.669  1.00  0.00     0.188 HD
BRANCH  42  44
HETATM   44  N7  UNL     1      -1.620 -32.851  22.178  1.00  0.00    -0.344 N 
ATOM     45  H72 UNL     1      -1.426 -32.749  21.182  1.00  0.00     0.176 HD
ATOM     46  H71 UNL     1      -2.083 -32.050  22.609  1.00  0.00     0.176 HD
ENDBRANCH  42  44
ENDBRANCH   7  42
BRANCH   6  47
HETATM   47  C6  UNL     1       1.675 -34.272  22.076  1.00  0.00     0.273 C 
BRANCH  47  48
HETATM   48  O1  UNL     1       2.912 -34.871  21.949  1.00  0.00    -0.378 OA
ATOM     49  H1  UNL     1       3.335 -34.593  21.146  1.00  0.00     0.211 HD
ENDBRANCH  47  48
BRANCH  47  50
HETATM   50  C7  UNL     1       1.521 -33.174  21.037  1.00  0.00     0.209 C 
HETATM   51  O2  UNL     1       1.214 -32.046  21.440  1.00  0.00    -0.646 OA
HETATM   52  O3  UNL     1       1.728 -33.500  19.725  1.00  0.00    -0.646 OA
ENDBRANCH  47  50
ENDBRANCH   6  47
TORSDOF 12
ENDMDL
MODEL 2
REMARK VINA RESULT: -9.390351611      2.558      7.326
REMARK  12 active torsions:
REMARK  status: ('A' for Active; 'I' for Inactive)
REMARK    1  A    between atoms: N1_1  and  C1_4 
REMARK    2  A    between atoms: C3_9  and  C4_10 
REMARK    3  A    between atoms: C5_15  and  C6_16 
REMARK    4  A    between atoms: C6_16  and  O1_17 
REMARK    5  A    between atoms: C6_16  and  C7_19 
REMARK    6  A    between atoms: C8_22  and  N6_23 
REMARK    7  A    between atoms: N6_23  and  N7_25 
REMARK    8  A    between atoms: N8_28  and  N9_29 
REMARK    9  A    between atoms: N9_29  and  N10_31 
REMARK   10  A    between atoms: N10_31  and  C9_33 
REMARK   11  A    between atoms: C11_40  and  N13_41 
REMARK   12  A    between atoms: C13_45  and  N14_46 
ROOT
HETATM    1  C4  UNL     1      -2.780 -37.991  20.881  1.00  0.00     0.164 A 
HETATM    2  N4  UNL     1      -2.964 -39.302  20.652  1.00  0.00    -0.283 N 
ATOM      3  H4  UNL     1      -2.189 -39.938  20.840  1.00  0.00     0.188 HD
HETATM    4  N5  UNL     1      -4.078 -39.803  20.203  1.00  0.00    -0.296 N 
ATOM      5  H5  UNL     1      -4.162 -40.808  20.047  1.00  0.00     0.187 HD
HETATM    6  C5  UNL     1      -5.139 -38.975  19.941  1.00  0.00     0.112 A 
HETATM    7  C8  UNL     1      -4.973 -37.640  20.165  1.00  0.00     0.172 A 
HETATM    8  N8  UNL     1      -3.760 -37.155  20.646  1.00  0.00    -0.203 N 
ENDROOT
BRANCH   8   9
HETATM    9  N9  UNL     1      -3.654 -35.759  20.862  1.00  0.00    -0.231 N 
ATOM     10  H9  UNL     1      -3.982 -35.341  21.733  1.00  0.00     0.209 HD
BRANCH   9  11
HETATM   11  N10 UNL     1      -3.145 -35.048  19.959  1.00  0.00    -0.268 N 
ATOM     12  H10 UNL     1      -3.707 -34.888  19.122  1.00  0.00     0.190 HD
BRANCH  11  13
HETATM   13  C9  UNL     1      -1.872 -34.451  19.997  1.00  0.00     0.156 A 
HETATM   14  N11 UNL     1      -0.993 -34.535  18.985  1.00  0.00    -0.324 N 
HETATM   15  C10 UNL     1       0.242 -33.962  19.011  1.00  0.00     0.134 A 
ATOM     16  H11 UNL     1      -1.264 -35.057  18.151  1.00  0.00     0.169 HD
HETATM   17  N12 UNL     1       0.981 -34.095  17.998  1.00  0.00    -0.383 N 
HETATM   18  C11 UNL     1       0.609 -33.268  20.115  1.00  0.00     0.148 A 
ATOM     19 2H12 UNL     1       0.704 -34.618  17.167  1.00  0.00     0.157 HD
ATOM     20 1H12 UNL     1       1.906 -33.665  18.018  1.00  0.00     0.157 HD
HETATM   21  C12 UNL     1      -0.265 -33.149  21.193  1.00  0.00     0.080 A 
HETATM   22  C13 UNL     1      -1.493 -33.740  21.120  1.00  0.00     0.150 A 
BRANCH  18  23
HETATM   23  N13 UNL     1       1.851 -32.609  20.304  1.00  0.00    -0.112 N 
HETATM   24  O4  UNL     1       2.877 -33.036  19.787  1.00  0.00    -0.532 OA
HETATM   25  O5  UNL     1       1.972 -31.478  21.098  1.00  0.00    -0.532 OA
ENDBRANCH  18  23
BRANCH  22  26
HETATM   26  N14 UNL     1      -2.410 -33.630  22.220  1.00  0.00    -0.112 N 
HETATM   27  O6  UNL     1      -2.208 -34.198  23.314  1.00  0.00    -0.532 OA
HETATM   28  O7  UNL     1      -3.552 -32.886  22.096  1.00  0.00    -0.532 OA
ENDBRANCH  22  26
ENDBRANCH  11  13
ENDBRANCH   9  11
ENDBRANCH   8   9
BRANCH   1  29
HETATM   29  C3  UNL     1      -1.512 -37.467  21.387  1.00  0.00     0.121 A 
HETATM   30  C2  UNL     1      -1.400 -37.149  22.721  1.00  0.00     0.151 A 
HETATM   31  N2  UNL     1      -0.230 -36.663  23.198  1.00  0.00    -0.178 N 
HETATM   32  N3  UNL     1      -2.458 -37.302  23.651  1.00  0.00    -0.081 NA
HETATM   33  C1  UNL     1       0.814 -36.496  22.364  1.00  0.00     0.680 A 
ATOM     34  H2  UNL     1      -0.139 -36.424  24.186  1.00  0.00     0.185 HD
HETATM   35  N15 UNL     1       0.698 -36.811  21.056  1.00  0.00    -0.155 N 
HETATM   36  C14 UNL     1      -0.442 -37.295  20.537  1.00  0.00     0.277 A 
ATOM     37  H15 UNL     1       1.502 -36.677  20.443  1.00  0.00     0.187 HD
HETATM   38  O8  UNL     1      -0.470 -37.564  19.312  1.00  0.00    -0.267 OA
BRANCH  33  39
HETATM   39  N1  UNL     1       1.939 -36.034  22.795  1.00  0.00    -0.234 N 
ATOM     40  H12 UNL     1       2.049 -35.861  23.795  1.00  0.00     0.174 HD
ATOM     41  H11 UNL     1       2.707 -35.845  22.152  1.00  0.00     0.174 HD
ENDBRANCH  33  39
ENDBRANCH   1  29
BRANCH   7  42
HETATM   42  N6  UNL     1      -5.827 -36.750  19.935  1.00  0.00    -0.289 N 
ATOM     43  H6  UNL     1      -5.600 -36.163  19.133  1.00  0.00     0.188 HD
BRANCH  42  44
HETATM   44  N7  UNL     1      -6.973 -36.419  20.531  1.00  0.00    -0.344 N 
ATOM     45  H72 UNL     1      -7.648 -37.183  20.524  1.00  0.00     0.176 HD
ATOM     46  H71 UNL     1      -7.297 -35.564  20.984  1.00  0.00     0.176 HD
ENDBRANCH  42  44
ENDBRANCH   7  42
BRANCH   6  47
HETATM   47  C6  UNL     1      -6.406 -39.606  19.477  1.00  0.00     0.273 C 
BRANCH  47  48
HETATM   48  O1  UNL     1      -6.996 -38.836  18.495  1.00  0.00    -0.378 OA
ATOM     49  H1  UNL     1      -7.819 -39.222  18.220  1.00  0.00     0.211 HD
ENDBRANCH  47  48
BRANCH  47  50
HETATM   50  C7  UNL     1      -6.060 -40.978  18.924  1.00  0.00     0.209 C 
HETATM   51  O2  UNL     1      -6.442 -41.964  19.564  1.00  0.00    -0.646 OA
HETATM   52  O3  UNL     1      -5.349 -41.037  17.757  1.00  0.00    -0.646 OA
ENDBRANCH  47  50
ENDBRANCH   6  47
TORSDOF 12
ENDMDL
MODEL 3
REMARK VINA RESULT: -9.214304843      1.831      2.387
REMARK  12 active torsions:
REMARK  status: ('A' for Active; 'I' for Inactive)
REMARK    1  A    between atoms: N1_1  and  C1_4 
REMARK    2  A    between atoms: C3_9  and  C4_10 
REMARK    3  A    between atoms: C5_15  and  C6_16 
REMARK    4  A    between atoms: C6_16  and  O1_17 
REMARK    5  A    between atoms: C6_16  and  C7_19 
REMARK    6  A    between atoms: C8_22  and  N6_23 
REMARK    7  A    between atoms: N6_23  and  N7_25 
REMARK    8  A    between atoms: N8_28  and  N9_29 
REMARK    9  A    between atoms: N9_29  and  N10_31 
REMARK   10  A    between atoms: N10_31  and  C9_33 
REMARK   11  A    between atoms: C11_40  and  N13_41 
REMARK   12  A    between atoms: C13_45  and  N14_46 
ROOT
HETATM    1  C4  UNL     1      -2.053 -37.436  20.701  1.00  0.00     0.164 A 
HETATM    2  N4  UNL     1      -0.715 -37.536  20.637  1.00  0.00    -0.283 N 
ATOM      3  H4  UNL     1      -0.278 -38.393  20.975  1.00  0.00     0.188 HD
HETATM    4  N5  UNL     1       0.053 -36.597  20.165  1.00  0.00    -0.296 N 
ATOM      5  H5  UNL     1       1.065 -36.727  20.140  1.00  0.00     0.187 HD
HETATM    6  C5  UNL     1      -0.503 -35.432  19.701  1.00  0.00     0.112 A 
HETATM    7  C8  UNL     1      -1.860 -35.310  19.760  1.00  0.00     0.172 A 
HETATM    8  N8  UNL     1      -2.636 -36.344  20.274  1.00  0.00    -0.203 N 
ENDROOT
BRANCH   8   9
HETATM    9  N9  UNL     1      -4.040 -36.157  20.303  1.00  0.00    -0.231 N 
ATOM     10  H9  UNL     1      -4.607 -36.341  19.475  1.00  0.00     0.209 HD
BRANCH   9  11
HETATM   11  N10 UNL     1      -4.572 -35.758  21.370  1.00  0.00    -0.268 N 
ATOM     12  H10 UNL     1      -4.014 -35.147  21.967  1.00  0.00     0.190 HD
BRANCH  11  13
HETATM   13  C9  UNL     1      -5.866 -36.079  21.817  1.00  0.00     0.156 A 
HETATM   14  N11 UNL     1      -6.255 -37.334  22.096  1.00  0.00    -0.324 N 
HETATM   15  C10 UNL     1      -7.506 -37.655  22.528  1.00  0.00     0.134 A 
ATOM     16  H11 UNL     1      -5.578 -38.087  21.977  1.00  0.00     0.169 HD
HETATM   17  N12 UNL     1      -7.757 -38.867  22.772  1.00  0.00    -0.383 N 
HETATM   18  C11 UNL     1      -8.410 -36.660  22.688  1.00  0.00     0.148 A 
ATOM     19 2H12 UNL     1      -7.076 -39.616  22.651  1.00  0.00     0.157 HD
ATOM     20 1H12 UNL     1      -8.694 -39.107  23.096  1.00  0.00     0.157 HD
HETATM   21  C12 UNL     1      -8.059 -35.340  22.414  1.00  0.00     0.080 A 
HETATM   22  C13 UNL     1      -6.793 -35.067  21.983  1.00  0.00     0.150 A 
BRANCH  18  23
HETATM   23  N13 UNL     1      -9.748 -36.821  23.132  1.00  0.00    -0.112 N 
HETATM   24  O4  UNL     1     -10.246 -36.039  23.935  1.00  0.00    -0.532 OA
HETATM   25  O5  UNL     1     -10.543 -37.876  22.708  1.00  0.00    -0.532 OA
ENDBRANCH  18  23
BRANCH  22  26
HETATM   26  N14 UNL     1      -6.409 -33.713  21.695  1.00  0.00    -0.112 N 
HETATM   27  O6  UNL     1      -6.878 -32.741  22.323  1.00  0.00    -0.532 OA
HETATM   28  O7  UNL     1      -5.502 -33.447  20.705  1.00  0.00    -0.532 OA
ENDBRANCH  22  26
ENDBRANCH  11  13
ENDBRANCH   9  11
ENDBRANCH   8   9
BRANCH   1  29
HETATM   29  C3  UNL     1      -2.882 -38.515  21.238  1.00  0.00     0.121 A 
HETATM   30  C2  UNL     1      -2.984 -38.670  22.602  1.00  0.00     0.151 A 
HETATM   31  N2  UNL     1      -3.747 -39.667  23.108  1.00  0.00    -0.178 N 
HETATM   32  N3  UNL     1      -2.322 -37.832  23.534  1.00  0.00    -0.081 NA
HETATM   33  C1  UNL     1      -4.402 -40.496  22.273  1.00  0.00     0.680 A 
ATOM     34  H2  UNL     1      -3.827 -39.790  24.117  1.00  0.00     0.185 HD
HETATM   35  N15 UNL     1      -4.299 -40.338  20.935  1.00  0.00    -0.155 N 
HETATM   36  C14 UNL     1      -3.552 -39.365  20.388  1.00  0.00     0.277 A 
ATOM     37  H15 UNL     1      -4.804 -40.977  20.322  1.00  0.00     0.187 HD
HETATM   38  O8  UNL     1      -3.508 -39.283  19.137  1.00  0.00    -0.267 OA
BRANCH  33  39
HETATM   39  N1  UNL     1      -5.136 -41.454  22.731  1.00  0.00    -0.234 N 
ATOM     40  H12 UNL     1      -4.685 -42.228  23.221  1.00  0.00     0.174 HD
ATOM     41  H11 UNL     1      -6.148 -41.440  22.609  1.00  0.00     0.174 HD
ENDBRANCH  33  39
ENDBRANCH   1  29
BRANCH   7  42
HETATM   42  N6  UNL     1      -2.516 -34.296  19.419  1.00  0.00    -0.289 N 
ATOM     43  H6  UNL     1      -3.012 -34.409  18.535  1.00  0.00     0.188 HD
BRANCH  42  44
HETATM   44  N7  UNL     1      -2.694 -33.100  19.981  1.00  0.00    -0.344 N 
ATOM     45  H72 UNL     1      -3.675 -32.822  19.997  1.00  0.00     0.176 HD
ATOM     46  H71 UNL     1      -2.049 -32.423  20.389  1.00  0.00     0.176 HD
ENDBRANCH  42  44
ENDBRANCH   7  42
BRANCH   6  47
HETATM   47  C6  UNL     1       0.417 -34.412  19.126  1.00  0.00     0.273 C 
BRANCH  47  48
HETATM   48  O1  UNL     1      -0.243 -33.644  18.187  1.00  0.00    -0.378 OA
ATOM     49  H1  UNL     1      -0.610 -32.867  18.592  1.00  0.00     0.211 HD
ENDBRANCH  47  48
BRANCH  47  50
HETATM   50  C7  UNL     1       0.900 -33.534  20.268  1.00  0.00     0.209 C 
HETATM   51  O2  UNL     1       0.102 -32.713  20.734  1.00  0.00    -0.646 OA
HETATM   52  O3  UNL     1       2.183 -33.705  20.708  1.00  0.00    -0.646 OA
ENDBRANCH  47  50
ENDBRANCH   6  47
TORSDOF 12
ENDMDL
MODEL 4
REMARK VINA RESULT: -9.083451621      1.984      2.568
REMARK  12 active torsions:
REMARK  status: ('A' for Active; 'I' for Inactive)
REMARK    1  A    between atoms: N1_1  and  C1_4 
REMARK    2  A    between atoms: C3_9  and  C4_10 
REMARK    3  A    between atoms: C5_15  and  C6_16 
REMARK    4  A    between atoms: C6_16  and  O1_17 
REMARK    5  A    between atoms: C6_16  and  C7_19 
REMARK    6  A    between atoms: C8_22  and  N6_23 
REMARK    7  A    between atoms: N6_23  and  N7_25 
REMARK    8  A    between atoms: N8_28  and  N9_29 
REMARK    9  A    between atoms: N9_29  and  N10_31 
REMARK   10  A    between atoms: N10_31  and  C9_33 
REMARK   11  A    between atoms: C11_40  and  N13_41 
REMARK   12  A    between atoms: C13_45  and  N14_46 
ROOT
HETATM    1  C4  UNL     1      -2.090 -37.107  20.825  1.00  0.00     0.164 A 
HETATM    2  N4  UNL     1      -0.747 -37.068  20.810  1.00  0.00    -0.283 N 
ATOM      3  H4  UNL     1      -0.237 -37.858  21.204  1.00  0.00     0.188 HD
HETATM    4  N5  UNL     1      -0.064 -36.075  20.320  1.00  0.00    -0.296 N 
ATOM      5  H5  UNL     1       0.956 -36.097  20.335  1.00  0.00     0.187 HD
HETATM    6  C5  UNL     1      -0.720 -34.997  19.782  1.00  0.00     0.112 A 
HETATM    7  C8  UNL     1      -2.084 -35.017  19.790  1.00  0.00     0.172 A 
HETATM    8  N8  UNL     1      -2.767 -36.104  20.326  1.00  0.00    -0.203 N 
ENDROOT
BRANCH   8   9
HETATM    9  N9  UNL     1      -4.183 -36.065  20.299  1.00  0.00    -0.231 N 
ATOM     10  H9  UNL     1      -4.694 -36.311  19.451  1.00  0.00     0.209 HD
BRANCH   9  11
HETATM   11  N10 UNL     1      -4.796 -35.722  21.342  1.00  0.00    -0.268 N 
ATOM     12  H10 UNL     1      -4.320 -35.071  21.966  1.00  0.00     0.190 HD
BRANCH  11  13
HETATM   13  C9  UNL     1      -6.078 -36.154  21.726  1.00  0.00     0.156 A 
HETATM   14  N11 UNL     1      -6.357 -37.429  22.043  1.00  0.00    -0.324 N 
HETATM   15  C10 UNL     1      -7.594 -37.858  22.416  1.00  0.00     0.134 A 
ATOM     16  H11 UNL     1      -5.601 -38.113  22.003  1.00  0.00     0.169 HD
HETATM   17  N12 UNL     1      -7.738 -39.077  22.705  1.00  0.00    -0.383 N 
HETATM   18  C11 UNL     1      -8.602 -36.955  22.471  1.00  0.00     0.148 A 
ATOM     19 2H12 UNL     1      -6.979 -39.757  22.663  1.00  0.00     0.157 HD
ATOM     20 1H12 UNL     1      -8.665 -39.398  22.984  1.00  0.00     0.157 HD
HETATM   21  C12 UNL     1      -8.367 -35.619  22.153  1.00  0.00     0.080 A 
HETATM   22  C13 UNL     1      -7.110 -35.237  21.785  1.00  0.00     0.150 A 
BRANCH  18  23
HETATM   23  N13 UNL     1      -9.942 -37.232  22.842  1.00  0.00    -0.112 N 
HETATM   24  O4  UNL     1     -10.633 -36.386  23.397  1.00  0.00    -0.532 OA
HETATM   25  O5  UNL     1     -10.526 -38.473  22.624  1.00  0.00    -0.532 OA
ENDBRANCH  18  23
BRANCH  22  26
HETATM   26  N14 UNL     1      -6.845 -33.864  21.453  1.00  0.00    -0.112 N 
HETATM   27  O6  UNL     1      -6.866 -32.956  22.310  1.00  0.00    -0.532 OA
HETATM   28  O7  UNL     1      -6.558 -33.508  20.163  1.00  0.00    -0.532 OA
ENDBRANCH  22  26
ENDBRANCH  11  13
ENDBRANCH   9  11
ENDBRANCH   8   9
BRANCH   1  29
HETATM   29  C3  UNL     1      -2.822 -38.244  21.385  1.00  0.00     0.121 A 
HETATM   30  C2  UNL     1      -2.904 -38.383  22.752  1.00  0.00     0.151 A 
HETATM   31  N2  UNL     1      -3.578 -39.433  23.279  1.00  0.00    -0.178 N 
HETATM   32  N3  UNL     1      -2.311 -37.476  23.665  1.00  0.00    -0.081 NA
HETATM   33  C1  UNL     1      -4.163 -40.328  22.462  1.00  0.00     0.680 A 
ATOM     34  H2  UNL     1      -3.642 -39.544  24.291  1.00  0.00     0.185 HD
HETATM   35  N15 UNL     1      -4.080 -40.185  21.121  1.00  0.00    -0.155 N 
HETATM   36  C14 UNL     1      -3.421 -39.162  20.553  1.00  0.00     0.277 A 
ATOM     37  H15 UNL     1      -4.532 -40.876  20.522  1.00  0.00     0.187 HD
HETATM   38  O8  UNL     1      -3.390 -39.099  19.301  1.00  0.00    -0.267 OA
BRANCH  33  39
HETATM   39  N1  UNL     1      -4.811 -41.337  22.941  1.00  0.00    -0.234 N 
ATOM     40  H12 UNL     1      -4.926 -41.413  23.952  1.00  0.00     0.174 HD
ATOM     41  H11 UNL     1      -5.203 -42.047  22.323  1.00  0.00     0.174 HD
ENDBRANCH  33  39
ENDBRANCH   1  29
BRANCH   7  42
HETATM   42  N6  UNL     1      -2.829 -34.094  19.378  1.00  0.00    -0.289 N 
ATOM     43  H6  UNL     1      -3.181 -34.245  18.433  1.00  0.00     0.188 HD
BRANCH  42  44
HETATM   44  N7  UNL     1      -3.251 -32.956  19.930  1.00  0.00    -0.344 N 
ATOM     45  H72 UNL     1      -2.648 -32.648  20.691  1.00  0.00     0.176 HD
ATOM     46  H71 UNL     1      -4.048 -32.347  19.739  1.00  0.00     0.176 HD
ENDBRANCH  42  44
ENDBRANCH   7  42
BRANCH   6  47
HETATM   47  C6  UNL     1       0.109 -33.911  19.190  1.00  0.00     0.273 C 
BRANCH  47  48
HETATM   48  O1  UNL     1       1.179 -33.618  20.013  1.00  0.00    -0.378 OA
ATOM     49  H1  UNL     1       1.366 -32.687  19.995  1.00  0.00     0.211 HD
ENDBRANCH  47  48
BRANCH  47  50
HETATM   50  C7  UNL     1       0.610 -34.400  17.841  1.00  0.00     0.209 C 
HETATM   51  O2  UNL     1      -0.031 -35.300  17.286  1.00  0.00    -0.646 OA
HETATM   52  O3  UNL     1       1.735 -33.818  17.326  1.00  0.00    -0.646 OA
ENDBRANCH  47  50
ENDBRANCH   6  47
TORSDOF 12
ENDMDL
MODEL 5
REMARK VINA RESULT: -8.976682201      2.715      5.761
REMARK  12 active torsions:
REMARK  status: ('A' for Active; 'I' for Inactive)
REMARK    1  A    between atoms: N1_1  and  C1_4 
REMARK    2  A    between atoms: C3_9  and  C4_10 
REMARK    3  A    between atoms: C5_15  and  C6_16 
REMARK    4  A    between atoms: C6_16  and  O1_17 
REMARK    5  A    between atoms: C6_16  and  C7_19 
REMARK    6  A    between atoms: C8_22  and  N6_23 
REMARK    7  A    between atoms: N6_23  and  N7_25 
REMARK    8  A    between atoms: N8_28  and  N9_29 
REMARK    9  A    between atoms: N9_29  and  N10_31 
REMARK   10  A    between atoms: N10_31  and  C9_33 
REMARK   11  A    between atoms: C11_40  and  N13_41 
REMARK   12  A    between atoms: C13_45  and  N14_46 
ROOT
HETATM    1  C4  UNL     1      -2.998 -37.851  20.728  1.00  0.00     0.164 A 
HETATM    2  N4  UNL     1      -2.897 -39.171  20.495  1.00  0.00    -0.283 N 
ATOM      3  H4  UNL     1      -1.999 -39.624  20.667  1.00  0.00     0.188 HD
HETATM    4  N5  UNL     1      -3.883 -39.901  20.062  1.00  0.00    -0.296 N 
ATOM      5  H5  UNL     1      -3.750 -40.900  19.902  1.00  0.00     0.187 HD
HETATM    6  C5  UNL     1      -5.103 -39.322  19.822  1.00  0.00     0.112 A 
HETATM    7  C8  UNL     1      -5.226 -37.983  20.049  1.00  0.00     0.172 A 
HETATM    8  N8  UNL     1      -4.140 -37.248  20.513  1.00  0.00    -0.203 N 
ENDROOT
BRANCH   8   9
HETATM    9  N9  UNL     1      -4.334 -35.862  20.734  1.00  0.00    -0.231 N 
ATOM     10  H9  UNL     1      -4.324 -35.204  19.955  1.00  0.00     0.209 HD
BRANCH   9  11
HETATM   11  N10 UNL     1      -4.520 -35.461  21.912  1.00  0.00    -0.268 N 
ATOM     12  H10 UNL     1      -3.848 -34.791  22.286  1.00  0.00     0.190 HD
BRANCH  11  13
HETATM   13  C9  UNL     1      -5.571 -35.854  22.760  1.00  0.00     0.156 A 
HETATM   14  N11 UNL     1      -5.455 -36.843  23.662  1.00  0.00    -0.324 N 
HETATM   15  C10 UNL     1      -6.465 -37.230  24.487  1.00  0.00     0.134 A 
ATOM     16  H11 UNL     1      -4.561 -37.330  23.731  1.00  0.00     0.169 HD
HETATM   17  N12 UNL     1      -6.240 -38.163  25.305  1.00  0.00    -0.383 N 
HETATM   18  C11 UNL     1      -7.654 -36.588  24.400  1.00  0.00     0.148 A 
ATOM     19 2H12 UNL     1      -5.344 -38.647  25.371  1.00  0.00     0.157 HD
ATOM     20 1H12 UNL     1      -6.997 -38.454  25.924  1.00  0.00     0.157 HD
HETATM   21  C12 UNL     1      -7.829 -35.554  23.483  1.00  0.00     0.080 A 
HETATM   22  C13 UNL     1      -6.786 -35.201  22.677  1.00  0.00     0.150 A 
BRANCH  18  23
HETATM   23  N13 UNL     1      -8.803 -36.863  25.184  1.00  0.00    -0.112 N 
HETATM   24  O4  UNL     1      -9.452 -35.957  25.696  1.00  0.00    -0.532 OA
HETATM   25  O5  UNL     1      -9.232 -38.159  25.435  1.00  0.00    -0.532 OA
ENDBRANCH  18  23
BRANCH  22  26
HETATM   26  N14 UNL     1      -6.944 -34.137  21.723  1.00  0.00    -0.112 N 
HETATM   27  O6  UNL     1      -7.263 -34.351  20.535  1.00  0.00    -0.532 OA
HETATM   28  O7  UNL     1      -6.744 -32.836  22.099  1.00  0.00    -0.532 OA
ENDBRANCH  22  26
ENDBRANCH  11  13
ENDBRANCH   9  11
ENDBRANCH   8   9
BRANCH   1  29
HETATM   29  C3  UNL     1      -1.864 -37.066  21.216  1.00  0.00     0.121 A 
HETATM   30  C2  UNL     1      -1.006 -36.487  20.308  1.00  0.00     0.151 A 
HETATM   31  N2  UNL     1       0.046 -35.759  20.751  1.00  0.00    -0.178 N 
HETATM   32  N3  UNL     1      -1.158 -36.609  18.904  1.00  0.00    -0.081 NA
HETATM   33  C1  UNL     1       0.242 -35.606  22.074  1.00  0.00     0.680 A 
ATOM     34  H2  UNL     1       0.687 -35.328  20.084  1.00  0.00     0.185 HD
HETATM   35  N15 UNL     1      -0.604 -36.175  22.959  1.00  0.00    -0.155 N 
HETATM   36  C14 UNL     1      -1.660 -36.907  22.568  1.00  0.00     0.277 A 
ATOM     37  H15 UNL     1      -0.436 -36.045  23.957  1.00  0.00     0.187 HD
HETATM   38  O8  UNL     1      -2.400 -37.402  23.451  1.00  0.00    -0.267 OA
BRANCH  33  39
HETATM   39  N1  UNL     1       1.238 -34.917  22.520  1.00  0.00    -0.234 N 
ATOM     40  H12 UNL     1       1.572 -35.091  23.468  1.00  0.00     0.174 HD
ATOM     41  H11 UNL     1       1.687 -34.210  21.937  1.00  0.00     0.174 HD
ENDBRANCH  33  39
ENDBRANCH   1  29
BRANCH   7  42
HETATM   42  N6  UNL     1      -6.257 -37.299  19.838  1.00  0.00    -0.289 N 
ATOM     43  H6  UNL     1      -6.075 -36.431  19.334  1.00  0.00     0.188 HD
BRANCH  42  44
HETATM   44  N7  UNL     1      -7.542 -37.481  20.141  1.00  0.00    -0.344 N 
ATOM     45  H72 UNL     1      -8.103 -37.722  19.324  1.00  0.00     0.176 HD
ATOM     46  H71 UNL     1      -8.063 -37.425  21.017  1.00  0.00     0.176 HD
ENDBRANCH  42  44
ENDBRANCH   7  42
BRANCH   6  47
HETATM   47  C6  UNL     1      -6.211 -40.212  19.375  1.00  0.00     0.273 C 
BRANCH  47  48
HETATM   48  O1  UNL     1      -6.821 -39.695  18.250  1.00  0.00    -0.378 OA
ATOM     49  H1  UNL     1      -7.561 -40.233  17.997  1.00  0.00     0.211 HD
ENDBRANCH  47  48
BRANCH  47  50
HETATM   50  C7  UNL     1      -5.610 -41.572  19.062  1.00  0.00     0.209 C 
HETATM   51  O2  UNL     1      -5.721 -42.456  19.919  1.00  0.00    -0.646 OA
HETATM   52  O3  UNL     1      -4.983 -41.733  17.858  1.00  0.00    -0.646 OA
ENDBRANCH  47  50
ENDBRANCH   6  47
TORSDOF 12
ENDMDL
