MODEL 1
REMARK VINA RESULT: -6.714783791      0.000      0.000
REMARK  4 active torsions:
REMARK  status: ('A' for Active; 'I' for Inactive)
REMARK    1  A    between atoms: C5_7  and  N2_8 
REMARK    2  A    between atoms: N2_8  and  N3_10 
REMARK    3  A    between atoms: N7_18  and  C6_19 
REMARK    4  A    between atoms: C6_19  and  O1_20 
ROOT
HETATM    1  C1  UNL     1      18.458 -12.128 -25.910  1.00  0.00     0.063 C 
HETATM    2  C2  UNL     1      18.757 -10.887 -25.580  1.00  0.00     0.098 A 
HETATM    3  N1  UNL     1      19.186 -10.012 -26.530  1.00  0.00    -0.326 N 
ATOM      4  H1  UNL     1      19.279 -10.310 -27.501  1.00  0.00     0.169 HD
HETATM    5  C3  UNL     1      19.484  -8.762 -26.179  1.00  0.00     0.156 A 
HETATM    6  C4  UNL     1      19.350  -8.384 -24.863  1.00  0.00     0.137 A 
HETATM    7  C5  UNL     1      18.913  -9.282 -23.903  1.00  0.00     0.153 A 
HETATM    8  N4  UNL     1      18.623 -10.530 -24.297  1.00  0.00    -0.326 N 
ATOM      9  H4  UNL     1      18.299 -11.214 -23.613  1.00  0.00     0.169 HD
HETATM   10  N5  UNL     1      19.682  -7.140 -24.705  1.00  0.00    -0.277 N 
ATOM     11  H5  UNL     1      19.662  -6.642 -23.815  1.00  0.00     0.184 HD
HETATM   12  N6  UNL     1      20.071  -6.572 -25.923  1.00  0.00    -0.016 NA
HETATM   13  N7  UNL     1      19.947  -7.599 -26.858  1.00  0.00    -0.235 N 
ENDROOT
BRANCH   7  14
HETATM   14  N2  UNL     1      18.783  -8.934 -22.654  1.00  0.00    -0.290 N 
ATOM     15  H2  UNL     1      19.577  -8.947 -22.013  1.00  0.00     0.188 HD
BRANCH  14  16
HETATM   16  N3  UNL     1      17.515  -8.543 -22.232  1.00  0.00    -0.344 N 
ATOM     17  H32 UNL     1      16.772  -9.232 -22.116  1.00  0.00     0.176 HD
ATOM     18  H31 UNL     1      17.372  -7.550 -22.049  1.00  0.00     0.176 HD
ENDBRANCH  14  16
ENDBRANCH   7  14
BRANCH  13  19
HETATM   19  C6  UNL     1      20.217  -7.566 -28.273  1.00  0.00     0.313 C 
BRANCH  19  20
HETATM   20  O1  UNL     1      20.621  -8.774 -28.779  1.00  0.00    -0.381 OA
ATOM     21  H1  UNL     1      20.081  -9.082 -29.498  1.00  0.00     0.211 HD
ENDBRANCH  19  20
ENDBRANCH  13  19
TORSDOF 4
ENDMDL
MODEL 2
REMARK VINA RESULT: -6.423700230      1.960      3.737
REMARK  4 active torsions:
REMARK  status: ('A' for Active; 'I' for Inactive)
REMARK    1  A    between atoms: C5_7  and  N2_8 
REMARK    2  A    between atoms: N2_8  and  N3_10 
REMARK    3  A    between atoms: N7_18  and  C6_19 
REMARK    4  A    between atoms: C6_19  and  O1_20 
ROOT
HETATM    1  C1  UNL     1      19.768  -6.188 -26.637  1.00  0.00     0.063 C 
HETATM    2  C2  UNL     1      19.086  -6.987 -25.840  1.00  0.00     0.098 A 
HETATM    3  N1  UNL     1      19.126  -8.334 -26.029  1.00  0.00    -0.326 N 
ATOM      4  H1  UNL     1      19.683  -8.732 -26.785  1.00  0.00     0.169 HD
HETATM    5  C3  UNL     1      18.432  -9.128 -25.216  1.00  0.00     0.156 A 
HETATM    6  C4  UNL     1      17.690  -8.567 -24.201  1.00  0.00     0.137 A 
HETATM    7  C5  UNL     1      17.656  -7.194 -24.018  1.00  0.00     0.153 A 
HETATM    8  N4  UNL     1      18.368  -6.431 -24.858  1.00  0.00    -0.326 N 
ATOM      9  H4  UNL     1      18.362  -5.417 -24.748  1.00  0.00     0.169 HD
HETATM   10  N5  UNL     1      17.084  -9.484 -23.513  1.00  0.00    -0.277 N 
ATOM     11  H5  UNL     1      16.477  -9.303 -22.713  1.00  0.00     0.184 HD
HETATM   12  N6  UNL     1      17.374 -10.756 -24.016  1.00  0.00    -0.016 NA
HETATM   13  N7  UNL     1      18.229 -10.533 -25.096  1.00  0.00    -0.235 N 
ENDROOT
BRANCH   7  14
HETATM   14  N2  UNL     1      16.955  -6.653 -23.061  1.00  0.00    -0.290 N 
ATOM     15  H2  UNL     1      17.309  -6.604 -22.105  1.00  0.00     0.188 HD
BRANCH  14  16
HETATM   16  N3  UNL     1      15.703  -6.146 -23.399  1.00  0.00    -0.344 N 
ATOM     17  H32 UNL     1      15.389  -6.148 -24.370  1.00  0.00     0.176 HD
ATOM     18  H31 UNL     1      15.129  -5.781 -22.640  1.00  0.00     0.176 HD
ENDBRANCH  14  16
ENDBRANCH   7  14
BRANCH  13  19
HETATM   19  C6  UNL     1      18.838 -11.496 -25.976  1.00  0.00     0.313 C 
BRANCH  19  20
HETATM   20  O1  UNL     1      18.577 -11.264 -27.302  1.00  0.00    -0.381 OA
ATOM     21  H1  UNL     1      18.983 -11.896 -27.883  1.00  0.00     0.211 HD
ENDBRANCH  19  20
ENDBRANCH  13  19
TORSDOF 4
ENDMDL
MODEL 3
REMARK VINA RESULT: -6.359236433      2.505      4.132
REMARK  4 active torsions:
REMARK  status: ('A' for Active; 'I' for Inactive)
REMARK    1  A    between atoms: C5_7  and  N2_8 
REMARK    2  A    between atoms: N2_8  and  N3_10 
REMARK    3  A    between atoms: N7_18  and  C6_19 
REMARK    4  A    between atoms: C6_19  and  O1_20 
ROOT
HETATM    1  C1  UNL     1      19.874  -7.790 -27.335  1.00  0.00     0.063 C 
HETATM    2  C2  UNL     1      19.147  -8.170 -26.303  1.00  0.00     0.098 A 
HETATM    3  N1  UNL     1      18.476  -7.245 -25.563  1.00  0.00    -0.326 N 
ATOM      4  H1  UNL     1      18.532  -6.255 -25.802  1.00  0.00     0.169 HD
HETATM    5  C3  UNL     1      17.745  -7.646 -24.524  1.00  0.00     0.156 A 
HETATM    6  C4  UNL     1      17.685  -8.987 -24.224  1.00  0.00     0.137 A 
HETATM    7  C5  UNL     1      18.371  -9.921 -24.983  1.00  0.00     0.153 A 
HETATM    8  N4  UNL     1      19.095  -9.476 -26.020  1.00  0.00    -0.326 N 
ATOM      9  H4  UNL     1      19.611 -10.140 -26.597  1.00  0.00     0.169 HD
HETATM   10  N5  UNL     1      16.932  -9.193 -23.187  1.00  0.00    -0.277 N 
ATOM     11  H5  UNL     1      16.741 -10.110 -22.782  1.00  0.00     0.184 HD
HETATM   12  N6  UNL     1      16.417  -7.988 -22.700  1.00  0.00    -0.016 NA
HETATM   13  N7  UNL     1      16.931  -7.005 -23.547  1.00  0.00    -0.235 N 
ENDROOT
BRANCH   7  14
HETATM   14  N2  UNL     1      18.321 -11.194 -24.705  1.00  0.00    -0.290 N 
ATOM     15  H2  UNL     1      18.026 -11.527 -23.787  1.00  0.00     0.188 HD
BRANCH  14  16
HETATM   16  N3  UNL     1      18.687 -12.078 -25.716  1.00  0.00    -0.344 N 
ATOM     17  H32 UNL     1      19.150 -12.959 -25.491  1.00  0.00     0.176 HD
ATOM     18  H31 UNL     1      18.471 -11.804 -26.673  1.00  0.00     0.176 HD
ENDBRANCH  14  16
ENDBRANCH   7  14
BRANCH  13  19
HETATM   19  C6  UNL     1      16.722  -5.581 -23.505  1.00  0.00     0.313 C 
BRANCH  19  20
HETATM   20  O1  UNL     1      17.841  -4.855 -23.822  1.00  0.00    -0.381 OA
ATOM     21  H1  UNL     1      17.649  -3.975 -24.120  1.00  0.00     0.211 HD
ENDBRANCH  19  20
ENDBRANCH  13  19
TORSDOF 4
ENDMDL
MODEL 4
REMARK VINA RESULT: -6.277099929      1.838      3.819
REMARK  4 active torsions:
REMARK  status: ('A' for Active; 'I' for Inactive)
REMARK    1  A    between atoms: C5_7  and  N2_8 
REMARK    2  A    between atoms: N2_8  and  N3_10 
REMARK    3  A    between atoms: N7_18  and  C6_19 
REMARK    4  A    between atoms: C6_19  and  O1_20 
ROOT
HETATM    1  C1  UNL     1      19.925  -6.711 -28.624  1.00  0.00     0.063 C 
HETATM    2  C2  UNL     1      19.472  -7.032 -27.429  1.00  0.00     0.098 A 
HETATM    3  N1  UNL     1      19.303  -8.340 -27.092  1.00  0.00    -0.326 N 
ATOM      4  H1  UNL     1      19.526  -9.077 -27.761  1.00  0.00     0.169 HD
HETATM    5  C3  UNL     1      18.845  -8.648 -25.880  1.00  0.00     0.156 A 
HETATM    6  C4  UNL     1      18.552  -7.635 -24.996  1.00  0.00     0.137 A 
HETATM    7  C5  UNL     1      18.727  -6.307 -25.348  1.00  0.00     0.153 A 
HETATM    8  N4  UNL     1      19.191  -6.040 -26.577  1.00  0.00    -0.326 N 
ATOM      9  H4  UNL     1      19.330  -5.071 -26.865  1.00  0.00     0.169 HD
HETATM   10  N5  UNL     1      18.120  -8.117 -23.871  1.00  0.00    -0.277 N 
ATOM     11  H5  UNL     1      17.842  -7.553 -23.067  1.00  0.00     0.184 HD
HETATM   12  N6  UNL     1      18.087  -9.515 -23.909  1.00  0.00    -0.016 NA
HETATM   13  N7  UNL     1      18.546  -9.853 -25.182  1.00  0.00    -0.235 N 
ENDROOT
BRANCH   7  14
HETATM   14  N2  UNL     1      18.452  -5.341 -24.517  1.00  0.00    -0.290 N 
ATOM     15  H2  UNL     1      18.989  -5.207 -23.660  1.00  0.00     0.188 HD
BRANCH  14  16
HETATM   16  N3  UNL     1      17.393  -4.500 -24.850  1.00  0.00    -0.344 N 
ATOM     17  H32 UNL     1      17.570  -3.562 -25.208  1.00  0.00     0.176 HD
ATOM     18  H31 UNL     1      16.451  -4.866 -24.718  1.00  0.00     0.176 HD
ENDBRANCH  14  16
ENDBRANCH   7  14
BRANCH  13  19
HETATM   19  C6  UNL     1      18.716 -11.162 -25.759  1.00  0.00     0.313 C 
BRANCH  19  20
HETATM   20  O1  UNL     1      18.485 -11.197 -27.110  1.00  0.00    -0.381 OA
ATOM     21  H1  UNL     1      17.958 -11.938 -27.384  1.00  0.00     0.211 HD
ENDBRANCH  19  20
ENDBRANCH  13  19
TORSDOF 4
ENDMDL
MODEL 5
REMARK VINA RESULT: -6.079678289      2.137      3.910
REMARK  4 active torsions:
REMARK  status: ('A' for Active; 'I' for Inactive)
REMARK    1  A    between atoms: C5_7  and  N2_8 
REMARK    2  A    between atoms: N2_8  and  N3_10 
REMARK    3  A    between atoms: N7_18  and  C6_19 
REMARK    4  A    between atoms: C6_19  and  O1_20 
ROOT
HETATM    1  C1  UNL     1      21.825  -8.036 -28.341  1.00  0.00     0.063 C 
HETATM    2  C2  UNL     1      21.429  -8.308 -27.113  1.00  0.00     0.098 A 
HETATM    3  N1  UNL     1      20.428  -9.206 -26.903  1.00  0.00    -0.326 N 
ATOM      4  H1  UNL     1      19.979  -9.672 -27.691  1.00  0.00     0.169 HD
HETATM    5  C3  UNL     1      20.039  -9.471 -25.657  1.00  0.00     0.156 A 
HETATM    6  C4  UNL     1      20.661  -8.829 -24.610  1.00  0.00     0.137 A 
HETATM    7  C5  UNL     1      21.679  -7.917 -24.834  1.00  0.00     0.153 A 
HETATM    8  N4  UNL     1      22.039  -7.679 -26.103  1.00  0.00    -0.326 N 
ATOM      9  H4  UNL     1      22.786  -7.013 -26.300  1.00  0.00     0.169 HD
HETATM   10  N5  UNL     1      20.157  -9.207 -23.475  1.00  0.00    -0.277 N 
ATOM     11  H5  UNL     1      20.461  -8.864 -22.563  1.00  0.00     0.184 HD
HETATM   12  N6  UNL     1      19.141 -10.147 -23.670  1.00  0.00    -0.016 NA
HETATM   13  N7  UNL     1      19.065 -10.316 -25.053  1.00  0.00    -0.235 N 
ENDROOT
BRANCH   7  14
HETATM   14  N2  UNL     1      22.273  -7.304 -23.849  1.00  0.00    -0.290 N 
ATOM     15  H2  UNL     1      21.924  -6.416 -23.487  1.00  0.00     0.188 HD
BRANCH  14  16
HETATM   16  N3  UNL     1      23.403  -7.914 -23.312  1.00  0.00    -0.344 N 
ATOM     17  H32 UNL     1      24.129  -8.288 -23.922  1.00  0.00     0.176 HD
ATOM     18  H31 UNL     1      23.465  -7.965 -22.296  1.00  0.00     0.176 HD
ENDBRANCH  14  16
ENDBRANCH   7  14
BRANCH  13  19
HETATM   19  C6  UNL     1      18.187 -11.172 -25.809  1.00  0.00     0.313 C 
BRANCH  19  20
HETATM   20  O1  UNL     1      18.483 -11.213 -27.147  1.00  0.00    -0.381 OA
ATOM     21  H1  UNL     1      19.415 -11.226 -27.327  1.00  0.00     0.211 HD
ENDBRANCH  19  20
ENDBRANCH  13  19
TORSDOF 4
ENDMDL
