MODEL 1
REMARK VINA RESULT: -5.861734085      0.000      0.000
REMARK  4 active torsions:
REMARK  status: ('A' for Active; 'I' for Inactive)
REMARK    1  A    between atoms: C2_5  and  N3_6 
REMARK    2  A    between atoms: C3_9  and  C4_10 
REMARK    3  A    between atoms: C4_10  and  N4_11 
REMARK    4  A    between atoms: N6_19  and  N7_20 
ROOT
HETATM    1  C1  UNL     1      20.513  -8.291 -27.525  1.00  0.00     0.179 C 
HETATM    2  N1  UNL     1      19.590  -8.442 -26.402  1.00  0.00    -0.276 N 
HETATM    3  N2  UNL     1      19.291  -9.640 -25.929  1.00  0.00    -0.282 N 
ATOM      4  H2  UNL     1      19.703 -10.476 -26.344  1.00  0.00     0.189 HD
HETATM    5  C2  UNL     1      18.447  -9.744 -24.906  1.00  0.00     0.124 A 
HETATM    6  C3  UNL     1      17.866  -8.623 -24.316  1.00  0.00     0.043 A 
HETATM    7  C5  UNL     1      18.191  -7.378 -24.826  1.00  0.00     0.092 A 
HETATM    8  N5  UNL     1      17.814  -6.120 -24.495  1.00  0.00    -0.347 N 
ATOM      9  H5  UNL     1      17.171  -5.853 -23.749  1.00  0.00     0.167 HD
HETATM   10  C6  UNL     1      18.453  -5.291 -25.340  1.00  0.00     0.208 A 
HETATM   11  N6  UNL     1      19.222  -6.017 -26.193  1.00  0.00    -0.238 N 
HETATM   12  C7  UNL     1      19.064  -7.313 -25.880  1.00  0.00     0.172 A 
ENDROOT
BRANCH   6  13
HETATM   13  C4  UNL     1      16.936  -8.756 -23.186  1.00  0.00     0.274 C 
BRANCH  13  14
HETATM   14  N4  UNL     1      17.625  -8.486 -21.963  1.00  0.00    -0.075 N 
ATOM     15  H43 UNL     1      17.342  -9.117 -21.213  1.00  0.00     0.274 HD
ATOM     16  H42 UNL     1      18.610  -8.749 -22.010  1.00  0.00     0.274 HD
ATOM     17  H41 UNL     1      17.500  -7.506 -21.710  1.00  0.00     0.274 HD
ENDBRANCH  13  14
ENDBRANCH   6  13
BRANCH   5  18
HETATM   18  N3  UNL     1      18.111 -10.881 -24.393  1.00  0.00    -0.384 N 
ATOM     19  H32 UNL     1      17.259 -11.298 -24.769  1.00  0.00     0.157 HD
ATOM     20  H31 UNL     1      18.656 -11.337 -23.661  1.00  0.00     0.157 HD
ENDBRANCH   5  18
BRANCH  11  21
HETATM   21  N7  UNL     1      20.037  -5.532 -27.219  1.00  0.00    -0.336 N 
ATOM     22  H72 UNL     1      20.655  -4.724 -27.145  1.00  0.00     0.177 HD
ATOM     23  H71 UNL     1      20.130  -5.905 -28.164  1.00  0.00     0.177 HD
ENDBRANCH  11  21
TORSDOF 4
ENDMDL
MODEL 2
REMARK VINA RESULT: -5.853030440      1.287      4.684
REMARK  4 active torsions:
REMARK  status: ('A' for Active; 'I' for Inactive)
REMARK    1  A    between atoms: C2_5  and  N3_6 
REMARK    2  A    between atoms: C3_9  and  C4_10 
REMARK    3  A    between atoms: C4_10  and  N4_11 
REMARK    4  A    between atoms: N6_19  and  N7_20 
ROOT
HETATM    1  C1  UNL     1      16.936  -8.448 -22.914  1.00  0.00     0.179 C 
HETATM    2  N1  UNL     1      17.620  -7.724 -23.984  1.00  0.00    -0.276 N 
HETATM    3  N2  UNL     1      17.525  -6.407 -24.076  1.00  0.00    -0.282 N 
ATOM      4  H2  UNL     1      16.972  -5.881 -23.399  1.00  0.00     0.189 HD
HETATM    5  C2  UNL     1      18.159  -5.777 -25.062  1.00  0.00     0.124 A 
HETATM    6  C3  UNL     1      18.922  -6.465 -26.004  1.00  0.00     0.043 A 
HETATM    7  C5  UNL     1      19.007  -7.842 -25.890  1.00  0.00     0.092 A 
HETATM    8  N5  UNL     1      19.647  -8.788 -26.618  1.00  0.00    -0.347 N 
ATOM      9  H5  UNL     1      20.224  -8.634 -27.445  1.00  0.00     0.167 HD
HETATM   10  C6  UNL     1      19.373  -9.971 -26.038  1.00  0.00     0.208 A 
HETATM   11  N6  UNL     1      18.572  -9.773 -24.959  1.00  0.00    -0.238 N 
HETATM   12  C7  UNL     1      18.341  -8.454 -24.862  1.00  0.00     0.172 A 
ENDROOT
BRANCH   6  13
HETATM   13  C4  UNL     1      19.615  -5.753 -27.086  1.00  0.00     0.274 C 
BRANCH  13  14
HETATM   14  N4  UNL     1      18.861  -5.869 -28.296  1.00  0.00    -0.075 N 
ATOM     15  H43 UNL     1      18.828  -6.830 -28.638  1.00  0.00     0.274 HD
ATOM     16  H42 UNL     1      17.862  -5.736 -28.141  1.00  0.00     0.274 HD
ATOM     17  H41 UNL     1      19.233  -5.224 -28.993  1.00  0.00     0.274 HD
ENDBRANCH  13  14
ENDBRANCH   6  13
BRANCH   5  18
HETATM   18  N3  UNL     1      18.111  -4.495 -25.213  1.00  0.00    -0.384 N 
ATOM     19  H32 UNL     1      17.948  -3.958 -24.360  1.00  0.00     0.157 HD
ATOM     20  H31 UNL     1      18.229  -4.043 -26.120  1.00  0.00     0.157 HD
ENDBRANCH   5  18
BRANCH  11  21
HETATM   21  N7  UNL     1      18.064 -10.744 -24.092  1.00  0.00    -0.336 N 
ATOM     22  H72 UNL     1      17.074 -10.934 -23.938  1.00  0.00     0.177 HD
ATOM     23  H71 UNL     1      18.596 -11.386 -23.504  1.00  0.00     0.177 HD
ENDBRANCH  11  21
TORSDOF 4
ENDMDL
MODEL 3
REMARK VINA RESULT: -5.701360088      1.380      3.172
REMARK  4 active torsions:
REMARK  status: ('A' for Active; 'I' for Inactive)
REMARK    1  A    between atoms: C2_5  and  N3_6 
REMARK    2  A    between atoms: C3_9  and  C4_10 
REMARK    3  A    between atoms: C4_10  and  N4_11 
REMARK    4  A    between atoms: N6_19  and  N7_20 
ROOT
HETATM    1  C1  UNL     1      16.230  -6.267 -23.369  1.00  0.00     0.179 C 
HETATM    2  N1  UNL     1      17.101  -7.283 -23.957  1.00  0.00    -0.276 N 
HETATM    3  N2  UNL     1      16.985  -8.554 -23.609  1.00  0.00    -0.282 N 
ATOM      4  H2  UNL     1      16.285  -8.841 -22.925  1.00  0.00     0.189 HD
HETATM    5  C2  UNL     1      17.793  -9.456 -24.162  1.00  0.00     0.124 A 
HETATM    6  C3  UNL     1      18.761  -9.099 -25.099  1.00  0.00     0.043 A 
HETATM    7  C5  UNL     1      18.866  -7.763 -25.449  1.00  0.00     0.092 A 
HETATM    8  N5  UNL     1      19.677  -7.096 -26.304  1.00  0.00    -0.347 N 
ATOM      9  H5  UNL     1      20.412  -7.499 -26.886  1.00  0.00     0.167 HD
HETATM   10  C6  UNL     1      19.326  -5.800 -26.237  1.00  0.00     0.208 A 
HETATM   11  N6  UNL     1      18.307  -5.651 -25.350  1.00  0.00    -0.238 N 
HETATM   12  C7  UNL     1      18.016  -6.866 -24.858  1.00  0.00     0.172 A 
ENDROOT
BRANCH   6  13
HETATM   13  C4  UNL     1      19.645 -10.107 -25.700  1.00  0.00     0.274 C 
BRANCH  13  14
HETATM   14  N4  UNL     1      19.039 -10.631 -26.884  1.00  0.00    -0.075 N 
ATOM     15  H43 UNL     1      18.175 -11.137 -26.684  1.00  0.00     0.274 HD
ATOM     16  H42 UNL     1      18.645  -9.896 -27.472  1.00  0.00     0.274 HD
ATOM     17  H41 UNL     1      19.714 -11.206 -27.388  1.00  0.00     0.274 HD
ENDBRANCH  13  14
ENDBRANCH   6  13
BRANCH   5  18
HETATM   18  N3  UNL     1      17.736 -10.713 -23.871  1.00  0.00    -0.384 N 
ATOM     19  H32 UNL     1      17.848 -10.941 -22.883  1.00  0.00     0.157 HD
ATOM     20  H31 UNL     1      17.590 -11.435 -24.577  1.00  0.00     0.157 HD
ENDBRANCH   5  18
BRANCH  11  21
HETATM   21  N7  UNL     1      17.659  -4.465 -24.995  1.00  0.00    -0.336 N 
ATOM     22  H72 UNL     1      18.105  -3.664 -24.548  1.00  0.00     0.177 HD
ATOM     23  H71 UNL     1      16.674  -4.235 -25.128  1.00  0.00     0.177 HD
ENDBRANCH  11  21
TORSDOF 4
ENDMDL
MODEL 4
REMARK VINA RESULT: -5.646117741      1.492      1.962
REMARK  4 active torsions:
REMARK  status: ('A' for Active; 'I' for Inactive)
REMARK    1  A    between atoms: C2_5  and  N3_6 
REMARK    2  A    between atoms: C3_9  and  C4_10 
REMARK    3  A    between atoms: C4_10  and  N4_11 
REMARK    4  A    between atoms: N6_19  and  N7_20 
ROOT
HETATM    1  C1  UNL     1      19.650  -5.445 -27.936  1.00  0.00     0.179 C 
HETATM    2  N1  UNL     1      19.333  -6.483 -26.956  1.00  0.00    -0.276 N 
HETATM    3  N2  UNL     1      19.762  -7.723 -27.123  1.00  0.00    -0.282 N 
ATOM      4  H2  UNL     1      20.320  -7.970 -27.940  1.00  0.00     0.189 HD
HETATM    5  C2  UNL     1      19.457  -8.644 -26.213  1.00  0.00     0.124 A 
HETATM    6  C3  UNL     1      18.696  -8.341 -25.086  1.00  0.00     0.043 A 
HETATM    7  C5  UNL     1      18.256  -7.037 -24.930  1.00  0.00     0.092 A 
HETATM    8  N5  UNL     1      17.517  -6.422 -23.977  1.00  0.00    -0.347 N 
ATOM      9  H5  UNL     1      17.124  -6.852 -23.138  1.00  0.00     0.167 HD
HETATM   10  C6  UNL     1      17.401  -5.135 -24.349  1.00  0.00     0.208 A 
HETATM   11  N6  UNL     1      18.058  -4.941 -25.522  1.00  0.00    -0.238 N 
HETATM   12  C7  UNL     1      18.591  -6.117 -25.888  1.00  0.00     0.172 A 
ENDROOT
BRANCH   6  13
HETATM   13  C4  UNL     1      18.368  -9.371 -24.091  1.00  0.00     0.274 C 
BRANCH  13  14
HETATM   14  N4  UNL     1      19.241  -9.246 -22.966  1.00  0.00    -0.075 N 
ATOM     15  H43 UNL     1      18.970  -8.478 -22.351  1.00  0.00     0.274 HD
ATOM     16  H42 UNL     1      19.125 -10.012 -22.302  1.00  0.00     0.274 HD
ATOM     17  H41 UNL     1      20.204  -9.159 -23.289  1.00  0.00     0.274 HD
ENDBRANCH  13  14
ENDBRANCH   6  13
BRANCH   5  18
HETATM   18  N3  UNL     1      19.842  -9.874 -26.311  1.00  0.00    -0.384 N 
ATOM     19  H32 UNL     1      19.536 -10.364 -27.151  1.00  0.00     0.157 HD
ATOM     20  H31 UNL     1      20.413 -10.329 -25.599  1.00  0.00     0.157 HD
ENDBRANCH   5  18
BRANCH  11  21
HETATM   21  N7  UNL     1      18.175  -3.748 -26.240  1.00  0.00    -0.336 N 
ATOM     22  H72 UNL     1      18.418  -2.842 -25.838  1.00  0.00     0.177 HD
ATOM     23  H71 UNL     1      18.039  -3.613 -27.242  1.00  0.00     0.177 HD
ENDBRANCH  11  21
TORSDOF 4
ENDMDL
MODEL 5
REMARK VINA RESULT: -5.634843801      1.320      3.544
REMARK  4 active torsions:
REMARK  status: ('A' for Active; 'I' for Inactive)
REMARK    1  A    between atoms: C2_5  and  N3_6 
REMARK    2  A    between atoms: C3_9  and  C4_10 
REMARK    3  A    between atoms: C4_10  and  N4_11 
REMARK    4  A    between atoms: N6_19  and  N7_20 
ROOT
HETATM    1  C1  UNL     1      18.310  -5.247 -25.359  1.00  0.00     0.179 C 
HETATM    2  N1  UNL     1      18.597  -6.677 -25.457  1.00  0.00    -0.276 N 
HETATM    3  N2  UNL     1      19.414  -7.139 -26.389  1.00  0.00    -0.282 N 
ATOM      4  H2  UNL     1      19.854  -6.501 -27.052  1.00  0.00     0.189 HD
HETATM    5  C2  UNL     1      19.655  -8.446 -26.452  1.00  0.00     0.124 A 
HETATM    6  C3  UNL     1      19.070  -9.346 -25.562  1.00  0.00     0.043 A 
HETATM    7  C5  UNL     1      18.218  -8.841 -24.594  1.00  0.00     0.092 A 
HETATM    8  N5  UNL     1      17.504  -9.424 -23.602  1.00  0.00    -0.347 N 
ATOM      9  H5  UNL     1      17.470 -10.419 -23.379  1.00  0.00     0.167 HD
HETATM   10  C6  UNL     1      16.850  -8.435 -22.967  1.00  0.00     0.208 A 
HETATM   11  N6  UNL     1      17.147  -7.245 -23.551  1.00  0.00    -0.238 N 
HETATM   12  C7  UNL     1      17.996  -7.490 -24.562  1.00  0.00     0.172 A 
ENDROOT
BRANCH   6  13
HETATM   13  C4  UNL     1      19.347 -10.786 -25.646  1.00  0.00     0.274 C 
BRANCH  13  14
HETATM   14  N4  UNL     1      18.217 -11.460 -26.205  1.00  0.00    -0.075 N 
ATOM     15  H43 UNL     1      18.489 -12.167 -26.889  1.00  0.00     0.274 HD
ATOM     16  H42 UNL     1      17.764 -12.076 -25.530  1.00  0.00     0.274 HD
ATOM     17  H41 UNL     1      17.570 -10.775 -26.596  1.00  0.00     0.274 HD
ENDBRANCH  13  14
ENDBRANCH   6  13
BRANCH   5  18
HETATM   18  N3  UNL     1      20.441  -8.968 -27.335  1.00  0.00    -0.384 N 
ATOM     19  H32 UNL     1      20.828  -8.316 -28.018  1.00  0.00     0.157 HD
ATOM     20  H31 UNL     1      20.664  -9.963 -27.353  1.00  0.00     0.157 HD
ENDBRANCH   5  18
BRANCH  11  21
HETATM   21  N7  UNL     1      16.671  -5.982 -23.189  1.00  0.00    -0.336 N 
ATOM     22  H72 UNL     1      15.717  -5.776 -22.895  1.00  0.00     0.177 HD
ATOM     23  H71 UNL     1      17.195  -5.107 -23.168  1.00  0.00     0.177 HD
ENDBRANCH  11  21
TORSDOF 4
ENDMDL
