MODEL 1
REMARK VINA RESULT: -6.641811939      0.000      0.000
REMARK  4 active torsions:
REMARK  status: ('A' for Active; 'I' for Inactive)
REMARK       I    between atoms: C1_2  and  N1_3 
REMARK    1  A    between atoms: C1_2  and  C13_23 
REMARK    2  A    between atoms: N1_3  and  C2_5 
REMARK    3  A    between atoms: C4_9  and  C5_10 
REMARK    4  A    between atoms: C6_13  and  C7_14 
ROOT
HETATM    1  C2  UNL     1      39.196  31.395  24.569  1.00  0.00     0.214 C 
HETATM    2  C3  UNL     1      39.205  29.955  24.958  1.00  0.00     0.247 C 
HETATM    3  O2  UNL     1      40.107  29.201  25.406  1.00  0.00    -0.271 OA
HETATM    4  N2  UNL     1      37.862  29.802  24.635  1.00  0.00    -0.313 N 
HETATM    5  C4  UNL     1      36.543  29.274  24.598  1.00  0.00     0.208 C 
HETATM    6  C6  UNL     1      35.537  30.327  24.426  1.00  0.00     0.148 C 
HETATM    7  S1  UNL     1      36.473  31.802  24.240  1.00  0.00     0.175 S 
HETATM    8  O5  UNL     1      35.969  32.668  23.122  1.00  0.00    -0.225 OA
HETATM    9  O6  UNL     1      36.660  32.581  25.505  1.00  0.00    -0.225 OA
HETATM   10  C12 UNL     1      37.989  30.989  23.802  1.00  0.00     0.243 C 
ENDROOT
BRANCH   1  11
HETATM   11  N1  UNL     1      40.274  31.769  23.675  1.00  0.00    -0.343 N 
HETATM   12  C1  UNL     1      40.916  33.021  23.714  1.00  0.00     0.243 C 
HETATM   13  O1  UNL     1      40.529  33.855  24.572  1.00  0.00    -0.271 OA
ATOM     14  H1  UNL     1      40.584  31.088  22.981  1.00  0.00     0.163 HD
BRANCH  12  15
HETATM   15  C13 UNL     1      42.017  33.356  22.776  1.00  0.00     0.221 C 
HETATM   16 BR1  UNL     1      41.691  32.352  21.145  1.00  0.00    -0.069 Br
HETATM   17 BR2  UNL     1      42.064  35.245  22.431  1.00  0.00    -0.069 Br
ENDBRANCH  12  15
ENDBRANCH   1  11
BRANCH   5  18
HETATM   18  C5  UNL     1      36.500  28.221  23.538  1.00  0.00     0.198 C 
HETATM   19  O3  UNL     1      35.827  28.433  22.507  1.00  0.00    -0.646 OA
HETATM   20  O4  UNL     1      37.199  27.049  23.724  1.00  0.00    -0.646 OA
ENDBRANCH   5  18
BRANCH   6  21
HETATM   21  C7  UNL     1      34.460  30.383  25.454  1.00  0.00     0.007 C 
HETATM   22  C8  UNL     1      34.765  29.809  26.783  1.00  0.00     0.006 C 
HETATM   23  C9  UNL     1      33.386  29.829  27.460  1.00  0.00     0.000 C 
HETATM   24  C10 UNL     1      32.390  29.763  26.349  1.00  0.00     0.000 C 
HETATM   25  C11 UNL     1      33.214  29.630  25.059  1.00  0.00     0.006 C 
ENDBRANCH   6  21
TORSDOF 4
ENDMDL
MODEL 2
REMARK VINA RESULT: -6.565002193      5.838      7.785
REMARK  4 active torsions:
REMARK  status: ('A' for Active; 'I' for Inactive)
REMARK       I    between atoms: C1_2  and  N1_3 
REMARK    1  A    between atoms: C1_2  and  C13_23 
REMARK    2  A    between atoms: N1_3  and  C2_5 
REMARK    3  A    between atoms: C4_9  and  C5_10 
REMARK    4  A    between atoms: C6_13  and  C7_14 
ROOT
HETATM    1  C2  UNL     1      35.942  25.504  27.996  1.00  0.00     0.214 C 
HETATM    2  C3  UNL     1      36.220  24.935  26.644  1.00  0.00     0.247 C 
HETATM    3  O2  UNL     1      36.060  23.787  26.156  1.00  0.00    -0.271 OA
HETATM    4  N2  UNL     1      36.706  26.149  26.174  1.00  0.00    -0.313 N 
HETATM    5  C4  UNL     1      37.098  27.180  25.277  1.00  0.00     0.208 C 
HETATM    6  C6  UNL     1      36.891  28.512  25.851  1.00  0.00     0.148 C 
HETATM    7  S1  UNL     1      36.323  28.203  27.486  1.00  0.00     0.175 S 
HETATM    8  O5  UNL     1      36.995  29.075  28.505  1.00  0.00    -0.225 OA
HETATM    9  O6  UNL     1      34.834  28.216  27.637  1.00  0.00    -0.225 OA
HETATM   10  C12 UNL     1      36.922  26.532  27.561  1.00  0.00     0.243 C 
ENDROOT
BRANCH   1  11
HETATM   11  N1  UNL     1      36.474  24.713  29.087  1.00  0.00    -0.343 N 
HETATM   12  C1  UNL     1      35.668  24.062  30.040  1.00  0.00     0.243 C 
HETATM   13  O1  UNL     1      34.420  24.177  29.933  1.00  0.00    -0.271 OA
ATOM     14  H1  UNL     1      37.487  24.622  29.169  1.00  0.00     0.163 HD
BRANCH  12  15
HETATM   15  C13 UNL     1      36.262  23.262  31.141  1.00  0.00     0.221 C 
HETATM   16 BR1  UNL     1      37.298  21.845  30.311  1.00  0.00    -0.069 Br
HETATM   17 BR2  UNL     1      37.366  24.366  32.261  1.00  0.00    -0.069 Br
ENDBRANCH  12  15
ENDBRANCH   1  11
BRANCH   5  18
HETATM   18  C5  UNL     1      38.509  26.915  24.862  1.00  0.00     0.198 C 
HETATM   19  O3  UNL     1      39.383  27.769  25.125  1.00  0.00    -0.646 OA
HETATM   20  O4  UNL     1      38.809  25.744  24.202  1.00  0.00    -0.646 OA
ENDBRANCH   5  18
BRANCH   6  21
HETATM   21  C7  UNL     1      36.051  29.450  25.056  1.00  0.00     0.007 C 
HETATM   22  C8  UNL     1      35.204  28.863  23.993  1.00  0.00     0.006 C 
HETATM   23  C9  UNL     1      34.699  30.116  23.262  1.00  0.00     0.000 C 
HETATM   24  C10 UNL     1      35.737  31.164  23.495  1.00  0.00     0.000 C 
HETATM   25  C11 UNL     1      36.854  30.475  24.293  1.00  0.00     0.006 C 
ENDBRANCH   6  21
TORSDOF 4
ENDMDL
MODEL 3
REMARK VINA RESULT: -6.397305773      3.946      6.099
REMARK  4 active torsions:
REMARK  status: ('A' for Active; 'I' for Inactive)
REMARK       I    between atoms: C1_2  and  N1_3 
REMARK    1  A    between atoms: C1_2  and  C13_23 
REMARK    2  A    between atoms: N1_3  and  C2_5 
REMARK    3  A    between atoms: C4_9  and  C5_10 
REMARK    4  A    between atoms: C6_13  and  C7_14 
ROOT
HETATM    1  C2  UNL     1      34.620  29.846  23.277  1.00  0.00     0.214 C 
HETATM    2  C3  UNL     1      33.885  29.570  24.546  1.00  0.00     0.247 C 
HETATM    3  O2  UNL     1      32.674  29.684  24.870  1.00  0.00    -0.271 OA
HETATM    4  N2  UNL     1      35.043  29.154  25.191  1.00  0.00    -0.313 N 
HETATM    5  C4  UNL     1      35.902  28.520  26.129  1.00  0.00     0.208 C 
HETATM    6  C6  UNL     1      37.168  28.105  25.518  1.00  0.00     0.148 C 
HETATM    7  S1  UNL     1      37.073  28.697  23.866  1.00  0.00     0.175 S 
HETATM    8  O5  UNL     1      38.343  29.358  23.416  1.00  0.00    -0.225 OA
HETATM    9  O6  UNL     1      36.590  27.686  22.873  1.00  0.00    -0.225 OA
HETATM   10  C12 UNL     1      35.795  29.888  24.184  1.00  0.00     0.243 C 
ENDROOT
BRANCH   1  11
HETATM   11  N1  UNL     1      34.353  31.155  22.716  1.00  0.00    -0.343 N 
HETATM   12  C1  UNL     1      33.337  31.405  21.774  1.00  0.00     0.243 C 
HETATM   13  O1  UNL     1      32.627  30.435  21.403  1.00  0.00    -0.271 OA
ATOM     14  H1  UNL     1      34.932  31.938  23.020  1.00  0.00     0.163 HD
BRANCH  12  15
HETATM   15  C13 UNL     1      33.104  32.765  21.228  1.00  0.00     0.221 C 
HETATM   16 BR1  UNL     1      34.789  33.722  21.363  1.00  0.00    -0.069 Br
HETATM   17 BR2  UNL     1      32.502  32.672  19.406  1.00  0.00    -0.069 Br
ENDBRANCH  12  15
ENDBRANCH   1  11
BRANCH   5  18
HETATM   18  C5  UNL     1      36.067  29.441  27.295  1.00  0.00     0.198 C 
HETATM   19  O3  UNL     1      36.803  29.085  28.240  1.00  0.00    -0.646 OA
HETATM   20  O4  UNL     1      35.409  30.649  27.298  1.00  0.00    -0.646 OA
ENDBRANCH   5  18
BRANCH   6  21
HETATM   21  C7  UNL     1      37.528  26.667  25.657  1.00  0.00     0.007 C 
HETATM   22  C8  UNL     1      36.584  25.804  26.403  1.00  0.00     0.006 C 
HETATM   23  C9  UNL     1      37.388  24.502  26.541  1.00  0.00     0.000 C 
HETATM   24  C10 UNL     1      38.824  24.907  26.492  1.00  0.00     0.000 C 
HETATM   25  C11 UNL     1      38.821  26.441  26.400  1.00  0.00     0.006 C 
ENDBRANCH   6  21
TORSDOF 4
ENDMDL
MODEL 4
REMARK VINA RESULT: -6.245413985      3.944      5.400
REMARK  4 active torsions:
REMARK  status: ('A' for Active; 'I' for Inactive)
REMARK       I    between atoms: C1_2  and  N1_3 
REMARK    1  A    between atoms: C1_2  and  C13_23 
REMARK    2  A    between atoms: N1_3  and  C2_5 
REMARK    3  A    between atoms: C4_9  and  C5_10 
REMARK    4  A    between atoms: C6_13  and  C7_14 
ROOT
HETATM    1  C2  UNL     1      37.673  28.492  26.372  1.00  0.00     0.214 C 
HETATM    2  C3  UNL     1      38.424  28.875  25.141  1.00  0.00     0.247 C 
HETATM    3  O2  UNL     1      39.557  28.552  24.701  1.00  0.00    -0.271 OA
HETATM    4  N2  UNL     1      37.395  29.700  24.703  1.00  0.00    -0.313 N 
HETATM    5  C4  UNL     1      36.567  30.469  23.842  1.00  0.00     0.208 C 
HETATM    6  C6  UNL     1      35.168  30.468  24.281  1.00  0.00     0.148 C 
HETATM    7  S1  UNL     1      35.182  29.558  25.785  1.00  0.00     0.175 S 
HETATM    8  O5  UNL     1      34.369  30.214  26.862  1.00  0.00    -0.225 OA
HETATM    9  O6  UNL     1      34.841  28.108  25.634  1.00  0.00    -0.225 OA
HETATM   10  C12 UNL     1      36.923  29.741  26.079  1.00  0.00     0.243 C 
ENDROOT
BRANCH   1  11
HETATM   11  N1  UNL     1      38.441  28.624  27.594  1.00  0.00    -0.343 N 
HETATM   12  C1  UNL     1      39.168  27.567  28.174  1.00  0.00     0.243 C 
HETATM   13  O1  UNL     1      39.145  26.451  27.595  1.00  0.00    -0.271 OA
ATOM     14  H1  UNL     1      38.456  29.532  28.059  1.00  0.00     0.163 HD
BRANCH  12  15
HETATM   15  C13 UNL     1      39.939  27.754  29.428  1.00  0.00     0.221 C 
HETATM   16 BR1  UNL     1      39.768  26.108  30.444  1.00  0.00    -0.069 Br
HETATM   17 BR2  UNL     1      41.780  28.144  29.041  1.00  0.00    -0.069 Br
ENDBRANCH  12  15
ENDBRANCH   1  11
BRANCH   5  18
HETATM   18  C5  UNL     1      37.164  31.836  23.734  1.00  0.00     0.198 C 
HETATM   19  O3  UNL     1      38.344  31.947  23.340  1.00  0.00    -0.646 OA
HETATM   20  O4  UNL     1      36.401  32.932  24.070  1.00  0.00    -0.646 OA
ENDBRANCH   5  18
BRANCH   6  21
HETATM   21  C7  UNL     1      34.163  30.020  23.278  1.00  0.00     0.007 C 
HETATM   22  C8  UNL     1      34.549  28.903  22.387  1.00  0.00     0.006 C 
HETATM   23  C9  UNL     1      33.397  28.895  21.371  1.00  0.00     0.000 C 
HETATM   24  C10 UNL     1      32.873  30.293  21.345  1.00  0.00     0.000 C 
HETATM   25  C11 UNL     1      33.780  31.095  22.291  1.00  0.00     0.006 C 
ENDBRANCH   6  21
TORSDOF 4
ENDMDL
MODEL 5
REMARK VINA RESULT: -6.233408557      3.599      5.053
REMARK  4 active torsions:
REMARK  status: ('A' for Active; 'I' for Inactive)
REMARK       I    between atoms: C1_2  and  N1_3 
REMARK    1  A    between atoms: C1_2  and  C13_23 
REMARK    2  A    between atoms: N1_3  and  C2_5 
REMARK    3  A    between atoms: C4_9  and  C5_10 
REMARK    4  A    between atoms: C6_13  and  C7_14 
ROOT
HETATM    1  C2  UNL     1      36.815  27.554  22.368  1.00  0.00     0.214 C 
HETATM    2  C3  UNL     1      35.545  27.891  21.662  1.00  0.00     0.247 C 
HETATM    3  O2  UNL     1      35.001  27.432  20.625  1.00  0.00    -0.271 OA
HETATM    4  N2  UNL     1      35.230  28.879  22.586  1.00  0.00    -0.313 N 
HETATM    5  C4  UNL     1      34.473  29.808  23.351  1.00  0.00     0.208 C 
HETATM    6  C6  UNL     1      35.024  29.985  24.698  1.00  0.00     0.148 C 
HETATM    7  S1  UNL     1      36.480  29.001  24.709  1.00  0.00     0.175 S 
HETATM    8  O5  UNL     1      37.648  29.707  25.333  1.00  0.00    -0.225 OA
HETATM    9  O6  UNL     1      36.294  27.627  25.273  1.00  0.00    -0.225 OA
HETATM   10  C12 UNL     1      36.640  28.913  22.943  1.00  0.00     0.243 C 
ENDROOT
BRANCH   1  11
HETATM   11  N1  UNL     1      37.976  27.505  21.501  1.00  0.00    -0.343 N 
HETATM   12  C1  UNL     1      38.334  26.374  20.744  1.00  0.00     0.243 C 
HETATM   13  O1  UNL     1      37.604  25.353  20.830  1.00  0.00    -0.271 OA
ATOM     14  H1  UNL     1      38.564  28.336  21.435  1.00  0.00     0.163 HD
BRANCH  12  15
HETATM   15  C13 UNL     1      39.533  26.375  19.870  1.00  0.00     0.221 C 
HETATM   16 BR1  UNL     1      38.916  26.748  18.067  1.00  0.00    -0.069 Br
HETATM   17 BR2  UNL     1      40.800  27.694  20.458  1.00  0.00    -0.069 Br
ENDBRANCH  12  15
ENDBRANCH   1  11
BRANCH   5  18
HETATM   18  C5  UNL     1      34.377  31.078  22.567  1.00  0.00     0.198 C 
HETATM   19  O3  UNL     1      33.445  31.206  21.745  1.00  0.00    -0.646 OA
HETATM   20  O4  UNL     1      35.313  32.066  22.769  1.00  0.00    -0.646 OA
ENDBRANCH   5  18
BRANCH   6  21
HETATM   21  C7  UNL     1      34.087  29.744  25.830  1.00  0.00     0.007 C 
HETATM   22  C8  UNL     1      32.644  29.944  25.567  1.00  0.00     0.006 C 
HETATM   23  C9  UNL     1      32.048  29.847  26.980  1.00  0.00     0.000 C 
HETATM   24  C10 UNL     1      33.143  30.258  27.908  1.00  0.00     0.000 C 
HETATM   25  C11 UNL     1      34.324  30.655  27.009  1.00  0.00     0.006 C 
ENDBRANCH   6  21
TORSDOF 4
ENDMDL
