MODEL 1
REMARK VINA RESULT: -6.734212391      0.000      0.000
REMARK  4 active torsions:
REMARK  status: ('A' for Active; 'I' for Inactive)
REMARK    1  A    between atoms: C1_2  and  C2_4 
REMARK       I    between atoms: N1_7  and  C5_9 
REMARK    2  A    between atoms: C5_9  and  C6_11 
REMARK    3  A    between atoms: C9_17  and  C10_18 
REMARK       I    between atoms: C10_18  and  N2_20 
REMARK    4  A    between atoms: N2_20  and  C11_22 
ROOT
HETATM    1  C6  UNL     1      38.574  28.591  26.321  1.00  0.00     0.229 C 
HETATM    2  O4  UNL     1      39.281  27.576  26.945  1.00  0.00    -0.358 OA
HETATM    3  C7  UNL     1      39.059  26.417  26.234  1.00  0.00     0.209 C 
HETATM    4 BR1  UNL     1      39.140  24.910  27.476  1.00  0.00    -0.060 Br
HETATM    5  C8  UNL     1      37.657  26.492  25.685  1.00  0.00     0.113 C 
HETATM    6 BR2  UNL     1      36.491  25.282  26.653  1.00  0.00    -0.087 Br
HETATM    7  C9  UNL     1      37.294  27.914  25.934  1.00  0.00     0.134 C 
ENDROOT
BRANCH   7   8
HETATM    8  C10 UNL     1      36.520  28.567  24.887  1.00  0.00     0.231 C 
HETATM    9  O5  UNL     1      36.364  28.099  23.727  1.00  0.00    -0.273 OA
HETATM   10  N2  UNL     1      35.893  29.810  25.171  1.00  0.00    -0.313 N 
ATOM     11  H2  UNL     1      36.384  30.673  24.939  1.00  0.00     0.170 HD
BRANCH  10  12
HETATM   12  C11 UNL     1      34.724  29.886  25.712  1.00  0.00     0.107 A 
HETATM   13  C12 UNL     1      34.636  30.365  27.001  1.00  0.00     0.048 A 
HETATM   14  C13 UNL     1      33.444  30.491  27.680  1.00  0.00     0.005 A 
HETATM   15  C14 UNL     1      32.276  30.116  27.025  1.00  0.00     0.017 A 
HETATM   16  C15 UNL     1      32.395  29.639  25.729  1.00  0.00     0.089 A 
HETATM   17  N3  UNL     1      33.588  29.532  25.103  1.00  0.00    -0.352 N 
ATOM     18  H3  UNL     1      33.623  29.176  24.148  1.00  0.00     0.166 HD
ENDBRANCH  10  12
ENDBRANCH   7   8
BRANCH   1  19
HETATM   19  C5  UNL     1      39.364  29.137  25.218  1.00  0.00     0.251 C 
HETATM   20  N1  UNL     1      39.902  30.447  25.333  1.00  0.00    -0.331 N 
HETATM   21  C4  UNL     1      39.403  31.454  24.683  1.00  0.00     0.005 A 
ATOM     22  H1  UNL     1      40.705  30.601  25.944  1.00  0.00     0.168 HD
HETATM   23  C2  UNL     1      38.540  32.243  23.793  1.00  0.00     0.137 A 
HETATM   24  C3  UNL     1      39.673  32.951  24.535  1.00  0.00     0.074 A 
HETATM   25  O3  UNL     1      39.600  28.493  24.145  1.00  0.00    -0.270 OA
BRANCH  23  26
HETATM   26  C1  UNL     1      37.207  32.672  24.222  1.00  0.00     0.183 C 
HETATM   27  O1  UNL     1      36.350  33.011  23.365  1.00  0.00    -0.647 OA
HETATM   28  O2  UNL     1      36.797  32.737  25.547  1.00  0.00    -0.647 OA
ENDBRANCH  23  26
ENDBRANCH   1  19
TORSDOF 4
ENDMDL
MODEL 2
REMARK VINA RESULT: -6.627647369      2.656      4.848
REMARK  4 active torsions:
REMARK  status: ('A' for Active; 'I' for Inactive)
REMARK    1  A    between atoms: C1_2  and  C2_4 
REMARK       I    between atoms: N1_7  and  C5_9 
REMARK    2  A    between atoms: C5_9  and  C6_11 
REMARK    3  A    between atoms: C9_17  and  C10_18 
REMARK       I    between atoms: C10_18  and  N2_20 
REMARK    4  A    between atoms: N2_20  and  C11_22 
ROOT
HETATM    1  C6  UNL     1      36.464  26.270  26.657  1.00  0.00     0.229 C 
HETATM    2  O4  UNL     1      37.012  25.230  27.388  1.00  0.00    -0.358 OA
HETATM    3  C7  UNL     1      38.359  25.486  27.529  1.00  0.00     0.209 C 
HETATM    4 BR1  UNL     1      39.303  23.777  27.617  1.00  0.00    -0.060 Br
HETATM    5  C8  UNL     1      38.809  26.202  26.281  1.00  0.00     0.113 C 
HETATM    6 BR2  UNL     1      39.873  25.017  25.174  1.00  0.00    -0.087 Br
HETATM    7  C9  UNL     1      37.517  26.544  25.627  1.00  0.00     0.134 C 
ENDROOT
BRANCH   7   8
HETATM    8  C10 UNL     1      37.454  27.850  24.984  1.00  0.00     0.231 C 
HETATM    9  O5  UNL     1      38.160  28.838  25.320  1.00  0.00    -0.273 OA
HETATM   10  N2  UNL     1      36.547  28.041  23.908  1.00  0.00    -0.313 N 
ATOM     11  H2  UNL     1      35.621  28.421  24.106  1.00  0.00     0.170 HD
BRANCH  10  12
HETATM   12  C11 UNL     1      36.851  27.752  22.688  1.00  0.00     0.107 A 
HETATM   13  C12 UNL     1      35.828  27.659  21.769  1.00  0.00     0.048 A 
HETATM   14  C13 UNL     1      36.032  27.356  20.440  1.00  0.00     0.005 A 
HETATM   15  C14 UNL     1      37.337  27.138  20.012  1.00  0.00     0.017 A 
HETATM   16  C15 UNL     1      38.345  27.239  20.958  1.00  0.00     0.089 A 
HETATM   17  N3  UNL     1      38.097  27.539  22.253  1.00  0.00    -0.352 N 
ATOM     18  H3  UNL     1      38.874  27.602  22.910  1.00  0.00     0.166 HD
ENDBRANCH  10  12
ENDBRANCH   7   8
BRANCH   1  19
HETATM   19  C5  UNL     1      36.140  27.383  27.549  1.00  0.00     0.251 C 
HETATM   20  N1  UNL     1      34.822  27.915  27.545  1.00  0.00    -0.331 N 
HETATM   21  C4  UNL     1      34.544  29.057  26.996  1.00  0.00     0.005 A 
ATOM     22  H1  UNL     1      34.073  27.383  27.988  1.00  0.00     0.168 HD
HETATM   23  C2  UNL     1      34.705  30.332  26.283  1.00  0.00     0.137 A 
HETATM   24  C3  UNL     1      33.315  29.943  26.786  1.00  0.00     0.074 A 
HETATM   25  O3  UNL     1      36.988  27.910  28.340  1.00  0.00    -0.270 OA
BRANCH  23  26
HETATM   26  C1  UNL     1      34.805  30.372  24.822  1.00  0.00     0.183 C 
HETATM   27  O1  UNL     1      33.958  29.767  24.117  1.00  0.00    -0.647 OA
HETATM   28  O2  UNL     1      35.798  31.049  24.127  1.00  0.00    -0.647 OA
ENDBRANCH  23  26
ENDBRANCH   1  19
TORSDOF 4
ENDMDL
MODEL 3
REMARK VINA RESULT: -6.575971589      3.443      4.609
REMARK  4 active torsions:
REMARK  status: ('A' for Active; 'I' for Inactive)
REMARK    1  A    between atoms: C1_2  and  C2_4 
REMARK       I    between atoms: N1_7  and  C5_9 
REMARK    2  A    between atoms: C5_9  and  C6_11 
REMARK    3  A    between atoms: C9_17  and  C10_18 
REMARK       I    between atoms: C10_18  and  N2_20 
REMARK    4  A    between atoms: N2_20  and  C11_22 
ROOT
HETATM    1  C6  UNL     1      35.475  28.496  25.051  1.00  0.00     0.229 C 
HETATM    2  O4  UNL     1      36.737  28.217  24.552  1.00  0.00    -0.358 OA
HETATM    3  C7  UNL     1      36.861  28.875  23.348  1.00  0.00     0.209 C 
HETATM    4 BR1  UNL     1      38.047  27.831  22.198  1.00  0.00    -0.060 Br
HETATM    5  C8  UNL     1      35.496  28.899  22.709  1.00  0.00     0.113 C 
HETATM    6 BR2  UNL     1      35.431  27.660  21.218  1.00  0.00    -0.087 Br
HETATM    7  C9  UNL     1      34.616  28.454  23.825  1.00  0.00     0.134 C 
ENDROOT
BRANCH   7   8
HETATM    8  C10 UNL     1      33.328  29.127  23.927  1.00  0.00     0.231 C 
HETATM    9  O5  UNL     1      32.901  29.681  24.975  1.00  0.00    -0.273 OA
HETATM   10  N2  UNL     1      32.486  29.175  22.783  1.00  0.00    -0.313 N 
ATOM     11  H2  UNL     1      31.771  28.457  22.669  1.00  0.00     0.170 HD
BRANCH  10  12
HETATM   12  C11 UNL     1      32.594  30.094  21.884  1.00  0.00     0.107 A 
HETATM   13  C12 UNL     1      32.145  29.812  20.611  1.00  0.00     0.048 A 
HETATM   14  C13 UNL     1      32.208  30.713  19.571  1.00  0.00     0.005 A 
HETATM   15  C14 UNL     1      32.753  31.968  19.826  1.00  0.00     0.017 A 
HETATM   16  C15 UNL     1      33.195  32.223  21.114  1.00  0.00     0.089 A 
HETATM   17  N3  UNL     1      33.112  31.306  22.104  1.00  0.00    -0.352 N 
ATOM     18  H3  UNL     1      33.452  31.543  23.036  1.00  0.00     0.166 HD
ENDBRANCH  10  12
ENDBRANCH   7   8
BRANCH   1  19
HETATM   19  C5  UNL     1      35.499  29.769  25.770  1.00  0.00     0.251 C 
HETATM   20  N1  UNL     1      35.398  30.982  25.037  1.00  0.00    -0.331 N 
HETATM   21  C4  UNL     1      36.422  31.756  24.844  1.00  0.00     0.005 A 
ATOM     22  H1  UNL     1      34.493  31.252  24.651  1.00  0.00     0.168 HD
HETATM   23  C2  UNL     1      37.794  32.281  24.885  1.00  0.00     0.137 A 
HETATM   24  C3  UNL     1      36.722  33.082  24.147  1.00  0.00     0.074 A 
HETATM   25  O3  UNL     1      35.607  29.851  27.037  1.00  0.00    -0.270 OA
BRANCH  23  26
HETATM   26  C1  UNL     1      38.832  31.746  24.001  1.00  0.00     0.183 C 
HETATM   27  O1  UNL     1      38.995  32.235  22.854  1.00  0.00    -0.647 OA
HETATM   28  O2  UNL     1      39.684  30.703  24.341  1.00  0.00    -0.647 OA
ENDBRANCH  23  26
ENDBRANCH   1  19
TORSDOF 4
ENDMDL
MODEL 4
REMARK VINA RESULT: -6.574121204      2.683      4.204
REMARK  4 active torsions:
REMARK  status: ('A' for Active; 'I' for Inactive)
REMARK    1  A    between atoms: C1_2  and  C2_4 
REMARK       I    between atoms: N1_7  and  C5_9 
REMARK    2  A    between atoms: C5_9  and  C6_11 
REMARK    3  A    between atoms: C9_17  and  C10_18 
REMARK       I    between atoms: C10_18  and  N2_20 
REMARK    4  A    between atoms: N2_20  and  C11_22 
ROOT
HETATM    1  C6  UNL     1      35.602  27.845  26.897  1.00  0.00     0.229 C 
HETATM    2  O4  UNL     1      35.119  26.995  27.878  1.00  0.00    -0.358 OA
HETATM    3  C7  UNL     1      36.158  26.177  28.266  1.00  0.00     0.209 C 
HETATM    4 BR1  UNL     1      35.411  24.456  28.814  1.00  0.00    -0.060 Br
HETATM    5  C8  UNL     1      37.020  25.944  27.051  1.00  0.00     0.113 C 
HETATM    6 BR2  UNL     1      36.777  24.136  26.392  1.00  0.00    -0.087 Br
HETATM    7  C9  UNL     1      36.491  26.949  26.089  1.00  0.00     0.134 C 
ENDROOT
BRANCH   7   8
HETATM    8  C10 UNL     1      37.483  27.618  25.258  1.00  0.00     0.231 C 
HETATM    9  O5  UNL     1      38.723  27.592  25.477  1.00  0.00    -0.273 OA
HETATM   10  N2  UNL     1      37.044  28.351  24.122  1.00  0.00    -0.313 N 
ATOM     11  H2  UNL     1      36.878  29.352  24.217  1.00  0.00     0.170 HD
BRANCH  10  12
HETATM   12  C11 UNL     1      36.848  27.795  22.975  1.00  0.00     0.107 A 
HETATM   13  C12 UNL     1      35.676  28.081  22.307  1.00  0.00     0.048 A 
HETATM   14  C13 UNL     1      35.359  27.547  21.077  1.00  0.00     0.005 A 
HETATM   15  C14 UNL     1      36.271  26.679  20.486  1.00  0.00     0.017 A 
HETATM   16  C15 UNL     1      37.439  26.410  21.180  1.00  0.00     0.089 A 
HETATM   17  N3  UNL     1      37.709  26.958  22.387  1.00  0.00    -0.352 N 
ATOM     18  H3  UNL     1      38.584  26.729  22.856  1.00  0.00     0.166 HD
ENDBRANCH  10  12
ENDBRANCH   7   8
BRANCH   1  19
HETATM   19  C5  UNL     1      36.254  28.997  27.519  1.00  0.00     0.251 C 
HETATM   20  N1  UNL     1      35.824  30.307  27.176  1.00  0.00    -0.331 N 
HETATM   21  C4  UNL     1      36.526  31.082  26.407  1.00  0.00     0.005 A 
ATOM     22  H1  UNL     1      34.937  30.649  27.546  1.00  0.00     0.168 HD
HETATM   23  C2  UNL     1      37.610  31.569  25.542  1.00  0.00     0.137 A 
HETATM   24  C3  UNL     1      36.425  32.491  25.824  1.00  0.00     0.074 A 
HETATM   25  O3  UNL     1      37.201  28.888  28.364  1.00  0.00    -0.270 OA
BRANCH  23  26
HETATM   26  C1  UNL     1      37.703  31.152  24.141  1.00  0.00     0.183 C 
HETATM   27  O1  UNL     1      36.702  31.255  23.387  1.00  0.00    -0.647 OA
HETATM   28  O2  UNL     1      38.850  30.633  23.557  1.00  0.00    -0.647 OA
ENDBRANCH  23  26
ENDBRANCH   1  19
TORSDOF 4
ENDMDL
MODEL 5
REMARK VINA RESULT: -6.332538273      3.932      6.093
REMARK  4 active torsions:
REMARK  status: ('A' for Active; 'I' for Inactive)
REMARK    1  A    between atoms: C1_2  and  C2_4 
REMARK       I    between atoms: N1_7  and  C5_9 
REMARK    2  A    between atoms: C5_9  and  C6_11 
REMARK    3  A    between atoms: C9_17  and  C10_18 
REMARK       I    between atoms: C10_18  and  N2_20 
REMARK    4  A    between atoms: N2_20  and  C11_22 
ROOT
HETATM    1  C6  UNL     1      36.247  29.030  25.309  1.00  0.00     0.229 C 
HETATM    2  O4  UNL     1      37.433  29.722  25.485  1.00  0.00    -0.358 OA
HETATM    3  C7  UNL     1      37.112  31.037  25.743  1.00  0.00     0.209 C 
HETATM    4 BR1  UNL     1      38.545  32.167  25.045  1.00  0.00    -0.060 Br
HETATM    5  C8  UNL     1      35.855  31.349  24.971  1.00  0.00     0.113 C 
HETATM    6 BR2  UNL     1      36.265  32.487  23.454  1.00  0.00    -0.087 Br
HETATM    7  C9  UNL     1      35.408  29.999  24.533  1.00  0.00     0.134 C 
ENDROOT
BRANCH   7   8
HETATM    8  C10 UNL     1      33.971  29.763  24.564  1.00  0.00     0.231 C 
HETATM    9  O5  UNL     1      33.167  30.391  25.304  1.00  0.00    -0.273 OA
HETATM   10  N2  UNL     1      33.420  28.768  23.712  1.00  0.00    -0.313 N 
ATOM     11  H2  UNL     1      33.286  27.826  24.078  1.00  0.00     0.170 HD
BRANCH  10  12
HETATM   12  C11 UNL     1      33.085  29.013  22.490  1.00  0.00     0.107 A 
HETATM   13  C12 UNL     1      33.884  28.512  21.485  1.00  0.00     0.048 A 
HETATM   14  C13 UNL     1      33.625  28.709  20.146  1.00  0.00     0.005 A 
HETATM   15  C14 UNL     1      32.500  29.450  19.800  1.00  0.00     0.017 A 
HETATM   16  C15 UNL     1      31.715  29.940  20.831  1.00  0.00     0.089 A 
HETATM   17  N3  UNL     1      32.009  29.721  22.133  1.00  0.00    -0.352 N 
ATOM     18  H3  UNL     1      31.399  30.103  22.855  1.00  0.00     0.166 HD
ENDBRANCH  10  12
ENDBRANCH   7   8
BRANCH   1  19
HETATM   19  C5  UNL     1      35.714  28.625  26.610  1.00  0.00     0.251 C 
HETATM   20  N1  UNL     1      36.584  28.027  27.560  1.00  0.00    -0.331 N 
HETATM   21  C4  UNL     1      36.549  26.756  27.821  1.00  0.00     0.005 A 
ATOM     22  H1  UNL     1      37.258  28.614  28.053  1.00  0.00     0.168 HD
HETATM   23  C2  UNL     1      36.157  25.340  27.781  1.00  0.00     0.137 A 
HETATM   24  C3  UNL     1      37.277  25.766  28.729  1.00  0.00     0.074 A 
HETATM   25  O3  UNL     1      34.495  28.782  26.942  1.00  0.00    -0.270 OA
BRANCH  23  26
HETATM   26  C1  UNL     1      36.611  24.461  26.701  1.00  0.00     0.183 C 
HETATM   27  O1  UNL     1      37.201  24.947  25.702  1.00  0.00    -0.647 OA
HETATM   28  O2  UNL     1      36.437  23.084  26.692  1.00  0.00    -0.647 OA
ENDBRANCH  23  26
ENDBRANCH   1  19
TORSDOF 4
ENDMDL
