MODEL 1
REMARK VINA RESULT: -8.196387385      0.000      0.000
REMARK  5 active torsions:
REMARK  status: ('A' for Active; 'I' for Inactive)
REMARK    1  A    between atoms: C7_9  and  N2_10 
REMARK       I    between atoms: N2_10  and  C8_11 
REMARK    2  A    between atoms: C8_11  and  C9_13 
REMARK    3  A    between atoms: C9_13  and  N3_14 
REMARK    4  A    between atoms: N3_14  and  S1_16 
REMARK    5  A    between atoms: S1_16  and  C10_19 
ROOT
HETATM    1  N1  UNL     1      31.777  29.663  20.103  1.00  0.00    -0.191 NA
HETATM    2  C1  UNL     1      32.345  30.604  20.443  1.00  0.00     0.104 C 
HETATM    3  C2  UNL     1      33.027  31.787  20.826  1.00  0.00     0.102 A 
HETATM    4  C3  UNL     1      32.761  32.918  20.121  1.00  0.00     0.035 A 
HETATM    5 BR1  UNL     1      31.518  32.918  18.692  1.00  0.00    -0.049 Br
HETATM    6  C4  UNL     1      33.406  34.087  20.443  1.00  0.00     0.021 A 
HETATM    7  C5  UNL     1      34.314  34.154  21.458  1.00  0.00     0.005 A 
HETATM    8  C6  UNL     1      34.565  32.987  22.159  1.00  0.00     0.046 A 
HETATM    9  C7  UNL     1      33.936  31.768  21.875  1.00  0.00     0.133 A 
ENDROOT
BRANCH   9  10
HETATM   10  N2  UNL     1      34.073  30.587  22.592  1.00  0.00    -0.368 NA
HETATM   11  C8  UNL     1      34.203  29.462  23.274  1.00  0.00     0.310 C 
HETATM   12  O1  UNL     1      34.978  28.488  22.987  1.00  0.00    -0.255 OA
BRANCH  11  13
HETATM   13  C9  UNL     1      33.413  29.138  24.556  1.00  0.00     0.251 C 
BRANCH  13  14
HETATM   14  N3  UNL     1      34.331  28.576  25.479  1.00  0.00    -0.305 N 
ATOM     15  H3  UNL     1      34.560  27.582  25.472  1.00  0.00     0.172 HD
BRANCH  14  16
HETATM   16  S1  UNL     1      35.031  29.654  26.604  1.00  0.00     0.260 S 
HETATM   17  O2  UNL     1      34.046  30.600  27.219  1.00  0.00    -0.200 OA
HETATM   18  O3  UNL     1      35.648  28.864  27.703  1.00  0.00    -0.200 OA
BRANCH  16  19
HETATM   19  C10 UNL     1      36.241  30.575  25.743  1.00  0.00     0.096 A 
HETATM   20  C11 UNL     1      36.072  31.915  25.562  1.00  0.00     0.027 A 
HETATM   21  C12 UNL     1      37.048  32.611  24.844  1.00  0.00     0.002 A 
HETATM   22  C13 UNL     1      38.140  31.995  24.333  1.00  0.00     0.001 A 
HETATM   23  C14 UNL     1      38.284  30.648  24.533  1.00  0.00     0.020 A 
HETATM   24  C15 UNL     1      37.330  29.913  25.246  1.00  0.00     0.034 A 
HETATM   25 BR2  UNL     1      37.639  28.044  25.484  1.00  0.00    -0.049 Br
ENDBRANCH  16  19
ENDBRANCH  14  16
ENDBRANCH  13  14
ENDBRANCH  11  13
ENDBRANCH   9  10
TORSDOF 5
ENDMDL
MODEL 2
REMARK VINA RESULT: -8.045342503      2.830      6.085
REMARK  5 active torsions:
REMARK  status: ('A' for Active; 'I' for Inactive)
REMARK    1  A    between atoms: C7_9  and  N2_10 
REMARK       I    between atoms: N2_10  and  C8_11 
REMARK    2  A    between atoms: C8_11  and  C9_13 
REMARK    3  A    between atoms: C9_13  and  N3_14 
REMARK    4  A    between atoms: N3_14  and  S1_16 
REMARK    5  A    between atoms: S1_16  and  C10_19 
ROOT
HETATM    1  N1  UNL     1      33.333  29.020  24.482  1.00  0.00    -0.191 NA
HETATM    2  C1  UNL     1      34.403  29.443  24.441  1.00  0.00     0.104 C 
HETATM    3  C2  UNL     1      35.711  29.988  24.430  1.00  0.00     0.102 A 
HETATM    4  C3  UNL     1      36.085  30.739  25.499  1.00  0.00     0.035 A 
HETATM    5 BR1  UNL     1      34.909  31.035  26.954  1.00  0.00    -0.049 Br
HETATM    6  C4  UNL     1      37.338  31.301  25.530  1.00  0.00     0.021 A 
HETATM    7  C5  UNL     1      38.231  31.129  24.515  1.00  0.00     0.005 A 
HETATM    8  C6  UNL     1      37.823  30.360  23.439  1.00  0.00     0.046 A 
HETATM    9  C7  UNL     1      36.559  29.762  23.354  1.00  0.00     0.133 A 
ENDROOT
BRANCH   9  10
HETATM   10  N2  UNL     1      36.120  28.907  22.352  1.00  0.00    -0.368 NA
HETATM   11  C8  UNL     1      35.703  28.093  21.399  1.00  0.00     0.310 C 
HETATM   12  O1  UNL     1      36.132  26.912  21.169  1.00  0.00    -0.255 OA
BRANCH  11  13
HETATM   13  C9  UNL     1      34.604  28.453  20.380  1.00  0.00     0.251 C 
BRANCH  13  14
HETATM   14  N3  UNL     1      33.447  28.801  21.122  1.00  0.00    -0.305 N 
ATOM     15  H3  UNL     1      33.271  28.422  22.053  1.00  0.00     0.172 HD
BRANCH  14  16
HETATM   16  S1  UNL     1      32.364  29.889  20.372  1.00  0.00     0.260 S 
HETATM   17  O2  UNL     1      32.240  29.686  18.893  1.00  0.00    -0.200 OA
HETATM   18  O3  UNL     1      31.014  29.708  20.970  1.00  0.00    -0.200 OA
BRANCH  16  19
HETATM   19  C10 UNL     1      32.969  31.500  20.675  1.00  0.00     0.096 A 
HETATM   20  C11 UNL     1      33.891  31.706  21.658  1.00  0.00     0.027 A 
HETATM   21  C12 UNL     1      34.329  33.012  21.888  1.00  0.00     0.002 A 
HETATM   22  C13 UNL     1      33.868  34.062  21.168  1.00  0.00     0.001 A 
HETATM   23  C14 UNL     1      32.944  33.824  20.186  1.00  0.00     0.020 A 
HETATM   24  C15 UNL     1      32.478  32.532  19.923  1.00  0.00     0.034 A 
HETATM   25 BR2  UNL     1      31.205  32.310  18.517  1.00  0.00    -0.049 Br
ENDBRANCH  16  19
ENDBRANCH  14  16
ENDBRANCH  13  14
ENDBRANCH  11  13
ENDBRANCH   9  10
TORSDOF 5
ENDMDL
MODEL 3
REMARK VINA RESULT: -7.956203759      2.889      6.641
REMARK  5 active torsions:
REMARK  status: ('A' for Active; 'I' for Inactive)
REMARK    1  A    between atoms: C7_9  and  N2_10 
REMARK       I    between atoms: N2_10  and  C8_11 
REMARK    2  A    between atoms: C8_11  and  C9_13 
REMARK    3  A    between atoms: C9_13  and  N3_14 
REMARK    4  A    between atoms: N3_14  and  S1_16 
REMARK    5  A    between atoms: S1_16  and  C10_19 
ROOT
HETATM    1  N1  UNL     1      37.346  26.446  24.821  1.00  0.00    -0.191 NA
HETATM    2  C1  UNL     1      37.000  27.510  25.090  1.00  0.00     0.104 C 
HETATM    3  C2  UNL     1      36.585  28.813  25.466  1.00  0.00     0.102 A 
HETATM    4  C3  UNL     1      36.858  29.213  26.735  1.00  0.00     0.035 A 
HETATM    5 BR1  UNL     1      37.767  28.081  27.952  1.00  0.00    -0.049 Br
HETATM    6  C4  UNL     1      36.465  30.461  27.153  1.00  0.00     0.021 A 
HETATM    7  C5  UNL     1      35.805  31.323  26.329  1.00  0.00     0.005 A 
HETATM    8  C6  UNL     1      35.541  30.889  25.041  1.00  0.00     0.046 A 
HETATM    9  C7  UNL     1      35.918  29.628  24.562  1.00  0.00     0.133 A 
ENDROOT
BRANCH   9  10
HETATM   10  N2  UNL     1      35.767  29.165  23.261  1.00  0.00    -0.368 NA
HETATM   11  C8  UNL     1      35.625  28.725  22.024  1.00  0.00     0.310 C 
HETATM   12  O1  UNL     1      36.529  28.694  21.121  1.00  0.00    -0.255 OA
BRANCH  11  13
HETATM   13  C9  UNL     1      34.306  28.167  21.456  1.00  0.00     0.251 C 
BRANCH  13  14
HETATM   14  N3  UNL     1      33.270  29.038  21.878  1.00  0.00    -0.305 N 
ATOM     15  H3  UNL     1      33.006  29.124  22.860  1.00  0.00     0.172 HD
BRANCH  14  16
HETATM   16  S1  UNL     1      32.487  29.936  20.653  1.00  0.00     0.260 S 
HETATM   17  O2  UNL     1      32.786  29.446  19.269  1.00  0.00    -0.200 OA
HETATM   18  O3  UNL     1      31.016  29.844  20.858  1.00  0.00    -0.200 OA
BRANCH  16  19
HETATM   19  C10 UNL     1      33.035  31.588  20.801  1.00  0.00     0.096 A 
HETATM   20  C11 UNL     1      33.943  31.918  21.762  1.00  0.00     0.027 A 
HETATM   21  C12 UNL     1      34.336  33.255  21.867  1.00  0.00     0.002 A 
HETATM   22  C13 UNL     1      33.845  34.214  21.048  1.00  0.00     0.001 A 
HETATM   23  C14 UNL     1      32.935  33.852  20.090  1.00  0.00     0.020 A 
HETATM   24  C15 UNL     1      32.514  32.525  19.951  1.00  0.00     0.034 A 
HETATM   25 BR2  UNL     1      31.259  32.126  18.569  1.00  0.00    -0.049 Br
ENDBRANCH  16  19
ENDBRANCH  14  16
ENDBRANCH  13  14
ENDBRANCH  11  13
ENDBRANCH   9  10
TORSDOF 5
ENDMDL
MODEL 4
REMARK VINA RESULT: -7.898379300      1.077      1.177
REMARK  5 active torsions:
REMARK  status: ('A' for Active; 'I' for Inactive)
REMARK    1  A    between atoms: C7_9  and  N2_10 
REMARK       I    between atoms: N2_10  and  C8_11 
REMARK    2  A    between atoms: C8_11  and  C9_13 
REMARK    3  A    between atoms: C9_13  and  N3_14 
REMARK    4  A    between atoms: N3_14  and  S1_16 
REMARK    5  A    between atoms: S1_16  and  C10_19 
ROOT
HETATM    1  N1  UNL     1      31.816  29.492  20.559  1.00  0.00    -0.191 NA
HETATM    2  C1  UNL     1      32.372  30.477  20.773  1.00  0.00     0.104 C 
HETATM    3  C2  UNL     1      33.038  31.708  20.998  1.00  0.00     0.102 A 
HETATM    4  C3  UNL     1      32.731  32.744  20.173  1.00  0.00     0.035 A 
HETATM    5 BR1  UNL     1      31.453  32.555  18.787  1.00  0.00    -0.049 Br
HETATM    6  C4  UNL     1      33.358  33.954  20.341  1.00  0.00     0.021 A 
HETATM    7  C5  UNL     1      34.289  34.155  21.316  1.00  0.00     0.005 A 
HETATM    8  C6  UNL     1      34.581  33.083  22.141  1.00  0.00     0.046 A 
HETATM    9  C7  UNL     1      33.972  31.828  22.017  1.00  0.00     0.133 A 
ENDROOT
BRANCH   9  10
HETATM   10  N2  UNL     1      34.151  30.741  22.862  1.00  0.00    -0.368 NA
HETATM   11  C8  UNL     1      34.319  29.707  23.668  1.00  0.00     0.310 C 
HETATM   12  O1  UNL     1      33.396  29.025  24.230  1.00  0.00    -0.255 OA
BRANCH  11  13
HETATM   13  C9  UNL     1      35.697  29.147  24.071  1.00  0.00     0.251 C 
BRANCH  13  14
HETATM   14  N3  UNL     1      35.676  28.962  25.476  1.00  0.00    -0.305 N 
ATOM     15  H3  UNL     1      35.415  28.070  25.897  1.00  0.00     0.172 HD
BRANCH  14  16
HETATM   16  S1  UNL     1      36.111  30.314  26.426  1.00  0.00     0.260 S 
HETATM   17  O2  UNL     1      34.955  31.206  26.761  1.00  0.00    -0.200 OA
HETATM   18  O3  UNL     1      36.695  29.830  27.706  1.00  0.00    -0.200 OA
BRANCH  16  19
HETATM   19  C10 UNL     1      37.285  31.225  25.509  1.00  0.00     0.096 A 
HETATM   20  C11 UNL     1      36.895  32.331  24.814  1.00  0.00     0.027 A 
HETATM   21  C12 UNL     1      37.858  33.016  24.070  1.00  0.00     0.002 A 
HETATM   22  C13 UNL     1      39.150  32.616  24.024  1.00  0.00     0.001 A 
HETATM   23  C14 UNL     1      39.514  31.502  24.734  1.00  0.00     0.020 A 
HETATM   24  C15 UNL     1      38.580  30.786  25.492  1.00  0.00     0.034 A 
HETATM   25 BR2  UNL     1      39.199  29.260  26.459  1.00  0.00    -0.049 Br
ENDBRANCH  16  19
ENDBRANCH  14  16
ENDBRANCH  13  14
ENDBRANCH  11  13
ENDBRANCH   9  10
TORSDOF 5
ENDMDL
MODEL 5
REMARK VINA RESULT: -7.855856826      2.724      3.333
REMARK  5 active torsions:
REMARK  status: ('A' for Active; 'I' for Inactive)
REMARK    1  A    between atoms: C7_9  and  N2_10 
REMARK       I    between atoms: N2_10  and  C8_11 
REMARK    2  A    between atoms: C8_11  and  C9_13 
REMARK    3  A    between atoms: C9_13  and  N3_14 
REMARK    4  A    between atoms: N3_14  and  S1_16 
REMARK    5  A    between atoms: S1_16  and  C10_19 
ROOT
HETATM    1  N1  UNL     1      36.319  28.254  23.622  1.00  0.00    -0.191 NA
HETATM    2  C1  UNL     1      35.413  28.636  23.025  1.00  0.00     0.104 C 
HETATM    3  C2  UNL     1      34.320  29.098  22.249  1.00  0.00     0.102 A 
HETATM    4  C3  UNL     1      34.393  28.929  20.903  1.00  0.00     0.035 A 
HETATM    5 BR1  UNL     1      35.890  28.096  20.094  1.00  0.00    -0.049 Br
HETATM    6  C4  UNL     1      33.366  29.371  20.106  1.00  0.00     0.021 A 
HETATM    7  C5  UNL     1      32.263  29.981  20.624  1.00  0.00     0.005 A 
HETATM    8  C6  UNL     1      32.215  30.140  21.998  1.00  0.00     0.046 A 
HETATM    9  C7  UNL     1      33.232  29.708  22.858  1.00  0.00     0.133 A 
ENDROOT
BRANCH   9  10
HETATM   10  N2  UNL     1      33.208  29.753  24.246  1.00  0.00    -0.368 NA
HETATM   11  C8  UNL     1      33.185  29.797  25.566  1.00  0.00     0.310 C 
HETATM   12  O1  UNL     1      32.353  30.444  26.289  1.00  0.00    -0.255 OA
BRANCH  11  13
HETATM   13  C9  UNL     1      34.190  29.056  26.469  1.00  0.00     0.251 C 
BRANCH  13  14
HETATM   14  N3  UNL     1      34.906  30.044  27.191  1.00  0.00    -0.305 N 
ATOM     15  H3  UNL     1      34.430  30.782  27.711  1.00  0.00     0.172 HD
BRANCH  14  16
HETATM   16  S1  UNL     1      36.611  29.930  27.145  1.00  0.00     0.260 S 
HETATM   17  O2  UNL     1      37.271  30.314  28.434  1.00  0.00    -0.200 OA
HETATM   18  O3  UNL     1      36.988  28.523  26.845  1.00  0.00    -0.200 OA
BRANCH  16  19
HETATM   19  C10 UNL     1      37.159  31.006  25.884  1.00  0.00     0.096 A 
HETATM   20  C11 UNL     1      36.291  31.894  25.323  1.00  0.00     0.027 A 
HETATM   21  C12 UNL     1      36.761  32.719  24.298  1.00  0.00     0.002 A 
HETATM   22  C13 UNL     1      38.039  32.658  23.855  1.00  0.00     0.001 A 
HETATM   23  C14 UNL     1      38.889  31.757  24.439  1.00  0.00     0.020 A 
HETATM   24  C15 UNL     1      38.460  30.912  25.468  1.00  0.00     0.034 A 
HETATM   25 BR2  UNL     1      39.734  29.708  26.226  1.00  0.00    -0.049 Br
ENDBRANCH  16  19
ENDBRANCH  14  16
ENDBRANCH  13  14
ENDBRANCH  11  13
ENDBRANCH   9  10
TORSDOF 5
ENDMDL
