MODEL 1
REMARK VINA RESULT: -6.922374891      0.000      0.000
REMARK  3 active torsions:
REMARK  status: ('A' for Active; 'I' for Inactive)
REMARK    1  A    between atoms: C2_2  and  C3_5 
REMARK    2  A    between atoms: C3_5  and  C4_6 
REMARK       I    between atoms: C4_6  and  N1_8 
REMARK    3  A    between atoms: N1_8  and  C5_10 
ROOT
HETATM    1  C5  UNL     1      38.429  32.344  23.781  1.00  0.00     0.134 C 
HETATM    2  C6  UNL     1      38.826  31.026  24.460  1.00  0.00     0.151 C 
HETATM    3  N2  UNL     1      37.619  30.351  24.743  1.00  0.00    -0.377 N 
HETATM    4  C7  UNL     1      37.549  29.426  25.781  1.00  0.00     0.059 C 
HETATM    5  C8  UNL     1      37.067  28.044  25.481  1.00  0.00     0.044 C 
HETATM    6  C9  UNL     1      35.668  27.892  25.041  1.00  0.00     0.010 C 
HETATM    7  C10 UNL     1      35.304  28.246  23.651  1.00  0.00    -0.010 C 
HETATM    8  C11 UNL     1      36.408  28.671  22.752  1.00  0.00     0.008 C 
HETATM    9  C12 UNL     1      36.434  30.132  22.429  1.00  0.00     0.041 C 
HETATM   10  C13 UNL     1      35.794  31.026  23.438  1.00  0.00     0.093 C 
HETATM   11  O2  UNL     1      36.054  32.345  23.075  1.00  0.00    -0.367 OA
HETATM   12  C14 UNL     1      36.995  32.546  24.050  1.00  0.00     0.177 C 
HETATM   13  C15 UNL     1      36.537  31.263  24.691  1.00  0.00     0.087 C 
HETATM   14  C16 UNL     1      35.790  31.569  25.935  1.00  0.00     0.044 C 
HETATM   15  C17 UNL     1      34.386  30.620  23.624  1.00  0.00     0.027 C 
HETATM   16  C18 UNL     1      33.562  31.256  22.520  1.00  0.00     0.008 C 
HETATM   17  C19 UNL     1      32.687  30.194  21.948  1.00  0.00     0.001 C 
HETATM   18  C20 UNL     1      33.359  28.904  22.270  1.00  0.00     0.005 C 
HETATM   19  C21 UNL     1      34.110  29.189  23.554  1.00  0.00    -0.003 C 
ENDROOT
BRANCH   1  20
HETATM   20  N1  UNL     1      39.165  33.460  24.395  1.00  0.00    -0.352 N 
HETATM   21  C4  UNL     1      40.399  33.920  23.916  1.00  0.00     0.223 C 
HETATM   22  O1  UNL     1      40.976  33.410  22.913  1.00  0.00    -0.273 OA
ATOM     23  H1  UNL     1      38.758  33.921  25.209  1.00  0.00     0.163 HD
BRANCH  21  24
HETATM   24  C3  UNL     1      41.070  35.039  24.587  1.00  0.00     0.181 C 
BRANCH  24  25
HETATM   25  C2  UNL     1      42.120  34.603  25.573  1.00  0.00     0.248 C 
HETATM   26  C1  UNL     1      42.208  35.465  26.786  1.00  0.00     0.090 C 
HETATM   27  F1  UNL     1      43.347  34.616  24.933  1.00  0.00    -0.206 F 
HETATM   28  F2  UNL     1      41.883  33.298  25.965  1.00  0.00    -0.206 F 
ENDBRANCH  24  25
ENDBRANCH  21  24
ENDBRANCH   1  20
TORSDOF 3
ENDMDL
MODEL 2
REMARK VINA RESULT: -6.895620809      1.479      2.234
REMARK  3 active torsions:
REMARK  status: ('A' for Active; 'I' for Inactive)
REMARK    1  A    between atoms: C2_2  and  C3_5 
REMARK    2  A    between atoms: C3_5  and  C4_6 
REMARK       I    between atoms: C4_6  and  N1_8 
REMARK    3  A    between atoms: N1_8  and  C5_10 
ROOT
HETATM    1  C5  UNL     1      38.617  32.189  24.396  1.00  0.00     0.134 C 
HETATM    2  C6  UNL     1      38.727  31.329  23.130  1.00  0.00     0.151 C 
HETATM    3  N2  UNL     1      37.787  30.287  23.281  1.00  0.00    -0.377 N 
HETATM    4  C7  UNL     1      37.962  29.072  22.623  1.00  0.00     0.059 C 
HETATM    5  C8  UNL     1      36.864  28.564  21.747  1.00  0.00     0.044 C 
HETATM    6  C9  UNL     1      35.586  28.210  22.393  1.00  0.00     0.010 C 
HETATM    7  C10 UNL     1      34.662  29.289  22.808  1.00  0.00    -0.010 C 
HETATM    8  C11 UNL     1      35.058  30.682  22.474  1.00  0.00     0.008 C 
HETATM    9  C12 UNL     1      35.508  31.508  23.638  1.00  0.00     0.041 C 
HETATM   10  C13 UNL     1      36.058  30.742  24.796  1.00  0.00     0.093 C 
HETATM   11  O2  UNL     1      36.583  31.655  25.708  1.00  0.00    -0.367 OA
HETATM   12  C14 UNL     1      37.890  31.387  25.395  1.00  0.00     0.177 C 
HETATM   13  C15 UNL     1      37.412  30.174  24.642  1.00  0.00     0.087 C 
HETATM   14  C16 UNL     1      37.777  28.948  25.392  1.00  0.00     0.044 C 
HETATM   15  C17 UNL     1      35.039  29.787  25.276  1.00  0.00     0.027 C 
HETATM   16  C18 UNL     1      34.093  30.531  26.200  1.00  0.00     0.008 C 
HETATM   17  C19 UNL     1      32.704  30.180  25.794  1.00  0.00     0.001 C 
HETATM   18  C20 UNL     1      32.799  29.744  24.373  1.00  0.00     0.005 C 
HETATM   19  C21 UNL     1      34.197  29.171  24.255  1.00  0.00    -0.003 C 
ENDROOT
BRANCH   1  20
HETATM   20  N1  UNL     1      39.961  32.462  24.929  1.00  0.00    -0.352 N 
HETATM   21  C4  UNL     1      40.834  33.400  24.361  1.00  0.00     0.223 C 
HETATM   22  O1  UNL     1      40.531  34.087  23.344  1.00  0.00    -0.273 OA
ATOM     23  H1  UNL     1      40.272  31.944  25.751  1.00  0.00     0.163 HD
BRANCH  21  24
HETATM   24  C3  UNL     1      42.160  33.613  24.952  1.00  0.00     0.181 C 
BRANCH  24  25
HETATM   25  C2  UNL     1      42.231  34.828  25.839  1.00  0.00     0.248 C 
HETATM   26  C1  UNL     1      43.204  35.858  25.377  1.00  0.00     0.090 C 
HETATM   27  F1  UNL     1      42.594  34.417  27.109  1.00  0.00    -0.206 F 
HETATM   28  F2  UNL     1      40.979  35.407  25.944  1.00  0.00    -0.206 F 
ENDBRANCH  24  25
ENDBRANCH  21  24
ENDBRANCH   1  20
TORSDOF 3
ENDMDL
MODEL 3
REMARK VINA RESULT: -6.858240710      1.713      3.512
REMARK  3 active torsions:
REMARK  status: ('A' for Active; 'I' for Inactive)
REMARK    1  A    between atoms: C2_2  and  C3_5 
REMARK    2  A    between atoms: C3_5  and  C4_6 
REMARK       I    between atoms: C4_6  and  N1_8 
REMARK    3  A    between atoms: N1_8  and  C5_10 
ROOT
HETATM    1  C5  UNL     1      38.033  32.479  24.086  1.00  0.00     0.134 C 
HETATM    2  C6  UNL     1      36.605  32.695  23.566  1.00  0.00     0.151 C 
HETATM    3  N2  UNL     1      35.979  31.430  23.606  1.00  0.00    -0.377 N 
HETATM    4  C7  UNL     1      34.916  31.138  22.755  1.00  0.00     0.059 C 
HETATM    5  C8  UNL     1      33.630  30.664  23.348  1.00  0.00     0.044 C 
HETATM    6  C9  UNL     1      33.639  29.361  24.041  1.00  0.00     0.010 C 
HETATM    7  C10 UNL     1      34.220  29.269  25.398  1.00  0.00    -0.010 C 
HETATM    8  C11 UNL     1      34.699  30.532  26.015  1.00  0.00     0.008 C 
HETATM    9  C12 UNL     1      36.186  30.675  26.094  1.00  0.00     0.041 C 
HETATM   10  C13 UNL     1      36.961  29.899  25.081  1.00  0.00     0.093 C 
HETATM   11  O2  UNL     1      38.299  30.272  25.181  1.00  0.00    -0.367 OA
HETATM   12  C14 UNL     1      38.290  31.030  24.039  1.00  0.00     0.177 C 
HETATM   13  C15 UNL     1      36.959  30.413  23.698  1.00  0.00     0.087 C 
HETATM   14  C16 UNL     1      37.126  29.466  22.568  1.00  0.00     0.044 C 
HETATM   15  C17 UNL     1      36.628  28.465  25.207  1.00  0.00     0.027 C 
HETATM   16  C18 UNL     1      37.475  27.880  26.322  1.00  0.00     0.008 C 
HETATM   17  C19 UNL     1      36.571  27.081  27.196  1.00  0.00     0.001 C 
HETATM   18  C20 UNL     1      35.205  27.632  26.972  1.00  0.00     0.005 C 
HETATM   19  C21 UNL     1      35.244  28.149  25.549  1.00  0.00    -0.003 C 
ENDROOT
BRANCH   1  20
HETATM   20  N1  UNL     1      38.993  33.136  23.185  1.00  0.00    -0.352 N 
HETATM   21  C4  UNL     1      40.334  33.362  23.527  1.00  0.00     0.223 C 
HETATM   22  O1  UNL     1      40.823  33.015  24.640  1.00  0.00    -0.273 OA
ATOM     23  H1  UNL     1      38.668  33.442  22.268  1.00  0.00     0.163 HD
BRANCH  21  24
HETATM   24  C3  UNL     1      41.228  34.026  22.571  1.00  0.00     0.181 C 
BRANCH  24  25
HETATM   25  C2  UNL     1      41.876  35.268  23.122  1.00  0.00     0.248 C 
HETATM   26  C1  UNL     1      42.181  36.300  22.092  1.00  0.00     0.090 C 
HETATM   27  F1  UNL     1      43.058  34.900  23.740  1.00  0.00    -0.206 F 
HETATM   28  F2  UNL     1      41.069  35.828  24.095  1.00  0.00    -0.206 F 
ENDBRANCH  24  25
ENDBRANCH  21  24
ENDBRANCH   1  20
TORSDOF 3
ENDMDL
MODEL 4
REMARK VINA RESULT: -6.779263995      2.665      3.498
REMARK  3 active torsions:
REMARK  status: ('A' for Active; 'I' for Inactive)
REMARK    1  A    between atoms: C2_2  and  C3_5 
REMARK    2  A    between atoms: C3_5  and  C4_6 
REMARK       I    between atoms: C4_6  and  N1_8 
REMARK    3  A    between atoms: N1_8  and  C5_10 
ROOT
HETATM    1  C5  UNL     1      38.987  30.345  24.137  1.00  0.00     0.134 C 
HETATM    2  C6  UNL     1      38.686  29.886  22.703  1.00  0.00     0.151 C 
HETATM    3  N2  UNL     1      37.435  29.235  22.755  1.00  0.00    -0.377 N 
HETATM    4  C7  UNL     1      37.100  28.266  21.812  1.00  0.00     0.059 C 
HETATM    5  C8  UNL     1      35.839  28.432  21.029  1.00  0.00     0.044 C 
HETATM    6  C9  UNL     1      34.564  28.378  21.770  1.00  0.00     0.010 C 
HETATM    7  C10 UNL     1      34.142  29.550  22.568  1.00  0.00    -0.010 C 
HETATM    8  C11 UNL     1      35.010  30.754  22.511  1.00  0.00     0.008 C 
HETATM    9  C12 UNL     1      35.810  31.018  23.747  1.00  0.00     0.041 C 
HETATM   10  C13 UNL     1      36.103  29.821  24.591  1.00  0.00     0.093 C 
HETATM   11  O2  UNL     1      36.989  30.206  25.595  1.00  0.00    -0.367 OA
HETATM   12  C14 UNL     1      38.077  29.601  25.023  1.00  0.00     0.177 C 
HETATM   13  C15 UNL     1      37.131  28.886  24.093  1.00  0.00     0.087 C 
HETATM   14  C16 UNL     1      37.056  27.453  24.467  1.00  0.00     0.044 C 
HETATM   15  C17 UNL     1      34.833  29.184  24.990  1.00  0.00     0.027 C 
HETATM   16  C18 UNL     1      34.295  29.922  26.203  1.00  0.00     0.008 C 
HETATM   17  C19 UNL     1      32.853  30.200  25.953  1.00  0.00     0.001 C 
HETATM   18  C20 UNL     1      32.688  30.169  24.473  1.00  0.00     0.005 C 
HETATM   19  C21 UNL     1      33.758  29.205  24.003  1.00  0.00    -0.003 C 
ENDROOT
BRANCH   1  20
HETATM   20  N1  UNL     1      40.366  29.978  24.496  1.00  0.00    -0.352 N 
HETATM   21  C4  UNL     1      41.265  30.870  25.096  1.00  0.00     0.223 C 
HETATM   22  O1  UNL     1      40.957  32.064  25.378  1.00  0.00    -0.273 OA
ATOM     23  H1  UNL     1      40.683  29.029  24.298  1.00  0.00     0.163 HD
BRANCH  21  24
HETATM   24  C3  UNL     1      42.625  30.426  25.423  1.00  0.00     0.181 C 
BRANCH  24  25
HETATM   25  C2  UNL     1      42.775  29.954  26.844  1.00  0.00     0.248 C 
HETATM   26  C1  UNL     1      43.262  31.004  27.783  1.00  0.00     0.090 C 
HETATM   27  F1  UNL     1      43.670  28.900  26.858  1.00  0.00    -0.206 F 
HETATM   28  F2  UNL     1      41.567  29.464  27.307  1.00  0.00    -0.206 F 
ENDBRANCH  24  25
ENDBRANCH  21  24
ENDBRANCH   1  20
TORSDOF 3
ENDMDL
MODEL 5
REMARK VINA RESULT: -6.589850341      4.770      7.462
REMARK  3 active torsions:
REMARK  status: ('A' for Active; 'I' for Inactive)
REMARK    1  A    between atoms: C2_2  and  C3_5 
REMARK    2  A    between atoms: C3_5  and  C4_6 
REMARK       I    between atoms: C4_6  and  N1_8 
REMARK    3  A    between atoms: N1_8  and  C5_10 
ROOT
HETATM    1  C5  UNL     1      36.814  27.229  27.105  1.00  0.00     0.134 C 
HETATM    2  C6  UNL     1      38.106  28.042  26.953  1.00  0.00     0.151 C 
HETATM    3  N2  UNL     1      38.044  28.642  25.677  1.00  0.00    -0.377 N 
HETATM    4  C7  UNL     1      39.209  28.996  25.001  1.00  0.00     0.059 C 
HETATM    5  C8  UNL     1      39.370  30.406  24.536  1.00  0.00     0.044 C 
HETATM    6  C9  UNL     1      38.435  30.895  23.505  1.00  0.00     0.010 C 
HETATM    7  C10 UNL     1      37.053  31.253  23.893  1.00  0.00    -0.010 C 
HETATM    8  C11 UNL     1      36.712  31.165  25.336  1.00  0.00     0.008 C 
HETATM    9  C12 UNL     1      35.827  30.018  25.709  1.00  0.00     0.041 C 
HETATM   10  C13 UNL     1      35.882  28.839  24.794  1.00  0.00     0.093 C 
HETATM   11  O2  UNL     1      35.142  27.809  25.370  1.00  0.00    -0.367 OA
HETATM   12  C14 UNL     1      36.239  27.085  25.757  1.00  0.00     0.177 C 
HETATM   13  C15 UNL     1      37.078  27.978  24.882  1.00  0.00     0.087 C 
HETATM   14  C16 UNL     1      37.523  27.224  23.684  1.00  0.00     0.044 C 
HETATM   15  C17 UNL     1      35.530  29.267  23.425  1.00  0.00     0.027 C 
HETATM   16  C18 UNL     1      34.017  29.297  23.315  1.00  0.00     0.008 C 
HETATM   17  C19 UNL     1      33.641  30.592  22.680  1.00  0.00     0.001 C 
HETATM   18  C20 UNL     1      34.784  31.512  22.939  1.00  0.00     0.005 C 
HETATM   19  C21 UNL     1      35.986  30.595  23.025  1.00  0.00    -0.003 C 
ENDROOT
BRANCH   1  20
HETATM   20  N1  UNL     1      37.131  25.882  27.606  1.00  0.00    -0.352 N 
HETATM   21  C4  UNL     1      36.161  25.001  28.103  1.00  0.00     0.223 C 
HETATM   22  O1  UNL     1      34.933  25.297  28.157  1.00  0.00    -0.273 OA
ATOM     23  H1  UNL     1      38.104  25.576  27.592  1.00  0.00     0.163 HD
BRANCH  21  24
HETATM   24  C3  UNL     1      36.560  23.674  28.586  1.00  0.00     0.181 C 
BRANCH  24  25
HETATM   25  C2  UNL     1      36.123  23.396  30.000  1.00  0.00     0.248 C 
HETATM   26  C1  UNL     1      36.911  22.328  30.678  1.00  0.00     0.090 C 
HETATM   27  F1  UNL     1      34.794  23.014  29.974  1.00  0.00    -0.206 F 
HETATM   28  F2  UNL     1      36.196  24.555  30.751  1.00  0.00    -0.206 F 
ENDBRANCH  24  25
ENDBRANCH  21  24
ENDBRANCH   1  20
TORSDOF 3
ENDMDL
