MODEL 1
REMARK VINA RESULT: -7.167385379      0.000      0.000
REMARK  4 active torsions:
REMARK  status: ('A' for Active; 'I' for Inactive)
REMARK    1  A    between atoms: C2_2  and  C4_4 
REMARK    2  A    between atoms: C4_4  and  C5_5 
REMARK       I    between atoms: C5_5  and  N1_7 
REMARK    3  A    between atoms: N1_7  and  C7_10 
REMARK    4  A    between atoms: C9_12  and  O2_13 
ROOT
HETATM    1  C5  UNL     1      33.385  30.677  21.468  1.00  0.00     0.233 C 
HETATM    2  O1  UNL     1      32.895  31.645  22.108  1.00  0.00    -0.272 OA
HETATM    3  N1  UNL     1      34.383  29.802  22.066  1.00  0.00    -0.246 N 
HETATM    4  C6  UNL     1      34.819  28.795  21.233  1.00  0.00     0.187 C 
HETATM    5  N2  UNL     1      35.154  27.928  20.493  1.00  0.00    -0.172 NA
ENDROOT
BRANCH   3   6
HETATM    6  C7  UNL     1      34.755  29.975  23.373  1.00  0.00     0.152 C 
HETATM    7  C8  UNL     1      34.836  28.766  24.281  1.00  0.00     0.061 C 
HETATM    8  C9  UNL     1      36.267  28.290  24.003  1.00  0.00     0.137 C 
HETATM    9  C15 UNL     1      34.771  29.519  25.595  1.00  0.00     0.025 C 
HETATM   10  C10 UNL     1      37.095  29.513  23.771  1.00  0.00     0.017 C 
HETATM   11  C11 UNL     1      38.148  29.695  24.890  1.00  0.00     0.021 C 
HETATM   12  C12 UNL     1      37.913  29.523  22.509  1.00  0.00     0.021 C 
HETATM   13  C13 UNL     1      36.060  30.589  23.810  1.00  0.00     0.136 C 
HETATM   14  F1  UNL     1      36.374  31.765  23.272  1.00  0.00    -0.240 F 
HETATM   15  C14 UNL     1      35.689  30.692  25.323  1.00  0.00     0.067 C 
HETATM   16  C16 UNL     1      35.081  28.720  26.801  1.00  0.00     0.028 C 
HETATM   17 BR1  UNL     1      32.933  30.196  25.750  1.00  0.00    -0.085 Br
BRANCH   8  18
HETATM   18  O2  UNL     1      36.720  27.618  25.167  1.00  0.00    -0.394 OA
ATOM     19  H2  UNL     1      37.515  28.053  25.452  1.00  0.00     0.210 HD
ENDBRANCH   8  18
ENDBRANCH   3   6
BRANCH   1  20
HETATM   20  C4  UNL     1      32.887  30.490  20.082  1.00  0.00     0.108 C 
BRANCH  20  21
HETATM   21  C2  UNL     1      31.874  31.507  19.687  1.00  0.00    -0.014 C 
HETATM   22  C1  UNL     1      31.008  31.083  18.539  1.00  0.00     0.010 C 
HETATM   23  C3  UNL     1      32.563  32.828  19.422  1.00  0.00     0.010 C 
ENDBRANCH  20  21
ENDBRANCH   1  20
TORSDOF 4
ENDMDL
MODEL 2
REMARK VINA RESULT: -7.033989785      2.303      3.406
REMARK  4 active torsions:
REMARK  status: ('A' for Active; 'I' for Inactive)
REMARK    1  A    between atoms: C2_2  and  C4_4 
REMARK    2  A    between atoms: C4_4  and  C5_5 
REMARK       I    between atoms: C5_5  and  N1_7 
REMARK    3  A    between atoms: N1_7  and  C7_10 
REMARK    4  A    between atoms: C9_12  and  O2_13 
ROOT
HETATM    1  C5  UNL     1      33.736  30.766  22.110  1.00  0.00     0.233 C 
HETATM    2  O1  UNL     1      33.273  29.612  21.908  1.00  0.00    -0.272 OA
HETATM    3  N1  UNL     1      35.035  30.961  22.736  1.00  0.00    -0.246 N 
HETATM    4  C6  UNL     1      35.393  32.283  22.888  1.00  0.00     0.187 C 
HETATM    5  N2  UNL     1      35.675  33.433  22.982  1.00  0.00    -0.172 NA
ENDROOT
BRANCH   3   6
HETATM    6  C7  UNL     1      35.815  29.880  23.053  1.00  0.00     0.152 C 
HETATM    7  C8  UNL     1      37.306  30.076  23.230  1.00  0.00     0.061 C 
HETATM    8  C9  UNL     1      37.373  30.477  24.709  1.00  0.00     0.137 C 
HETATM    9  C15 UNL     1      37.704  28.625  23.053  1.00  0.00     0.025 C 
HETATM   10  C10 UNL     1      36.301  29.710  25.415  1.00  0.00     0.017 C 
HETATM   11  C11 UNL     1      36.907  28.694  26.413  1.00  0.00     0.021 C 
HETATM   12  C12 UNL     1      35.361  30.522  26.263  1.00  0.00     0.021 C 
HETATM   13  C13 UNL     1      35.621  29.023  24.277  1.00  0.00     0.136 C 
HETATM   14  F1  UNL     1      34.394  28.552  24.485  1.00  0.00    -0.240 F 
HETATM   15  C14 UNL     1      36.635  27.912  23.855  1.00  0.00     0.067 C 
HETATM   16  C16 UNL     1      39.103  28.302  23.409  1.00  0.00     0.028 C 
HETATM   17 BR1  UNL     1      37.430  28.207  21.152  1.00  0.00    -0.085 Br
BRANCH   8  18
HETATM   18  O2  UNL     1      38.645  30.082  25.195  1.00  0.00    -0.394 OA
ATOM     19  H2  UNL     1      38.934  30.752  25.803  1.00  0.00     0.210 HD
ENDBRANCH   8  18
ENDBRANCH   3   6
BRANCH   1  20
HETATM   20  C4  UNL     1      32.881  31.900  21.675  1.00  0.00     0.108 C 
BRANCH  20  21
HETATM   21  C2  UNL     1      33.002  32.194  20.220  1.00  0.00    -0.014 C 
HETATM   22  C1  UNL     1      33.024  33.658  19.900  1.00  0.00     0.010 C 
HETATM   23  C3  UNL     1      31.912  31.463  19.466  1.00  0.00     0.010 C 
ENDBRANCH  20  21
ENDBRANCH   1  20
TORSDOF 4
ENDMDL
MODEL 3
REMARK VINA RESULT: -6.541724975      2.851      5.418
REMARK  4 active torsions:
REMARK  status: ('A' for Active; 'I' for Inactive)
REMARK    1  A    between atoms: C2_2  and  C4_4 
REMARK    2  A    between atoms: C4_4  and  C5_5 
REMARK       I    between atoms: C5_5  and  N1_7 
REMARK    3  A    between atoms: N1_7  and  C7_10 
REMARK    4  A    between atoms: C9_12  and  O2_13 
ROOT
HETATM    1  C5  UNL     1      38.009  31.928  24.063  1.00  0.00     0.233 C 
HETATM    2  O1  UNL     1      37.259  32.665  24.757  1.00  0.00    -0.272 OA
HETATM    3  N1  UNL     1      37.628  30.565  23.725  1.00  0.00    -0.246 N 
HETATM    4  C6  UNL     1      38.560  29.894  22.964  1.00  0.00     0.187 C 
HETATM    5  N2  UNL     1      39.378  29.356  22.291  1.00  0.00    -0.172 NA
ENDROOT
BRANCH   3   6
HETATM    6  C7  UNL     1      36.402  30.081  24.099  1.00  0.00     0.152 C 
HETATM    7  C8  UNL     1      35.183  30.964  23.939  1.00  0.00     0.061 C 
HETATM    8  C9  UNL     1      34.791  30.658  22.488  1.00  0.00     0.137 C 
HETATM    9  C15 UNL     1      34.286  30.214  24.902  1.00  0.00     0.025 C 
HETATM   10  C10 UNL     1      35.110  29.217  22.247  1.00  0.00     0.017 C 
HETATM   11  C11 UNL     1      33.823  28.393  22.003  1.00  0.00     0.021 C 
HETATM   12  C12 UNL     1      35.952  28.924  21.035  1.00  0.00     0.021 C 
HETATM   13  C13 UNL     1      35.772  28.836  23.530  1.00  0.00     0.136 C 
HETATM   14  F1  UNL     1      36.520  27.735  23.533  1.00  0.00    -0.240 F 
HETATM   15  C14 UNL     1      34.593  28.773  24.551  1.00  0.00     0.067 C 
HETATM   16  C16 UNL     1      32.857  30.597  24.870  1.00  0.00     0.028 C 
HETATM   17 BR1  UNL     1      34.988  30.574  26.702  1.00  0.00    -0.085 Br
BRANCH   8  18
HETATM   18  O2  UNL     1      33.392  30.865  22.377  1.00  0.00    -0.394 OA
ATOM     19  H2  UNL     1      33.012  30.054  22.059  1.00  0.00     0.210 HD
ENDBRANCH   8  18
ENDBRANCH   3   6
BRANCH   1  20
HETATM   20  C4  UNL     1      39.291  32.533  23.620  1.00  0.00     0.108 C 
BRANCH  20  21
HETATM   21  C2  UNL     1      40.098  33.076  24.749  1.00  0.00    -0.014 C 
HETATM   22  C1  UNL     1      40.737  34.399  24.451  1.00  0.00     0.010 C 
HETATM   23  C3  UNL     1      41.110  32.040  25.187  1.00  0.00     0.010 C 
ENDBRANCH  20  21
ENDBRANCH   1  20
TORSDOF 4
ENDMDL
MODEL 4
REMARK VINA RESULT: -6.481369735      1.567      1.921
REMARK  4 active torsions:
REMARK  status: ('A' for Active; 'I' for Inactive)
REMARK    1  A    between atoms: C2_2  and  C4_4 
REMARK    2  A    between atoms: C4_4  and  C5_5 
REMARK       I    between atoms: C5_5  and  N1_7 
REMARK    3  A    between atoms: N1_7  and  C7_10 
REMARK    4  A    between atoms: C9_12  and  O2_13 
ROOT
HETATM    1  C5  UNL     1      34.200  31.756  22.261  1.00  0.00     0.233 C 
HETATM    2  O1  UNL     1      34.902  32.754  22.576  1.00  0.00    -0.272 OA
HETATM    3  N1  UNL     1      34.472  30.436  22.809  1.00  0.00    -0.246 N 
HETATM    4  C6  UNL     1      33.616  29.454  22.361  1.00  0.00     0.187 C 
HETATM    5  N2  UNL     1      32.844  28.640  21.969  1.00  0.00    -0.172 NA
ENDROOT
BRANCH   3   6
HETATM    6  C7  UNL     1      35.462  30.269  23.742  1.00  0.00     0.152 C 
HETATM    7  C8  UNL     1      35.441  29.038  24.623  1.00  0.00     0.061 C 
HETATM    8  C9  UNL     1      36.193  28.035  23.739  1.00  0.00     0.137 C 
HETATM    9  C15 UNL     1      36.350  29.575  25.710  1.00  0.00     0.025 C 
HETATM   10  C10 UNL     1      37.239  28.807  23.000  1.00  0.00     0.017 C 
HETATM   11  C11 UNL     1      38.661  28.380  23.437  1.00  0.00     0.021 C 
HETATM   12  C12 UNL     1      37.258  28.624  21.507  1.00  0.00     0.021 C 
HETATM   13  C13 UNL     1      36.932  30.207  23.417  1.00  0.00     0.136 C 
HETATM   14  F1  UNL     1      37.419  31.194  22.668  1.00  0.00    -0.240 F 
HETATM   15  C14 UNL     1      37.424  30.268  24.898  1.00  0.00     0.067 C 
HETATM   16  C16 UNL     1      36.824  28.577  26.693  1.00  0.00     0.028 C 
HETATM   17 BR1  UNL     1      35.315  30.947  26.663  1.00  0.00    -0.085 Br
BRANCH   8  18
HETATM   18  O2  UNL     1      36.811  27.094  24.601  1.00  0.00    -0.394 OA
ATOM     19  H2  UNL     1      36.407  26.251  24.434  1.00  0.00     0.210 HD
ENDBRANCH   8  18
ENDBRANCH   3   6
BRANCH   1  20
HETATM   20  C4  UNL     1      33.092  32.011  21.306  1.00  0.00     0.108 C 
BRANCH  20  21
HETATM   21  C2  UNL     1      33.320  33.217  20.461  1.00  0.00    -0.014 C 
HETATM   22  C1  UNL     1      33.111  34.511  21.188  1.00  0.00     0.010 C 
HETATM   23  C3  UNL     1      32.471  33.123  19.211  1.00  0.00     0.010 C 
ENDBRANCH  20  21
ENDBRANCH   1  20
TORSDOF 4
ENDMDL
MODEL 5
REMARK VINA RESULT: -6.466884922      2.431      3.488
REMARK  4 active torsions:
REMARK  status: ('A' for Active; 'I' for Inactive)
REMARK    1  A    between atoms: C2_2  and  C4_4 
REMARK    2  A    between atoms: C4_4  and  C5_5 
REMARK       I    between atoms: C5_5  and  N1_7 
REMARK    3  A    between atoms: N1_7  and  C7_10 
REMARK    4  A    between atoms: C9_12  and  O2_13 
ROOT
HETATM    1  C5  UNL     1      33.797  29.511  21.401  1.00  0.00     0.233 C 
HETATM    2  O1  UNL     1      34.396  29.156  20.351  1.00  0.00    -0.272 OA
HETATM    3  N1  UNL     1      34.314  29.174  22.718  1.00  0.00    -0.246 N 
HETATM    4  C6  UNL     1      33.539  29.633  23.761  1.00  0.00     0.187 C 
HETATM    5  N2  UNL     1      32.857  30.065  24.632  1.00  0.00    -0.172 NA
ENDROOT
BRANCH   3   6
HETATM    6  C7  UNL     1      35.512  28.519  22.840  1.00  0.00     0.152 C 
HETATM    7  C8  UNL     1      36.714  29.039  22.082  1.00  0.00     0.061 C 
HETATM    8  C9  UNL     1      37.254  30.079  23.071  1.00  0.00     0.137 C 
HETATM    9  C15 UNL     1      37.535  27.767  22.145  1.00  0.00     0.025 C 
HETATM   10  C10 UNL     1      37.003  29.543  24.445  1.00  0.00     0.017 C 
HETATM   11  C11 UNL     1      38.331  29.227  25.173  1.00  0.00     0.021 C 
HETATM   12  C12 UNL     1      36.291  30.470  25.392  1.00  0.00     0.021 C 
HETATM   13  C13 UNL     1      36.230  28.300  24.146  1.00  0.00     0.136 C 
HETATM   14  F1  UNL     1      35.517  27.765  25.135  1.00  0.00    -0.240 F 
HETATM   15  C14 UNL     1      37.306  27.323  23.574  1.00  0.00     0.067 C 
HETATM   16  C16 UNL     1      38.948  27.901  21.728  1.00  0.00     0.028 C 
HETATM   17 BR1  UNL     1      36.650  26.482  20.950  1.00  0.00    -0.085 Br
BRANCH   8  18
HETATM   18  O2  UNL     1      38.650  30.188  22.848  1.00  0.00    -0.394 OA
ATOM     19  H2  UNL     1      38.950  29.347  22.523  1.00  0.00     0.210 HD
ENDBRANCH   8  18
ENDBRANCH   3   6
BRANCH   1  20
HETATM   20  C4  UNL     1      32.544  30.286  21.209  1.00  0.00     0.108 C 
BRANCH  20  21
HETATM   21  C2  UNL     1      32.592  31.181  20.019  1.00  0.00    -0.014 C 
HETATM   22  C1  UNL     1      32.834  32.622  20.357  1.00  0.00     0.010 C 
HETATM   23  C3  UNL     1      31.336  30.993  19.197  1.00  0.00     0.010 C 
ENDBRANCH  20  21
ENDBRANCH   1  20
TORSDOF 4
ENDMDL
