MODEL 1
REMARK VINA RESULT: -7.216150714      0.000      0.000
REMARK  2 active torsions:
REMARK  status: ('A' for Active; 'I' for Inactive)
REMARK    1  A    between atoms: C11_14  and  C12_15 
REMARK    2  A    between atoms: C13_16  and  C14_17 
ROOT
HETATM    1  C1  UNL     1      35.723  31.121  26.906  1.00  0.00     0.039 C 
HETATM    2  C2  UNL     1      35.493  29.743  26.368  1.00  0.00     0.037 C 
HETATM    3  C3  UNL     1      36.615  28.827  26.747  1.00  0.00     0.032 C 
HETATM    4  C4  UNL     1      37.614  28.569  25.683  1.00  0.00     0.012 C 
HETATM    5  C5  UNL     1      37.601  29.353  24.461  1.00  0.00     0.048 C 
HETATM    6  C6  UNL     1      38.687  30.444  24.485  1.00  0.00     0.072 C 
HETATM    7 BR1  UNL     1      40.379  29.746  23.878  1.00  0.00    -0.090 Br
HETATM    8  C7  UNL     1      38.135  31.492  23.536  1.00  0.00     0.098 C 
HETATM    9  C8  UNL     1      36.687  31.464  23.924  1.00  0.00     0.168 C 
HETATM   10  O1  UNL     1      36.061  32.497  24.076  1.00  0.00    -0.294 OA
HETATM   11  C9  UNL     1      36.351  30.044  24.033  1.00  0.00     0.175 C 
HETATM   12  F1  UNL     1      35.992  29.658  22.727  1.00  0.00    -0.234 F 
HETATM   13  C10 UNL     1      35.237  29.659  24.909  1.00  0.00     0.078 C 
HETATM   14  C11 UNL     1      33.916  30.318  24.739  1.00  0.00     0.110 C 
HETATM   15  C15 UNL     1      33.271  29.998  26.056  1.00  0.00     0.226 C 
HETATM   16  O2  UNL     1      32.092  30.311  26.344  1.00  0.00    -0.273 OA
HETATM   17  N1  UNL     1      34.206  29.307  26.876  1.00  0.00    -0.351 N 
ATOM     18  H1  UNL     1      34.016  28.659  27.640  1.00  0.00     0.163 HD
ENDROOT
BRANCH  14  19
HETATM   19  C12 UNL     1      33.160  29.808  23.590  1.00  0.00    -0.015 C 
HETATM   20  C13 UNL     1      32.796  30.481  22.513  1.00  0.00    -0.019 C 
BRANCH  20  21
HETATM   21  C14 UNL     1      32.017  29.823  21.403  1.00  0.00     0.112 C 
HETATM   22  S1  UNL     1      32.260  30.757  19.900  1.00  0.00    -0.094 SA
ENDBRANCH  20  21
ENDBRANCH  14  19
TORSDOF 2
ENDMDL
MODEL 2
REMARK VINA RESULT: -6.742168415      3.255      4.430
REMARK  2 active torsions:
REMARK  status: ('A' for Active; 'I' for Inactive)
REMARK    1  A    between atoms: C11_14  and  C12_15 
REMARK    2  A    between atoms: C13_16  and  C14_17 
ROOT
HETATM    1  C1  UNL     1      33.932  27.639  21.518  1.00  0.00     0.039 C 
HETATM    2  C2  UNL     1      34.684  28.775  20.896  1.00  0.00     0.037 C 
HETATM    3  C3  UNL     1      36.103  28.388  20.616  1.00  0.00     0.032 C 
HETATM    4  C4  UNL     1      37.102  28.878  21.594  1.00  0.00     0.012 C 
HETATM    5  C5  UNL     1      36.671  29.479  22.844  1.00  0.00     0.048 C 
HETATM    6  C6  UNL     1      36.791  28.485  24.013  1.00  0.00     0.072 C 
HETATM    7 BR1  UNL     1      38.570  28.507  24.757  1.00  0.00    -0.090 Br
HETATM    8  C7  UNL     1      35.759  28.999  25.001  1.00  0.00     0.098 C 
HETATM    9  C8  UNL     1      34.650  29.361  24.061  1.00  0.00     0.168 C 
HETATM   10  O1  UNL     1      33.496  29.063  24.312  1.00  0.00    -0.294 OA
HETATM   11  C9  UNL     1      35.302  30.062  22.955  1.00  0.00     0.175 C 
HETATM   12  F1  UNL     1      35.368  31.406  23.370  1.00  0.00    -0.234 F 
HETATM   13  C10 UNL     1      34.644  30.057  21.643  1.00  0.00     0.078 C 
HETATM   14  C11 UNL     1      33.225  30.487  21.538  1.00  0.00     0.110 C 
HETATM   15  C15 UNL     1      32.850  29.900  20.209  1.00  0.00     0.226 C 
HETATM   16  O2  UNL     1      31.732  30.067  19.669  1.00  0.00    -0.273 OA
HETATM   17  N1  UNL     1      33.951  29.155  19.703  1.00  0.00    -0.351 N 
ATOM     18  H1  UNL     1      34.173  28.939  18.731  1.00  0.00     0.163 HD
ENDROOT
BRANCH  14  19
HETATM   19  C12 UNL     1      33.057  31.944  21.592  1.00  0.00    -0.015 C 
HETATM   20  C13 UNL     1      33.253  32.806  20.610  1.00  0.00    -0.019 C 
BRANCH  20  21
HETATM   21  C14 UNL     1      33.040  34.284  20.812  1.00  0.00     0.112 C 
HETATM   22  S1  UNL     1      34.472  34.961  21.638  1.00  0.00    -0.094 SA
ENDBRANCH  20  21
ENDBRANCH  14  19
TORSDOF 2
ENDMDL
MODEL 3
REMARK VINA RESULT: -6.583344343      3.007      4.353
REMARK  2 active torsions:
REMARK  status: ('A' for Active; 'I' for Inactive)
REMARK    1  A    between atoms: C11_14  and  C12_15 
REMARK    2  A    between atoms: C13_16  and  C14_17 
ROOT
HETATM    1  C1  UNL     1      34.121  30.578  26.176  1.00  0.00     0.039 C 
HETATM    2  C2  UNL     1      35.598  30.641  25.942  1.00  0.00     0.037 C 
HETATM    3  C3  UNL     1      36.076  32.059  25.913  1.00  0.00     0.032 C 
HETATM    4  C4  UNL     1      36.311  32.625  24.563  1.00  0.00     0.012 C 
HETATM    5  C5  UNL     1      35.869  31.908  23.381  1.00  0.00     0.048 C 
HETATM    6  C6  UNL     1      34.560  32.497  22.824  1.00  0.00     0.072 C 
HETATM    7 BR1  UNL     1      34.919  33.980  21.644  1.00  0.00    -0.090 Br
HETATM    8  C7  UNL     1      33.947  31.322  22.086  1.00  0.00     0.098 C 
HETATM    9  C8  UNL     1      34.256  30.215  23.047  1.00  0.00     0.168 C 
HETATM   10  O1  UNL     1      33.415  29.382  23.332  1.00  0.00    -0.294 OA
HETATM   11  C9  UNL     1      35.647  30.434  23.445  1.00  0.00     0.175 C 
HETATM   12  F1  UNL     1      36.411  29.774  22.462  1.00  0.00    -0.234 F 
HETATM   13  C10 UNL     1      36.089  29.914  24.744  1.00  0.00     0.078 C 
HETATM   14  C11 UNL     1      35.854  28.484  25.074  1.00  0.00     0.110 C 
HETATM   15  C15 UNL     1      36.009  28.510  26.567  1.00  0.00     0.226 C 
HETATM   16  O2  UNL     1      35.953  27.485  27.286  1.00  0.00    -0.273 OA
HETATM   17  N1  UNL     1      36.220  29.852  26.989  1.00  0.00    -0.351 N 
ATOM     18  H1  UNL     1      36.695  30.181  27.828  1.00  0.00     0.163 HD
ENDROOT
BRANCH  14  19
HETATM   19  C12 UNL     1      36.800  27.576  24.413  1.00  0.00    -0.015 C 
HETATM   20  C13 UNL     1      38.119  27.652  24.426  1.00  0.00    -0.019 C 
BRANCH  20  21
HETATM   21  C14 UNL     1      38.968  26.642  23.697  1.00  0.00     0.112 C 
HETATM   22  S1  UNL     1      38.355  26.478  22.027  1.00  0.00    -0.094 SA
ENDBRANCH  20  21
ENDBRANCH  14  19
TORSDOF 2
ENDMDL
MODEL 4
REMARK VINA RESULT: -6.534578687      1.225      1.294
REMARK  2 active torsions:
REMARK  status: ('A' for Active; 'I' for Inactive)
REMARK    1  A    between atoms: C11_14  and  C12_15 
REMARK    2  A    between atoms: C13_16  and  C14_17 
ROOT
HETATM    1  C1  UNL     1      36.113  29.854  26.404  1.00  0.00     0.039 C 
HETATM    2  C2  UNL     1      35.604  28.807  25.462  1.00  0.00     0.037 C 
HETATM    3  C3  UNL     1      36.413  27.553  25.568  1.00  0.00     0.032 C 
HETATM    4  C4  UNL     1      37.423  27.354  24.501  1.00  0.00     0.012 C 
HETATM    5  C5  UNL     1      37.739  28.431  23.581  1.00  0.00     0.048 C 
HETATM    6  C6  UNL     1      39.054  29.131  23.968  1.00  0.00     0.072 C 
HETATM    7 BR1  UNL     1      40.573  28.208  23.218  1.00  0.00    -0.090 Br
HETATM    8  C7  UNL     1      38.887  30.518  23.374  1.00  0.00     0.098 C 
HETATM    9  C8  UNL     1      37.446  30.772  23.698  1.00  0.00     0.168 C 
HETATM   10  O1  UNL     1      37.086  31.846  24.145  1.00  0.00    -0.294 OA
HETATM   11  C9  UNL     1      36.754  29.529  23.356  1.00  0.00     0.175 C 
HETATM   12  F1  UNL     1      36.452  29.651  21.985  1.00  0.00    -0.234 F 
HETATM   13  C10 UNL     1      35.493  29.223  24.041  1.00  0.00     0.078 C 
HETATM   14  C11 UNL     1      34.405  30.236  24.050  1.00  0.00     0.110 C 
HETATM   15  C15 UNL     1      33.563  29.735  25.187  1.00  0.00     0.226 C 
HETATM   16  O2  UNL     1      32.476  30.259  25.527  1.00  0.00    -0.273 OA
HETATM   17  N1  UNL     1      34.202  28.609  25.777  1.00  0.00    -0.351 N 
ATOM     18  H1  UNL     1      33.775  27.844  26.299  1.00  0.00     0.163 HD
ENDROOT
BRANCH  14  19
HETATM   19  C12 UNL     1      33.672  30.307  22.780  1.00  0.00    -0.015 C 
HETATM   20  C13 UNL     1      33.582  31.346  21.969  1.00  0.00    -0.019 C 
BRANCH  20  21
HETATM   21  C14 UNL     1      32.790  31.274  20.689  1.00  0.00     0.112 C 
HETATM   22  S1  UNL     1      31.677  29.880  20.783  1.00  0.00    -0.094 SA
ENDBRANCH  20  21
ENDBRANCH  14  19
TORSDOF 2
ENDMDL
MODEL 5
REMARK VINA RESULT: -6.527178562      3.225      4.564
REMARK  2 active torsions:
REMARK  status: ('A' for Active; 'I' for Inactive)
REMARK    1  A    between atoms: C11_14  and  C12_15 
REMARK    2  A    between atoms: C13_16  and  C14_17 
ROOT
HETATM    1  C1  UNL     1      35.663  27.638  22.576  1.00  0.00     0.039 C 
HETATM    2  C2  UNL     1      36.012  28.957  21.959  1.00  0.00     0.037 C 
HETATM    3  C3  UNL     1      37.144  29.608  22.690  1.00  0.00     0.032 C 
HETATM    4  C4  UNL     1      36.759  30.682  23.635  1.00  0.00     0.012 C 
HETATM    5  C5  UNL     1      35.363  30.892  23.976  1.00  0.00     0.048 C 
HETATM    6  C6  UNL     1      35.026  30.285  25.350  1.00  0.00     0.072 C 
HETATM    7 BR1  UNL     1      35.435  31.524  26.770  1.00  0.00    -0.090 Br
HETATM    8  C7  UNL     1      33.535  30.017  25.246  1.00  0.00     0.098 C 
HETATM    9  C8  UNL     1      33.457  29.503  23.840  1.00  0.00     0.168 C 
HETATM   10  O1  UNL     1      32.791  28.520  23.571  1.00  0.00    -0.294 OA
HETATM   11  C9  UNL     1      34.292  30.413  23.055  1.00  0.00     0.175 C 
HETATM   12  F1  UNL     1      33.434  31.472  22.699  1.00  0.00    -0.234 F 
HETATM   13  C10 UNL     1      34.886  29.912  21.809  1.00  0.00     0.078 C 
HETATM   14  C11 UNL     1      34.010  29.277  20.790  1.00  0.00     0.110 C 
HETATM   15  C15 UNL     1      35.026  28.534  19.971  1.00  0.00     0.226 C 
HETATM   16  O2  UNL     1      34.741  27.886  18.937  1.00  0.00    -0.273 OA
HETATM   17  N1  UNL     1      36.309  28.697  20.563  1.00  0.00    -0.351 N 
ATOM     18  H1  UNL     1      37.222  28.644  20.112  1.00  0.00     0.163 HD
ENDROOT
BRANCH  14  19
HETATM   19  C12 UNL     1      33.237  30.247  20.006  1.00  0.00    -0.015 C 
HETATM   20  C13 UNL     1      32.109  30.028  19.354  1.00  0.00    -0.019 C 
BRANCH  20  21
HETATM   21  C14 UNL     1      31.422  31.128  18.587  1.00  0.00     0.112 C 
HETATM   22  S1  UNL     1      32.013  32.701  19.190  1.00  0.00    -0.094 SA
ENDBRANCH  20  21
ENDBRANCH  14  19
TORSDOF 2
ENDMDL
