MODEL 1
REMARK VINA RESULT: -8.210804899      0.000      0.000
REMARK  6 active torsions:
REMARK  status: ('A' for Active; 'I' for Inactive)
REMARK    1  A    between atoms: C7_8  and  N2_9 
REMARK    2  A    between atoms: N2_9  and  C8_10 
REMARK    3  A    between atoms: N2_9  and  S1_21 
REMARK    4  A    between atoms: C8_10  and  C9_11 
REMARK    5  A    between atoms: C12_14  and  C13_15 
REMARK    6  A    between atoms: S1_21  and  C19_24 
ROOT
HETATM    1  C1  UNL     1      11.496  14.846  70.370  1.00  0.00     0.010 C 
HETATM    2  C2  UNL     1      10.808  13.493  70.567  1.00  0.00    -0.009 C 
HETATM    3  C3  UNL     1       9.618  13.587  71.437  1.00  0.00     0.007 C 
HETATM    4  C4  UNL     1       8.986  12.239  71.575  1.00  0.00     0.025 C 
HETATM    5  C5  UNL     1       9.900  11.092  71.405  1.00  0.00     0.140 C 
HETATM    6  C6  UNL     1       9.798  10.663  70.000  1.00  0.00     0.070 C 
HETATM    7  N1  UNL     1       9.721  10.313  68.882  1.00  0.00    -0.197 NA
HETATM    8  C7  UNL     1      11.353  11.302  71.705  1.00  0.00     0.027 C 
HETATM    9  C20 UNL     1      11.874  12.521  70.994  1.00  0.00     0.034 C 
HETATM   10  C21 UNL     1      12.588  12.165  69.679  1.00  0.00     0.016 C 
ENDROOT
BRANCH   8  11
HETATM   11  N2  UNL     1      11.749  11.110  73.040  1.00  0.00    -0.250 N 
BRANCH  11  12
HETATM   12  C8  UNL     1      10.969  11.575  74.111  1.00  0.00     0.120 C 
BRANCH  12  13
HETATM   13  C9  UNL     1      10.370  10.526  74.990  1.00  0.00    -0.019 A 
HETATM   14  C10 UNL     1      10.583  10.548  76.361  1.00  0.00     0.013 A 
HETATM   15  C11 UNL     1      10.040   9.580  77.182  1.00  0.00     0.009 A 
HETATM   16  C12 UNL     1       9.264   8.551  76.693  1.00  0.00    -0.051 A 
HETATM   17  C17 UNL     1       9.050   8.527  75.335  1.00  0.00     0.009 A 
HETATM   18  C18 UNL     1       9.590   9.488  74.517  1.00  0.00     0.013 A 
BRANCH  16  19
HETATM   19  C13 UNL     1       8.670   7.504  77.534  1.00  0.00    -0.024 C 
HETATM   20  C14 UNL     1       8.381   8.018  78.952  1.00  0.00     0.019 C 
HETATM   21  C15 UNL     1       7.337   7.083  76.960  1.00  0.00     0.019 C 
HETATM   22  C16 UNL     1       9.524   6.257  77.607  1.00  0.00     0.019 C 
ENDBRANCH  16  19
ENDBRANCH  12  13
ENDBRANCH  11  12
BRANCH  11  23
HETATM   23  S1  UNL     1      13.429  11.217  73.326  1.00  0.00     0.303 S 
HETATM   24  O1  UNL     1      14.256  10.558  72.259  1.00  0.00    -0.197 OA
HETATM   25  O2  UNL     1      13.913  12.643  73.358  1.00  0.00    -0.197 OA
BRANCH  23  26
HETATM   26  C19 UNL     1      13.805  10.532  74.884  1.00  0.00     0.256 A 
HETATM   27  N3  UNL     1      13.887   9.236  75.236  1.00  0.00    -0.258 N 
HETATM   28  N4  UNL     1      14.222   9.189  76.505  1.00  0.00    -0.226 N 
ATOM     29  H3  UNL     1      13.720   8.436  74.627  1.00  0.00     0.191 HD
HETATM   30  N5  UNL     1      14.365  10.402  77.006  1.00  0.00    -0.226 N 
ATOM     31  H4  UNL     1      14.354   8.327  77.035  1.00  0.00     0.210 HD
HETATM   32  N6  UNL     1      14.109  11.234  76.014  1.00  0.00    -0.258 N 
ATOM     33  H5  UNL     1      14.621  10.645  77.964  1.00  0.00     0.210 HD
ATOM     34  H6  UNL     1      14.135  12.252  76.083  1.00  0.00     0.191 HD
ENDBRANCH  23  26
ENDBRANCH  11  23
ENDBRANCH   8  11
TORSDOF 6
ENDMDL
MODEL 2
REMARK VINA RESULT: -8.074018400      1.059      2.083
REMARK  6 active torsions:
REMARK  status: ('A' for Active; 'I' for Inactive)
REMARK    1  A    between atoms: C7_8  and  N2_9 
REMARK    2  A    between atoms: N2_9  and  C8_10 
REMARK    3  A    between atoms: N2_9  and  S1_21 
REMARK    4  A    between atoms: C8_10  and  C9_11 
REMARK    5  A    between atoms: C12_14  and  C13_15 
REMARK    6  A    between atoms: S1_21  and  C19_24 
ROOT
HETATM    1  C1  UNL     1       6.893  13.358  72.145  1.00  0.00     0.010 C 
HETATM    2  C2  UNL     1       7.877  12.307  71.625  1.00  0.00    -0.009 C 
HETATM    3  C3  UNL     1       7.480  10.933  71.993  1.00  0.00     0.007 C 
HETATM    4  C4  UNL     1       8.470   9.957  71.444  1.00  0.00     0.025 C 
HETATM    5  C5  UNL     1       9.834  10.486  71.239  1.00  0.00     0.140 C 
HETATM    6  C6  UNL     1       9.926  10.913  69.833  1.00  0.00     0.070 C 
HETATM    7  N1  UNL     1      10.009  11.253  68.712  1.00  0.00    -0.197 NA
HETATM    8  C7  UNL     1      10.272  11.641  72.087  1.00  0.00     0.027 C 
HETATM    9  C20 UNL     1       9.250  12.745  72.055  1.00  0.00     0.034 C 
HETATM   10  C21 UNL     1       9.615  13.844  71.041  1.00  0.00     0.016 C 
ENDROOT
BRANCH   8  11
HETATM   11  N2  UNL     1      10.842  11.322  73.332  1.00  0.00    -0.250 N 
BRANCH  11  12
HETATM   12  C8  UNL     1      10.184  11.617  74.538  1.00  0.00     0.120 C 
BRANCH  12  13
HETATM   13  C9  UNL     1       9.763  10.442  75.359  1.00  0.00    -0.019 A 
HETATM   14  C10 UNL     1       8.925   9.473  74.827  1.00  0.00     0.013 A 
HETATM   15  C11 UNL     1       8.525   8.386  75.579  1.00  0.00     0.009 A 
HETATM   16  C12 UNL     1       8.932   8.204  76.883  1.00  0.00    -0.051 A 
HETATM   17  C17 UNL     1       9.764   9.163  77.413  1.00  0.00     0.009 A 
HETATM   18  C18 UNL     1      10.162  10.244  76.668  1.00  0.00     0.013 A 
BRANCH  16  19
HETATM   19  C13 UNL     1       8.527   7.063  77.714  1.00  0.00    -0.024 C 
HETATM   20  C14 UNL     1       9.533   5.907  77.611  1.00  0.00     0.019 C 
HETATM   21  C15 UNL     1       8.506   7.473  79.169  1.00  0.00     0.019 C 
HETATM   22  C16 UNL     1       7.137   6.562  77.384  1.00  0.00     0.019 C 
ENDBRANCH  16  19
ENDBRANCH  12  13
ENDBRANCH  11  12
BRANCH  11  23
HETATM   23  S1  UNL     1      12.539  11.493  73.423  1.00  0.00     0.303 S 
HETATM   24  O1  UNL     1      13.256  10.943  72.224  1.00  0.00    -0.197 OA
HETATM   25  O2  UNL     1      12.964  12.935  73.495  1.00  0.00    -0.197 OA
BRANCH  23  26
HETATM   26  C19 UNL     1      13.128  10.730  74.876  1.00  0.00     0.256 A 
HETATM   27  N3  UNL     1      13.295   9.420  75.131  1.00  0.00    -0.258 N 
HETATM   28  N4  UNL     1      13.787   9.309  76.343  1.00  0.00    -0.226 N 
ATOM     29  H3  UNL     1      13.078   8.652  74.496  1.00  0.00     0.191 HD
HETATM   30  N5  UNL     1      13.953  10.494  76.900  1.00  0.00    -0.226 N 
ATOM     31  H4  UNL     1      14.012   8.423  76.795  1.00  0.00     0.210 HD
HETATM   32  N6  UNL     1      13.549  11.375  76.004  1.00  0.00    -0.258 N 
ATOM     33  H5  UNL     1      14.319  10.689  77.833  1.00  0.00     0.210 HD
ATOM     34  H6  UNL     1      13.551  12.386  76.134  1.00  0.00     0.191 HD
ENDBRANCH  23  26
ENDBRANCH  11  23
ENDBRANCH   8  11
TORSDOF 6
ENDMDL
MODEL 3
REMARK VINA RESULT: -8.063378148      1.292      1.978
REMARK  6 active torsions:
REMARK  status: ('A' for Active; 'I' for Inactive)
REMARK    1  A    between atoms: C7_8  and  N2_9 
REMARK    2  A    between atoms: N2_9  and  C8_10 
REMARK    3  A    between atoms: N2_9  and  S1_21 
REMARK    4  A    between atoms: C8_10  and  C9_11 
REMARK    5  A    between atoms: C12_14  and  C13_15 
REMARK    6  A    between atoms: S1_21  and  C19_24 
ROOT
HETATM    1  C1  UNL     1       9.709  14.460  70.651  1.00  0.00     0.010 C 
HETATM    2  C2  UNL     1      10.652  13.255  70.687  1.00  0.00    -0.009 C 
HETATM    3  C3  UNL     1       9.925  11.972  70.781  1.00  0.00     0.007 C 
HETATM    4  C4  UNL     1      10.899  10.839  70.796  1.00  0.00     0.025 C 
HETATM    5  C5  UNL     1      12.240  11.165  71.322  1.00  0.00     0.140 C 
HETATM    6  C6  UNL     1      13.092  11.487  70.166  1.00  0.00     0.070 C 
HETATM    7  N1  UNL     1      13.780  11.743  69.249  1.00  0.00    -0.197 NA
HETATM    8  C7  UNL     1      12.356  12.300  72.294  1.00  0.00     0.027 C 
HETATM    9  C20 UNL     1      11.667  13.529  71.763  1.00  0.00     0.034 C 
HETATM   10  C21 UNL     1      12.652  14.502  71.094  1.00  0.00     0.016 C 
ENDROOT
BRANCH   8  11
HETATM   11  N2  UNL     1      12.164  11.985  73.650  1.00  0.00    -0.250 N 
BRANCH  11  12
HETATM   12  C8  UNL     1      10.923  12.175  74.280  1.00  0.00     0.120 C 
BRANCH  12  13
HETATM   13  C9  UNL     1      10.407  11.021  75.076  1.00  0.00    -0.019 A 
HETATM   14  C10 UNL     1       9.836   9.927  74.444  1.00  0.00     0.013 A 
HETATM   15  C11 UNL     1       9.351   8.857  75.170  1.00  0.00     0.009 A 
HETATM   16  C12 UNL     1       9.408   8.816  76.547  1.00  0.00    -0.051 A 
HETATM   17  C17 UNL     1       9.976   9.900  77.176  1.00  0.00     0.009 A 
HETATM   18  C18 UNL     1      10.457  10.964  76.456  1.00  0.00     0.013 A 
BRANCH  16  19
HETATM   19  C13 UNL     1       8.903   7.698  77.353  1.00  0.00    -0.024 C 
HETATM   20  C14 UNL     1       8.532   8.149  78.773  1.00  0.00     0.019 C 
HETATM   21  C15 UNL     1       7.630   7.161  76.738  1.00  0.00     0.019 C 
HETATM   22  C16 UNL     1       9.873   6.539  77.421  1.00  0.00     0.019 C 
ENDBRANCH  16  19
ENDBRANCH  12  13
ENDBRANCH  11  12
BRANCH  11  23
HETATM   23  S1  UNL     1      13.498  12.298  74.668  1.00  0.00     0.303 S 
HETATM   24  O1  UNL     1      14.620  13.014  73.973  1.00  0.00    -0.197 OA
HETATM   25  O2  UNL     1      13.135  13.189  75.826  1.00  0.00    -0.197 OA
BRANCH  23  26
HETATM   26  C19 UNL     1      14.076  10.803  75.355  1.00  0.00     0.256 A 
HETATM   27  N3  UNL     1      13.970  10.362  76.621  1.00  0.00    -0.258 N 
HETATM   28  N4  UNL     1      14.527   9.174  76.677  1.00  0.00    -0.226 N 
ATOM     29  H3  UNL     1      13.535  10.860  77.397  1.00  0.00     0.191 HD
HETATM   30  N5  UNL     1      14.997   8.811  75.498  1.00  0.00    -0.226 N 
ATOM     31  H4  UNL     1      14.588   8.605  77.522  1.00  0.00     0.210 HD
HETATM   32  N6  UNL     1      14.724   9.810  74.679  1.00  0.00    -0.258 N 
ATOM     33  H5  UNL     1      15.473   7.939  75.268  1.00  0.00     0.210 HD
ATOM     34  H6  UNL     1      14.962   9.835  73.687  1.00  0.00     0.191 HD
ENDBRANCH  23  26
ENDBRANCH  11  23
ENDBRANCH   8  11
TORSDOF 6
ENDMDL
MODEL 4
REMARK VINA RESULT: -7.923101033      2.489      4.962
REMARK  6 active torsions:
REMARK  status: ('A' for Active; 'I' for Inactive)
REMARK    1  A    between atoms: C7_8  and  N2_9 
REMARK    2  A    between atoms: N2_9  and  C8_10 
REMARK    3  A    between atoms: N2_9  and  S1_21 
REMARK    4  A    between atoms: C8_10  and  C9_11 
REMARK    5  A    between atoms: C12_14  and  C13_15 
REMARK    6  A    between atoms: S1_21  and  C19_24 
ROOT
HETATM    1  C1  UNL     1      15.146   9.187  75.486  1.00  0.00     0.010 C 
HETATM    2  C2  UNL     1      14.171  10.353  75.672  1.00  0.00    -0.009 C 
HETATM    3  C3  UNL     1      13.310  10.183  76.860  1.00  0.00     0.007 C 
HETATM    4  C4  UNL     1      12.396  11.359  76.993  1.00  0.00     0.025 C 
HETATM    5  C5  UNL     1      12.079  12.059  75.731  1.00  0.00     0.140 C 
HETATM    6  C6  UNL     1      13.020  13.185  75.614  1.00  0.00     0.070 C 
HETATM    7  N1  UNL     1      13.765  14.087  75.513  1.00  0.00    -0.197 NA
HETATM    8  C7  UNL     1      12.155  11.276  74.456  1.00  0.00     0.027 C 
HETATM    9  C20 UNL     1      13.467  10.545  74.357  1.00  0.00     0.034 C 
HETATM   10  C21 UNL     1      14.493  11.309  73.503  1.00  0.00     0.016 C 
ENDROOT
BRANCH   8  11
HETATM   11  N2  UNL     1      10.994  10.579  74.080  1.00  0.00    -0.250 N 
BRANCH  11  12
HETATM   12  C8  UNL     1      10.936   9.175  74.118  1.00  0.00     0.120 C 
BRANCH  12  13
HETATM   13  C9  UNL     1      10.005   8.585  75.126  1.00  0.00    -0.019 A 
HETATM   14  C10 UNL     1       8.660   8.416  74.831  1.00  0.00     0.013 A 
HETATM   15  C11 UNL     1       7.789   7.877  75.756  1.00  0.00     0.009 A 
HETATM   16  C12 UNL     1       8.201   7.480  77.011  1.00  0.00    -0.051 A 
HETATM   17  C17 UNL     1       9.534   7.646  77.306  1.00  0.00     0.009 A 
HETATM   18  C18 UNL     1      10.401   8.182  76.388  1.00  0.00     0.013 A 
BRANCH  16  19
HETATM   19  C13 UNL     1       7.305   6.904  78.021  1.00  0.00    -0.024 C 
HETATM   20  C14 UNL     1       7.679   5.450  78.343  1.00  0.00     0.019 C 
HETATM   21  C15 UNL     1       7.442   7.669  79.319  1.00  0.00     0.019 C 
HETATM   22  C16 UNL     1       5.847   6.981  77.623  1.00  0.00     0.019 C 
ENDBRANCH  16  19
ENDBRANCH  12  13
ENDBRANCH  11  12
BRANCH  11  23
HETATM   23  S1  UNL     1      10.122  11.260  72.781  1.00  0.00     0.303 S 
HETATM   24  O1  UNL     1       9.325  10.248  72.006  1.00  0.00    -0.197 OA
HETATM   25  O2  UNL     1       9.108  12.272  73.243  1.00  0.00    -0.197 OA
BRANCH  23  26
HETATM   26  C19 UNL     1      11.215  12.104  71.716  1.00  0.00     0.256 A 
HETATM   27  N3  UNL     1      11.449  13.425  71.626  1.00  0.00    -0.258 N 
HETATM   28  N4  UNL     1      12.369  13.604  70.705  1.00  0.00    -0.226 N 
ATOM     29  H3  UNL     1      10.995  14.155  72.174  1.00  0.00     0.191 HD
HETATM   30  N5  UNL     1      12.752  12.454  70.184  1.00  0.00    -0.226 N 
ATOM     31  H4  UNL     1      12.739  14.514  70.430  1.00  0.00     0.210 HD
HETATM   32  N6  UNL     1      12.045  11.525  70.800  1.00  0.00    -0.258 N 
ATOM     33  H5  UNL     1      13.451  12.312  69.454  1.00  0.00     0.210 HD
ATOM     34  H6  UNL     1      12.111  10.523  70.619  1.00  0.00     0.191 HD
ENDBRANCH  23  26
ENDBRANCH  11  23
ENDBRANCH   8  11
TORSDOF 6
ENDMDL
MODEL 5
REMARK VINA RESULT: -7.922945117      2.860      5.221
REMARK  6 active torsions:
REMARK  status: ('A' for Active; 'I' for Inactive)
REMARK    1  A    between atoms: C7_8  and  N2_9 
REMARK    2  A    between atoms: N2_9  and  C8_10 
REMARK    3  A    between atoms: N2_9  and  S1_21 
REMARK    4  A    between atoms: C8_10  and  C9_11 
REMARK    5  A    between atoms: C12_14  and  C13_15 
REMARK    6  A    between atoms: S1_21  and  C19_24 
ROOT
HETATM    1  C1  UNL     1      15.123   9.216  75.537  1.00  0.00     0.010 C 
HETATM    2  C2  UNL     1      14.167  10.400  75.707  1.00  0.00    -0.009 C 
HETATM    3  C3  UNL     1      13.272  10.239  76.871  1.00  0.00     0.007 C 
HETATM    4  C4  UNL     1      12.378  11.431  76.989  1.00  0.00     0.025 C 
HETATM    5  C5  UNL     1      12.108  12.148  75.726  1.00  0.00     0.140 C 
HETATM    6  C6  UNL     1      13.075  13.255  75.643  1.00  0.00     0.070 C 
HETATM    7  N1  UNL     1      13.840  14.143  75.569  1.00  0.00    -0.197 NA
HETATM    8  C7  UNL     1      12.203  11.373  74.447  1.00  0.00     0.027 C 
HETATM    9  C20 UNL     1      13.502  10.616  74.376  1.00  0.00     0.034 C 
HETATM   10  C21 UNL     1      14.565  11.367  73.555  1.00  0.00     0.016 C 
ENDROOT
BRANCH   8  11
HETATM   11  N2  UNL     1      11.038  10.703  74.035  1.00  0.00    -0.250 N 
BRANCH  11  12
HETATM   12  C8  UNL     1      10.967   9.300  74.016  1.00  0.00     0.120 C 
BRANCH  12  13
HETATM   13  C9  UNL     1      10.095   8.674  75.055  1.00  0.00    -0.019 A 
HETATM   14  C10 UNL     1       8.797   8.290  74.751  1.00  0.00     0.013 A 
HETATM   15  C11 UNL     1       7.981   7.716  75.704  1.00  0.00     0.009 A 
HETATM   16  C12 UNL     1       8.404   7.495  76.998  1.00  0.00    -0.051 A 
HETATM   17  C17 UNL     1       9.690   7.874  77.303  1.00  0.00     0.009 A 
HETATM   18  C18 UNL     1      10.502   8.445  76.357  1.00  0.00     0.013 A 
BRANCH  16  19
HETATM   19  C13 UNL     1       7.564   6.889  78.040  1.00  0.00    -0.024 C 
HETATM   20  C14 UNL     1       8.023   5.462  78.373  1.00  0.00     0.019 C 
HETATM   21  C15 UNL     1       7.692   7.680  79.322  1.00  0.00     0.019 C 
HETATM   22  C16 UNL     1       6.095   6.882  77.678  1.00  0.00     0.019 C 
ENDBRANCH  16  19
ENDBRANCH  12  13
ENDBRANCH  11  12
BRANCH  11  23
HETATM   23  S1  UNL     1      10.182  11.444  72.757  1.00  0.00     0.303 S 
HETATM   24  O1  UNL     1      10.578  12.875  72.529  1.00  0.00    -0.197 OA
HETATM   25  O2  UNL     1      10.427  10.764  71.436  1.00  0.00    -0.197 OA
BRANCH  23  26
HETATM   26  C19 UNL     1       8.468  11.337  73.059  1.00  0.00     0.256 A 
HETATM   27  N3  UNL     1       7.816  11.381  74.234  1.00  0.00    -0.258 N 
HETATM   28  N4  UNL     1       6.530  11.289  73.980  1.00  0.00    -0.226 N 
ATOM     29  H3  UNL     1       8.243  11.469  75.156  1.00  0.00     0.191 HD
HETATM   30  N5  UNL     1       6.307  11.188  72.683  1.00  0.00    -0.226 N 
ATOM     31  H4  UNL     1       5.800  11.296  74.692  1.00  0.00     0.210 HD
HETATM   32  N6  UNL     1       7.495  11.215  72.109  1.00  0.00    -0.258 N 
ATOM     33  H5  UNL     1       5.401  11.105  72.220  1.00  0.00     0.210 HD
ATOM     34  H6  UNL     1       7.661  11.155  71.104  1.00  0.00     0.191 HD
ENDBRANCH  23  26
ENDBRANCH  11  23
ENDBRANCH   8  11
TORSDOF 6
ENDMDL
