MODEL 1
REMARK VINA RESULT: -6.038249756      0.000      0.000
REMARK  6 active torsions:
REMARK  status: ('A' for Active; 'I' for Inactive)
REMARK    1  A    between atoms: O1_2  and  C2_3 
REMARK    2  A    between atoms: C2_3  and  O2_4 
REMARK    3  A    between atoms: C11_14  and  O4_15 
REMARK    4  A    between atoms: C18_23  and  C19_24 
REMARK    5  A    between atoms: C22_27  and  O5_28 
REMARK    6  A    between atoms: C24_30  and  O6_31 
ROOT
HETATM    1  C2  UNL     1      15.376  13.728  73.816  1.00  0.00     0.199 C 
HETATM    2  C4  UNL     1      13.943  14.081  74.134  1.00  0.00     0.084 C 
HETATM    3  C5  UNL     1      13.093  13.005  73.502  1.00  0.00     0.059 C 
HETATM    4  C6  UNL     1      12.808  12.006  74.553  1.00  0.00    -0.053 C 
HETATM    5  C7  UNL     1      11.389  11.593  74.643  1.00  0.00     0.004 A 
HETATM    6  C8  UNL     1      10.294  11.783  73.936  1.00  0.00     0.147 A 
HETATM    7  O3  UNL     1       9.514  11.047  74.763  1.00  0.00    -0.344 OA
HETATM    8  C9  UNL     1      10.598  10.811  75.593  1.00  0.00     0.118 A 
HETATM    9  C10 UNL     1      10.503  11.415  76.983  1.00  0.00     0.055 C 
HETATM   10  C11 UNL     1      10.961   9.336  75.645  1.00  0.00     0.157 C 
HETATM   11  C12 UNL     1      12.450   9.311  75.947  1.00  0.00     0.036 C 
HETATM   12  C13 UNL     1      13.218   9.601  74.664  1.00  0.00     0.017 C 
HETATM   13  C14 UNL     1      13.849  10.974  74.720  1.00  0.00    -0.013 C 
HETATM   14  C15 UNL     1      14.481  10.964  76.136  1.00  0.00     0.021 C 
HETATM   15  C16 UNL     1      14.984  11.176  73.798  1.00  0.00     0.042 C 
HETATM   16  C17 UNL     1      14.701  10.357  72.533  1.00  0.00     0.017 C 
HETATM   17  C18 UNL     1      13.682  11.272  71.777  1.00  0.00     0.028 C 
HETATM   18  C22 UNL     1      13.942  12.591  72.299  1.00  0.00     0.108 C 
HETATM   19  C24 UNL     1      15.256  12.419  73.094  1.00  0.00     0.153 C 
ENDROOT
BRANCH   1  20
HETATM   20  O1  UNL     1      16.208  13.712  74.857  1.00  0.00    -0.357 OA
HETATM   21  C1  UNL     1      15.951  14.112  76.093  1.00  0.00     0.205 C 
ENDBRANCH   1  20
BRANCH   1  22
HETATM   22  O2  UNL     1      15.729  14.634  72.857  1.00  0.00    -0.357 OA
HETATM   23  C3  UNL     1      16.132  15.871  73.100  1.00  0.00     0.205 C 
ENDBRANCH   1  22
BRANCH  19  24
HETATM   24  O6  UNL     1      16.349  12.090  72.365  1.00  0.00    -0.376 OA
HETATM   25  C25 UNL     1      17.602  12.170  72.791  1.00  0.00     0.203 C 
ENDBRANCH  19  24
BRANCH  18  26
HETATM   26  O5  UNL     1      14.019  13.687  71.510  1.00  0.00    -0.381 OA
HETATM   27  C23 UNL     1      12.962  14.254  70.918  1.00  0.00     0.202 C 
ENDBRANCH  18  26
BRANCH  17  28
HETATM   28  C19 UNL     1      13.546  10.789  70.426  1.00  0.00    -0.016 C 
HETATM   29  C20 UNL     1      14.540  10.866  69.359  1.00  0.00     0.010 C 
HETATM   30  C21 UNL     1      12.181  10.876  69.785  1.00  0.00     0.010 C 
ENDBRANCH  17  28
BRANCH  10  31
HETATM   31  O4  UNL     1      10.748   8.715  74.444  1.00  0.00    -0.392 OA
ATOM     32  H4  UNL     1      10.353   7.858  74.553  1.00  0.00     0.210 HD
ENDBRANCH  10  31
TORSDOF 6
ENDMDL
MODEL 2
REMARK VINA RESULT: -5.893227000      1.681      4.422
REMARK  6 active torsions:
REMARK  status: ('A' for Active; 'I' for Inactive)
REMARK    1  A    between atoms: O1_2  and  C2_3 
REMARK    2  A    between atoms: C2_3  and  O2_4 
REMARK    3  A    between atoms: C11_14  and  O4_15 
REMARK    4  A    between atoms: C18_23  and  C19_24 
REMARK    5  A    between atoms: C22_27  and  O5_28 
REMARK    6  A    between atoms: C24_30  and  O6_31 
ROOT
HETATM    1  C2  UNL     1      13.855  12.038  70.468  1.00  0.00     0.199 C 
HETATM    2  C4  UNL     1      14.087  10.731  71.188  1.00  0.00     0.084 C 
HETATM    3  C5  UNL     1      14.587  11.093  72.567  1.00  0.00     0.059 C 
HETATM    4  C6  UNL     1      13.415  11.083  73.468  1.00  0.00    -0.053 C 
HETATM    5  C7  UNL     1      13.622  10.354  74.740  1.00  0.00     0.004 A 
HETATM    6  C8  UNL     1      14.639   9.801  75.367  1.00  0.00     0.147 A 
HETATM    7  O3  UNL     1      13.893   9.391  76.421  1.00  0.00    -0.344 OA
HETATM    8  C9  UNL     1      12.753   9.915  75.832  1.00  0.00     0.118 A 
HETATM    9  C10 UNL     1      11.698   8.898  75.430  1.00  0.00     0.055 C 
HETATM   10  C11 UNL     1      12.159  11.047  76.654  1.00  0.00     0.157 C 
HETATM   11  C12 UNL     1      11.445  11.929  75.644  1.00  0.00     0.036 C 
HETATM   12  C13 UNL     1      12.476  12.796  74.932  1.00  0.00     0.017 C 
HETATM   13  C14 UNL     1      12.653  12.345  73.500  1.00  0.00    -0.013 C 
HETATM   14  C15 UNL     1      11.179  12.184  73.045  1.00  0.00     0.021 C 
HETATM   15  C16 UNL     1      13.222  13.361  72.592  1.00  0.00     0.042 C 
HETATM   16  C17 UNL     1      14.209  14.205  73.408  1.00  0.00     0.017 C 
HETATM   17  C18 UNL     1      15.465  13.275  73.457  1.00  0.00     0.028 C 
HETATM   18  C22 UNL     1      15.310  12.416  72.309  1.00  0.00     0.108 C 
HETATM   19  C24 UNL     1      14.154  13.067  71.516  1.00  0.00     0.153 C 
ENDROOT
BRANCH   1  20
HETATM   20  O1  UNL     1      12.662  12.170  69.887  1.00  0.00    -0.357 OA
HETATM   21  C1  UNL     1      11.750  11.226  69.712  1.00  0.00     0.205 C 
ENDBRANCH   1  20
BRANCH   1  22
HETATM   22  O2  UNL     1      14.896  12.113  69.586  1.00  0.00    -0.357 OA
HETATM   23  C3  UNL     1      14.765  12.203  68.272  1.00  0.00     0.205 C 
ENDBRANCH   1  22
BRANCH  19  24
HETATM   24  O6  UNL     1      14.402  14.303  71.021  1.00  0.00    -0.376 OA
HETATM   25  C25 UNL     1      13.487  15.118  70.513  1.00  0.00     0.203 C 
ENDBRANCH  19  24
BRANCH  18  26
HETATM   26  O5  UNL     1      16.333  12.118  71.475  1.00  0.00    -0.381 OA
HETATM   27  C23 UNL     1      17.397  11.390  71.832  1.00  0.00     0.202 C 
ENDBRANCH  18  26
BRANCH  17  28
HETATM   28  C19 UNL     1      16.589  14.046  73.929  1.00  0.00    -0.016 C 
HETATM   29  C20 UNL     1      17.430  14.944  73.145  1.00  0.00     0.010 C 
HETATM   30  C21 UNL     1      17.452  13.436  75.008  1.00  0.00     0.010 C 
ENDBRANCH  17  28
BRANCH  10  31
HETATM   31  O4  UNL     1      13.128  11.788  77.276  1.00  0.00    -0.392 OA
ATOM     32  H4  UNL     1      13.488  12.454  76.701  1.00  0.00     0.210 HD
ENDBRANCH  10  31
TORSDOF 6
ENDMDL
MODEL 3
REMARK VINA RESULT: -5.850516923      1.482      4.313
REMARK  6 active torsions:
REMARK  status: ('A' for Active; 'I' for Inactive)
REMARK    1  A    between atoms: O1_2  and  C2_3 
REMARK    2  A    between atoms: C2_3  and  O2_4 
REMARK    3  A    between atoms: C11_14  and  O4_15 
REMARK    4  A    between atoms: C18_23  and  C19_24 
REMARK    5  A    between atoms: C22_27  and  O5_28 
REMARK    6  A    between atoms: C24_30  and  O6_31 
ROOT
HETATM    1  C2  UNL     1      15.595  11.609  72.148  1.00  0.00     0.199 C 
HETATM    2  C4  UNL     1      15.467  10.489  73.153  1.00  0.00     0.084 C 
HETATM    3  C5  UNL     1      14.927  11.115  74.416  1.00  0.00     0.059 C 
HETATM    4  C6  UNL     1      13.461  10.922  74.402  1.00  0.00    -0.053 C 
HETATM    5  C7  UNL     1      12.894  10.414  75.672  1.00  0.00     0.004 A 
HETATM    6  C8  UNL     1      13.335  10.199  76.894  1.00  0.00     0.147 A 
HETATM    7  O3  UNL     1      12.143   9.743  77.349  1.00  0.00    -0.344 OA
HETATM    8  C9  UNL     1      11.588   9.903  76.089  1.00  0.00     0.118 A 
HETATM    9  C10 UNL     1      11.160   8.622  75.394  1.00  0.00     0.055 C 
HETATM   10  C11 UNL     1      10.479  10.942  76.086  1.00  0.00     0.157 C 
HETATM   11  C12 UNL     1      10.475  11.504  74.675  1.00  0.00     0.036 C 
HETATM   12  C13 UNL     1      11.612  12.509  74.541  1.00  0.00     0.017 C 
HETATM   13  C14 UNL     1      12.712  11.956  73.665  1.00  0.00    -0.013 C 
HETATM   14  C15 UNL     1      11.898  11.390  72.472  1.00  0.00     0.021 C 
HETATM   15  C16 UNL     1      13.604  12.970  73.069  1.00  0.00     0.042 C 
HETATM   16  C17 UNL     1      13.737  14.116  74.080  1.00  0.00     0.017 C 
HETATM   17  C18 UNL     1      14.772  13.531  75.097  1.00  0.00     0.028 C 
HETATM   18  C22 UNL     1      15.486  12.536  74.335  1.00  0.00     0.108 C 
HETATM   19  C24 UNL     1      15.034  12.793  72.879  1.00  0.00     0.153 C 
ENDROOT
BRANCH   1  20
HETATM   20  O1  UNL     1      15.041  11.381  70.958  1.00  0.00    -0.357 OA
HETATM   21  C1  UNL     1      14.658  10.213  70.466  1.00  0.00     0.205 C 
ENDBRANCH   1  20
BRANCH   1  22
HETATM   22  O2  UNL     1      16.941  11.835  72.083  1.00  0.00    -0.357 OA
HETATM   23  C3  UNL     1      17.820  10.999  71.554  1.00  0.00     0.205 C 
ENDBRANCH   1  22
BRANCH  19  24
HETATM   24  O6  UNL     1      15.393  13.987  72.352  1.00  0.00    -0.376 OA
HETATM   25  C25 UNL     1      14.993  14.452  71.177  1.00  0.00     0.203 C 
ENDBRANCH  19  24
BRANCH  18  26
HETATM   26  O5  UNL     1      16.832  12.403  74.385  1.00  0.00    -0.381 OA
HETATM   27  C23 UNL     1      17.661  13.371  74.790  1.00  0.00     0.202 C 
ENDBRANCH  18  26
BRANCH  17  28
HETATM   28  C19 UNL     1      15.237  14.600  75.945  1.00  0.00    -0.016 C 
HETATM   29  C20 UNL     1      15.236  14.631  77.403  1.00  0.00     0.010 C 
HETATM   30  C21 UNL     1      15.038  16.016  75.457  1.00  0.00     0.010 C 
ENDBRANCH  17  28
BRANCH  10  31
HETATM   31  O4  UNL     1      10.734  11.962  76.963  1.00  0.00    -0.392 OA
ATOM     32  H4  UNL     1      11.512  12.450  76.722  1.00  0.00     0.210 HD
ENDBRANCH  10  31
TORSDOF 6
ENDMDL
MODEL 4
REMARK VINA RESULT: -5.802070580      1.198      1.480
REMARK  6 active torsions:
REMARK  status: ('A' for Active; 'I' for Inactive)
REMARK    1  A    between atoms: O1_2  and  C2_3 
REMARK    2  A    between atoms: C2_3  and  O2_4 
REMARK    3  A    between atoms: C11_14  and  O4_15 
REMARK    4  A    between atoms: C18_23  and  C19_24 
REMARK    5  A    between atoms: C22_27  and  O5_28 
REMARK    6  A    between atoms: C24_30  and  O6_31 
ROOT
HETATM    1  C2  UNL     1      15.563  14.588  73.504  1.00  0.00     0.199 C 
HETATM    2  C4  UNL     1      14.053  14.570  73.467  1.00  0.00     0.084 C 
HETATM    3  C5  UNL     1      13.656  13.154  73.128  1.00  0.00     0.059 C 
HETATM    4  C6  UNL     1      13.374  12.466  74.405  1.00  0.00    -0.053 C 
HETATM    5  C7  UNL     1      12.112  11.692  74.423  1.00  0.00     0.004 A 
HETATM    6  C8  UNL     1      11.202  11.331  73.542  1.00  0.00     0.147 A 
HETATM    7  O3  UNL     1      10.445  10.668  74.450  1.00  0.00    -0.344 OA
HETATM    8  C9  UNL     1      11.326  11.020  75.459  1.00  0.00     0.118 A 
HETATM    9  C10 UNL     1      10.765  11.945  76.525  1.00  0.00     0.055 C 
HETATM   10  C11 UNL     1      12.004   9.804  76.069  1.00  0.00     0.157 C 
HETATM   11  C12 UNL     1      13.342  10.316  76.575  1.00  0.00     0.036 C 
HETATM   12  C13 UNL     1      14.301  10.437  75.397  1.00  0.00     0.017 C 
HETATM   13  C14 UNL     1      14.559  11.889  75.068  1.00  0.00    -0.013 C 
HETATM   14  C15 UNL     1      14.822  12.482  76.477  1.00  0.00     0.021 C 
HETATM   15  C16 UNL     1      15.799  12.146  74.310  1.00  0.00     0.042 C 
HETATM   16  C17 UNL     1      16.024  10.949  73.378  1.00  0.00     0.017 C 
HETATM   17  C18 UNL     1      15.026  11.255  72.213  1.00  0.00     0.028 C 
HETATM   18  C22 UNL     1      14.837  12.683  72.279  1.00  0.00     0.108 C 
HETATM   19  C24 UNL     1      15.929  13.152  73.268  1.00  0.00     0.153 C 
ENDROOT
BRANCH   1  20
HETATM   20  O1  UNL     1      16.105  15.125  74.596  1.00  0.00    -0.357 OA
HETATM   21  C1  UNL     1      15.480  15.795  75.552  1.00  0.00     0.205 C 
ENDBRANCH   1  20
BRANCH   1  22
HETATM   22  O2  UNL     1      15.909  15.238  72.353  1.00  0.00    -0.357 OA
HETATM   23  C3  UNL     1      16.569  16.384  72.305  1.00  0.00     0.205 C 
ENDBRANCH   1  22
BRANCH  19  24
HETATM   24  O6  UNL     1      17.209  12.969  72.865  1.00  0.00    -0.376 OA
HETATM   25  C25 UNL     1      18.283  13.235  73.596  1.00  0.00     0.203 C 
ENDBRANCH  19  24
BRANCH  18  26
HETATM   26  O5  UNL     1      14.838  13.473  71.181  1.00  0.00    -0.381 OA
HETATM   27  C23 UNL     1      13.834  13.521  70.298  1.00  0.00     0.202 C 
ENDBRANCH  18  26
BRANCH  17  28
HETATM   28  C19 UNL     1      15.332  10.382  71.106  1.00  0.00    -0.016 C 
HETATM   29  C20 UNL     1      14.476  10.074  69.965  1.00  0.00     0.010 C 
HETATM   30  C21 UNL     1      16.171   9.159  71.391  1.00  0.00     0.010 C 
ENDBRANCH  17  28
BRANCH  10  31
HETATM   31  O4  UNL     1      12.233   8.827  75.138  1.00  0.00    -0.392 OA
ATOM     32  H4  UNL     1      11.873   7.990  75.407  1.00  0.00     0.210 HD
ENDBRANCH  10  31
TORSDOF 6
ENDMDL
MODEL 5
REMARK VINA RESULT: -5.229295696      1.911      4.294
REMARK  6 active torsions:
REMARK  status: ('A' for Active; 'I' for Inactive)
REMARK    1  A    between atoms: O1_2  and  C2_3 
REMARK    2  A    between atoms: C2_3  and  O2_4 
REMARK    3  A    between atoms: C11_14  and  O4_15 
REMARK    4  A    between atoms: C18_23  and  C19_24 
REMARK    5  A    between atoms: C22_27  and  O5_28 
REMARK    6  A    between atoms: C24_30  and  O6_31 
ROOT
HETATM    1  C2  UNL     1      14.116  12.449  75.432  1.00  0.00     0.199 C 
HETATM    2  C4  UNL     1      13.728  13.714  74.705  1.00  0.00     0.084 C 
HETATM    3  C5  UNL     1      14.180  13.535  73.276  1.00  0.00     0.059 C 
HETATM    4  C6  UNL     1      13.013  13.047  72.511  1.00  0.00    -0.053 C 
HETATM    5  C7  UNL     1      12.774  13.754  71.233  1.00  0.00     0.004 A 
HETATM    6  C8  UNL     1      13.411  14.646  70.502  1.00  0.00     0.147 A 
HETATM    7  O3  UNL     1      12.456  14.688  69.542  1.00  0.00    -0.344 OA
HETATM    8  C9  UNL     1      11.691  13.773  70.249  1.00  0.00     0.118 A 
HETATM    9  C10 UNL     1      10.367  14.297  70.778  1.00  0.00     0.055 C 
HETATM   10  C11 UNL     1      11.515  12.471  69.485  1.00  0.00     0.157 C 
HETATM   11  C12 UNL     1      11.326  11.412  70.557  1.00  0.00     0.036 C 
HETATM   12  C13 UNL     1      12.688  11.053  71.140  1.00  0.00     0.017 C 
HETATM   13  C14 UNL     1      12.821  11.585  72.548  1.00  0.00    -0.013 C 
HETATM   14  C15 UNL     1      11.464  11.160  73.167  1.00  0.00     0.021 C 
HETATM   15  C16 UNL     1      13.842  10.912  73.375  1.00  0.00     0.042 C 
HETATM   16  C17 UNL     1      14.991  10.504  72.445  1.00  0.00     0.017 C 
HETATM   17  C18 UNL     1      15.757  11.856  72.266  1.00  0.00     0.028 C 
HETATM   18  C22 UNL     1      15.396  12.620  73.435  1.00  0.00     0.108 C 
HETATM   19  C24 UNL     1      14.689  11.589  74.344  1.00  0.00     0.153 C 
ENDROOT
BRANCH   1  20
HETATM   20  O1  UNL     1      13.146  11.872  76.140  1.00  0.00    -0.357 OA
HETATM   21  C1  UNL     1      11.916  12.326  76.330  1.00  0.00     0.205 C 
ENDBRANCH   1  20
BRANCH   1  22
HETATM   22  O2  UNL     1      15.188  12.825  76.191  1.00  0.00    -0.357 OA
HETATM   23  C3  UNL     1      15.214  13.884  76.984  1.00  0.00     0.205 C 
ENDBRANCH   1  22
BRANCH  19  24
HETATM   24  O6  UNL     1      15.461  10.572  74.794  1.00  0.00    -0.376 OA
HETATM   25  C25 UNL     1      15.020   9.523  75.475  1.00  0.00     0.203 C 
ENDBRANCH  19  24
BRANCH  18  26
HETATM   26  O5  UNL     1      16.296  13.330  74.153  1.00  0.00    -0.381 OA
HETATM   27  C23 UNL     1      16.982  14.371  73.668  1.00  0.00     0.202 C 
ENDBRANCH  18  26
BRANCH  17  28
HETATM   28  C19 UNL     1      17.038  11.582  71.664  1.00  0.00    -0.016 C 
HETATM   29  C20 UNL     1      17.653  12.286  70.543  1.00  0.00     0.010 C 
HETATM   30  C21 UNL     1      17.487  10.141  71.600  1.00  0.00     0.010 C 
ENDBRANCH  17  28
BRANCH  10  31
HETATM   31  O4  UNL     1      12.627  12.157  68.750  1.00  0.00    -0.392 OA
ATOM     32  H4  UNL     1      13.159  12.923  68.569  1.00  0.00     0.210 HD
ENDBRANCH  10  31
TORSDOF 6
ENDMDL
