MODEL 1
REMARK VINA RESULT: -8.559384865      0.000      0.000
REMARK  14 active torsions:
REMARK  status: ('A' for Active; 'I' for Inactive)
REMARK    1  A    between atoms: N1_2  and  C2_4 
REMARK    2  A    between atoms: C3_7  and  N3_8 
REMARK    3  A    between atoms: N3_8  and  C4_10 
REMARK    4  A    between atoms: C8_16  and  N5_17 
REMARK    5  A    between atoms: N5_17  and  C9_18 
REMARK    6  A    between atoms: C9_18  and  C10_19 
REMARK    7  A    between atoms: C10_19  and  C11_20 
REMARK    8  A    between atoms: C11_20  and  N6_21 
REMARK    9  A    between atoms: C17_29  and  O1_30 
REMARK   10  A    between atoms: O1_30  and  C18_31 
REMARK   11  A    between atoms: C18_31  and  C19_32 
REMARK   12  A    between atoms: C22_35  and  C23_36 
REMARK   13  A    between atoms: C23_36  and  N8_38 
REMARK   14  A    between atoms: C28_42  and  O2_43 
ROOT
HETATM    1  C2  UNL     1      72.167  54.469  13.836  1.00  0.00     0.681 A 
HETATM    2  N2  UNL     1      72.187  55.784  14.035  1.00  0.00    -0.177 N 
ATOM      3  H2  UNL     1      73.054  56.301  13.883  1.00  0.00     0.186 HD
HETATM    4  C3  UNL     1      71.065  56.457  14.442  1.00  0.00     0.126 A 
HETATM    5  C16 UNL     1      69.946  55.713  14.625  1.00  0.00     0.105 A 
HETATM    6  C17 UNL     1      69.884  54.317  14.426  1.00  0.00     0.161 A 
HETATM    7  N9  UNL     1      71.078  53.749  14.018  1.00  0.00    -0.171 N 
ATOM      8  H9  UNL     1      71.117  52.743  13.854  1.00  0.00     0.186 HD
ENDROOT
BRANCH   4   9
HETATM    9  N3  UNL     1      71.142  57.845  14.687  1.00  0.00    -0.328 N 
ATOM     10  H3  UNL     1      71.088  58.488  13.898  1.00  0.00     0.169 HD
BRANCH   9  11
HETATM   11  C4  UNL     1      71.279  58.328  15.877  1.00  0.00     0.111 A 
HETATM   12  C5  UNL     1      70.216  58.621  16.694  1.00  0.00     0.073 A 
HETATM   13  C6  UNL     1      70.402  59.048  18.006  1.00  0.00     0.013 A 
HETATM   14  C7  UNL     1      69.242  59.360  18.862  1.00  0.00     0.068 C 
HETATM   15  N4  UNL     1      71.645  59.170  18.460  1.00  0.00    -0.320 N 
HETATM   16  C8  UNL     1      72.741  58.895  17.682  1.00  0.00     0.260 A 
ATOM     17  H4  UNL     1      71.790  59.480  19.421  1.00  0.00     0.169 HD
HETATM   18  N7  UNL     1      72.503  58.472  16.381  1.00  0.00    -0.302 N 
ATOM     19  H7  UNL     1      73.302  58.262  15.784  1.00  0.00     0.171 HD
BRANCH  16  20
HETATM   20  N5  UNL     1      73.863  58.969  18.146  1.00  0.00    -0.388 NA
BRANCH  20  21
HETATM   21  C9  UNL     1      74.964  58.732  18.884  1.00  0.00     0.161 C 
BRANCH  21  22
HETATM   22  C10 UNL     1      75.470  59.881  19.713  1.00  0.00     0.089 C 
BRANCH  22  23
HETATM   23  C11 UNL     1      74.511  60.569  20.587  1.00  0.00     0.278 C 
BRANCH  23  24
HETATM   24  N6  UNL     1      74.306  61.958  20.251  1.00  0.00     0.088 N 
HETATM   25  C12 UNL     1      72.913  62.182  19.836  1.00  0.00     0.272 C 
HETATM   26  C13 UNL     1      72.174  61.997  21.157  1.00  0.00     0.032 C 
HETATM   27  C14 UNL     1      73.143  62.401  22.251  1.00  0.00     0.032 C 
HETATM   28  C15 UNL     1      74.343  62.823  21.427  1.00  0.00     0.272 C 
ENDBRANCH  23  24
ENDBRANCH  22  23
ENDBRANCH  21  22
ENDBRANCH  20  21
ENDBRANCH  16  20
ENDBRANCH   9  11
ENDBRANCH   4   9
BRANCH   1  29
HETATM   29  N1  UNL     1      73.289  53.894  13.470  1.00  0.00    -0.230 N 
HETATM   30  C1  UNL     1      73.261  52.591  12.816  1.00  0.00     0.165 C 
ATOM     31  H1  UNL     1      74.180  54.360  13.642  1.00  0.00     0.177 HD
ENDBRANCH   1  29
BRANCH   6  32
HETATM   32  O1  UNL     1      68.857  53.566  14.584  1.00  0.00    -0.331 OA
BRANCH  32  33
HETATM   33  C18 UNL     1      67.837  52.827  14.743  1.00  0.00     0.218 C 
BRANCH  33  34
HETATM   34  C19 UNL     1      67.688  51.515  14.019  1.00  0.00    -0.001 A 
HETATM   35  C20 UNL     1      68.580  50.488  14.113  1.00  0.00     0.013 A 
HETATM   36  C21 UNL     1      68.337  49.294  13.441  1.00  0.00     0.013 A 
HETATM   37  C22 UNL     1      67.242  49.047  12.664  1.00  0.00    -0.017 A 
HETATM   38  C27 UNL     1      66.337  50.128  12.583  1.00  0.00     0.050 A 
HETATM   39  C28 UNL     1      66.563  51.312  13.239  1.00  0.00     0.077 A 
BRANCH  37  40
HETATM   40  C23 UNL     1      66.942  47.785  11.983  1.00  0.00    -0.007 C 
HETATM   41  C24 UNL     1      66.526  47.889  10.546  1.00  0.00     0.062 C 
BRANCH  40  42
HETATM   42  N8  UNL     1      67.854  46.737  12.260  1.00  0.00    -0.295 NA
HETATM   43  C25 UNL     1      67.387  45.563  12.889  1.00  0.00     0.116 C 
HETATM   44  C26 UNL     1      68.733  46.456  11.120  1.00  0.00     0.116 C 
ENDBRANCH  40  42
ENDBRANCH  37  40
BRANCH  39  45
HETATM   45  O2  UNL     1      65.674  52.370  13.157  1.00  0.00    -0.355 OA
HETATM   46  C29 UNL     1      64.449  52.453  13.808  1.00  0.00     0.210 C 
ENDBRANCH  39  45
ENDBRANCH  33  34
ENDBRANCH  32  33
ENDBRANCH   6  32
TORSDOF 14
ENDMDL
MODEL 2
REMARK VINA RESULT: -8.435472162      1.538      2.547
REMARK  14 active torsions:
REMARK  status: ('A' for Active; 'I' for Inactive)
REMARK    1  A    between atoms: N1_2  and  C2_4 
REMARK    2  A    between atoms: C3_7  and  N3_8 
REMARK    3  A    between atoms: N3_8  and  C4_10 
REMARK    4  A    between atoms: C8_16  and  N5_17 
REMARK    5  A    between atoms: N5_17  and  C9_18 
REMARK    6  A    between atoms: C9_18  and  C10_19 
REMARK    7  A    between atoms: C10_19  and  C11_20 
REMARK    8  A    between atoms: C11_20  and  N6_21 
REMARK    9  A    between atoms: C17_29  and  O1_30 
REMARK   10  A    between atoms: O1_30  and  C18_31 
REMARK   11  A    between atoms: C18_31  and  C19_32 
REMARK   12  A    between atoms: C22_35  and  C23_36 
REMARK   13  A    between atoms: C23_36  and  N8_38 
REMARK   14  A    between atoms: C28_42  and  O2_43 
ROOT
HETATM    1  C2  UNL     1      72.357  55.581  15.078  1.00  0.00     0.681 A 
HETATM    2  N2  UNL     1      72.097  56.824  15.477  1.00  0.00    -0.177 N 
ATOM      3  H2  UNL     1      72.857  57.407  15.827  1.00  0.00     0.186 HD
HETATM    4  C3  UNL     1      70.826  57.333  15.426  1.00  0.00     0.126 A 
HETATM    5  C16 UNL     1      69.861  56.507  14.950  1.00  0.00     0.105 A 
HETATM    6  C17 UNL     1      70.096  55.184  14.518  1.00  0.00     0.161 A 
HETATM    7  N9  UNL     1      71.417  54.781  14.618  1.00  0.00    -0.171 N 
ATOM      8  H9  UNL     1      71.669  53.836  14.327  1.00  0.00     0.186 HD
ENDROOT
BRANCH   4   9
HETATM    9  N3  UNL     1      70.585  58.639  15.904  1.00  0.00    -0.328 N 
ATOM     10  H3  UNL     1      70.715  59.427  15.269  1.00  0.00     0.169 HD
BRANCH   9  11
HETATM   11  C4  UNL     1      70.205  58.871  17.116  1.00  0.00     0.111 A 
HETATM   12  C5  UNL     1      69.075  58.320  17.666  1.00  0.00     0.073 A 
HETATM   13  C6  UNL     1      68.748  58.513  19.006  1.00  0.00     0.013 A 
HETATM   14  C7  UNL     1      67.525  57.913  19.571  1.00  0.00     0.068 C 
HETATM   15  N4  UNL     1      69.562  59.252  19.753  1.00  0.00    -0.320 N 
HETATM   16  C8  UNL     1      70.701  59.828  19.250  1.00  0.00     0.260 A 
ATOM     17  H4  UNL     1      69.331  59.396  20.737  1.00  0.00     0.169 HD
HETATM   18  N7  UNL     1      70.982  59.606  17.909  1.00  0.00    -0.302 N 
ATOM     19  H7  UNL     1      71.823  60.025  17.513  1.00  0.00     0.171 HD
BRANCH  16  20
HETATM   20  N5  UNL     1      71.449  60.456  19.975  1.00  0.00    -0.388 NA
BRANCH  20  21
HETATM   21  C9  UNL     1      72.013  61.456  20.678  1.00  0.00     0.161 C 
BRANCH  21  22
HETATM   22  C10 UNL     1      73.287  62.029  20.117  1.00  0.00     0.089 C 
BRANCH  22  23
HETATM   23  C11 UNL     1      74.533  61.288  20.353  1.00  0.00     0.278 C 
BRANCH  23  24
HETATM   24  N6  UNL     1      75.154  60.788  19.149  1.00  0.00     0.088 N 
HETATM   25  C12 UNL     1      76.452  60.173  19.462  1.00  0.00     0.272 C 
HETATM   26  C13 UNL     1      76.016  58.920  20.214  1.00  0.00     0.032 C 
HETATM   27  C14 UNL     1      74.651  58.546  19.670  1.00  0.00     0.032 C 
HETATM   28  C15 UNL     1      74.462  59.619  18.615  1.00  0.00     0.272 C 
ENDBRANCH  23  24
ENDBRANCH  22  23
ENDBRANCH  21  22
ENDBRANCH  20  21
ENDBRANCH  16  20
ENDBRANCH   9  11
ENDBRANCH   4   9
BRANCH   1  29
HETATM   29  N1  UNL     1      73.596  55.159  15.180  1.00  0.00    -0.230 N 
HETATM   30  C1  UNL     1      73.936  54.121  16.144  1.00  0.00     0.165 C 
ATOM     31  H1  UNL     1      74.321  55.558  14.583  1.00  0.00     0.177 HD
ENDBRANCH   1  29
BRANCH   6  32
HETATM   32  O1  UNL     1      69.226  54.361  14.061  1.00  0.00    -0.331 OA
BRANCH  32  33
HETATM   33  C18 UNL     1      68.362  53.546  13.614  1.00  0.00     0.218 C 
BRANCH  33  34
HETATM   34  C19 UNL     1      68.713  52.119  13.286  1.00  0.00    -0.001 A 
HETATM   35  C20 UNL     1      69.915  51.546  13.575  1.00  0.00     0.013 A 
HETATM   36  C21 UNL     1      70.136  50.204  13.273  1.00  0.00     0.013 A 
HETATM   37  C22 UNL     1      69.220  49.378  12.691  1.00  0.00    -0.017 A 
HETATM   38  C27 UNL     1      67.985  49.998  12.401  1.00  0.00     0.050 A 
HETATM   39  C28 UNL     1      67.752  51.319  12.691  1.00  0.00     0.077 A 
BRANCH  37  40
HETATM   40  C23 UNL     1      69.412  47.953  12.404  1.00  0.00    -0.007 C 
HETATM   41  C24 UNL     1      70.703  47.350  12.872  1.00  0.00     0.062 C 
BRANCH  40  42
HETATM   42  N8  UNL     1      68.268  47.150  12.629  1.00  0.00    -0.295 NA
HETATM   43  C25 UNL     1      67.880  46.210  11.650  1.00  0.00     0.116 C 
HETATM   44  C26 UNL     1      68.244  46.594  13.986  1.00  0.00     0.116 C 
ENDBRANCH  40  42
ENDBRANCH  37  40
BRANCH  39  45
HETATM   45  O2  UNL     1      66.541  51.924  12.406  1.00  0.00    -0.355 OA
HETATM   46  C29 UNL     1      65.300  51.526  12.890  1.00  0.00     0.210 C 
ENDBRANCH  39  45
ENDBRANCH  33  34
ENDBRANCH  32  33
ENDBRANCH   6  32
TORSDOF 14
ENDMDL
MODEL 3
REMARK VINA RESULT: -8.417818083      1.526      2.755
REMARK  14 active torsions:
REMARK  status: ('A' for Active; 'I' for Inactive)
REMARK    1  A    between atoms: N1_2  and  C2_4 
REMARK    2  A    between atoms: C3_7  and  N3_8 
REMARK    3  A    between atoms: N3_8  and  C4_10 
REMARK    4  A    between atoms: C8_16  and  N5_17 
REMARK    5  A    between atoms: N5_17  and  C9_18 
REMARK    6  A    between atoms: C9_18  and  C10_19 
REMARK    7  A    between atoms: C10_19  and  C11_20 
REMARK    8  A    between atoms: C11_20  and  N6_21 
REMARK    9  A    between atoms: C17_29  and  O1_30 
REMARK   10  A    between atoms: O1_30  and  C18_31 
REMARK   11  A    between atoms: C18_31  and  C19_32 
REMARK   12  A    between atoms: C22_35  and  C23_36 
REMARK   13  A    between atoms: C23_36  and  N8_38 
REMARK   14  A    between atoms: C28_42  and  O2_43 
ROOT
HETATM    1  C2  UNL     1      72.219  54.369  13.919  1.00  0.00     0.681 A 
HETATM    2  N2  UNL     1      72.253  55.689  14.084  1.00  0.00    -0.177 N 
ATOM      3  H2  UNL     1      73.138  56.184  13.982  1.00  0.00     0.186 HD
HETATM    4  C3  UNL     1      71.118  56.394  14.388  1.00  0.00     0.126 A 
HETATM    5  C16 UNL     1      69.973  55.677  14.508  1.00  0.00     0.105 A 
HETATM    6  C17 UNL     1      69.896  54.278  14.342  1.00  0.00     0.161 A 
HETATM    7  N9  UNL     1      71.105  53.675  14.039  1.00  0.00    -0.171 N 
ATOM      8  H9  UNL     1      71.134  52.665  13.906  1.00  0.00     0.186 HD
ENDROOT
BRANCH   4   9
HETATM    9  N3  UNL     1      71.206  57.787  14.601  1.00  0.00    -0.328 N 
ATOM     10  H3  UNL     1      71.279  58.405  13.793  1.00  0.00     0.169 HD
BRANCH   9  11
HETATM   11  C4  UNL     1      71.198  58.306  15.783  1.00  0.00     0.111 A 
HETATM   12  C5  UNL     1      72.331  58.455  16.544  1.00  0.00     0.073 A 
HETATM   13  C6  UNL     1      72.301  59.108  17.774  1.00  0.00     0.013 A 
HETATM   14  C7  UNL     1      73.532  59.250  18.574  1.00  0.00     0.068 C 
HETATM   15  N4  UNL     1      71.140  59.591  18.204  1.00  0.00    -0.320 N 
HETATM   16  C8  UNL     1      69.979  59.465  17.483  1.00  0.00     0.260 A 
ATOM     17  H4  UNL     1      71.111  60.074  19.102  1.00  0.00     0.169 HD
HETATM   18  N7  UNL     1      70.061  58.806  16.264  1.00  0.00    -0.302 N 
ATOM     19  H7  UNL     1      69.211  58.699  15.711  1.00  0.00     0.171 HD
BRANCH  16  20
HETATM   20  N5  UNL     1      68.945  59.964  17.883  1.00  0.00    -0.388 NA
BRANCH  20  21
HETATM   21  C9  UNL     1      67.975  60.430  18.692  1.00  0.00     0.161 C 
BRANCH  21  22
HETATM   22  C10 UNL     1      68.150  60.165  20.163  1.00  0.00     0.089 C 
BRANCH  22  23
HETATM   23  C11 UNL     1      68.898  61.152  20.953  1.00  0.00     0.278 C 
BRANCH  23  24
HETATM   24  N6  UNL     1      70.004  60.593  21.693  1.00  0.00     0.088 N 
HETATM   25  C12 UNL     1      70.804  61.665  22.303  1.00  0.00     0.272 C 
HETATM   26  C13 UNL     1      69.849  62.179  23.375  1.00  0.00     0.032 C 
HETATM   27  C14 UNL     1      68.981  61.001  23.776  1.00  0.00     0.032 C 
HETATM   28  C15 UNL     1      69.567  59.907  22.906  1.00  0.00     0.272 C 
ENDBRANCH  23  24
ENDBRANCH  22  23
ENDBRANCH  21  22
ENDBRANCH  20  21
ENDBRANCH  16  20
ENDBRANCH   9  11
ENDBRANCH   4   9
BRANCH   1  29
HETATM   29  N1  UNL     1      73.352  53.763  13.653  1.00  0.00    -0.230 N 
HETATM   30  C1  UNL     1      73.349  52.497  12.929  1.00  0.00     0.165 C 
ATOM     31  H1  UNL     1      74.235  54.178  13.951  1.00  0.00     0.177 HD
ENDBRANCH   1  29
BRANCH   6  32
HETATM   32  O1  UNL     1      68.845  53.551  14.444  1.00  0.00    -0.331 OA
BRANCH  32  33
HETATM   33  C18 UNL     1      67.805  52.829  14.540  1.00  0.00     0.218 C 
BRANCH  33  34
HETATM   34  C19 UNL     1      67.690  51.508  13.828  1.00  0.00    -0.001 A 
HETATM   35  C20 UNL     1      68.604  50.502  13.935  1.00  0.00     0.013 A 
HETATM   36  C21 UNL     1      68.392  49.296  13.274  1.00  0.00     0.013 A 
HETATM   37  C22 UNL     1      67.307  49.017  12.494  1.00  0.00    -0.017 A 
HETATM   38  C27 UNL     1      66.378  50.076  12.398  1.00  0.00     0.050 A 
HETATM   39  C28 UNL     1      66.573  51.271  13.044  1.00  0.00     0.077 A 
BRANCH  37  40
HETATM   40  C23 UNL     1      67.040  47.742  11.824  1.00  0.00    -0.007 C 
HETATM   41  C24 UNL     1      66.593  47.824  10.394  1.00  0.00     0.062 C 
BRANCH  40  42
HETATM   42  N8  UNL     1      67.993  46.729  12.087  1.00  0.00    -0.295 NA
HETATM   43  C25 UNL     1      67.600  45.581  12.808  1.00  0.00     0.116 C 
HETATM   44  C26 UNL     1      68.794  46.405  10.902  1.00  0.00     0.116 C 
ENDBRANCH  40  42
ENDBRANCH  37  40
BRANCH  39  45
HETATM   45  O2  UNL     1      65.661  52.307  12.948  1.00  0.00    -0.355 OA
HETATM   46  C29 UNL     1      64.469  52.408  13.656  1.00  0.00     0.210 C 
ENDBRANCH  39  45
ENDBRANCH  33  34
ENDBRANCH  32  33
ENDBRANCH   6  32
TORSDOF 14
ENDMDL
MODEL 4
REMARK VINA RESULT: -8.345534204      1.944      3.159
REMARK  14 active torsions:
REMARK  status: ('A' for Active; 'I' for Inactive)
REMARK    1  A    between atoms: N1_2  and  C2_4 
REMARK    2  A    between atoms: C3_7  and  N3_8 
REMARK    3  A    between atoms: N3_8  and  C4_10 
REMARK    4  A    between atoms: C8_16  and  N5_17 
REMARK    5  A    between atoms: N5_17  and  C9_18 
REMARK    6  A    between atoms: C9_18  and  C10_19 
REMARK    7  A    between atoms: C10_19  and  C11_20 
REMARK    8  A    between atoms: C11_20  and  N6_21 
REMARK    9  A    between atoms: C17_29  and  O1_30 
REMARK   10  A    between atoms: O1_30  and  C18_31 
REMARK   11  A    between atoms: C18_31  and  C19_32 
REMARK   12  A    between atoms: C22_35  and  C23_36 
REMARK   13  A    between atoms: C23_36  and  N8_38 
REMARK   14  A    between atoms: C28_42  and  O2_43 
ROOT
HETATM    1  C2  UNL     1      72.180  55.003  16.079  1.00  0.00     0.681 A 
HETATM    2  N2  UNL     1      71.932  56.294  16.288  1.00  0.00    -0.177 N 
ATOM      3  H2  UNL     1      72.563  56.836  16.878  1.00  0.00     0.186 HD
HETATM    4  C3  UNL     1      70.844  56.906  15.725  1.00  0.00     0.126 A 
HETATM    5  C16 UNL     1      70.045  56.130  14.951  1.00  0.00     0.105 A 
HETATM    6  C17 UNL     1      70.273  54.759  14.706  1.00  0.00     0.161 A 
HETATM    7  N9  UNL     1      71.400  54.252  15.328  1.00  0.00    -0.171 N 
ATOM      8  H9  UNL     1      71.634  53.267  15.201  1.00  0.00     0.186 HD
ENDROOT
BRANCH   4   9
HETATM    9  N3  UNL     1      70.591  58.265  16.011  1.00  0.00    -0.328 N 
ATOM     10  H3  UNL     1      70.764  58.961  15.286  1.00  0.00     0.169 HD
BRANCH   9  11
HETATM   11  C4  UNL     1      70.148  58.658  17.159  1.00  0.00     0.111 A 
HETATM   12  C5  UNL     1      69.025  58.134  17.749  1.00  0.00     0.073 A 
HETATM   13  C6  UNL     1      68.633  58.511  19.031  1.00  0.00     0.013 A 
HETATM   14  C7  UNL     1      67.419  57.936  19.640  1.00  0.00     0.068 C 
HETATM   15  N4  UNL     1      69.375  59.400  19.682  1.00  0.00    -0.320 N 
HETATM   16  C8  UNL     1      70.504  59.956  19.135  1.00  0.00     0.260 A 
ATOM     17  H4  UNL     1      69.096  59.679  20.623  1.00  0.00     0.169 HD
HETATM   18  N7  UNL     1      70.853  59.548  17.855  1.00  0.00    -0.302 N 
ATOM     19  H7  UNL     1      71.687  59.949  17.428  1.00  0.00     0.171 HD
BRANCH  16  20
HETATM   20  N5  UNL     1      71.187  60.729  19.780  1.00  0.00    -0.388 NA
BRANCH  20  21
HETATM   21  C9  UNL     1      71.837  61.838  20.182  1.00  0.00     0.161 C 
BRANCH  21  22
HETATM   22  C10 UNL     1      73.212  62.050  19.608  1.00  0.00     0.089 C 
BRANCH  22  23
HETATM   23  C11 UNL     1      74.306  61.217  20.125  1.00  0.00     0.278 C 
BRANCH  23  24
HETATM   24  N6  UNL     1      75.015  60.482  19.105  1.00  0.00     0.088 N 
HETATM   25  C12 UNL     1      76.141  59.744  19.696  1.00  0.00     0.272 C 
HETATM   26  C13 UNL     1      75.409  58.673  20.497  1.00  0.00     0.032 C 
HETATM   27  C14 UNL     1      74.099  58.418  19.776  1.00  0.00     0.032 C 
HETATM   28  C15 UNL     1      74.238  59.356  18.593  1.00  0.00     0.272 C 
ENDBRANCH  23  24
ENDBRANCH  22  23
ENDBRANCH  21  22
ENDBRANCH  20  21
ENDBRANCH  16  20
ENDBRANCH   9  11
ENDBRANCH   4   9
BRANCH   1  29
HETATM   29  N1  UNL     1      73.230  54.484  16.672  1.00  0.00    -0.230 N 
HETATM   30  C1  UNL     1      74.258  53.818  15.882  1.00  0.00     0.165 C 
ATOM     31  H1  UNL     1      73.326  54.547  17.685  1.00  0.00     0.177 HD
ENDBRANCH   1  29
BRANCH   6  32
HETATM   32  O1  UNL     1      69.553  53.980  13.985  1.00  0.00    -0.331 OA
BRANCH  32  33
HETATM   33  C18 UNL     1      68.838  53.214  13.269  1.00  0.00     0.218 C 
BRANCH  33  34
HETATM   34  C19 UNL     1      68.924  51.715  13.383  1.00  0.00    -0.001 A 
HETATM   35  C20 UNL     1      67.965  50.939  13.962  1.00  0.00     0.013 A 
HETATM   36  C21 UNL     1      68.109  49.555  13.982  1.00  0.00     0.013 A 
HETATM   37  C22 UNL     1      69.168  48.876  13.453  1.00  0.00    -0.017 A 
HETATM   38  C27 UNL     1      70.147  49.703  12.862  1.00  0.00     0.050 A 
HETATM   39  C28 UNL     1      70.019  51.070  12.834  1.00  0.00     0.077 A 
BRANCH  37  40
HETATM   40  C23 UNL     1      69.322  47.419  13.423  1.00  0.00    -0.007 C 
HETATM   41  C24 UNL     1      70.285  46.874  12.410  1.00  0.00     0.062 C 
BRANCH  40  42
HETATM   42  N8  UNL     1      69.399  46.810  14.699  1.00  0.00    -0.295 NA
HETATM   43  C25 UNL     1      68.590  45.688  14.980  1.00  0.00     0.116 C 
HETATM   44  C26 UNL     1      70.787  46.630  15.140  1.00  0.00     0.116 C 
ENDBRANCH  40  42
ENDBRANCH  37  40
BRANCH  39  45
HETATM   45  O2  UNL     1      70.981  51.879  12.254  1.00  0.00    -0.355 OA
HETATM   46  C29 UNL     1      72.294  52.018  12.686  1.00  0.00     0.210 C 
ENDBRANCH  39  45
ENDBRANCH  33  34
ENDBRANCH  32  33
ENDBRANCH   6  32
TORSDOF 14
ENDMDL
MODEL 5
REMARK VINA RESULT: -8.335556245      2.330      4.310
REMARK  14 active torsions:
REMARK  status: ('A' for Active; 'I' for Inactive)
REMARK    1  A    between atoms: N1_2  and  C2_4 
REMARK    2  A    between atoms: C3_7  and  N3_8 
REMARK    3  A    between atoms: N3_8  and  C4_10 
REMARK    4  A    between atoms: C8_16  and  N5_17 
REMARK    5  A    between atoms: N5_17  and  C9_18 
REMARK    6  A    between atoms: C9_18  and  C10_19 
REMARK    7  A    between atoms: C10_19  and  C11_20 
REMARK    8  A    between atoms: C11_20  and  N6_21 
REMARK    9  A    between atoms: C17_29  and  O1_30 
REMARK   10  A    between atoms: O1_30  and  C18_31 
REMARK   11  A    between atoms: C18_31  and  C19_32 
REMARK   12  A    between atoms: C22_35  and  C23_36 
REMARK   13  A    between atoms: C23_36  and  N8_38 
REMARK   14  A    between atoms: C28_42  and  O2_43 
ROOT
HETATM    1  C2  UNL     1      71.345  57.846  16.696  1.00  0.00     0.681 A 
HETATM    2  N2  UNL     1      71.098  59.026  17.259  1.00  0.00    -0.177 N 
ATOM      3  H2  UNL     1      71.834  59.732  17.286  1.00  0.00     0.186 HD
HETATM    4  C3  UNL     1      69.873  59.310  17.803  1.00  0.00     0.126 A 
HETATM    5  C16 UNL     1      68.938  58.330  17.733  1.00  0.00     0.105 A 
HETATM    6  C17 UNL     1      69.160  57.066  17.146  1.00  0.00     0.161 A 
HETATM    7  N9  UNL     1      70.434  56.895  16.633  1.00  0.00    -0.171 N 
ATOM      8  H9  UNL     1      70.675  56.007  16.192  1.00  0.00     0.186 HD
ENDROOT
BRANCH   4   9
HETATM    9  N3  UNL     1      69.669  60.556  18.433  1.00  0.00    -0.328 N 
ATOM     10  H3  UNL     1      69.195  61.297  17.916  1.00  0.00     0.169 HD
BRANCH   9  11
HETATM   11  C4  UNL     1      70.060  60.792  19.641  1.00  0.00     0.111 A 
HETATM   12  C5  UNL     1      69.483  60.210  20.742  1.00  0.00     0.073 A 
HETATM   13  C6  UNL     1      69.993  60.410  22.022  1.00  0.00     0.013 A 
HETATM   14  C7  UNL     1      69.352  59.777  23.190  1.00  0.00     0.068 C 
HETATM   15  N4  UNL     1      71.064  61.186  22.161  1.00  0.00    -0.320 N 
HETATM   16  C8  UNL     1      71.675  61.792  21.092  1.00  0.00     0.260 A 
ATOM     17  H4  UNL     1      71.446  61.334  23.095  1.00  0.00     0.169 HD
HETATM   18  N7  UNL     1      71.128  61.562  19.838  1.00  0.00    -0.302 N 
ATOM     19  H7  UNL     1      71.564  62.003  19.029  1.00  0.00     0.171 HD
BRANCH  16  20
HETATM   20  N5  UNL     1      72.683  62.454  21.250  1.00  0.00    -0.388 NA
BRANCH  20  21
HETATM   21  C9  UNL     1      73.964  62.808  21.467  1.00  0.00     0.161 C 
BRANCH  21  22
HETATM   22  C10 UNL     1      74.939  62.486  20.367  1.00  0.00     0.089 C 
BRANCH  22  23
HETATM   23  C11 UNL     1      75.560  61.155  20.371  1.00  0.00     0.278 C 
BRANCH  23  24
HETATM   24  N6  UNL     1      75.441  60.449  19.118  1.00  0.00     0.088 N 
HETATM   25  C12 UNL     1      76.103  59.139  19.204  1.00  0.00     0.272 C 
HETATM   26  C13 UNL     1      75.169  58.394  20.152  1.00  0.00     0.032 C 
HETATM   27  C14 UNL     1      73.789  58.990  19.951  1.00  0.00     0.032 C 
HETATM   28  C15 UNL     1      74.074  60.005  18.861  1.00  0.00     0.272 C 
ENDBRANCH  23  24
ENDBRANCH  22  23
ENDBRANCH  21  22
ENDBRANCH  20  21
ENDBRANCH  16  20
ENDBRANCH   9  11
ENDBRANCH   4   9
BRANCH   1  29
HETATM   29  N1  UNL     1      72.550  57.643  16.218  1.00  0.00    -0.230 N 
HETATM   30  C1  UNL     1      73.489  56.795  16.943  1.00  0.00     0.165 C 
ATOM     31  H1  UNL     1      72.830  58.077  15.338  1.00  0.00     0.177 HD
ENDBRANCH   1  29
BRANCH   6  32
HETATM   32  O1  UNL     1      68.316  56.105  17.053  1.00  0.00    -0.331 OA
BRANCH  32  33
HETATM   33  C18 UNL     1      67.476  55.159  16.961  1.00  0.00     0.218 C 
BRANCH  33  34
HETATM   34  C19 UNL     1      67.533  54.154  15.842  1.00  0.00    -0.001 A 
HETATM   35  C20 UNL     1      66.498  53.903  14.991  1.00  0.00     0.013 A 
HETATM   36  C21 UNL     1      66.657  52.986  13.955  1.00  0.00     0.013 A 
HETATM   37  C22 UNL     1      67.801  52.286  13.705  1.00  0.00    -0.017 A 
HETATM   38  C27 UNL     1      68.855  52.563  14.602  1.00  0.00     0.050 A 
HETATM   39  C28 UNL     1      68.714  53.464  15.629  1.00  0.00     0.077 A 
BRANCH  37  40
HETATM   40  C23 UNL     1      68.007  51.349  12.597  1.00  0.00    -0.007 C 
HETATM   41  C24 UNL     1      69.430  51.105  12.190  1.00  0.00     0.062 C 
BRANCH  40  42
HETATM   42  N8  UNL     1      67.202  50.187  12.654  1.00  0.00    -0.295 NA
HETATM   43  C25 UNL     1      66.078  50.082  11.806  1.00  0.00     0.116 C 
HETATM   44  C26 UNL     1      68.006  48.960  12.680  1.00  0.00     0.116 C 
ENDBRANCH  40  42
ENDBRANCH  37  40
BRANCH  39  45
HETATM   45  O2  UNL     1      69.749  53.734  16.507  1.00  0.00    -0.355 OA
HETATM   46  C29 UNL     1      71.101  53.761  16.186  1.00  0.00     0.210 C 
ENDBRANCH  39  45
ENDBRANCH  33  34
ENDBRANCH  32  33
ENDBRANCH   6  32
TORSDOF 14
ENDMDL
