MODEL 1
REMARK VINA RESULT: -8.392406991      0.000      0.000
REMARK  13 active torsions:
REMARK  status: ('A' for Active; 'I' for Inactive)
REMARK    1  A    between atoms: C2_2  and  C3_3 
REMARK    2  A    between atoms: C3_3  and  N1_4 
REMARK    3  A    between atoms: N1_4  and  C4_6 
REMARK    4  A    between atoms: C5_9  and  N3_10 
REMARK    5  A    between atoms: C8_13  and  N4_14 
REMARK    6  A    between atoms: C18_26  and  N6_27 
REMARK    7  A    between atoms: N6_27  and  S1_29 
REMARK    8  A    between atoms: S1_29  and  N7_32 
REMARK    9  A    between atoms: N7_32  and  C19_34 
REMARK   10  A    between atoms: C19_34  and  C20_35 
REMARK   11  A    between atoms: C22_37  and  O3_38 
REMARK   12  A    between atoms: O3_38  and  C23_39 
REMARK   13  A    between atoms: C25_41  and  O4_42 
ROOT
HETATM    1  C4  UNL     1      71.650  56.644  17.722  1.00  0.00     0.132 A 
HETATM    2  N2  UNL     1      70.837  55.737  17.149  1.00  0.00    -0.176 N 
ATOM      3  H2  UNL     1      71.258  54.970  16.624  1.00  0.00     0.186 HD
HETATM    4  C5  UNL     1      69.499  55.793  17.234  1.00  0.00     0.682 A 
HETATM    5  N5  UNL     1      68.979  56.831  17.943  1.00  0.00    -0.191 N 
ATOM      6  H5  UNL     1      67.967  56.912  18.032  1.00  0.00     0.184 HD
HETATM    7  C16 UNL     1      69.762  57.753  18.530  1.00  0.00     0.068 A 
HETATM    8  C17 UNL     1      69.217  58.799  19.266  1.00  0.00     0.064 A 
HETATM    9  C18 UNL     1      69.993  59.749  19.888  1.00  0.00     0.082 A 
HETATM   10  C22 UNL     1      71.383  59.665  19.779  1.00  0.00     0.130 A 
HETATM   11  C25 UNL     1      71.953  58.635  19.053  1.00  0.00     0.120 A 
HETATM   12  C27 UNL     1      71.148  57.704  18.446  1.00  0.00     0.072 A 
ENDROOT
BRANCH   4  13
HETATM   13  N3  UNL     1      68.655  54.824  16.631  1.00  0.00    -0.217 N 
HETATM   14  C6  UNL     1      67.249  55.100  16.500  1.00  0.00     0.143 C 
HETATM   15  C7  UNL     1      66.714  54.420  15.274  1.00  0.00     0.045 C 
HETATM   16  C8  UNL     1      66.896  52.911  15.290  1.00  0.00     0.082 C 
HETATM   17  C14 UNL     1      68.012  52.564  16.196  1.00  0.00     0.045 C 
HETATM   18  C15 UNL     1      69.160  53.561  16.144  1.00  0.00     0.143 C 
BRANCH  16  19
HETATM   19  N4  UNL     1      66.933  52.432  13.987  1.00  0.00    -0.408 N 
HETATM   20  C9  UNL     1      65.749  51.867  13.444  1.00  0.00     0.117 C 
HETATM   21  C10 UNL     1      66.017  50.559  12.705  1.00  0.00     0.019 C 
HETATM   22  C11 UNL     1      67.340  50.044  13.276  1.00  0.00     0.003 C 
HETATM   23  C12 UNL     1      68.417  50.975  12.789  1.00  0.00     0.019 C 
HETATM   24  C13 UNL     1      68.085  52.412  13.212  1.00  0.00     0.117 C 
ENDBRANCH  16  19
ENDBRANCH   4  13
BRANCH   1  25
HETATM   25  N1  UNL     1      72.936  56.538  17.630  1.00  0.00    -0.372 N 
ATOM     26  H1  UNL     1      73.514  56.824  18.420  1.00  0.00     0.161 HD
BRANCH  25  27
HETATM   27  C3  UNL     1      73.582  56.024  16.431  1.00  0.00     0.147 C 
BRANCH  27  28
HETATM   28  C2  UNL     1      74.059  54.638  16.636  1.00  0.00    -0.018 C 
HETATM   29  C1  UNL     1      74.290  53.801  15.637  1.00  0.00     0.008 C 
ENDBRANCH  27  28
ENDBRANCH  25  27
ENDBRANCH   1  25
BRANCH  11  30
HETATM   30  O4  UNL     1      73.359  58.603  18.977  1.00  0.00    -0.352 OA
HETATM   31  C26 UNL     1      74.008  58.235  20.212  1.00  0.00     0.210 C 
ENDBRANCH  11  30
BRANCH   9  32
HETATM   32  N6  UNL     1      69.461  60.811  20.656  1.00  0.00    -0.265 N 
ATOM     33  H6  UNL     1      69.022  61.600  20.181  1.00  0.00     0.180 HD
BRANCH  32  34
HETATM   34  S1  UNL     1      69.535  60.803  22.357  1.00  0.00     0.319 S 
HETATM   35  O1  UNL     1      68.434  61.624  22.929  1.00  0.00    -0.183 OA
HETATM   36  O2  UNL     1      69.436  59.389  22.895  1.00  0.00    -0.183 OA
BRANCH  34  37
HETATM   37  N7  UNL     1      71.049  61.424  22.940  1.00  0.00    -0.303 N 
ATOM     38  H7  UNL     1      71.946  61.297  22.473  1.00  0.00     0.173 HD
BRANCH  37  39
HETATM   39  C19 UNL     1      70.860  62.148  24.183  1.00  0.00     0.133 C 
BRANCH  39  40
HETATM   40  C20 UNL     1      71.124  61.303  25.390  1.00  0.00     0.016 C 
HETATM   41  C21 UNL     1      72.510  61.659  25.943  1.00  0.00     0.006 C 
ENDBRANCH  39  40
ENDBRANCH  37  39
ENDBRANCH  34  37
ENDBRANCH  32  34
ENDBRANCH   9  32
BRANCH  10  42
HETATM   42  O3  UNL     1      72.217  60.586  20.382  1.00  0.00    -0.346 OA
BRANCH  42  43
HETATM   43  C23 UNL     1      72.741  61.735  19.760  1.00  0.00     0.171 C 
HETATM   44  C24 UNL     1      74.121  62.070  20.289  1.00  0.00     0.034 C 
ENDBRANCH  42  43
ENDBRANCH  10  42
TORSDOF 13
ENDMDL
MODEL 2
REMARK VINA RESULT: -8.060395657      1.130      1.248
REMARK  13 active torsions:
REMARK  status: ('A' for Active; 'I' for Inactive)
REMARK    1  A    between atoms: C2_2  and  C3_3 
REMARK    2  A    between atoms: C3_3  and  N1_4 
REMARK    3  A    between atoms: N1_4  and  C4_6 
REMARK    4  A    between atoms: C5_9  and  N3_10 
REMARK    5  A    between atoms: C8_13  and  N4_14 
REMARK    6  A    between atoms: C18_26  and  N6_27 
REMARK    7  A    between atoms: N6_27  and  S1_29 
REMARK    8  A    between atoms: S1_29  and  N7_32 
REMARK    9  A    between atoms: N7_32  and  C19_34 
REMARK   10  A    between atoms: C19_34  and  C20_35 
REMARK   11  A    between atoms: C22_37  and  O3_38 
REMARK   12  A    between atoms: O3_38  and  C23_39 
REMARK   13  A    between atoms: C25_41  and  O4_42 
ROOT
HETATM    1  C4  UNL     1      71.461  56.447  18.005  1.00  0.00     0.132 A 
HETATM    2  N2  UNL     1      70.669  55.551  17.385  1.00  0.00    -0.176 N 
ATOM      3  H2  UNL     1      71.094  54.699  17.019  1.00  0.00     0.186 HD
HETATM    4  C5  UNL     1      69.349  55.726  17.225  1.00  0.00     0.682 A 
HETATM    5  N5  UNL     1      68.823  56.876  17.727  1.00  0.00    -0.191 N 
ATOM      6  H5  UNL     1      67.824  57.049  17.626  1.00  0.00     0.184 HD
HETATM    7  C16 UNL     1      69.584  57.791  18.353  1.00  0.00     0.068 A 
HETATM    8  C17 UNL     1      69.030  58.953  18.876  1.00  0.00     0.064 A 
HETATM    9  C18 UNL     1      69.781  59.900  19.533  1.00  0.00     0.082 A 
HETATM   10  C22 UNL     1      71.154  59.691  19.682  1.00  0.00     0.130 A 
HETATM   11  C25 UNL     1      71.733  58.543  19.171  1.00  0.00     0.120 A 
HETATM   12  C27 UNL     1      70.953  57.619  18.523  1.00  0.00     0.072 A 
ENDROOT
BRANCH   4  13
HETATM   13  N3  UNL     1      68.526  54.768  16.577  1.00  0.00    -0.217 N 
HETATM   14  C6  UNL     1      67.143  55.081  16.329  1.00  0.00     0.143 C 
HETATM   15  C7  UNL     1      66.686  54.389  15.078  1.00  0.00     0.045 C 
HETATM   16  C8  UNL     1      66.821  52.877  15.139  1.00  0.00     0.082 C 
HETATM   17  C14 UNL     1      67.851  52.518  16.137  1.00  0.00     0.045 C 
HETATM   18  C15 UNL     1      69.029  53.480  16.157  1.00  0.00     0.143 C 
BRANCH  16  19
HETATM   19  N4  UNL     1      66.945  52.367  13.853  1.00  0.00    -0.408 N 
HETATM   20  C9  UNL     1      65.803  51.780  13.248  1.00  0.00     0.117 C 
HETATM   21  C10 UNL     1      66.127  50.457  12.560  1.00  0.00     0.019 C 
HETATM   22  C11 UNL     1      67.414  49.967  13.228  1.00  0.00     0.003 C 
HETATM   23  C12 UNL     1      68.514  50.895  12.788  1.00  0.00     0.019 C 
HETATM   24  C13 UNL     1      68.145  52.339  13.155  1.00  0.00     0.117 C 
ENDBRANCH  16  19
ENDBRANCH   4  13
BRANCH   1  25
HETATM   25  N1  UNL     1      72.727  56.227  18.154  1.00  0.00    -0.372 N 
ATOM     26  H1  UNL     1      73.128  56.258  19.091  1.00  0.00     0.161 HD
BRANCH  25  27
HETATM   27  C3  UNL     1      73.596  55.936  17.022  1.00  0.00     0.147 C 
BRANCH  27  28
HETATM   28  C2  UNL     1      73.659  54.480  16.760  1.00  0.00    -0.018 C 
HETATM   29  C1  UNL     1      74.630  53.917  16.059  1.00  0.00     0.008 C 
ENDBRANCH  27  28
ENDBRANCH  25  27
ENDBRANCH   1  25
BRANCH  11  30
HETATM   30  O4  UNL     1      73.121  58.387  19.350  1.00  0.00    -0.352 OA
HETATM   31  C26 UNL     1      73.924  59.107  18.392  1.00  0.00     0.210 C 
ENDBRANCH  11  30
BRANCH   9  32
HETATM   32  N6  UNL     1      69.236  61.082  20.089  1.00  0.00    -0.265 N 
ATOM     33  H6  UNL     1      68.946  61.838  19.468  1.00  0.00     0.180 HD
BRANCH  32  34
HETATM   34  S1  UNL     1      69.053  61.271  21.771  1.00  0.00     0.319 S 
HETATM   35  O1  UNL     1      70.007  62.291  22.285  1.00  0.00    -0.183 OA
HETATM   36  O2  UNL     1      67.638  61.690  22.116  1.00  0.00    -0.183 OA
BRANCH  34  37
HETATM   37  N7  UNL     1      69.324  59.781  22.621  1.00  0.00    -0.303 N 
ATOM     38  H7  UNL     1      69.181  58.852  22.224  1.00  0.00     0.173 HD
BRANCH  37  39
HETATM   39  C19 UNL     1      69.780  60.040  23.974  1.00  0.00     0.133 C 
BRANCH  39  40
HETATM   40  C20 UNL     1      69.018  59.259  25.000  1.00  0.00     0.016 C 
HETATM   41  C21 UNL     1      68.329  60.244  25.952  1.00  0.00     0.006 C 
ENDBRANCH  39  40
ENDBRANCH  37  39
ENDBRANCH  34  37
ENDBRANCH  32  34
ENDBRANCH   9  32
BRANCH  10  42
HETATM   42  O3  UNL     1      71.963  60.602  20.333  1.00  0.00    -0.346 OA
BRANCH  42  43
HETATM   43  C23 UNL     1      72.448  61.800  19.776  1.00  0.00     0.171 C 
HETATM   44  C24 UNL     1      73.726  62.249  20.454  1.00  0.00     0.034 C 
ENDBRANCH  42  43
ENDBRANCH  10  42
TORSDOF 13
ENDMDL
MODEL 3
REMARK VINA RESULT: -7.984047728      0.953      1.408
REMARK  13 active torsions:
REMARK  status: ('A' for Active; 'I' for Inactive)
REMARK    1  A    between atoms: C2_2  and  C3_3 
REMARK    2  A    between atoms: C3_3  and  N1_4 
REMARK    3  A    between atoms: N1_4  and  C4_6 
REMARK    4  A    between atoms: C5_9  and  N3_10 
REMARK    5  A    between atoms: C8_13  and  N4_14 
REMARK    6  A    between atoms: C18_26  and  N6_27 
REMARK    7  A    between atoms: N6_27  and  S1_29 
REMARK    8  A    between atoms: S1_29  and  N7_32 
REMARK    9  A    between atoms: N7_32  and  C19_34 
REMARK   10  A    between atoms: C19_34  and  C20_35 
REMARK   11  A    between atoms: C22_37  and  O3_38 
REMARK   12  A    between atoms: O3_38  and  C23_39 
REMARK   13  A    between atoms: C25_41  and  O4_42 
ROOT
HETATM    1  C4  UNL     1      71.901  56.642  17.655  1.00  0.00     0.132 A 
HETATM    2  N2  UNL     1      71.040  55.930  16.903  1.00  0.00    -0.176 N 
ATOM      3  H2  UNL     1      71.371  55.068  16.469  1.00  0.00     0.186 HD
HETATM    4  C5  UNL     1      69.767  56.300  16.696  1.00  0.00     0.682 A 
HETATM    5  N5  UNL     1      69.366  57.455  17.292  1.00  0.00    -0.191 N 
ATOM      6  H5  UNL     1      68.407  57.773  17.160  1.00  0.00     0.184 HD
HETATM    7  C16 UNL     1      70.199  58.189  18.051  1.00  0.00     0.068 A 
HETATM    8  C17 UNL     1      69.770  59.359  18.668  1.00  0.00     0.064 A 
HETATM    9  C18 UNL     1      70.595  60.123  19.461  1.00  0.00     0.082 A 
HETATM   10  C22 UNL     1      71.915  59.712  19.656  1.00  0.00     0.130 A 
HETATM   11  C25 UNL     1      72.370  58.553  19.054  1.00  0.00     0.120 A 
HETATM   12  C27 UNL     1      71.519  57.815  18.271  1.00  0.00     0.072 A 
ENDROOT
BRANCH   4  13
HETATM   13  N3  UNL     1      68.869  55.535  15.907  1.00  0.00    -0.217 N 
HETATM   14  C6  UNL     1      69.139  55.359  14.504  1.00  0.00     0.143 C 
HETATM   15  C7  UNL     1      68.609  54.029  14.052  1.00  0.00     0.045 C 
HETATM   16  C8  UNL     1      67.114  53.869  14.266  1.00  0.00     0.082 C 
HETATM   17  C14 UNL     1      66.672  54.787  15.337  1.00  0.00     0.045 C 
HETATM   18  C15 UNL     1      67.684  54.924  16.464  1.00  0.00     0.143 C 
BRANCH  16  19
HETATM   19  N4  UNL     1      66.801  52.520  14.384  1.00  0.00    -0.408 N 
HETATM   20  C9  UNL     1      67.768  51.653  14.955  1.00  0.00     0.117 C 
HETATM   21  C10 UNL     1      67.928  50.359  14.161  1.00  0.00     0.019 C 
HETATM   22  C11 UNL     1      67.412  50.689  12.759  1.00  0.00     0.003 C 
HETATM   23  C12 UNL     1      65.924  50.875  12.874  1.00  0.00     0.019 C 
HETATM   24  C13 UNL     1      65.620  51.966  13.909  1.00  0.00     0.117 C 
ENDBRANCH  16  19
ENDBRANCH   4  13
BRANCH   1  25
HETATM   25  N1  UNL     1      73.114  56.236  17.843  1.00  0.00    -0.372 N 
ATOM     26  H1  UNL     1      73.506  56.266  18.785  1.00  0.00     0.161 HD
BRANCH  25  27
HETATM   27  C3  UNL     1      73.937  55.736  16.751  1.00  0.00     0.147 C 
BRANCH  27  28
HETATM   28  C2  UNL     1      73.922  54.256  16.707  1.00  0.00    -0.018 C 
HETATM   29  C1  UNL     1      73.756  53.572  15.586  1.00  0.00     0.008 C 
ENDBRANCH  27  28
ENDBRANCH  25  27
ENDBRANCH   1  25
BRANCH  11  30
HETATM   30  O4  UNL     1      73.711  58.190  19.285  1.00  0.00    -0.352 OA
HETATM   31  C26 UNL     1      74.668  58.941  18.509  1.00  0.00     0.210 C 
ENDBRANCH  11  30
BRANCH   9  32
HETATM   32  N6  UNL     1      70.175  61.306  20.112  1.00  0.00    -0.265 N 
ATOM     33  H6  UNL     1      70.157  62.183  19.591  1.00  0.00     0.180 HD
BRANCH  32  34
HETATM   34  S1  UNL     1      69.700  61.300  21.747  1.00  0.00     0.319 S 
HETATM   35  O1  UNL     1      68.779  62.436  22.024  1.00  0.00    -0.183 OA
HETATM   36  O2  UNL     1      69.010  59.998  22.104  1.00  0.00    -0.183 OA
BRANCH  34  37
HETATM   37  N7  UNL     1      71.063  61.419  22.817  1.00  0.00    -0.303 N 
ATOM     38  H7  UNL     1      71.990  61.044  22.618  1.00  0.00     0.173 HD
BRANCH  37  39
HETATM   39  C19 UNL     1      70.700  62.126  24.031  1.00  0.00     0.133 C 
BRANCH  39  40
HETATM   40  C20 UNL     1      71.121  61.399  25.270  1.00  0.00     0.016 C 
HETATM   41  C21 UNL     1      70.201  60.187  25.462  1.00  0.00     0.006 C 
ENDBRANCH  39  40
ENDBRANCH  37  39
ENDBRANCH  34  37
ENDBRANCH  32  34
ENDBRANCH   9  32
BRANCH  10  42
HETATM   42  O3  UNL     1      72.793  60.434  20.441  1.00  0.00    -0.346 OA
BRANCH  42  43
HETATM   43  C23 UNL     1      73.345  61.683  20.104  1.00  0.00     0.171 C 
HETATM   44  C24 UNL     1      74.637  61.940  20.854  1.00  0.00     0.034 C 
ENDBRANCH  42  43
ENDBRANCH  10  42
TORSDOF 13
ENDMDL
MODEL 4
REMARK VINA RESULT: -7.979101461      1.297      1.704
REMARK  13 active torsions:
REMARK  status: ('A' for Active; 'I' for Inactive)
REMARK    1  A    between atoms: C2_2  and  C3_3 
REMARK    2  A    between atoms: C3_3  and  N1_4 
REMARK    3  A    between atoms: N1_4  and  C4_6 
REMARK    4  A    between atoms: C5_9  and  N3_10 
REMARK    5  A    between atoms: C8_13  and  N4_14 
REMARK    6  A    between atoms: C18_26  and  N6_27 
REMARK    7  A    between atoms: N6_27  and  S1_29 
REMARK    8  A    between atoms: S1_29  and  N7_32 
REMARK    9  A    between atoms: N7_32  and  C19_34 
REMARK   10  A    between atoms: C19_34  and  C20_35 
REMARK   11  A    between atoms: C22_37  and  O3_38 
REMARK   12  A    between atoms: O3_38  and  C23_39 
REMARK   13  A    between atoms: C25_41  and  O4_42 
ROOT
HETATM    1  C4  UNL     1      71.707  56.422  17.654  1.00  0.00     0.132 A 
HETATM    2  N2  UNL     1      70.878  55.529  17.080  1.00  0.00    -0.176 N 
ATOM      3  H2  UNL     1      71.284  54.698  16.647  1.00  0.00     0.186 HD
HETATM    4  C5  UNL     1      69.546  55.678  17.050  1.00  0.00     0.682 A 
HETATM    5  N5  UNL     1      69.047  56.799  17.638  1.00  0.00    -0.191 N 
ATOM      6  H5  UNL     1      68.039  56.952  17.637  1.00  0.00     0.184 HD
HETATM    7  C16 UNL     1      69.845  57.710  18.221  1.00  0.00     0.068 A 
HETATM    8  C17 UNL     1      69.320  58.842  18.834  1.00  0.00     0.064 A 
HETATM    9  C18 UNL     1      70.110  59.784  19.450  1.00  0.00     0.082 A 
HETATM   10  C22 UNL     1      71.495  59.602  19.463  1.00  0.00     0.130 A 
HETATM   11  C25 UNL     1      72.046  58.484  18.861  1.00  0.00     0.120 A 
HETATM   12  C27 UNL     1      71.226  57.564  18.257  1.00  0.00     0.072 A 
ENDROOT
BRANCH   4  13
HETATM   13  N3  UNL     1      68.685  54.723  16.449  1.00  0.00    -0.217 N 
HETATM   14  C6  UNL     1      67.294  55.047  16.266  1.00  0.00     0.143 C 
HETATM   15  C7  UNL     1      66.771  54.350  15.043  1.00  0.00     0.045 C 
HETATM   16  C8  UNL     1      66.897  52.837  15.108  1.00  0.00     0.082 C 
HETATM   17  C14 UNL     1      67.971  52.476  16.057  1.00  0.00     0.045 C 
HETATM   18  C15 UNL     1      69.156  53.428  16.013  1.00  0.00     0.143 C 
BRANCH  16  19
HETATM   19  N4  UNL     1      66.955  52.318  13.821  1.00  0.00    -0.408 N 
HETATM   20  C9  UNL     1      65.772  51.766  13.263  1.00  0.00     0.117 C 
HETATM   21  C10 UNL     1      66.026  50.431  12.571  1.00  0.00     0.019 C 
HETATM   22  C11 UNL     1      67.320  49.902  13.191  1.00  0.00     0.003 C 
HETATM   23  C12 UNL     1      68.432  50.791  12.705  1.00  0.00     0.019 C 
HETATM   24  C13 UNL     1      68.125  52.247  13.078  1.00  0.00     0.117 C 
ENDBRANCH  16  19
ENDBRANCH   4  13
BRANCH   1  25
HETATM   25  N1  UNL     1      72.985  56.226  17.676  1.00  0.00    -0.372 N 
ATOM     26  H1  UNL     1      73.493  56.370  18.550  1.00  0.00     0.161 HD
BRANCH  25  27
HETATM   27  C3  UNL     1      73.721  55.806  16.492  1.00  0.00     0.147 C 
BRANCH  27  28
HETATM   28  C2  UNL     1      74.045  54.362  16.552  1.00  0.00    -0.018 C 
HETATM   29  C1  UNL     1      74.321  53.643  15.476  1.00  0.00     0.008 C 
ENDBRANCH  27  28
ENDBRANCH  25  27
ENDBRANCH   1  25
BRANCH  11  30
HETATM   30  O4  UNL     1      73.447  58.355  18.905  1.00  0.00    -0.352 OA
HETATM   31  C26 UNL     1      73.981  58.155  20.231  1.00  0.00     0.210 C 
ENDBRANCH  11  30
BRANCH   9  32
HETATM   32  N6  UNL     1      69.597  60.934  20.094  1.00  0.00    -0.265 N 
ATOM     33  H6  UNL     1      69.299  61.731  19.531  1.00  0.00     0.180 HD
BRANCH  32  34
HETATM   34  S1  UNL     1      69.465  61.019  21.790  1.00  0.00     0.319 S 
HETATM   35  O1  UNL     1      69.579  59.661  22.388  1.00  0.00    -0.183 OA
HETATM   36  O2  UNL     1      70.541  61.914  22.371  1.00  0.00    -0.183 OA
BRANCH  34  37
HETATM   37  N7  UNL     1      67.953  61.716  22.285  1.00  0.00    -0.303 N 
ATOM     38  H7  UNL     1      67.097  61.699  21.731  1.00  0.00     0.173 HD
BRANCH  37  39
HETATM   39  C19 UNL     1      68.077  62.327  23.596  1.00  0.00     0.133 C 
BRANCH  39  40
HETATM   40  C20 UNL     1      66.999  63.330  23.869  1.00  0.00     0.016 C 
HETATM   41  C21 UNL     1      66.094  63.424  22.635  1.00  0.00     0.006 C 
ENDBRANCH  39  40
ENDBRANCH  37  39
ENDBRANCH  34  37
ENDBRANCH  32  34
ENDBRANCH   9  32
BRANCH  10  42
HETATM   42  O3  UNL     1      72.343  60.510  20.067  1.00  0.00    -0.346 OA
BRANCH  42  43
HETATM   43  C23 UNL     1      72.947  61.607  19.425  1.00  0.00     0.171 C 
HETATM   44  C24 UNL     1      74.305  61.918  20.019  1.00  0.00     0.034 C 
ENDBRANCH  42  43
ENDBRANCH  10  42
TORSDOF 13
ENDMDL
MODEL 5
REMARK VINA RESULT: -7.826125907      3.090     10.081
REMARK  13 active torsions:
REMARK  status: ('A' for Active; 'I' for Inactive)
REMARK    1  A    between atoms: C2_2  and  C3_3 
REMARK    2  A    between atoms: C3_3  and  N1_4 
REMARK    3  A    between atoms: N1_4  and  C4_6 
REMARK    4  A    between atoms: C5_9  and  N3_10 
REMARK    5  A    between atoms: C8_13  and  N4_14 
REMARK    6  A    between atoms: C18_26  and  N6_27 
REMARK    7  A    between atoms: N6_27  and  S1_29 
REMARK    8  A    between atoms: S1_29  and  N7_32 
REMARK    9  A    between atoms: N7_32  and  C19_34 
REMARK   10  A    between atoms: C19_34  and  C20_35 
REMARK   11  A    between atoms: C22_37  and  O3_38 
REMARK   12  A    between atoms: O3_38  and  C23_39 
REMARK   13  A    between atoms: C25_41  and  O4_42 
ROOT
HETATM    1  C4  UNL     1      72.252  58.650  18.727  1.00  0.00     0.132 A 
HETATM    2  N2  UNL     1      71.814  59.306  19.819  1.00  0.00    -0.176 N 
ATOM      3  H2  UNL     1      72.500  59.771  20.414  1.00  0.00     0.186 HD
HETATM    4  C5  UNL     1      70.519  59.377  20.162  1.00  0.00     0.682 A 
HETATM    5  N5  UNL     1      69.638  58.742  19.341  1.00  0.00    -0.191 N 
ATOM      6  H5  UNL     1      68.644  58.770  19.566  1.00  0.00     0.184 HD
HETATM    7  C16 UNL     1      70.041  58.080  18.243  1.00  0.00     0.068 A 
HETATM    8  C17 UNL     1      69.128  57.451  17.404  1.00  0.00     0.064 A 
HETATM    9  C18 UNL     1      69.509  56.778  16.267  1.00  0.00     0.082 A 
HETATM   10  C22 UNL     1      70.865  56.721  15.937  1.00  0.00     0.130 A 
HETATM   11  C25 UNL     1      71.797  57.337  16.753  1.00  0.00     0.120 A 
HETATM   12  C27 UNL     1      71.380  58.001  17.880  1.00  0.00     0.072 A 
ENDROOT
BRANCH   4  13
HETATM   13  N3  UNL     1      70.072  60.079  21.311  1.00  0.00    -0.217 N 
HETATM   14  C6  UNL     1      69.232  59.404  22.266  1.00  0.00     0.143 C 
HETATM   15  C7  UNL     1      69.488  59.953  23.639  1.00  0.00     0.045 C 
HETATM   16  C8  UNL     1      69.223  61.445  23.753  1.00  0.00     0.082 C 
HETATM   17  C14 UNL     1      69.328  62.064  22.414  1.00  0.00     0.045 C 
HETATM   18  C15 UNL     1      70.428  61.457  21.557  1.00  0.00     0.143 C 
BRANCH  16  19
HETATM   19  N4  UNL     1      69.985  61.977  24.785  1.00  0.00    -0.408 N 
HETATM   20  C9  UNL     1      70.153  63.386  24.841  1.00  0.00     0.117 C 
HETATM   21  C10 UNL     1      71.599  63.786  25.116  1.00  0.00     0.019 C 
HETATM   22  C11 UNL     1      72.434  62.578  24.688  1.00  0.00     0.003 C 
HETATM   23  C12 UNL     1      72.155  61.482  25.680  1.00  0.00     0.019 C 
HETATM   24  C13 UNL     1      70.648  61.199  25.724  1.00  0.00     0.117 C 
ENDBRANCH  16  19
ENDBRANCH   4  13
BRANCH   1  25
HETATM   25  N1  UNL     1      73.510  58.626  18.424  1.00  0.00    -0.372 N 
ATOM     26  H1  UNL     1      73.843  57.937  17.749  1.00  0.00     0.161 HD
BRANCH  25  27
HETATM   27  C3  UNL     1      74.463  59.551  19.020  1.00  0.00     0.147 C 
BRANCH  27  28
HETATM   28  C2  UNL     1      75.554  58.823  19.706  1.00  0.00    -0.018 C 
HETATM   29  C1  UNL     1      75.525  58.534  20.997  1.00  0.00     0.008 C 
ENDBRANCH  27  28
ENDBRANCH  25  27
ENDBRANCH   1  25
BRANCH  11  30
HETATM   30  O4  UNL     1      73.149  57.244  16.371  1.00  0.00    -0.352 OA
HETATM   31  C26 UNL     1      73.814  56.052  16.839  1.00  0.00     0.210 C 
ENDBRANCH  11  30
BRANCH   9  32
HETATM   32  N6  UNL     1      68.596  56.147  15.390  1.00  0.00    -0.265 N 
ATOM     33  H6  UNL     1      68.362  56.597  14.505  1.00  0.00     0.180 HD
BRANCH  32  34
HETATM   34  S1  UNL     1      67.880  54.652  15.778  1.00  0.00     0.319 S 
HETATM   35  O1  UNL     1      68.768  53.869  16.681  1.00  0.00    -0.183 OA
HETATM   36  O2  UNL     1      66.536  54.855  16.451  1.00  0.00    -0.183 OA
BRANCH  34  37
HETATM   37  N7  UNL     1      67.557  53.703  14.360  1.00  0.00    -0.303 N 
ATOM     38  H7  UNL     1      68.259  53.434  13.670  1.00  0.00     0.173 HD
BRANCH  37  39
HETATM   39  C19 UNL     1      66.153  53.346  14.291  1.00  0.00     0.133 C 
BRANCH  39  40
HETATM   40  C20 UNL     1      65.925  52.024  13.626  1.00  0.00     0.016 C 
HETATM   41  C21 UNL     1      67.240  51.567  12.983  1.00  0.00     0.006 C 
ENDBRANCH  39  40
ENDBRANCH  37  39
ENDBRANCH  34  37
ENDBRANCH  32  34
ENDBRANCH   9  32
BRANCH  10  42
HETATM   42  O3  UNL     1      71.313  56.062  14.808  1.00  0.00    -0.346 OA
BRANCH  42  43
HETATM   43  C23 UNL     1      71.542  54.677  14.714  1.00  0.00     0.171 C 
HETATM   44  C24 UNL     1      72.834  54.379  13.980  1.00  0.00     0.034 C 
ENDBRANCH  42  43
ENDBRANCH  10  42
TORSDOF 13
ENDMDL
