MODEL 1
REMARK VINA RESULT: -9.327397391      0.000      0.000
REMARK  14 active torsions:
REMARK  status: ('A' for Active; 'I' for Inactive)
REMARK    1  A    between atoms: N1_1  and  C1_5 
REMARK    2  A    between atoms: C1_5  and  C2_6 
REMARK    3  A    between atoms: C1_5  and  C24_33 
REMARK    4  A    between atoms: C2_6  and  C11_20 
REMARK    5  A    between atoms: N2_7  and  N3_9 
REMARK       I    between atoms: N3_9  and  C3_10 
REMARK    6  A    between atoms: C3_10  and  C4_12 
REMARK    7  A    between atoms: C4_12  and  O2_13 
REMARK    8  A    between atoms: O2_13  and  C5_14 
REMARK    9  A    between atoms: C11_20  and  C12_21 
REMARK   10  A    between atoms: C11_20  and  C18_27 
REMARK   11  A    between atoms: C27_36  and  O3_37 
REMARK   12  A    between atoms: O3_37  and  C28_38 
REMARK   13  A    between atoms: C28_38  and  C29_39 
REMARK   14  A    between atoms: C29_39  and  N4_40 
ROOT
HETATM    1  C2  UNL     1      71.881 113.016  16.390  1.00  0.00     0.064 C 
HETATM    2  N2  UNL     1      72.590 113.135  17.447  1.00  0.00    -0.237 N 
ATOM      3  H2  UNL     1      72.008 113.432  18.230  1.00  0.00     0.201 HD
ENDROOT
BRANCH   1   4
HETATM    4  C1  UNL     1      72.533 112.586  15.141  1.00  0.00     0.265 C 
BRANCH   4   5
HETATM    5  N1  UNL     1      71.821 113.054  13.947  1.00  0.00    -0.066 N 
ATOM      6  H13 UNL     1      70.842 112.765  13.966  1.00  0.00     0.275 HD
ATOM      7  H12 UNL     1      71.693 114.066  13.968  1.00  0.00     0.275 HD
ATOM      8  H11 UNL     1      72.274 112.759  13.082  1.00  0.00     0.275 HD
ENDBRANCH   4   5
BRANCH   4   9
HETATM    9  C24 UNL     1      72.803 111.129  15.092  1.00  0.00    -0.022 A 
HETATM   10  C25 UNL     1      74.021 110.570  15.375  1.00  0.00     0.012 A 
HETATM   11  C26 UNL     1      74.283 109.236  15.330  1.00  0.00     0.037 A 
HETATM   12  C27 UNL     1      73.242 108.360  14.969  1.00  0.00     0.068 A 
HETATM   13  C33 UNL     1      71.989 108.967  14.679  1.00  0.00     0.037 A 
HETATM   14  C34 UNL     1      71.763 110.301  14.734  1.00  0.00     0.012 A 
BRANCH  12  15
HETATM   15  O3  UNL     1      73.424 107.088  14.908  1.00  0.00    -0.350 OA
BRANCH  15  16
HETATM   16  C28 UNL     1      73.578 105.841  14.607  1.00  0.00     0.196 C 
BRANCH  16  17
HETATM   17  C29 UNL     1      72.555 104.826  15.128  1.00  0.00     0.164 C 
BRANCH  17  18
HETATM   18  N4  UNL     1      71.554 104.511  14.102  1.00  0.00    -0.224 N 
HETATM   19  C30 UNL     1      70.423 105.164  14.101  1.00  0.00     0.679 A 
HETATM   20  N5  UNL     1      70.125 106.112  14.992  1.00  0.00    -0.188 N 
HETATM   21  N7  UNL     1      69.532 104.837  13.153  1.00  0.00    -0.188 N 
HETATM   22  C31 UNL     1      68.951 106.759  14.976  1.00  0.00     0.199 A 
ATOM     23  H5  UNL     1      70.811 106.350  15.708  1.00  0.00     0.185 HD
HETATM   24  N6  UNL     1      68.040 106.448  14.034  1.00  0.00    -0.348 N 
HETATM   25  C32 UNL     1      68.342 105.497  13.140  1.00  0.00     0.199 A 
ATOM     26  H6  UNL     1      67.140 106.925  14.003  1.00  0.00     0.167 HD
ATOM     27  H7  UNL     1      69.741 104.116  12.462  1.00  0.00     0.185 HD
ATOM     28  H4  UNL     1      71.739 103.795  13.400  1.00  0.00     0.177 HD
ENDBRANCH  17  18
ENDBRANCH  16  17
ENDBRANCH  15  16
ENDBRANCH  12  15
ENDBRANCH   4   9
ENDBRANCH   1   4
BRANCH   1  29
HETATM   29  C11 UNL     1      70.449 113.325  16.413  1.00  0.00     0.102 C 
BRANCH  29  30
HETATM   30  C12 UNL     1      70.009 114.285  17.426  1.00  0.00    -0.044 A 
HETATM   31  C13 UNL     1      69.934 115.615  17.108  1.00  0.00     0.008 A 
HETATM   32  C14 UNL     1      69.554 116.610  18.010  1.00  0.00     0.001 A 
HETATM   33  C15 UNL     1      69.242 116.201  19.286  1.00  0.00     0.000 A 
HETATM   34  C16 UNL     1      69.314 114.869  19.616  1.00  0.00     0.001 A 
HETATM   35  C17 UNL     1      69.691 113.901  18.710  1.00  0.00     0.008 A 
ENDBRANCH  29  30
BRANCH  29  36
HETATM   36  C18 UNL     1      69.784 112.007  16.770  1.00  0.00    -0.044 A 
HETATM   37  C19 UNL     1      70.327 111.142  17.672  1.00  0.00     0.008 A 
HETATM   38  C20 UNL     1      69.687 109.947  17.946  1.00  0.00     0.001 A 
HETATM   39  C21 UNL     1      68.496 109.631  17.304  1.00  0.00     0.000 A 
HETATM   40  C22 UNL     1      67.964 110.522  16.397  1.00  0.00     0.001 A 
HETATM   41  C23 UNL     1      68.591 111.715  16.114  1.00  0.00     0.008 A 
ENDBRANCH  29  36
ENDBRANCH   1  29
BRANCH   2  42
HETATM   42  N3  UNL     1      73.737 113.004  17.806  1.00  0.00    -0.285 NA
HETATM   43  C3  UNL     1      75.089 112.849  18.230  1.00  0.00     0.336 C 
HETATM   44  O1  UNL     1      75.822 111.851  18.077  1.00  0.00    -0.253 OA
BRANCH  43  45
HETATM   45  C4  UNL     1      75.763 113.998  18.955  1.00  0.00     0.296 C 
BRANCH  45  46
HETATM   46  O2  UNL     1      75.438 115.234  18.411  1.00  0.00    -0.341 OA
BRANCH  46  47
HETATM   47  C5  UNL     1      74.859 116.308  19.073  1.00  0.00     0.069 A 
HETATM   48  C6  UNL     1      75.520 117.318  19.689  1.00  0.00     0.037 A 
HETATM   49  C7  UNL     1      74.851 118.331  20.319  1.00  0.00     0.003 A 
HETATM   50  C8  UNL     1      73.477 118.381  20.359  1.00  0.00     0.000 A 
HETATM   51  C9  UNL     1      72.803 117.355  19.732  1.00  0.00     0.003 A 
HETATM   52  C10 UNL     1      73.459 116.328  19.095  1.00  0.00     0.037 A 
ENDBRANCH  46  47
ENDBRANCH  45  46
ENDBRANCH  43  45
ENDBRANCH   2  42
TORSDOF 14
ENDMDL
MODEL 2
REMARK VINA RESULT: -9.191209962      2.616      9.374
REMARK  14 active torsions:
REMARK  status: ('A' for Active; 'I' for Inactive)
REMARK    1  A    between atoms: N1_1  and  C1_5 
REMARK    2  A    between atoms: C1_5  and  C2_6 
REMARK    3  A    between atoms: C1_5  and  C24_33 
REMARK    4  A    between atoms: C2_6  and  C11_20 
REMARK    5  A    between atoms: N2_7  and  N3_9 
REMARK       I    between atoms: N3_9  and  C3_10 
REMARK    6  A    between atoms: C3_10  and  C4_12 
REMARK    7  A    between atoms: C4_12  and  O2_13 
REMARK    8  A    between atoms: O2_13  and  C5_14 
REMARK    9  A    between atoms: C11_20  and  C12_21 
REMARK   10  A    between atoms: C11_20  and  C18_27 
REMARK   11  A    between atoms: C27_36  and  O3_37 
REMARK   12  A    between atoms: O3_37  and  C28_38 
REMARK   13  A    between atoms: C28_38  and  C29_39 
REMARK   14  A    between atoms: C29_39  and  N4_40 
ROOT
HETATM    1  C2  UNL     1      71.671 110.932  16.429  1.00  0.00     0.064 C 
HETATM    2  N2  UNL     1      72.182 109.785  16.195  1.00  0.00    -0.237 N 
ATOM      3  H2  UNL     1      71.616 109.053  16.625  1.00  0.00     0.201 HD
ENDROOT
BRANCH   1   4
HETATM    4  C1  UNL     1      72.333 112.130  15.886  1.00  0.00     0.265 C 
BRANCH   4   5
HETATM    5  N1  UNL     1      72.803 111.936  14.510  1.00  0.00    -0.066 N 
ATOM      6  H13 UNL     1      73.193 111.002  14.383  1.00  0.00     0.275 HD
ATOM      7  H12 UNL     1      72.019 111.875  13.860  1.00  0.00     0.275 HD
ATOM      8  H11 UNL     1      73.467 112.653  14.220  1.00  0.00     0.275 HD
ENDBRANCH   4   5
BRANCH   4   9
HETATM    9  C24 UNL     1      73.401 112.661  16.768  1.00  0.00    -0.022 A 
HETATM   10  C25 UNL     1      74.224 111.872  17.527  1.00  0.00     0.012 A 
HETATM   11  C26 UNL     1      75.204 112.346  18.342  1.00  0.00     0.037 A 
HETATM   12  C27 UNL     1      75.397 113.738  18.421  1.00  0.00     0.068 A 
HETATM   13  C33 UNL     1      74.529 114.533  17.623  1.00  0.00     0.037 A 
HETATM   14  C34 UNL     1      73.562 114.027  16.821  1.00  0.00     0.012 A 
BRANCH  12  15
HETATM   15  O3  UNL     1      76.307 114.249  19.172  1.00  0.00    -0.350 OA
BRANCH  15  16
HETATM   16  C28 UNL     1      77.226 114.942  19.760  1.00  0.00     0.196 C 
BRANCH  16  17
HETATM   17  C29 UNL     1      77.459 116.389  19.312  1.00  0.00     0.164 C 
BRANCH  17  18
HETATM   18  N4  UNL     1      77.467 117.302  20.460  1.00  0.00    -0.224 N 
HETATM   19  C30 UNL     1      76.361 117.915  20.789  1.00  0.00     0.679 A 
HETATM   20  N5  UNL     1      75.212 117.753  20.130  1.00  0.00    -0.188 N 
HETATM   21  N7  UNL     1      76.417 118.749  21.837  1.00  0.00    -0.188 N 
HETATM   22  C31 UNL     1      74.093 118.403  20.481  1.00  0.00     0.199 A 
ATOM     23  H5  UNL     1      75.184 117.115  19.334  1.00  0.00     0.185 HD
HETATM   24  N6  UNL     1      74.124 119.247  21.530  1.00  0.00    -0.348 N 
HETATM   25  C32 UNL     1      75.279 119.407  22.190  1.00  0.00     0.199 A 
ATOM     26  H6  UNL     1      73.286 119.753  21.815  1.00  0.00     0.167 HD
ATOM     27  H7  UNL     1      77.285 118.886  22.354  1.00  0.00     0.185 HD
ATOM     28  H4  UNL     1      78.322 117.456  20.993  1.00  0.00     0.177 HD
ENDBRANCH  17  18
ENDBRANCH  16  17
ENDBRANCH  15  16
ENDBRANCH  12  15
ENDBRANCH   4   9
ENDBRANCH   1   4
BRANCH   1  29
HETATM   29  C11 UNL     1      70.460 111.058  17.246  1.00  0.00     0.102 C 
BRANCH  29  30
HETATM   30  C12 UNL     1      69.191 110.792  16.569  1.00  0.00    -0.044 A 
HETATM   31  C13 UNL     1      68.019 110.888  17.271  1.00  0.00     0.008 A 
HETATM   32  C14 UNL     1      66.761 110.627  16.724  1.00  0.00     0.001 A 
HETATM   33  C15 UNL     1      66.728 110.254  15.400  1.00  0.00     0.000 A 
HETATM   34  C16 UNL     1      67.899 110.155  14.687  1.00  0.00     0.001 A 
HETATM   35  C17 UNL     1      69.131 110.417  15.245  1.00  0.00     0.008 A 
ENDBRANCH  29  30
BRANCH  29  36
HETATM   36  C18 UNL     1      70.423 112.524  17.642  1.00  0.00    -0.044 A 
HETATM   37  C19 UNL     1      70.003 113.497  16.784  1.00  0.00     0.008 A 
HETATM   38  C20 UNL     1      70.007 114.818  17.193  1.00  0.00     0.001 A 
HETATM   39  C21 UNL     1      70.437 115.151  18.470  1.00  0.00     0.000 A 
HETATM   40  C22 UNL     1      70.856 114.152  19.321  1.00  0.00     0.001 A 
HETATM   41  C23 UNL     1      70.858 112.832  18.928  1.00  0.00     0.008 A 
ENDBRANCH  29  36
ENDBRANCH   1  29
BRANCH   2  42
HETATM   42  N3  UNL     1      73.127 109.297  15.620  1.00  0.00    -0.285 NA
HETATM   43  C3  UNL     1      74.242 108.724  14.942  1.00  0.00     0.336 C 
HETATM   44  O1  UNL     1      75.401 109.182  14.867  1.00  0.00    -0.253 OA
BRANCH  43  45
HETATM   45  C4  UNL     1      74.055 107.409  14.211  1.00  0.00     0.296 C 
BRANCH  45  46
HETATM   46  O2  UNL     1      72.975 107.435  13.338  1.00  0.00    -0.341 OA
BRANCH  46  47
HETATM   47  C5  UNL     1      71.689 106.976  13.590  1.00  0.00     0.069 A 
HETATM   48  C6  UNL     1      71.357 105.914  14.364  1.00  0.00     0.037 A 
HETATM   49  C7  UNL     1      70.053 105.542  14.546  1.00  0.00     0.003 A 
HETATM   50  C8  UNL     1      69.014 106.223  13.956  1.00  0.00     0.000 A 
HETATM   51  C9  UNL     1      69.350 107.304  13.169  1.00  0.00     0.003 A 
HETATM   52  C10 UNL     1      70.654 107.692  12.975  1.00  0.00     0.037 A 
ENDBRANCH  46  47
ENDBRANCH  45  46
ENDBRANCH  43  45
ENDBRANCH   2  42
TORSDOF 14
ENDMDL
MODEL 3
REMARK VINA RESULT: -9.163224341      2.186      8.597
REMARK  14 active torsions:
REMARK  status: ('A' for Active; 'I' for Inactive)
REMARK    1  A    between atoms: N1_1  and  C1_5 
REMARK    2  A    between atoms: C1_5  and  C2_6 
REMARK    3  A    between atoms: C1_5  and  C24_33 
REMARK    4  A    between atoms: C2_6  and  C11_20 
REMARK    5  A    between atoms: N2_7  and  N3_9 
REMARK       I    between atoms: N3_9  and  C3_10 
REMARK    6  A    between atoms: C3_10  and  C4_12 
REMARK    7  A    between atoms: C4_12  and  O2_13 
REMARK    8  A    between atoms: O2_13  and  C5_14 
REMARK    9  A    between atoms: C11_20  and  C12_21 
REMARK   10  A    between atoms: C11_20  and  C18_27 
REMARK   11  A    between atoms: C27_36  and  O3_37 
REMARK   12  A    between atoms: O3_37  and  C28_38 
REMARK   13  A    between atoms: C28_38  and  C29_39 
REMARK   14  A    between atoms: C29_39  and  N4_40 
ROOT
HETATM    1  C2  UNL     1      71.504 111.590  15.507  1.00  0.00     0.064 C 
HETATM    2  N2  UNL     1      71.556 110.314  15.542  1.00  0.00    -0.237 N 
ATOM      3  H2  UNL     1      70.663 109.934  15.856  1.00  0.00     0.201 HD
ENDROOT
BRANCH   1   4
HETATM    4  C1  UNL     1      72.696 112.339  15.071  1.00  0.00     0.265 C 
BRANCH   4   5
HETATM    5  N1  UNL     1      73.539 111.564  14.154  1.00  0.00    -0.066 N 
ATOM      6  H13 UNL     1      73.329 110.568  14.214  1.00  0.00     0.275 HD
ATOM      7  H12 UNL     1      73.273 111.729  13.183  1.00  0.00     0.275 HD
ATOM      8  H11 UNL     1      74.533 111.739  14.297  1.00  0.00     0.275 HD
ENDBRANCH   4   5
BRANCH   4   9
HETATM    9  C24 UNL     1      73.475 112.908  16.196  1.00  0.00    -0.022 A 
HETATM   10  C25 UNL     1      73.447 114.231  16.550  1.00  0.00     0.012 A 
HETATM   11  C26 UNL     1      74.160 114.766  17.577  1.00  0.00     0.037 A 
HETATM   12  C27 UNL     1      74.987 113.916  18.335  1.00  0.00     0.068 A 
HETATM   13  C33 UNL     1      74.998 112.548  17.946  1.00  0.00     0.037 A 
HETATM   14  C34 UNL     1      74.274 112.048  16.917  1.00  0.00     0.012 A 
BRANCH  12  15
HETATM   15  O3  UNL     1      75.686 114.359  19.320  1.00  0.00    -0.350 OA
BRANCH  15  16
HETATM   16  C28 UNL     1      76.485 114.954  20.142  1.00  0.00     0.196 C 
BRANCH  16  17
HETATM   17  C29 UNL     1      76.034 116.271  20.785  1.00  0.00     0.164 C 
BRANCH  17  18
HETATM   18  N4  UNL     1      75.345 117.125  19.812  1.00  0.00    -0.224 N 
HETATM   19  C30 UNL     1      74.078 117.391  19.988  1.00  0.00     0.679 A 
HETATM   20  N5  UNL     1      73.369 116.923  21.017  1.00  0.00    -0.188 N 
HETATM   21  N7  UNL     1      73.486 118.167  19.068  1.00  0.00    -0.188 N 
HETATM   22  C31 UNL     1      72.067 117.202  21.169  1.00  0.00     0.199 A 
ATOM     23  H5  UNL     1      73.833 116.334  21.710  1.00  0.00     0.185 HD
HETATM   24  N6  UNL     1      71.449 117.978  20.258  1.00  0.00    -0.348 N 
HETATM   25  C32 UNL     1      72.163 118.447  19.226  1.00  0.00     0.199 A 
ATOM     26  H6  UNL     1      70.459 118.203  20.351  1.00  0.00     0.167 HD
ATOM     27  H7  UNL     1      74.010 118.535  18.274  1.00  0.00     0.185 HD
ATOM     28  H4  UNL     1      75.847 117.505  19.010  1.00  0.00     0.177 HD
ENDBRANCH  17  18
ENDBRANCH  16  17
ENDBRANCH  15  16
ENDBRANCH  12  15
ENDBRANCH   4   9
ENDBRANCH   1   4
BRANCH   1  29
HETATM   29  C11 UNL     1      70.290 112.300  15.919  1.00  0.00     0.102 C 
BRANCH  29  30
HETATM   30  C12 UNL     1      70.346 112.987  17.209  1.00  0.00    -0.044 A 
HETATM   31  C13 UNL     1      69.819 114.246  17.326  1.00  0.00     0.008 A 
HETATM   32  C14 UNL     1      69.848 114.994  18.505  1.00  0.00     0.001 A 
HETATM   33  C15 UNL     1      70.449 114.408  19.595  1.00  0.00     0.000 A 
HETATM   34  C16 UNL     1      70.980 113.145  19.488  1.00  0.00     0.001 A 
HETATM   35  C17 UNL     1      70.941 112.421  18.315  1.00  0.00     0.008 A 
ENDBRANCH  29  30
BRANCH  29  36
HETATM   36  C18 UNL     1      69.248 111.205  16.074  1.00  0.00    -0.044 A 
HETATM   37  C19 UNL     1      69.341 110.247  17.039  1.00  0.00     0.008 A 
HETATM   38  C20 UNL     1      68.372 109.264  17.123  1.00  0.00     0.001 A 
HETATM   39  C21 UNL     1      67.311 109.253  16.228  1.00  0.00     0.000 A 
HETATM   40  C22 UNL     1      67.236 110.232  15.260  1.00  0.00     0.001 A 
HETATM   41  C23 UNL     1      68.194 111.217  15.165  1.00  0.00     0.008 A 
ENDBRANCH  29  36
ENDBRANCH   1  29
BRANCH   2  42
HETATM   42  N3  UNL     1      72.335 109.417  15.318  1.00  0.00    -0.285 NA
HETATM   43  C3  UNL     1      73.255 108.361  15.054  1.00  0.00     0.336 C 
HETATM   44  O1  UNL     1      74.227 108.009  15.753  1.00  0.00    -0.253 OA
BRANCH  43  45
HETATM   45  C4  UNL     1      73.079 107.539  13.792  1.00  0.00     0.296 C 
BRANCH  45  46
HETATM   46  O2  UNL     1      72.186 106.488  13.961  1.00  0.00    -0.341 OA
BRANCH  46  47
HETATM   47  C5  UNL     1      70.802 106.552  13.882  1.00  0.00     0.069 A 
HETATM   48  C6  UNL     1      70.080 107.522  13.269  1.00  0.00     0.037 A 
HETATM   49  C7  UNL     1      68.713 107.493  13.253  1.00  0.00     0.003 A 
HETATM   50  C8  UNL     1      67.999 106.482  13.854  1.00  0.00     0.000 A 
HETATM   51  C9  UNL     1      68.732 105.494  14.477  1.00  0.00     0.003 A 
HETATM   52  C10 UNL     1      70.106 105.508  14.504  1.00  0.00     0.037 A 
ENDBRANCH  46  47
ENDBRANCH  45  46
ENDBRANCH  43  45
ENDBRANCH   2  42
TORSDOF 14
ENDMDL
MODEL 4
REMARK VINA RESULT: -9.077958986      2.597      9.117
REMARK  14 active torsions:
REMARK  status: ('A' for Active; 'I' for Inactive)
REMARK    1  A    between atoms: N1_1  and  C1_5 
REMARK    2  A    between atoms: C1_5  and  C2_6 
REMARK    3  A    between atoms: C1_5  and  C24_33 
REMARK    4  A    between atoms: C2_6  and  C11_20 
REMARK    5  A    between atoms: N2_7  and  N3_9 
REMARK       I    between atoms: N3_9  and  C3_10 
REMARK    6  A    between atoms: C3_10  and  C4_12 
REMARK    7  A    between atoms: C4_12  and  O2_13 
REMARK    8  A    between atoms: O2_13  and  C5_14 
REMARK    9  A    between atoms: C11_20  and  C12_21 
REMARK   10  A    between atoms: C11_20  and  C18_27 
REMARK   11  A    between atoms: C27_36  and  O3_37 
REMARK   12  A    between atoms: O3_37  and  C28_38 
REMARK   13  A    between atoms: C28_38  and  C29_39 
REMARK   14  A    between atoms: C29_39  and  N4_40 
ROOT
HETATM    1  C2  UNL     1      71.627 111.488  15.575  1.00  0.00     0.064 C 
HETATM    2  N2  UNL     1      71.712 110.215  15.644  1.00  0.00    -0.237 N 
ATOM      3  H2  UNL     1      70.831 109.820  15.973  1.00  0.00     0.201 HD
ENDROOT
BRANCH   1   4
HETATM    4  C1  UNL     1      72.795 112.255  15.111  1.00  0.00     0.265 C 
BRANCH   4   5
HETATM    5  N1  UNL     1      73.574 111.533  14.099  1.00  0.00    -0.066 N 
ATOM      6  H13 UNL     1      72.963 111.078  13.420  1.00  0.00     0.275 HD
ATOM      7  H12 UNL     1      74.057 112.181  13.476  1.00  0.00     0.275 HD
ATOM      8  H11 UNL     1      74.225 110.866  14.511  1.00  0.00     0.275 HD
ENDBRANCH   4   5
BRANCH   4   9
HETATM    9  C24 UNL     1      73.648 112.752  16.218  1.00  0.00    -0.022 A 
HETATM   10  C25 UNL     1      74.495 111.957  16.943  1.00  0.00     0.012 A 
HETATM   11  C26 UNL     1      75.278 112.399  17.963  1.00  0.00     0.037 A 
HETATM   12  C27 UNL     1      75.226 113.763  18.306  1.00  0.00     0.068 A 
HETATM   13  C33 UNL     1      74.339 114.566  17.538  1.00  0.00     0.037 A 
HETATM   14  C34 UNL     1      73.571 114.092  16.528  1.00  0.00     0.012 A 
BRANCH  12  15
HETATM   15  O3  UNL     1      75.943 114.245  19.260  1.00  0.00    -0.350 OA
BRANCH  15  16
HETATM   16  C28 UNL     1      76.821 114.782  20.040  1.00  0.00     0.196 C 
BRANCH  16  17
HETATM   17  C29 UNL     1      77.399 116.152  19.666  1.00  0.00     0.164 C 
BRANCH  17  18
HETATM   18  N4  UNL     1      77.454 117.039  20.833  1.00  0.00    -0.224 N 
HETATM   19  C30 UNL     1      76.417 117.784  21.110  1.00  0.00     0.679 A 
HETATM   20  N5  UNL     1      75.300 117.783  20.381  1.00  0.00    -0.188 N 
HETATM   21  N7  UNL     1      76.515 118.588  22.179  1.00  0.00    -0.188 N 
HETATM   22  C31 UNL     1      74.255 118.566  20.680  1.00  0.00     0.199 A 
ATOM     23  H5  UNL     1      75.240 117.166  19.570  1.00  0.00     0.185 HD
HETATM   24  N6  UNL     1      74.328 119.383  21.749  1.00  0.00    -0.348 N 
HETATM   25  C32 UNL     1      75.451 119.382  22.480  1.00  0.00     0.199 A 
ATOM     26  H6  UNL     1      73.547 119.989  21.996  1.00  0.00     0.167 HD
ATOM     27  H7  UNL     1      77.360 118.603  22.750  1.00  0.00     0.185 HD
ATOM     28  H4  UNL     1      78.287 117.073  21.419  1.00  0.00     0.177 HD
ENDBRANCH  17  18
ENDBRANCH  16  17
ENDBRANCH  15  16
ENDBRANCH  12  15
ENDBRANCH   4   9
ENDBRANCH   1   4
BRANCH   1  29
HETATM   29  C11 UNL     1      70.396 112.177  15.974  1.00  0.00     0.102 C 
BRANCH  29  30
HETATM   30  C12 UNL     1      70.440 112.898  17.246  1.00  0.00    -0.044 A 
HETATM   31  C13 UNL     1      69.879 114.144  17.334  1.00  0.00     0.008 A 
HETATM   32  C14 UNL     1      69.894 114.924  18.493  1.00  0.00     0.001 A 
HETATM   33  C15 UNL     1      70.516 114.382  19.595  1.00  0.00     0.000 A 
HETATM   34  C16 UNL     1      71.082 113.132  19.516  1.00  0.00     0.001 A 
HETATM   35  C17 UNL     1      71.056 112.378  18.363  1.00  0.00     0.008 A 
ENDBRANCH  29  30
BRANCH  29  36
HETATM   36  C18 UNL     1      69.383 111.060  16.163  1.00  0.00    -0.044 A 
HETATM   37  C19 UNL     1      69.566 110.061  17.071  1.00  0.00     0.008 A 
HETATM   38  C20 UNL     1      68.620 109.060  17.188  1.00  0.00     0.001 A 
HETATM   39  C21 UNL     1      67.489 109.073  16.382  1.00  0.00     0.000 A 
HETATM   40  C22 UNL     1      67.323 110.093  15.471  1.00  0.00     0.001 A 
HETATM   41  C23 UNL     1      68.258 111.097  15.344  1.00  0.00     0.008 A 
ENDBRANCH  29  36
ENDBRANCH   1  29
BRANCH   2  42
HETATM   42  N3  UNL     1      72.514 109.333  15.439  1.00  0.00    -0.285 NA
HETATM   43  C3  UNL     1      73.460 108.295  15.198  1.00  0.00     0.336 C 
HETATM   44  O1  UNL     1      74.661 108.268  15.538  1.00  0.00    -0.253 OA
BRANCH  43  45
HETATM   45  C4  UNL     1      73.009 107.058  14.446  1.00  0.00     0.296 C 
BRANCH  45  46
HETATM   46  O2  UNL     1      72.044 107.340  13.487  1.00  0.00    -0.341 OA
BRANCH  46  47
HETATM   47  C5  UNL     1      70.686 107.064  13.567  1.00  0.00     0.069 A 
HETATM   48  C6  UNL     1      69.680 107.881  13.172  1.00  0.00     0.037 A 
HETATM   49  C7  UNL     1      68.369 107.513  13.299  1.00  0.00     0.003 A 
HETATM   50  C8  UNL     1      68.002 106.299  13.830  1.00  0.00     0.000 A 
HETATM   51  C9  UNL     1      69.025 105.465  14.231  1.00  0.00     0.003 A 
HETATM   52  C10 UNL     1      70.347 105.819  14.112  1.00  0.00     0.037 A 
ENDBRANCH  46  47
ENDBRANCH  45  46
ENDBRANCH  43  45
ENDBRANCH   2  42
TORSDOF 14
ENDMDL
MODEL 5
REMARK VINA RESULT: -9.071230387      2.756      8.945
REMARK  14 active torsions:
REMARK  status: ('A' for Active; 'I' for Inactive)
REMARK    1  A    between atoms: N1_1  and  C1_5 
REMARK    2  A    between atoms: C1_5  and  C2_6 
REMARK    3  A    between atoms: C1_5  and  C24_33 
REMARK    4  A    between atoms: C2_6  and  C11_20 
REMARK    5  A    between atoms: N2_7  and  N3_9 
REMARK       I    between atoms: N3_9  and  C3_10 
REMARK    6  A    between atoms: C3_10  and  C4_12 
REMARK    7  A    between atoms: C4_12  and  O2_13 
REMARK    8  A    between atoms: O2_13  and  C5_14 
REMARK    9  A    between atoms: C11_20  and  C12_21 
REMARK   10  A    between atoms: C11_20  and  C18_27 
REMARK   11  A    between atoms: C27_36  and  O3_37 
REMARK   12  A    between atoms: O3_37  and  C28_38 
REMARK   13  A    between atoms: C28_38  and  C29_39 
REMARK   14  A    between atoms: C29_39  and  N4_40 
ROOT
HETATM    1  C2  UNL     1      72.138 112.092  17.739  1.00  0.00     0.064 C 
HETATM    2  N2  UNL     1      72.900 111.070  17.819  1.00  0.00    -0.237 N 
ATOM      3  H2  UNL     1      72.385 110.276  18.201  1.00  0.00     0.201 HD
ENDROOT
BRANCH   1   4
HETATM    4  C1  UNL     1      72.687 113.349  17.202  1.00  0.00     0.265 C 
BRANCH   4   5
HETATM    5  N1  UNL     1      73.286 113.176  15.873  1.00  0.00    -0.066 N 
ATOM      6  H13 UNL     1      74.226 113.571  15.840  1.00  0.00     0.275 HD
ATOM      7  H12 UNL     1      73.513 112.197  15.697  1.00  0.00     0.275 HD
ATOM      8  H11 UNL     1      72.701 113.557  15.130  1.00  0.00     0.275 HD
ENDBRANCH   4   5
BRANCH   4   9
HETATM    9  C24 UNL     1      73.607 114.035  18.141  1.00  0.00    -0.022 A 
HETATM   10  C25 UNL     1      73.367 114.166  19.483  1.00  0.00     0.012 A 
HETATM   11  C26 UNL     1      74.200 114.797  20.354  1.00  0.00     0.037 A 
HETATM   12  C27 UNL     1      75.391 115.357  19.856  1.00  0.00     0.068 A 
HETATM   13  C33 UNL     1      75.615 115.207  18.460  1.00  0.00     0.037 A 
HETATM   14  C34 UNL     1      74.763 114.572  17.620  1.00  0.00     0.012 A 
BRANCH  12  15
HETATM   15  O3  UNL     1      76.222 115.966  20.628  1.00  0.00    -0.350 OA
BRANCH  15  16
HETATM   16  C28 UNL     1      76.886 116.752  21.409  1.00  0.00     0.196 C 
BRANCH  16  17
HETATM   17  C29 UNL     1      76.300 118.129  21.739  1.00  0.00     0.164 C 
BRANCH  17  18
HETATM   18  N4  UNL     1      74.925 118.013  22.236  1.00  0.00    -0.224 N 
HETATM   19  C30 UNL     1      73.935 118.129  21.392  1.00  0.00     0.679 A 
HETATM   20  N5  UNL     1      74.109 118.350  20.087  1.00  0.00    -0.188 N 
HETATM   21  N7  UNL     1      72.695 118.026  21.891  1.00  0.00    -0.188 N 
HETATM   22  C31 UNL     1      73.076 118.477  19.243  1.00  0.00     0.199 A 
ATOM     23  H5  UNL     1      75.059 118.426  19.721  1.00  0.00     0.185 HD
HETATM   24  N6  UNL     1      71.820 118.379  19.721  1.00  0.00    -0.348 N 
HETATM   25  C32 UNL     1      71.648 118.156  21.030  1.00  0.00     0.199 A 
ATOM     26  H6  UNL     1      71.017 118.473  19.099  1.00  0.00     0.167 HD
ATOM     27  H7  UNL     1      72.540 117.857  22.885  1.00  0.00     0.185 HD
ATOM     28  H4  UNL     1      74.744 117.843  23.225  1.00  0.00     0.177 HD
ENDBRANCH  17  18
ENDBRANCH  16  17
ENDBRANCH  15  16
ENDBRANCH  12  15
ENDBRANCH   4   9
ENDBRANCH   1   4
BRANCH   1  29
HETATM   29  C11 UNL     1      70.747 112.025  18.196  1.00  0.00     0.102 C 
BRANCH  29  30
HETATM   30  C12 UNL     1      69.820 111.281  17.344  1.00  0.00    -0.044 A 
HETATM   31  C13 UNL     1      69.484 109.994  17.675  1.00  0.00     0.008 A 
HETATM   32  C14 UNL     1      68.632 109.193  16.913  1.00  0.00     0.001 A 
HETATM   33  C15 UNL     1      68.113 109.755  15.769  1.00  0.00     0.000 A 
HETATM   34  C16 UNL     1      68.443 111.045  15.429  1.00  0.00     0.001 A 
HETATM   35  C17 UNL     1      69.287 111.820  16.194  1.00  0.00     0.008 A 
ENDBRANCH  29  30
BRANCH  29  36
HETATM   36  C18 UNL     1      70.271 113.467  18.171  1.00  0.00    -0.044 A 
HETATM   37  C19 UNL     1      70.210 114.191  17.018  1.00  0.00     0.008 A 
HETATM   38  C20 UNL     1      69.786 115.506  17.056  1.00  0.00     0.001 A 
HETATM   39  C21 UNL     1      69.424 116.087  18.265  1.00  0.00     0.000 A 
HETATM   40  C22 UNL     1      69.492 115.336  19.419  1.00  0.00     0.001 A 
HETATM   41  C23 UNL     1      69.913 114.025  19.395  1.00  0.00     0.008 A 
ENDBRANCH  29  36
ENDBRANCH   1  29
BRANCH   2  42
HETATM   42  N3  UNL     1      74.042 110.751  17.582  1.00  0.00    -0.285 NA
HETATM   43  C3  UNL     1      75.389 110.377  17.303  1.00  0.00     0.336 C 
HETATM   44  O1  UNL     1      76.398 110.596  18.004  1.00  0.00    -0.253 OA
BRANCH  43  45
HETATM   45  C4  UNL     1      75.686 109.626  16.020  1.00  0.00     0.296 C 
BRANCH  45  46
HETATM   46  O2  UNL     1      74.687 109.782  15.067  1.00  0.00    -0.341 OA
BRANCH  46  47
HETATM   47  C5  UNL     1      73.688 108.872  14.751  1.00  0.00     0.069 A 
HETATM   48  C6  UNL     1      73.868 107.564  14.445  1.00  0.00     0.037 A 
HETATM   49  C7  UNL     1      72.811 106.749  14.143  1.00  0.00     0.003 A 
HETATM   50  C8  UNL     1      71.516 107.211  14.135  1.00  0.00     0.000 A 
HETATM   51  C9  UNL     1      71.332 108.542  14.446  1.00  0.00     0.003 A 
HETATM   52  C10 UNL     1      72.381 109.374  14.751  1.00  0.00     0.037 A 
ENDBRANCH  46  47
ENDBRANCH  45  46
ENDBRANCH  43  45
ENDBRANCH   2  42
TORSDOF 14
ENDMDL
