MODEL 1
REMARK VINA RESULT: -9.565476451      0.000      0.000
REMARK  13 active torsions:
REMARK  status: ('A' for Active; 'I' for Inactive)
REMARK    1  A    between atoms: C2_2  and  N1_3 
REMARK    2  A    between atoms: N1_3  and  C3_4 
REMARK    3  A    between atoms: N1_3  and  C9_10 
REMARK    4  A    between atoms: C3_4  and  C4_5 
REMARK    5  A    between atoms: C4_5  and  C5_6 
REMARK    6  A    between atoms: C12_15  and  N3_16 
REMARK    7  A    between atoms: N3_16  and  C13_18 
REMARK    8  A    between atoms: C17_22  and  O1_23 
REMARK    9  A    between atoms: O1_23  and  C18_24 
REMARK   10  A    between atoms: C18_24  and  C19_25 
REMARK   11  A    between atoms: C19_25  and  N4_26 
REMARK   12  A    between atoms: C24_34  and  N6_35 
REMARK   13  A    between atoms: N6_35  and  C25_36 
ROOT
HETATM    1  C9  UNL     1       9.766  18.043  65.278  1.00  0.00     0.113 A 
HETATM    2  C10 UNL     1      10.635  18.726  66.112  1.00  0.00     0.054 A 
HETATM    3  C11 UNL     1      10.145  19.103  67.469  1.00  0.00     0.071 C 
HETATM    4  N2  UNL     1      11.866  19.023  65.687  1.00  0.00    -0.193 N 
ATOM      5  H2  UNL     1      12.488  19.527  66.319  1.00  0.00     0.184 HD
HETATM    6  C12 UNL     1      12.325  18.691  64.468  1.00  0.00     0.685 A 
HETATM    7  N5  UNL     1      11.515  18.039  63.651  1.00  0.00    -0.162 N 
ATOM      8  H5  UNL     1      11.852  17.781  62.724  1.00  0.00     0.187 HD
HETATM    9  C24 UNL     1      10.215  17.692  64.020  1.00  0.00     0.222 A 
ENDROOT
BRANCH   6  10
HETATM   10  N3  UNL     1      13.536  19.034  64.154  1.00  0.00    -0.192 N 
ATOM     11  H3  UNL     1      14.138  18.302  63.776  1.00  0.00     0.184 HD
BRANCH  10  12
HETATM   12  C13 UNL     1      14.096  20.306  64.281  1.00  0.00     0.051 A 
HETATM   13  C14 UNL     1      13.948  21.038  65.430  1.00  0.00     0.039 A 
HETATM   14  C15 UNL     1      14.514  22.278  65.523  1.00  0.00    -0.025 A 
HETATM   15  C16 UNL     1      14.354  23.076  66.768  1.00  0.00     0.051 C 
HETATM   16  C17 UNL     1      15.259  22.860  64.482  1.00  0.00     0.096 A 
HETATM   17  C22 UNL     1      15.400  22.117  63.339  1.00  0.00     0.070 A 
HETATM   18 CL1  UNL     1      16.273  22.730  61.943  1.00  0.00    -0.081 Cl
HETATM   19  C23 UNL     1      14.817  20.848  63.250  1.00  0.00     0.056 A 
BRANCH  16  20
HETATM   20  O1  UNL     1      15.799  24.119  64.654  1.00  0.00    -0.347 OA
BRANCH  20  21
HETATM   21  C18 UNL     1      17.108  24.461  64.952  1.00  0.00     0.206 C 
BRANCH  21  22
HETATM   22  C19 UNL     1      17.416  25.907  64.767  1.00  0.00     0.297 C 
BRANCH  22  23
HETATM   23  N4  UNL     1      18.733  26.068  64.101  1.00  0.00     0.082 N 
HETATM   24  C20 UNL     1      18.802  27.467  63.684  1.00  0.00     0.309 C 
HETATM   25  C21 UNL     1      18.705  25.223  62.925  1.00  0.00     0.309 C 
ENDBRANCH  22  23
ENDBRANCH  21  22
ENDBRANCH  20  21
ENDBRANCH  16  20
ENDBRANCH  10  12
ENDBRANCH   6  10
BRANCH   9  26
HETATM   26  N6  UNL     1       9.523  17.128  63.229  1.00  0.00    -0.383 NA
BRANCH  26  27
HETATM   27  C25 UNL     1       8.774  16.522  62.322  1.00  0.00     0.133 A 
HETATM   28  C26 UNL     1       7.530  15.961  62.678  1.00  0.00     0.070 A 
HETATM   29  C27 UNL     1       6.718  15.326  61.780  1.00  0.00     0.037 A 
HETATM   30 CL2  UNL     1       5.180  14.656  62.329  1.00  0.00    -0.084 Cl
HETATM   31  C28 UNL     1       7.092  15.207  60.462  1.00  0.00     0.026 A 
HETATM   32  C29 UNL     1       8.308  15.747  60.081  1.00  0.00     0.029 A 
HETATM   33  C30 UNL     1       9.130  16.384  60.961  1.00  0.00     0.074 A 
HETATM   34 CL3  UNL     1      10.656  17.058  60.466  1.00  0.00    -0.081 Cl
ENDBRANCH  26  27
ENDBRANCH   9  26
BRANCH   1  35
HETATM   35  N1  UNL     1       8.470  17.733  65.713  1.00  0.00    -0.375 N 
BRANCH  35  36
HETATM   36  C2  UNL     1       8.078  16.475  66.311  1.00  0.00     0.119 C 
HETATM   37  C1  UNL     1       7.900  16.508  67.786  1.00  0.00     0.026 C 
ENDBRANCH  35  36
BRANCH  35  38
HETATM   38  C3  UNL     1       7.407  18.691  65.521  1.00  0.00     0.127 C 
BRANCH  38  39
HETATM   39  C4  UNL     1       6.040  18.146  65.357  1.00  0.00     0.047 C 
BRANCH  39  40
HETATM   40  C5  UNL     1       5.103  19.309  65.595  1.00  0.00    -0.023 C 
HETATM   41  C6  UNL     1       3.864  19.332  65.109  1.00  0.00    -0.091 C 
HETATM   42  C7  UNL     1       3.430  18.161  64.311  1.00  0.00     0.042 C 
HETATM   43  C8  UNL     1       2.934  20.453  65.330  1.00  0.00     0.042 C 
ENDBRANCH  39  40
ENDBRANCH  38  39
ENDBRANCH  35  38
ENDBRANCH   1  35
TORSDOF 13
ENDMDL
MODEL 2
REMARK VINA RESULT: -9.402564914      0.898      1.386
REMARK  13 active torsions:
REMARK  status: ('A' for Active; 'I' for Inactive)
REMARK    1  A    between atoms: C2_2  and  N1_3 
REMARK    2  A    between atoms: N1_3  and  C3_4 
REMARK    3  A    between atoms: N1_3  and  C9_10 
REMARK    4  A    between atoms: C3_4  and  C4_5 
REMARK    5  A    between atoms: C4_5  and  C5_6 
REMARK    6  A    between atoms: C12_15  and  N3_16 
REMARK    7  A    between atoms: N3_16  and  C13_18 
REMARK    8  A    between atoms: C17_22  and  O1_23 
REMARK    9  A    between atoms: O1_23  and  C18_24 
REMARK   10  A    between atoms: C18_24  and  C19_25 
REMARK   11  A    between atoms: C19_25  and  N4_26 
REMARK   12  A    between atoms: C24_34  and  N6_35 
REMARK   13  A    between atoms: N6_35  and  C25_36 
ROOT
HETATM    1  C9  UNL     1       9.741  18.015  65.289  1.00  0.00     0.113 A 
HETATM    2  C10 UNL     1      10.622  18.690  66.118  1.00  0.00     0.054 A 
HETATM    3  C11 UNL     1      10.139  19.082  67.473  1.00  0.00     0.071 C 
HETATM    4  N2  UNL     1      11.856  18.967  65.690  1.00  0.00    -0.193 N 
ATOM      5  H2  UNL     1      12.487  19.466  66.318  1.00  0.00     0.184 HD
HETATM    6  C12 UNL     1      12.309  18.622  64.472  1.00  0.00     0.685 A 
HETATM    7  N5  UNL     1      11.489  17.976  63.660  1.00  0.00    -0.162 N 
ATOM      8  H5  UNL     1      11.820  17.708  62.734  1.00  0.00     0.187 HD
HETATM    9  C24 UNL     1      10.184  17.650  64.032  1.00  0.00     0.222 A 
ENDROOT
BRANCH   6  10
HETATM   10  N3  UNL     1      13.524  18.945  64.154  1.00  0.00    -0.192 N 
ATOM     11  H3  UNL     1      14.127  18.194  63.818  1.00  0.00     0.184 HD
BRANCH  10  12
HETATM   12  C13 UNL     1      14.088  20.220  64.226  1.00  0.00     0.051 A 
HETATM   13  C14 UNL     1      14.776  20.755  63.168  1.00  0.00     0.039 A 
HETATM   14  C15 UNL     1      15.311  22.008  63.270  1.00  0.00    -0.025 A 
HETATM   15  C16 UNL     1      16.058  22.591  62.124  1.00  0.00     0.051 C 
HETATM   16  C17 UNL     1      15.193  22.799  64.426  1.00  0.00     0.096 A 
HETATM   17  C22 UNL     1      14.503  22.252  65.476  1.00  0.00     0.070 A 
HETATM   18 CL1  UNL     1      14.307  23.109  66.998  1.00  0.00    -0.081 Cl
HETATM   19  C23 UNL     1      13.958  20.968  65.366  1.00  0.00     0.056 A 
BRANCH  16  20
HETATM   20  O1  UNL     1      15.764  24.057  64.451  1.00  0.00    -0.347 OA
BRANCH  20  21
HETATM   21  C18 UNL     1      16.957  24.450  65.035  1.00  0.00     0.206 C 
BRANCH  21  22
HETATM   22  C19 UNL     1      17.321  25.871  64.777  1.00  0.00     0.297 C 
BRANCH  22  23
HETATM   23  N4  UNL     1      18.684  25.952  64.194  1.00  0.00     0.082 N 
HETATM   24  C20 UNL     1      18.874  27.351  63.816  1.00  0.00     0.309 C 
HETATM   25  C21 UNL     1      18.669  25.135  62.999  1.00  0.00     0.309 C 
ENDBRANCH  22  23
ENDBRANCH  21  22
ENDBRANCH  20  21
ENDBRANCH  16  20
ENDBRANCH  10  12
ENDBRANCH   6  10
BRANCH   9  26
HETATM   26  N6  UNL     1       9.483  17.092  63.245  1.00  0.00    -0.383 NA
BRANCH  26  27
HETATM   27  C25 UNL     1       8.725  16.491  62.342  1.00  0.00     0.133 A 
HETATM   28  C26 UNL     1       7.475  15.946  62.704  1.00  0.00     0.070 A 
HETATM   29  C27 UNL     1       6.654  15.317  61.810  1.00  0.00     0.037 A 
HETATM   30 CL2  UNL     1       5.109  14.668  62.366  1.00  0.00    -0.084 Cl
HETATM   31  C28 UNL     1       7.023  15.188  60.492  1.00  0.00     0.026 A 
HETATM   32  C29 UNL     1       8.243  15.712  60.106  1.00  0.00     0.029 A 
HETATM   33  C30 UNL     1       9.076  16.343  60.981  1.00  0.00     0.074 A 
HETATM   34 CL3  UNL     1      10.608  16.997  60.479  1.00  0.00    -0.081 Cl
ENDBRANCH  26  27
ENDBRANCH   9  26
BRANCH   1  35
HETATM   35  N1  UNL     1       8.442  17.727  65.727  1.00  0.00    -0.375 N 
BRANCH  35  36
HETATM   36  C2  UNL     1       8.037  16.485  66.350  1.00  0.00     0.119 C 
HETATM   37  C1  UNL     1       7.867  16.547  67.825  1.00  0.00     0.026 C 
ENDBRANCH  35  36
BRANCH  35  38
HETATM   38  C3  UNL     1       7.389  18.690  65.513  1.00  0.00     0.127 C 
BRANCH  38  39
HETATM   39  C4  UNL     1       6.016  18.155  65.360  1.00  0.00     0.047 C 
BRANCH  39  40
HETATM   40  C5  UNL     1       5.089  19.324  65.604  1.00  0.00    -0.023 C 
HETATM   41  C6  UNL     1       3.853  19.364  65.111  1.00  0.00    -0.091 C 
HETATM   42  C7  UNL     1       3.412  18.204  64.302  1.00  0.00     0.042 C 
HETATM   43  C8  UNL     1       2.933  20.492  65.338  1.00  0.00     0.042 C 
ENDBRANCH  39  40
ENDBRANCH  38  39
ENDBRANCH  35  38
ENDBRANCH   1  35
TORSDOF 13
ENDMDL
MODEL 3
REMARK VINA RESULT: -9.084987268      0.997      1.355
REMARK  13 active torsions:
REMARK  status: ('A' for Active; 'I' for Inactive)
REMARK    1  A    between atoms: C2_2  and  N1_3 
REMARK    2  A    between atoms: N1_3  and  C3_4 
REMARK    3  A    between atoms: N1_3  and  C9_10 
REMARK    4  A    between atoms: C3_4  and  C4_5 
REMARK    5  A    between atoms: C4_5  and  C5_6 
REMARK    6  A    between atoms: C12_15  and  N3_16 
REMARK    7  A    between atoms: N3_16  and  C13_18 
REMARK    8  A    between atoms: C17_22  and  O1_23 
REMARK    9  A    between atoms: O1_23  and  C18_24 
REMARK   10  A    between atoms: C18_24  and  C19_25 
REMARK   11  A    between atoms: C19_25  and  N4_26 
REMARK   12  A    between atoms: C24_34  and  N6_35 
REMARK   13  A    between atoms: N6_35  and  C25_36 
ROOT
HETATM    1  C9  UNL     1       9.291  17.976  65.500  1.00  0.00     0.113 A 
HETATM    2  C10 UNL     1      10.276  18.629  66.223  1.00  0.00     0.054 A 
HETATM    3  C11 UNL     1       9.910  19.174  67.562  1.00  0.00     0.071 C 
HETATM    4  N2  UNL     1      11.504  18.749  65.712  1.00  0.00    -0.193 N 
ATOM      5  H2  UNL     1      12.213  19.234  66.262  1.00  0.00     0.184 HD
HETATM    6  C12 UNL     1      11.852  18.264  64.508  1.00  0.00     0.685 A 
HETATM    7  N5  UNL     1      10.930  17.637  63.796  1.00  0.00    -0.162 N 
ATOM      8  H5  UNL     1      11.182  17.263  62.881  1.00  0.00     0.187 HD
HETATM    9  C24 UNL     1       9.624  17.470  64.259  1.00  0.00     0.222 A 
ENDROOT
BRANCH   6  10
HETATM   10  N3  UNL     1      13.071  18.441  64.103  1.00  0.00    -0.192 N 
ATOM     11  H3  UNL     1      13.607  17.604  63.874  1.00  0.00     0.184 HD
BRANCH  10  12
HETATM   12  C13 UNL     1      13.723  19.666  63.949  1.00  0.00     0.051 A 
HETATM   13  C14 UNL     1      13.798  20.568  64.978  1.00  0.00     0.039 A 
HETATM   14  C15 UNL     1      14.448  21.755  64.795  1.00  0.00    -0.025 A 
HETATM   15  C16 UNL     1      14.531  22.736  65.910  1.00  0.00     0.051 C 
HETATM   16  C17 UNL     1      15.060  22.114  63.582  1.00  0.00     0.096 A 
HETATM   17  C22 UNL     1      14.978  21.204  62.560  1.00  0.00     0.070 A 
HETATM   18 CL1  UNL     1      15.664  21.531  60.976  1.00  0.00    -0.081 Cl
HETATM   19  C23 UNL     1      14.310  19.989  62.754  1.00  0.00     0.056 A 
BRANCH  16  20
HETATM   20  O1  UNL     1      15.698  23.334  63.476  1.00  0.00    -0.347 OA
BRANCH  20  21
HETATM   21  C18 UNL     1      17.048  23.588  63.299  1.00  0.00     0.206 C 
BRANCH  21  22
HETATM   22  C19 UNL     1      17.717  24.178  64.492  1.00  0.00     0.297 C 
BRANCH  22  23
HETATM   23  N4  UNL     1      17.052  25.447  64.877  1.00  0.00     0.082 N 
HETATM   24  C20 UNL     1      17.851  26.515  64.280  1.00  0.00     0.309 C 
HETATM   25  C21 UNL     1      17.141  25.537  66.320  1.00  0.00     0.309 C 
ENDBRANCH  22  23
ENDBRANCH  21  22
ENDBRANCH  20  21
ENDBRANCH  16  20
ENDBRANCH  10  12
ENDBRANCH   6  10
BRANCH   9  26
HETATM   26  N6  UNL     1       8.831  16.920  63.560  1.00  0.00    -0.383 NA
BRANCH  26  27
HETATM   27  C25 UNL     1       7.932  16.343  62.778  1.00  0.00     0.133 A 
HETATM   28  C26 UNL     1       6.691  15.923  63.301  1.00  0.00     0.070 A 
HETATM   29  C27 UNL     1       5.728  15.325  62.537  1.00  0.00     0.037 A 
HETATM   30 CL2  UNL     1       4.208  14.836  63.290  1.00  0.00    -0.084 Cl
HETATM   31  C28 UNL     1       5.937  15.105  61.196  1.00  0.00     0.026 A 
HETATM   32  C29 UNL     1       7.144  15.505  60.652  1.00  0.00     0.029 A 
HETATM   33  C30 UNL     1       8.116  16.104  61.398  1.00  0.00     0.074 A 
HETATM   34 CL3  UNL     1       9.630  16.602  60.698  1.00  0.00    -0.081 Cl
ENDBRANCH  26  27
ENDBRANCH   9  26
BRANCH   1  35
HETATM   35  N1  UNL     1       7.998  17.852  66.026  1.00  0.00    -0.375 N 
BRANCH  35  36
HETATM   36  C2  UNL     1       7.595  16.862  67.001  1.00  0.00     0.119 C 
HETATM   37  C1  UNL     1       8.051  15.476  66.717  1.00  0.00     0.026 C 
ENDBRANCH  35  36
BRANCH  35  38
HETATM   38  C3  UNL     1       6.948  18.719  65.547  1.00  0.00     0.127 C 
BRANCH  38  39
HETATM   39  C4  UNL     1       5.651  18.654  66.260  1.00  0.00     0.047 C 
BRANCH  39  40
HETATM   40  C5  UNL     1       4.681  18.016  65.291  1.00  0.00    -0.023 C 
HETATM   41  C6  UNL     1       3.675  18.695  64.745  1.00  0.00    -0.091 C 
HETATM   42  C7  UNL     1       3.536  20.120  65.129  1.00  0.00     0.042 C 
HETATM   43  C8  UNL     1       2.720  18.095  63.799  1.00  0.00     0.042 C 
ENDBRANCH  39  40
ENDBRANCH  38  39
ENDBRANCH  35  38
ENDBRANCH   1  35
TORSDOF 13
ENDMDL
MODEL 4
REMARK VINA RESULT: -9.064719653      3.442     11.825
REMARK  13 active torsions:
REMARK  status: ('A' for Active; 'I' for Inactive)
REMARK    1  A    between atoms: C2_2  and  N1_3 
REMARK    2  A    between atoms: N1_3  and  C3_4 
REMARK    3  A    between atoms: N1_3  and  C9_10 
REMARK    4  A    between atoms: C3_4  and  C4_5 
REMARK    5  A    between atoms: C4_5  and  C5_6 
REMARK    6  A    between atoms: C12_15  and  N3_16 
REMARK    7  A    between atoms: N3_16  and  C13_18 
REMARK    8  A    between atoms: C17_22  and  O1_23 
REMARK    9  A    between atoms: O1_23  and  C18_24 
REMARK   10  A    between atoms: C18_24  and  C19_25 
REMARK   11  A    between atoms: C19_25  and  N4_26 
REMARK   12  A    between atoms: C24_34  and  N6_35 
REMARK   13  A    between atoms: N6_35  and  C25_36 
ROOT
HETATM    1  C9  UNL     1      16.092  21.731  62.014  1.00  0.00     0.113 A 
HETATM    2  C10 UNL     1      15.604  20.609  61.365  1.00  0.00     0.054 A 
HETATM    3  C11 UNL     1      16.015  20.391  59.948  1.00  0.00     0.071 C 
HETATM    4  N2  UNL     1      14.793  19.768  62.013  1.00  0.00    -0.193 N 
ATOM      5  H2  UNL     1      14.446  18.949  61.515  1.00  0.00     0.184 HD
HETATM    6  C12 UNL     1      14.412  19.948  63.290  1.00  0.00     0.685 A 
HETATM    7  N5  UNL     1      14.864  21.012  63.933  1.00  0.00    -0.162 N 
ATOM      8  H5  UNL     1      14.582  21.160  64.902  1.00  0.00     0.187 HD
HETATM    9  C24 UNL     1      15.713  21.938  63.326  1.00  0.00     0.222 A 
ENDROOT
BRANCH   6  10
HETATM   10  N3  UNL     1      13.617  19.073  63.823  1.00  0.00    -0.192 N 
ATOM     11  H3  UNL     1      13.904  18.673  64.716  1.00  0.00     0.184 HD
BRANCH  10  12
HETATM   12  C13 UNL     1      12.405  18.625  63.294  1.00  0.00     0.051 A 
HETATM   13  C14 UNL     1      12.329  18.104  62.029  1.00  0.00     0.039 A 
HETATM   14  C15 UNL     1      11.128  17.670  61.545  1.00  0.00    -0.025 A 
HETATM   15  C16 UNL     1      11.041  17.105  60.171  1.00  0.00     0.051 C 
HETATM   16  C17 UNL     1       9.936  17.728  62.288  1.00  0.00     0.096 A 
HETATM   17  C22 UNL     1      10.026  18.250  63.552  1.00  0.00     0.070 A 
HETATM   18 CL1  UNL     1       8.613  18.419  64.583  1.00  0.00    -0.081 Cl
HETATM   19  C23 UNL     1      11.260  18.694  64.042  1.00  0.00     0.056 A 
BRANCH  16  20
HETATM   20  O1  UNL     1       8.761  17.269  61.726  1.00  0.00    -0.347 OA
BRANCH  20  21
HETATM   21  C18 UNL     1       8.133  16.049  61.919  1.00  0.00     0.206 C 
BRANCH  21  22
HETATM   22  C19 UNL     1       6.780  15.957  61.304  1.00  0.00     0.297 C 
BRANCH  22  23
HETATM   23  N4  UNL     1       5.833  15.307  62.245  1.00  0.00     0.082 N 
HETATM   24  C20 UNL     1       4.501  15.756  61.846  1.00  0.00     0.309 C 
HETATM   25  C21 UNL     1       6.137  15.831  63.561  1.00  0.00     0.309 C 
ENDBRANCH  22  23
ENDBRANCH  21  22
ENDBRANCH  20  21
ENDBRANCH  16  20
ENDBRANCH  10  12
ENDBRANCH   6  10
BRANCH   9  26
HETATM   26  N6  UNL     1      16.064  22.892  63.949  1.00  0.00    -0.383 NA
BRANCH  26  27
HETATM   27  C25 UNL     1      16.471  23.927  64.668  1.00  0.00     0.133 A 
HETATM   28  C26 UNL     1      17.449  24.809  64.164  1.00  0.00     0.070 A 
HETATM   29  C27 UNL     1      17.902  25.892  64.865  1.00  0.00     0.037 A 
HETATM   30 CL2  UNL     1      19.131  26.935  64.145  1.00  0.00    -0.084 Cl
HETATM   31  C28 UNL     1      17.408  26.170  66.118  1.00  0.00     0.026 A 
HETATM   32  C29 UNL     1      16.447  25.323  66.640  1.00  0.00     0.029 A 
HETATM   33  C30 UNL     1      15.983  24.239  65.957  1.00  0.00     0.074 A 
HETATM   34 CL3  UNL     1      14.773  23.183  66.627  1.00  0.00    -0.081 Cl
ENDBRANCH  26  27
ENDBRANCH   9  26
BRANCH   1  35
HETATM   35  N1  UNL     1      16.937  22.622  61.339  1.00  0.00    -0.375 N 
BRANCH  35  36
HETATM   36  C2  UNL     1      18.365  22.723  61.546  1.00  0.00     0.119 C 
HETATM   37  C1  UNL     1      19.192  21.875  60.647  1.00  0.00     0.026 C 
ENDBRANCH  35  36
BRANCH  35  38
HETATM   38  C3  UNL     1      16.374  23.563  60.400  1.00  0.00     0.127 C 
BRANCH  38  39
HETATM   39  C4  UNL     1      17.278  24.622  59.893  1.00  0.00     0.047 C 
BRANCH  39  40
HETATM   40  C5  UNL     1      16.530  25.296  58.765  1.00  0.00    -0.023 C 
HETATM   41  C6  UNL     1      16.748  26.566  58.429  1.00  0.00    -0.091 C 
HETATM   42  C7  UNL     1      17.765  27.306  59.213  1.00  0.00     0.042 C 
HETATM   43  C8  UNL     1      16.033  27.241  57.333  1.00  0.00     0.042 C 
ENDBRANCH  39  40
ENDBRANCH  38  39
ENDBRANCH  35  38
ENDBRANCH   1  35
TORSDOF 13
ENDMDL
MODEL 5
REMARK VINA RESULT: -8.898216586      3.320     11.757
REMARK  13 active torsions:
REMARK  status: ('A' for Active; 'I' for Inactive)
REMARK    1  A    between atoms: C2_2  and  N1_3 
REMARK    2  A    between atoms: N1_3  and  C3_4 
REMARK    3  A    between atoms: N1_3  and  C9_10 
REMARK    4  A    between atoms: C3_4  and  C4_5 
REMARK    5  A    between atoms: C4_5  and  C5_6 
REMARK    6  A    between atoms: C12_15  and  N3_16 
REMARK    7  A    between atoms: N3_16  and  C13_18 
REMARK    8  A    between atoms: C17_22  and  O1_23 
REMARK    9  A    between atoms: O1_23  and  C18_24 
REMARK   10  A    between atoms: C18_24  and  C19_25 
REMARK   11  A    between atoms: C19_25  and  N4_26 
REMARK   12  A    between atoms: C24_34  and  N6_35 
REMARK   13  A    between atoms: N6_35  and  C25_36 
ROOT
HETATM    1  C9  UNL     1      16.162  21.723  62.027  1.00  0.00     0.113 A 
HETATM    2  C10 UNL     1      15.677  20.590  61.395  1.00  0.00     0.054 A 
HETATM    3  C11 UNL     1      16.081  20.356  59.979  1.00  0.00     0.071 C 
HETATM    4  N2  UNL     1      14.875  19.753  62.059  1.00  0.00    -0.193 N 
ATOM      5  H2  UNL     1      14.529  18.926  61.573  1.00  0.00     0.184 HD
HETATM    6  C12 UNL     1      14.501  19.948  63.335  1.00  0.00     0.685 A 
HETATM    7  N5  UNL     1      14.950  21.022  63.962  1.00  0.00    -0.162 N 
ATOM      8  H5  UNL     1      14.673  21.181  64.931  1.00  0.00     0.187 HD
HETATM    9  C24 UNL     1      15.790  21.945  63.338  1.00  0.00     0.222 A 
ENDROOT
BRANCH   6  10
HETATM   10  N3  UNL     1      13.713  19.075  63.884  1.00  0.00    -0.192 N 
ATOM     11  H3  UNL     1      14.026  18.660  64.762  1.00  0.00     0.184 HD
BRANCH  10  12
HETATM   12  C13 UNL     1      12.479  18.648  63.392  1.00  0.00     0.051 A 
HETATM   13  C14 UNL     1      11.339  18.742  64.148  1.00  0.00     0.039 A 
HETATM   14  C15 UNL     1      10.147  18.319  63.633  1.00  0.00    -0.025 A 
HETATM   15  C16 UNL     1       8.908  18.419  64.451  1.00  0.00     0.051 C 
HETATM   16  C17 UNL     1      10.018  17.780  62.342  1.00  0.00     0.096 A 
HETATM   17  C22 UNL     1      11.164  17.691  61.596  1.00  0.00     0.070 A 
HETATM   18 CL1  UNL     1      11.162  17.005  59.979  1.00  0.00    -0.081 Cl
HETATM   19  C23 UNL     1      12.383  18.126  62.129  1.00  0.00     0.056 A 
BRANCH  16  20
HETATM   20  O1  UNL     1       8.775  17.374  61.894  1.00  0.00    -0.347 OA
BRANCH  20  21
HETATM   21  C18 UNL     1       8.308  16.084  61.702  1.00  0.00     0.206 C 
BRANCH  21  22
HETATM   22  C19 UNL     1       6.909  16.013  61.199  1.00  0.00     0.297 C 
BRANCH  22  23
HETATM   23  N4  UNL     1       6.079  15.185  62.110  1.00  0.00     0.082 N 
HETATM   24  C20 UNL     1       4.694  15.400  61.695  1.00  0.00     0.309 C 
HETATM   25  C21 UNL     1       6.265  15.725  63.440  1.00  0.00     0.309 C 
ENDBRANCH  22  23
ENDBRANCH  21  22
ENDBRANCH  20  21
ENDBRANCH  16  20
ENDBRANCH  10  12
ENDBRANCH   6  10
BRANCH   9  26
HETATM   26  N6  UNL     1      16.140  22.909  63.947  1.00  0.00    -0.383 NA
BRANCH  26  27
HETATM   27  C25 UNL     1      16.542  23.955  64.652  1.00  0.00     0.133 A 
HETATM   28  C26 UNL     1      17.509  24.840  64.131  1.00  0.00     0.070 A 
HETATM   29  C27 UNL     1      17.957  25.935  64.816  1.00  0.00     0.037 A 
HETATM   30 CL2  UNL     1      19.171  26.980  64.074  1.00  0.00    -0.084 Cl
HETATM   31  C28 UNL     1      17.472  26.222  66.070  1.00  0.00     0.026 A 
HETATM   32  C29 UNL     1      16.523  25.372  66.609  1.00  0.00     0.029 A 
HETATM   33  C30 UNL     1      16.063  24.276  65.941  1.00  0.00     0.074 A 
HETATM   34 CL3  UNL     1      14.868  23.217  66.633  1.00  0.00    -0.081 Cl
ENDBRANCH  26  27
ENDBRANCH   9  26
BRANCH   1  35
HETATM   35  N1  UNL     1      16.998  22.611  61.336  1.00  0.00    -0.375 N 
BRANCH  35  36
HETATM   36  C2  UNL     1      18.431  22.703  61.513  1.00  0.00     0.119 C 
HETATM   37  C1  UNL     1      19.236  21.905  60.552  1.00  0.00     0.026 C 
ENDBRANCH  35  36
BRANCH  35  38
HETATM   38  C3  UNL     1      16.422  23.556  60.410  1.00  0.00     0.127 C 
BRANCH  38  39
HETATM   39  C4  UNL     1      17.295  24.663  59.956  1.00  0.00     0.047 C 
BRANCH  39  40
HETATM   40  C5  UNL     1      16.566  25.315  58.802  1.00  0.00    -0.023 C 
HETATM   41  C6  UNL     1      16.785  26.580  58.449  1.00  0.00    -0.091 C 
HETATM   42  C7  UNL     1      17.783  27.338  59.240  1.00  0.00     0.042 C 
HETATM   43  C8  UNL     1      16.089  27.233  57.328  1.00  0.00     0.042 C 
ENDBRANCH  39  40
ENDBRANCH  38  39
ENDBRANCH  35  38
ENDBRANCH   1  35
TORSDOF 13
ENDMDL
