MODEL 1
REMARK VINA RESULT: -10.182879230      0.000      0.000
REMARK  16 active torsions:
REMARK  status: ('A' for Active; 'I' for Inactive)
REMARK    1  A    between atoms: C5_6  and  C6_7 
REMARK       I    between atoms: C6_7  and  N2_9 
REMARK    2  A    between atoms: N2_9  and  C7_11 
REMARK    3  A    between atoms: C7_11  and  C8_12 
REMARK    4  A    between atoms: C8_12  and  C9_13 
REMARK    5  A    between atoms: C9_13  and  C10_14 
REMARK    6  A    between atoms: C10_14  and  C11_15 
REMARK    7  A    between atoms: C11_15  and  N3_16 
REMARK    8  A    between atoms: C11_15  and  C27_34 
REMARK       I    between atoms: N3_16  and  C12_18 
REMARK    9  A    between atoms: C12_18  and  C13_20 
REMARK   10  A    between atoms: C13_20  and  C14_21 
REMARK   11  A    between atoms: C14_21  and  C15_22 
REMARK   12  A    between atoms: C15_22  and  C16_23 
REMARK   13  A    between atoms: C16_23  and  C17_24 
REMARK       I    between atoms: C27_34  and  N4_36 
REMARK   14  A    between atoms: C30_39  and  C31_40 
REMARK   15  A    between atoms: C31_40  and  N6_44 
REMARK   16  A    between atoms: N6_44  and  C32_46 
ROOT
HETATM    1  C11 UNL     1      15.485  21.703  64.993  1.00  0.00     0.176 C 
ENDROOT
BRANCH   1   2
HETATM    2  C10 UNL     1      14.169  22.013  65.721  1.00  0.00     0.035 C 
BRANCH   2   3
HETATM    3  C9  UNL     1      13.254  22.661  64.738  1.00  0.00     0.004 C 
BRANCH   3   4
HETATM    4  C8  UNL     1      11.860  22.054  64.764  1.00  0.00     0.020 C 
BRANCH   4   5
HETATM    5  C7  UNL     1      11.765  20.888  65.678  1.00  0.00     0.122 C 
BRANCH   5   6
HETATM    6  N2  UNL     1      10.499  20.224  65.525  1.00  0.00    -0.359 N 
HETATM    7  C6  UNL     1      10.022  19.328  66.508  1.00  0.00     0.251 C 
HETATM    8  O1  UNL     1      10.669  19.053  67.557  1.00  0.00    -0.271 OA
ATOM      9  H2  UNL     1       9.936  20.401  64.694  1.00  0.00     0.162 HD
BRANCH   7  10
HETATM   10  C5  UNL     1       8.709  18.646  66.356  1.00  0.00     0.313 C 
HETATM   11  N1  UNL     1       7.627  19.544  66.023  1.00  0.00     0.098 N 
HETATM   12  C1  UNL     1       7.417  20.526  67.057  1.00  0.00     0.310 C 
HETATM   13  C2  UNL     1       6.492  18.601  66.055  1.00  0.00     0.273 C 
HETATM   14  C3  UNL     1       6.738  17.757  67.288  1.00  0.00     0.033 C 
HETATM   15  C4  UNL     1       8.220  17.970  67.598  1.00  0.00     0.047 C 
ENDBRANCH   7  10
ENDBRANCH   5   6
ENDBRANCH   4   5
ENDBRANCH   3   4
ENDBRANCH   2   3
ENDBRANCH   1   2
BRANCH   1  16
HETATM   16  N3  UNL     1      15.097  21.191  63.694  1.00  0.00    -0.348 N 
HETATM   17  C12 UNL     1      14.758  19.857  63.427  1.00  0.00     0.218 C 
HETATM   18  O2  UNL     1      14.771  19.014  64.350  1.00  0.00    -0.274 OA
ATOM     19  H3  UNL     1      15.069  21.850  62.916  1.00  0.00     0.163 HD
BRANCH  17  20
HETATM   20  C13 UNL     1      14.381  19.432  62.060  1.00  0.00     0.103 C 
BRANCH  20  21
HETATM   21  C14 UNL     1      13.192  20.163  61.527  1.00  0.00     0.009 C 
BRANCH  21  22
HETATM   22  C15 UNL     1      11.913  19.630  62.133  1.00  0.00     0.001 C 
BRANCH  22  23
HETATM   23  C16 UNL     1      11.440  18.350  61.524  1.00  0.00     0.005 C 
BRANCH  23  24
HETATM   24  C17 UNL     1       9.950  18.298  61.463  1.00  0.00    -0.006 C 
HETATM   25  C18 UNL     1       9.440  17.220  60.532  1.00  0.00    -0.009 C 
HETATM   26  C19 UNL     1       7.953  17.495  60.274  1.00  0.00     0.010 C 
HETATM   27  C23 UNL     1       9.496  15.841  61.137  1.00  0.00     0.010 C 
HETATM   28  C20 UNL     1       7.199  17.473  61.576  1.00  0.00    -0.013 C 
HETATM   29  C21 UNL     1       7.288  16.087  62.187  1.00  0.00     0.009 C 
HETATM   30  C26 UNL     1       7.771  18.523  62.491  1.00  0.00     0.010 C 
HETATM   31  C22 UNL     1       8.756  15.815  62.444  1.00  0.00    -0.013 C 
HETATM   32  C24 UNL     1       9.331  16.826  63.402  1.00  0.00     0.010 C 
HETATM   33  C25 UNL     1       9.249  18.202  62.776  1.00  0.00    -0.009 C 
ENDBRANCH  23  24
ENDBRANCH  22  23
ENDBRANCH  21  22
ENDBRANCH  20  21
ENDBRANCH  17  20
ENDBRANCH   1  16
BRANCH   1  34
HETATM   34  C27 UNL     1      16.320  22.907  64.883  1.00  0.00     0.243 C 
HETATM   35  O3  UNL     1      16.977  23.052  63.821  1.00  0.00    -0.271 OA
HETATM   36  N4  UNL     1      16.390  23.883  65.940  1.00  0.00    -0.339 N 
HETATM   37  C28 UNL     1      15.764  23.962  67.237  1.00  0.00     0.129 C 
HETATM   38  C30 UNL     1      17.024  25.134  66.187  1.00  0.00     0.155 C 
HETATM   39  C29 UNL     1      16.875  24.865  67.695  1.00  0.00     0.053 C 
BRANCH  38  40
HETATM   40  C31 UNL     1      18.417  25.340  65.782  1.00  0.00     0.094 C 
HETATM   41  N5  UNL     1      19.297  25.725  66.599  1.00  0.00    -0.387 N 
ATOM     42  H52 UNL     1      19.048  25.873  67.577  1.00  0.00     0.157 HD
ATOM     43  H51 UNL     1      20.267  25.868  66.316  1.00  0.00     0.157 HD
BRANCH  40  44
HETATM   44  N6  UNL     1      18.765  25.133  64.416  1.00  0.00    -0.374 N 
ATOM     45  H6  UNL     1      19.092  24.201  64.163  1.00  0.00     0.161 HD
BRANCH  44  46
HETATM   46  C32 UNL     1      18.706  26.088  63.372  1.00  0.00     0.082 C 
HETATM   47  C33 UNL     1      19.637  27.269  63.514  1.00  0.00     0.025 C 
HETATM   48  C34 UNL     1      19.070  28.344  62.580  1.00  0.00     0.002 C 
HETATM   49  C35 UNL     1      19.085  27.824  61.174  1.00  0.00     0.000 C 
HETATM   50  C36 UNL     1      18.247  26.582  61.053  1.00  0.00     0.002 C 
HETATM   51  C37 UNL     1      18.884  25.530  61.976  1.00  0.00     0.025 C 
ENDBRANCH  44  46
ENDBRANCH  40  44
ENDBRANCH  38  40
ENDBRANCH   1  34
TORSDOF 16
ENDMDL
MODEL 2
REMARK VINA RESULT: -10.097931481      1.900      8.829
REMARK  16 active torsions:
REMARK  status: ('A' for Active; 'I' for Inactive)
REMARK    1  A    between atoms: C5_6  and  C6_7 
REMARK       I    between atoms: C6_7  and  N2_9 
REMARK    2  A    between atoms: N2_9  and  C7_11 
REMARK    3  A    between atoms: C7_11  and  C8_12 
REMARK    4  A    between atoms: C8_12  and  C9_13 
REMARK    5  A    between atoms: C9_13  and  C10_14 
REMARK    6  A    between atoms: C10_14  and  C11_15 
REMARK    7  A    between atoms: C11_15  and  N3_16 
REMARK    8  A    between atoms: C11_15  and  C27_34 
REMARK       I    between atoms: N3_16  and  C12_18 
REMARK    9  A    between atoms: C12_18  and  C13_20 
REMARK   10  A    between atoms: C13_20  and  C14_21 
REMARK   11  A    between atoms: C14_21  and  C15_22 
REMARK   12  A    between atoms: C15_22  and  C16_23 
REMARK   13  A    between atoms: C16_23  and  C17_24 
REMARK       I    between atoms: C27_34  and  N4_36 
REMARK   14  A    between atoms: C30_39  and  C31_40 
REMARK   15  A    between atoms: C31_40  and  N6_44 
REMARK   16  A    between atoms: N6_44  and  C32_46 
ROOT
HETATM    1  C11 UNL     1      14.372  22.570  64.702  1.00  0.00     0.176 C 
ENDROOT
BRANCH   1   2
HETATM    2  C10 UNL     1      15.861  22.412  65.042  1.00  0.00     0.035 C 
BRANCH   2   3
HETATM    3  C9  UNL     1      16.353  23.731  65.531  1.00  0.00     0.004 C 
BRANCH   3   4
HETATM    4  C8  UNL     1      17.736  24.065  64.993  1.00  0.00     0.020 C 
BRANCH   4   5
HETATM    5  C7  UNL     1      18.018  23.395  63.699  1.00  0.00     0.122 C 
BRANCH   5   6
HETATM    6  N2  UNL     1      17.840  24.310  62.604  1.00  0.00    -0.359 N 
HETATM    7  C6  UNL     1      18.596  24.183  61.417  1.00  0.00     0.251 C 
HETATM    8  O1  UNL     1      19.465  23.283  61.250  1.00  0.00    -0.271 OA
ATOM      9  H2  UNL     1      17.156  25.062  62.684  1.00  0.00     0.162 HD
BRANCH   7  10
HETATM   10  C5  UNL     1      18.407  25.124  60.280  1.00  0.00     0.313 C 
HETATM   11  N1  UNL     1      17.035  25.228  59.839  1.00  0.00     0.098 N 
HETATM   12  C1  UNL     1      16.535  23.963  59.361  1.00  0.00     0.310 C 
HETATM   13  C2  UNL     1      17.206  26.117  58.673  1.00  0.00     0.273 C 
HETATM   14  C3  UNL     1      18.437  25.584  57.971  1.00  0.00     0.033 C 
HETATM   15  C4  UNL     1      19.136  24.735  59.033  1.00  0.00     0.047 C 
ENDBRANCH   7  10
ENDBRANCH   5   6
ENDBRANCH   4   5
ENDBRANCH   3   4
ENDBRANCH   2   3
ENDBRANCH   1   2
BRANCH   1  16
HETATM   16  N3  UNL     1      14.251  22.184  63.310  1.00  0.00    -0.348 N 
HETATM   17  C12 UNL     1      14.487  20.894  62.813  1.00  0.00     0.218 C 
HETATM   18  O2  UNL     1      14.822  19.977  63.594  1.00  0.00    -0.274 OA
ATOM     19  H3  UNL     1      13.973  22.904  62.643  1.00  0.00     0.163 HD
BRANCH  17  20
HETATM   20  C13 UNL     1      14.342  20.602  61.370  1.00  0.00     0.103 C 
BRANCH  20  21
HETATM   21  C14 UNL     1      12.923  20.388  60.956  1.00  0.00     0.009 C 
BRANCH  21  22
HETATM   22  C15 UNL     1      12.201  19.494  61.939  1.00  0.00     0.001 C 
BRANCH  22  23
HETATM   23  C16 UNL     1      11.529  18.317  61.310  1.00  0.00     0.005 C 
BRANCH  23  24
HETATM   24  C17 UNL     1      10.048  18.388  61.478  1.00  0.00    -0.006 C 
HETATM   25  C18 UNL     1       9.311  17.407  60.591  1.00  0.00    -0.009 C 
HETATM   26  C19 UNL     1       7.832  17.813  60.578  1.00  0.00     0.010 C 
HETATM   27  C23 UNL     1       9.338  15.997  61.120  1.00  0.00     0.010 C 
HETATM   28  C20 UNL     1       7.283  17.779  61.978  1.00  0.00    -0.013 C 
HETATM   29  C21 UNL     1       7.342  16.358  62.508  1.00  0.00     0.009 C 
HETATM   30  C26 UNL     1       8.076  18.728  62.838  1.00  0.00     0.010 C 
HETATM   31  C22 UNL     1       8.803  15.956  62.524  1.00  0.00    -0.013 C 
HETATM   32  C24 UNL     1       9.601  16.863  63.424  1.00  0.00     0.010 C 
HETATM   33  C25 UNL     1       9.546  18.274  62.878  1.00  0.00    -0.009 C 
ENDBRANCH  23  24
ENDBRANCH  22  23
ENDBRANCH  21  22
ENDBRANCH  20  21
ENDBRANCH  17  20
ENDBRANCH   1  16
BRANCH   1  34
HETATM   34  C27 UNL     1      13.542  21.732  65.578  1.00  0.00     0.243 C 
HETATM   35  O3  UNL     1      14.120  21.155  66.533  1.00  0.00    -0.271 OA
HETATM   36  N4  UNL     1      12.127  21.572  65.360  1.00  0.00    -0.339 N 
HETATM   37  C28 UNL     1      11.229  22.099  64.361  1.00  0.00     0.129 C 
HETATM   38  C30 UNL     1      11.028  20.908  65.974  1.00  0.00     0.155 C 
HETATM   39  C29 UNL     1      10.299  20.947  64.620  1.00  0.00     0.053 C 
BRANCH  38  40
HETATM   40  C31 UNL     1      11.193  19.547  66.491  1.00  0.00     0.094 C 
HETATM   41  N5  UNL     1      12.217  18.857  66.234  1.00  0.00    -0.387 N 
ATOM     42  H52 UNL     1      12.968  19.259  65.673  1.00  0.00     0.157 HD
ATOM     43  H51 UNL     1      12.331  17.909  66.593  1.00  0.00     0.157 HD
BRANCH  40  44
HETATM   44  N6  UNL     1      10.143  18.984  67.274  1.00  0.00    -0.374 N 
ATOM     45  H6  UNL     1      10.318  18.891  68.275  1.00  0.00     0.161 HD
BRANCH  44  46
HETATM   46  C32 UNL     1       8.882  18.542  66.808  1.00  0.00     0.082 C 
HETATM   47  C33 UNL     1       8.448  17.179  67.295  1.00  0.00     0.025 C 
HETATM   48  C34 UNL     1       7.350  16.734  66.322  1.00  0.00     0.002 C 
HETATM   49  C35 UNL     1       6.213  17.709  66.392  1.00  0.00     0.000 C 
HETATM   50  C36 UNL     1       6.668  19.091  66.015  1.00  0.00     0.002 C 
HETATM   51  C37 UNL     1       7.733  19.499  67.045  1.00  0.00     0.025 C 
ENDBRANCH  44  46
ENDBRANCH  40  44
ENDBRANCH  38  40
ENDBRANCH   1  34
TORSDOF 16
ENDMDL
MODEL 3
REMARK VINA RESULT: -9.773849132      2.356     10.763
REMARK  16 active torsions:
REMARK  status: ('A' for Active; 'I' for Inactive)
REMARK    1  A    between atoms: C5_6  and  C6_7 
REMARK       I    between atoms: C6_7  and  N2_9 
REMARK    2  A    between atoms: N2_9  and  C7_11 
REMARK    3  A    between atoms: C7_11  and  C8_12 
REMARK    4  A    between atoms: C8_12  and  C9_13 
REMARK    5  A    between atoms: C9_13  and  C10_14 
REMARK    6  A    between atoms: C10_14  and  C11_15 
REMARK    7  A    between atoms: C11_15  and  N3_16 
REMARK    8  A    between atoms: C11_15  and  C27_34 
REMARK       I    between atoms: N3_16  and  C12_18 
REMARK    9  A    between atoms: C12_18  and  C13_20 
REMARK   10  A    between atoms: C13_20  and  C14_21 
REMARK   11  A    between atoms: C14_21  and  C15_22 
REMARK   12  A    between atoms: C15_22  and  C16_23 
REMARK   13  A    between atoms: C16_23  and  C17_24 
REMARK       I    between atoms: C27_34  and  N4_36 
REMARK   14  A    between atoms: C30_39  and  C31_40 
REMARK   15  A    between atoms: C31_40  and  N6_44 
REMARK   16  A    between atoms: N6_44  and  C32_46 
ROOT
HETATM    1  C11 UNL     1      14.758  21.722  63.688  1.00  0.00     0.176 C 
ENDROOT
BRANCH   1   2
HETATM    2  C10 UNL     1      15.538  22.299  64.878  1.00  0.00     0.035 C 
BRANCH   2   3
HETATM    3  C9  UNL     1      14.571  23.051  65.727  1.00  0.00     0.004 C 
BRANCH   3   4
HETATM    4  C8  UNL     1      14.772  22.776  67.210  1.00  0.00     0.020 C 
BRANCH   4   5
HETATM    5  C7  UNL     1      15.455  23.894  67.906  1.00  0.00     0.122 C 
BRANCH   5   6
HETATM    6  N2  UNL     1      15.978  24.840  66.959  1.00  0.00    -0.359 N 
HETATM    7  C6  UNL     1      17.370  24.970  66.749  1.00  0.00     0.251 C 
HETATM    8  O1  UNL     1      18.225  24.284  67.375  1.00  0.00    -0.271 OA
ATOM      9  H2  UNL     1      15.335  25.427  66.429  1.00  0.00     0.162 HD
BRANCH   7  10
HETATM   10  C5  UNL     1      17.912  25.943  65.763  1.00  0.00     0.313 C 
HETATM   11  N1  UNL     1      17.737  25.531  64.389  1.00  0.00     0.098 N 
HETATM   12  C1  UNL     1      18.431  24.298  64.114  1.00  0.00     0.310 C 
HETATM   13  C2  UNL     1      18.457  26.620  63.700  1.00  0.00     0.273 C 
HETATM   14  C3  UNL     1      19.711  26.823  64.524  1.00  0.00     0.033 C 
HETATM   15  C4  UNL     1      19.388  26.165  65.866  1.00  0.00     0.047 C 
ENDBRANCH   7  10
ENDBRANCH   5   6
ENDBRANCH   4   5
ENDBRANCH   3   4
ENDBRANCH   2   3
ENDBRANCH   1   2
BRANCH   1  16
HETATM   16  N3  UNL     1      15.754  21.436  62.675  1.00  0.00    -0.348 N 
HETATM   17  C12 UNL     1      15.568  21.614  61.296  1.00  0.00     0.218 C 
HETATM   18  O2  UNL     1      14.480  22.055  60.866  1.00  0.00    -0.274 OA
ATOM     19  H3  UNL     1      16.657  21.080  62.987  1.00  0.00     0.163 HD
BRANCH  17  20
HETATM   20  C13 UNL     1      16.649  21.285  60.340  1.00  0.00     0.103 C 
BRANCH  20  21
HETATM   21  C14 UNL     1      18.007  21.309  60.960  1.00  0.00     0.009 C 
BRANCH  21  22
HETATM   22  C15 UNL     1      18.738  22.588  60.614  1.00  0.00     0.001 C 
BRANCH  22  23
HETATM   23  C16 UNL     1      17.836  23.752  60.361  1.00  0.00     0.005 C 
BRANCH  23  24
HETATM   24  C17 UNL     1      18.617  24.974  60.009  1.00  0.00    -0.006 C 
HETATM   25  C18 UNL     1      19.311  24.858  58.668  1.00  0.00    -0.009 C 
HETATM   26  C19 UNL     1      20.348  25.985  58.583  1.00  0.00     0.010 C 
HETATM   27  C23 UNL     1      18.382  25.075  57.502  1.00  0.00     0.010 C 
HETATM   28  C20 UNL     1      19.662  27.318  58.713  1.00  0.00    -0.013 C 
HETATM   29  C21 UNL     1      18.710  27.510  57.547  1.00  0.00     0.009 C 
HETATM   30  C26 UNL     1      18.942  27.371  60.035  1.00  0.00     0.010 C 
HETATM   31  C22 UNL     1      17.683  26.399  57.631  1.00  0.00    -0.013 C 
HETATM   32  C24 UNL     1      16.916  26.471  58.926  1.00  0.00     0.010 C 
HETATM   33  C25 UNL     1      17.874  26.265  60.080  1.00  0.00    -0.009 C 
ENDBRANCH  23  24
ENDBRANCH  22  23
ENDBRANCH  21  22
ENDBRANCH  20  21
ENDBRANCH  17  20
ENDBRANCH   1  16
BRANCH   1  34
HETATM   34  C27 UNL     1      14.014  20.517  64.082  1.00  0.00     0.243 C 
HETATM   35  O3  UNL     1      14.676  19.459  64.228  1.00  0.00    -0.271 OA
HETATM   36  N4  UNL     1      12.590  20.538  64.294  1.00  0.00    -0.339 N 
HETATM   37  C28 UNL     1      11.604  21.587  64.192  1.00  0.00     0.129 C 
HETATM   38  C30 UNL     1      11.564  19.636  64.694  1.00  0.00     0.155 C 
HETATM   39  C29 UNL     1      10.545  20.542  63.983  1.00  0.00     0.053 C 
BRANCH  38  40
HETATM   40  C31 UNL     1      11.558  18.262  64.182  1.00  0.00     0.094 C 
HETATM   41  N5  UNL     1      12.625  17.622  63.984  1.00  0.00    -0.387 N 
ATOM     42  H52 UNL     1      13.522  18.053  64.210  1.00  0.00     0.157 HD
ATOM     43  H51 UNL     1      12.621  16.666  63.627  1.00  0.00     0.157 HD
BRANCH  40  44
HETATM   44  N6  UNL     1      10.305  17.660  63.866  1.00  0.00    -0.374 N 
ATOM     45  H6  UNL     1       9.590  17.684  64.593  1.00  0.00     0.161 HD
BRANCH  44  46
HETATM   46  C32 UNL     1       9.949  17.032  62.648  1.00  0.00     0.082 C 
HETATM   47  C33 UNL     1       8.787  16.070  62.725  1.00  0.00     0.025 C 
HETATM   48  C34 UNL     1       8.903  15.197  61.471  1.00  0.00     0.002 C 
HETATM   49  C35 UNL     1       8.789  16.070  60.257  1.00  0.00     0.000 C 
HETATM   50  C36 UNL     1       9.881  17.102  60.235  1.00  0.00     0.002 C 
HETATM   51  C37 UNL     1       9.690  17.971  61.489  1.00  0.00     0.025 C 
ENDBRANCH  44  46
ENDBRANCH  40  44
ENDBRANCH  38  40
ENDBRANCH   1  34
TORSDOF 16
ENDMDL
MODEL 4
REMARK VINA RESULT: -9.684052519      2.264      6.516
REMARK  16 active torsions:
REMARK  status: ('A' for Active; 'I' for Inactive)
REMARK    1  A    between atoms: C5_6  and  C6_7 
REMARK       I    between atoms: C6_7  and  N2_9 
REMARK    2  A    between atoms: N2_9  and  C7_11 
REMARK    3  A    between atoms: C7_11  and  C8_12 
REMARK    4  A    between atoms: C8_12  and  C9_13 
REMARK    5  A    between atoms: C9_13  and  C10_14 
REMARK    6  A    between atoms: C10_14  and  C11_15 
REMARK    7  A    between atoms: C11_15  and  N3_16 
REMARK    8  A    between atoms: C11_15  and  C27_34 
REMARK       I    between atoms: N3_16  and  C12_18 
REMARK    9  A    between atoms: C12_18  and  C13_20 
REMARK   10  A    between atoms: C13_20  and  C14_21 
REMARK   11  A    between atoms: C14_21  and  C15_22 
REMARK   12  A    between atoms: C15_22  and  C16_23 
REMARK   13  A    between atoms: C16_23  and  C17_24 
REMARK       I    between atoms: C27_34  and  N4_36 
REMARK   14  A    between atoms: C30_39  and  C31_40 
REMARK   15  A    between atoms: C31_40  and  N6_44 
REMARK   16  A    between atoms: N6_44  and  C32_46 
ROOT
HETATM    1  C11 UNL     1      12.968  19.132  62.924  1.00  0.00     0.176 C 
ENDROOT
BRANCH   1   2
HETATM    2  C10 UNL     1      13.233  19.278  64.430  1.00  0.00     0.035 C 
BRANCH   2   3
HETATM    3  C9  UNL     1      12.112  20.073  65.008  1.00  0.00     0.004 C 
BRANCH   3   4
HETATM    4  C8  UNL     1      12.564  21.449  65.474  1.00  0.00     0.020 C 
BRANCH   4   5
HETATM    5  C7  UNL     1      13.849  21.404  66.215  1.00  0.00     0.122 C 
BRANCH   5   6
HETATM    6  N2  UNL     1      14.684  22.517  65.855  1.00  0.00    -0.359 N 
HETATM    7  C6  UNL     1      15.294  23.322  66.844  1.00  0.00     0.251 C 
HETATM    8  O1  UNL     1      15.140  23.122  68.080  1.00  0.00    -0.271 OA
ATOM      9  H2  UNL     1      14.838  22.731  64.870  1.00  0.00     0.162 HD
BRANCH   7  10
HETATM   10  C5  UNL     1      16.164  24.469  66.472  1.00  0.00     0.313 C 
HETATM   11  N1  UNL     1      16.655  24.407  65.115  1.00  0.00     0.098 N 
HETATM   12  C1  UNL     1      17.470  23.238  64.899  1.00  0.00     0.310 C 
HETATM   13  C2  UNL     1      17.542  25.586  65.107  1.00  0.00     0.273 C 
HETATM   14  C3  UNL     1      18.274  25.516  66.431  1.00  0.00     0.033 C 
HETATM   15  C4  UNL     1      17.418  24.576  67.282  1.00  0.00     0.047 C 
ENDBRANCH   7  10
ENDBRANCH   5   6
ENDBRANCH   4   5
ENDBRANCH   3   4
ENDBRANCH   2   3
ENDBRANCH   1   2
BRANCH   1  16
HETATM   16  N3  UNL     1      11.549  18.855  62.807  1.00  0.00    -0.348 N 
HETATM   17  C12 UNL     1      10.995  17.841  62.013  1.00  0.00     0.218 C 
HETATM   18  O2  UNL     1      11.743  17.093  61.345  1.00  0.00    -0.274 OA
ATOM     19  H3  UNL     1      10.908  19.439  63.342  1.00  0.00     0.163 HD
BRANCH  17  20
HETATM   20  C13 UNL     1       9.530  17.642  61.955  1.00  0.00     0.103 C 
BRANCH  20  21
HETATM   21  C14 UNL     1       9.129  16.208  62.069  1.00  0.00     0.009 C 
BRANCH  21  22
HETATM   22  C15 UNL     1       8.147  16.010  63.203  1.00  0.00     0.001 C 
BRANCH  22  23
HETATM   23  C16 UNL     1       8.732  16.234  64.559  1.00  0.00     0.005 C 
BRANCH  23  24
HETATM   24  C17 UNL     1       7.788  16.984  65.438  1.00  0.00    -0.006 C 
HETATM   25  C18 UNL     1       8.374  17.288  66.800  1.00  0.00    -0.009 C 
HETATM   26  C19 UNL     1       7.221  17.721  67.715  1.00  0.00     0.010 C 
HETATM   27  C23 UNL     1       9.334  18.449  66.785  1.00  0.00     0.010 C 
HETATM   28  C20 UNL     1       6.547  18.938  67.142  1.00  0.00    -0.013 C 
HETATM   29  C21 UNL     1       7.534  20.091  67.107  1.00  0.00     0.009 C 
HETATM   30  C26 UNL     1       6.026  18.608  65.768  1.00  0.00     0.010 C 
HETATM   31  C22 UNL     1       8.672  19.666  66.202  1.00  0.00    -0.013 C 
HETATM   32  C24 UNL     1       8.175  19.384  64.807  1.00  0.00     0.010 C 
HETATM   33  C25 UNL     1       7.203  18.225  64.854  1.00  0.00    -0.009 C 
ENDBRANCH  23  24
ENDBRANCH  22  23
ENDBRANCH  21  22
ENDBRANCH  20  21
ENDBRANCH  17  20
ENDBRANCH   1  16
BRANCH   1  34
HETATM   34  C27 UNL     1      13.350  20.354  62.203  1.00  0.00     0.243 C 
HETATM   35  O3  UNL     1      12.450  21.210  62.012  1.00  0.00    -0.271 OA
HETATM   36  N4  UNL     1      14.693  20.569  61.732  1.00  0.00    -0.339 N 
HETATM   37  C28 UNL     1      15.892  19.770  61.805  1.00  0.00     0.129 C 
HETATM   38  C30 UNL     1      15.431  21.583  61.057  1.00  0.00     0.155 C 
HETATM   39  C29 UNL     1      16.428  20.503  60.607  1.00  0.00     0.053 C 
BRANCH  38  40
HETATM   40  C31 UNL     1      14.825  22.301  59.931  1.00  0.00     0.094 C 
HETATM   41  N5  UNL     1      14.104  21.714  59.079  1.00  0.00    -0.387 N 
ATOM     42  H52 UNL     1      13.910  20.718  59.183  1.00  0.00     0.157 HD
ATOM     43  H51 UNL     1      13.682  22.213  58.296  1.00  0.00     0.157 HD
BRANCH  40  44
HETATM   44  N6  UNL     1      15.097  23.692  59.786  1.00  0.00    -0.374 N 
ATOM     45  H6  UNL     1      14.334  24.332  60.005  1.00  0.00     0.161 HD
BRANCH  44  46
HETATM   46  C32 UNL     1      16.316  24.279  59.370  1.00  0.00     0.082 C 
HETATM   47  C33 UNL     1      16.235  25.731  58.960  1.00  0.00     0.025 C 
HETATM   48  C34 UNL     1      17.498  25.986  58.129  1.00  0.00     0.002 C 
HETATM   49  C35 UNL     1      18.703  25.743  58.986  1.00  0.00     0.000 C 
HETATM   50  C36 UNL     1      18.727  24.326  59.488  1.00  0.00     0.002 C 
HETATM   51  C37 UNL     1      17.465  24.142  60.346  1.00  0.00     0.025 C 
ENDBRANCH  44  46
ENDBRANCH  40  44
ENDBRANCH  38  40
ENDBRANCH   1  34
TORSDOF 16
ENDMDL
MODEL 5
REMARK VINA RESULT: -9.667512799      2.616      4.858
REMARK  16 active torsions:
REMARK  status: ('A' for Active; 'I' for Inactive)
REMARK    1  A    between atoms: C5_6  and  C6_7 
REMARK       I    between atoms: C6_7  and  N2_9 
REMARK    2  A    between atoms: N2_9  and  C7_11 
REMARK    3  A    between atoms: C7_11  and  C8_12 
REMARK    4  A    between atoms: C8_12  and  C9_13 
REMARK    5  A    between atoms: C9_13  and  C10_14 
REMARK    6  A    between atoms: C10_14  and  C11_15 
REMARK    7  A    between atoms: C11_15  and  N3_16 
REMARK    8  A    between atoms: C11_15  and  C27_34 
REMARK       I    between atoms: N3_16  and  C12_18 
REMARK    9  A    between atoms: C12_18  and  C13_20 
REMARK   10  A    between atoms: C13_20  and  C14_21 
REMARK   11  A    between atoms: C14_21  and  C15_22 
REMARK   12  A    between atoms: C15_22  and  C16_23 
REMARK   13  A    between atoms: C16_23  and  C17_24 
REMARK       I    between atoms: C27_34  and  N4_36 
REMARK   14  A    between atoms: C30_39  and  C31_40 
REMARK   15  A    between atoms: C31_40  and  N6_44 
REMARK   16  A    between atoms: N6_44  and  C32_46 
ROOT
HETATM    1  C11 UNL     1      10.962  19.940  64.382  1.00  0.00     0.176 C 
ENDROOT
BRANCH   1   2
HETATM    2  C10 UNL     1       9.652  20.588  64.855  1.00  0.00     0.035 C 
BRANCH   2   3
HETATM    3  C9  UNL     1       9.446  20.196  66.278  1.00  0.00     0.004 C 
BRANCH   3   4
HETATM    4  C8  UNL     1       8.065  20.584  66.786  1.00  0.00     0.020 C 
BRANCH   4   5
HETATM    5  C7  UNL     1       7.200  19.404  67.036  1.00  0.00     0.122 C 
BRANCH   5   6
HETATM    6  N2  UNL     1       5.811  19.764  66.946  1.00  0.00    -0.359 N 
HETATM    7  C6  UNL     1       4.801  18.897  67.420  1.00  0.00     0.251 C 
HETATM    8  O1  UNL     1       5.049  17.771  67.934  1.00  0.00    -0.271 OA
ATOM      9  H2  UNL     1       5.550  20.659  66.534  1.00  0.00     0.162 HD
BRANCH   7  10
HETATM   10  C5  UNL     1       3.364  19.271  67.336  1.00  0.00     0.313 C 
HETATM   11  N1  UNL     1       2.550  18.289  66.657  1.00  0.00     0.098 N 
HETATM   12  C1  UNL     1       2.968  18.110  65.289  1.00  0.00     0.310 C 
HETATM   13  C2  UNL     1       1.253  18.993  66.646  1.00  0.00     0.273 C 
HETATM   14  C3  UNL     1       1.601  20.420  66.277  1.00  0.00     0.033 C 
HETATM   15  C4  UNL     1       3.100  20.524  66.562  1.00  0.00     0.047 C 
ENDBRANCH   7  10
ENDBRANCH   5   6
ENDBRANCH   4   5
ENDBRANCH   3   4
ENDBRANCH   2   3
ENDBRANCH   1   2
BRANCH   1  16
HETATM   16  N3  UNL     1      10.737  19.582  62.996  1.00  0.00    -0.348 N 
HETATM   17  C12 UNL     1      11.126  18.368  62.409  1.00  0.00     0.218 C 
HETATM   18  O2  UNL     1      11.705  17.500  63.098  1.00  0.00    -0.274 OA
ATOM     19  H3  UNL     1      10.262  20.262  62.403  1.00  0.00     0.163 HD
BRANCH  17  20
HETATM   20  C13 UNL     1      10.856  18.100  60.979  1.00  0.00     0.103 C 
BRANCH  20  21
HETATM   21  C14 UNL     1      11.051  16.668  60.605  1.00  0.00     0.009 C 
BRANCH  21  22
HETATM   22  C15 UNL     1       9.722  15.963  60.446  1.00  0.00     0.001 C 
BRANCH  22  23
HETATM   23  C16 UNL     1       8.568  16.888  60.231  1.00  0.00     0.005 C 
BRANCH  23  24
HETATM   24  C17 UNL     1       7.430  16.550  61.136  1.00  0.00    -0.006 C 
HETATM   25  C18 UNL     1       7.846  15.670  62.295  1.00  0.00    -0.009 C 
HETATM   26  C19 UNL     1       6.570  15.102  62.928  1.00  0.00     0.010 C 
HETATM   27  C23 UNL     1       8.538  16.431  63.396  1.00  0.00     0.010 C 
HETATM   28  C20 UNL     1       5.694  16.229  63.404  1.00  0.00    -0.013 C 
HETATM   29  C21 UNL     1       6.415  17.003  64.492  1.00  0.00     0.009 C 
HETATM   30  C26 UNL     1       5.346  17.108  62.231  1.00  0.00     0.010 C 
HETATM   31  C22 UNL     1       7.675  17.567  63.868  1.00  0.00    -0.013 C 
HETATM   32  C24 UNL     1       7.343  18.492  62.726  1.00  0.00     0.010 C 
HETATM   33  C25 UNL     1       6.636  17.706  61.643  1.00  0.00    -0.009 C 
ENDBRANCH  23  24
ENDBRANCH  22  23
ENDBRANCH  21  22
ENDBRANCH  20  21
ENDBRANCH  17  20
ENDBRANCH   1  16
BRANCH   1  34
HETATM   34  C27 UNL     1      12.091  20.868  64.534  1.00  0.00     0.243 C 
HETATM   35  O3  UNL     1      11.816  22.084  64.682  1.00  0.00    -0.271 OA
HETATM   36  N4  UNL     1      13.457  20.412  64.514  1.00  0.00    -0.339 N 
HETATM   37  C28 UNL     1      14.047  19.105  64.355  1.00  0.00     0.129 C 
HETATM   38  C30 UNL     1      14.762  20.966  64.655  1.00  0.00     0.155 C 
HETATM   39  C29 UNL     1      15.314  19.758  63.878  1.00  0.00     0.053 C 
BRANCH  38  40
HETATM   40  C31 UNL     1      15.085  22.246  64.019  1.00  0.00     0.094 C 
HETATM   41  N5  UNL     1      15.511  22.312  62.834  1.00  0.00    -0.387 N 
ATOM     42  H52 UNL     1      15.610  21.457  62.286  1.00  0.00     0.157 HD
ATOM     43  H51 UNL     1      15.735  23.203  62.391  1.00  0.00     0.157 HD
BRANCH  40  44
HETATM   44  N6  UNL     1      14.946  23.440  64.785  1.00  0.00    -0.374 N 
ATOM     45  H6  UNL     1      14.224  24.095  64.484  1.00  0.00     0.161 HD
BRANCH  44  46
HETATM   46  C32 UNL     1      15.705  23.812  65.920  1.00  0.00     0.082 C 
HETATM   47  C33 UNL     1      16.698  24.930  65.703  1.00  0.00     0.025 C 
HETATM   48  C34 UNL     1      17.687  24.822  66.869  1.00  0.00     0.002 C 
HETATM   49  C35 UNL     1      16.945  25.015  68.157  1.00  0.00     0.000 C 
HETATM   50  C36 UNL     1      15.879  23.968  68.323  1.00  0.00     0.002 C 
HETATM   51  C37 UNL     1      14.897  24.151  67.155  1.00  0.00     0.025 C 
ENDBRANCH  44  46
ENDBRANCH  40  44
ENDBRANCH  38  40
ENDBRANCH   1  34
TORSDOF 16
ENDMDL
