MODEL 1
REMARK VINA RESULT: -8.839759957      0.000      0.000
REMARK  16 active torsions:
REMARK  status: ('A' for Active; 'I' for Inactive)
REMARK    1  A    between atoms: C2_2  and  C3_3 
REMARK    2  A    between atoms: C3_3  and  C4_4 
REMARK    3  A    between atoms: C4_4  and  C5_5 
REMARK    4  A    between atoms: C5_5  and  O1_6 
REMARK    5  A    between atoms: O1_6  and  C6_7 
REMARK       I    between atoms: C6_7  and  N1_9 
REMARK    6  A    between atoms: N2_12  and  C9_13 
REMARK    7  A    between atoms: C9_13  and  O3_14 
REMARK    8  A    between atoms: C9_13  and  C10_16 
REMARK    9  A    between atoms: C10_16  and  C11_17 
REMARK   10  A    between atoms: C10_16  and  N4_28 
REMARK   11  A    between atoms: C11_17  and  C12_18 
REMARK   12  A    between atoms: C12_18  and  C13_19 
REMARK       I    between atoms: C13_19  and  N3_21 
REMARK   13  A    between atoms: N3_21  and  C14_23 
REMARK   14  A    between atoms: C14_23  and  C17_26 
REMARK       I    between atoms: N4_28  and  C18_30 
REMARK   15  A    between atoms: C18_30  and  O7_32 
REMARK   16  A    between atoms: O7_32  and  C19_33 
ROOT
HETATM    1  C10 UNL     1      18.132  23.096  19.797  1.00  0.00     0.161 C 
ENDROOT
BRANCH   1   2
HETATM    2  C9  UNL     1      17.752  21.684  19.369  1.00  0.00     0.137 C 
BRANCH   2   3
HETATM    3  N2  UNL     1      16.595  21.239  18.736  1.00  0.00    -0.361 N 
HETATM    4  C8  UNL     1      16.497  20.631  17.468  1.00  0.00     0.144 C 
HETATM    5  C7  UNL     1      15.214  21.218  16.779  1.00  0.00     0.148 C 
HETATM    6  N1  UNL     1      14.107  20.792  17.561  1.00  0.00    -0.325 N 
HETATM    7  C6  UNL     1      12.952  20.208  16.950  1.00  0.00     0.362 C 
HETATM    8  C29 UNL     1      14.175  20.887  19.011  1.00  0.00     0.148 C 
HETATM    9  O2  UNL     1      12.998  19.936  15.731  1.00  0.00    -0.238 OA
HETATM   10  C28 UNL     1      15.359  21.589  19.478  1.00  0.00     0.144 C 
BRANCH   7  11
HETATM   11  O1  UNL     1      11.813  19.958  17.658  1.00  0.00    -0.304 OA
BRANCH  11  12
HETATM   12  C5  UNL     1      10.884  18.931  17.464  1.00  0.00     0.180 C 
BRANCH  12  13
HETATM   13  C4  UNL     1      11.086  17.696  18.285  1.00  0.00     0.027 C 
BRANCH  13  14
HETATM   14  C3  UNL     1      11.537  18.008  19.696  1.00  0.00     0.002 C 
BRANCH  14  15
HETATM   15  C2  UNL     1      12.777  17.230  20.028  1.00  0.00    -0.004 C 
HETATM   16  C1  UNL     1      13.786  17.207  18.882  1.00  0.00     0.005 C 
ENDBRANCH  14  15
ENDBRANCH  13  14
ENDBRANCH  12  13
ENDBRANCH  11  12
ENDBRANCH   7  11
ENDBRANCH   2   3
BRANCH   2  17
HETATM   17  O3  UNL     1      18.670  20.822  19.701  1.00  0.00    -0.348 OA
ATOM     18  H3  UNL     1      18.415  19.943  19.954  1.00  0.00     0.219 HD
ENDBRANCH   2  17
ENDBRANCH   1   2
BRANCH   1  19
HETATM   19  C11 UNL     1      19.280  23.231  20.605  1.00  0.00     0.043 C 
BRANCH  19  20
HETATM   20  C12 UNL     1      20.662  23.217  19.883  1.00  0.00     0.105 C 
BRANCH  20  21
HETATM   21  C13 UNL     1      21.493  24.222  20.610  1.00  0.00     0.218 C 
HETATM   22  O4  UNL     1      22.537  23.916  21.187  1.00  0.00    -0.274 OA
HETATM   23  N3  UNL     1      21.069  25.609  20.630  1.00  0.00    -0.346 N 
ATOM     24  H3  UNL     1      20.190  25.889  20.194  1.00  0.00     0.163 HD
BRANCH  23  25
HETATM   25  C14 UNL     1      21.907  26.579  21.272  1.00  0.00     0.078 C 
HETATM   26  C15 UNL     1      21.143  27.936  21.190  1.00  0.00     0.046 C 
HETATM   27  C16 UNL     1      22.131  26.360  22.741  1.00  0.00     0.046 C 
BRANCH  25  28
HETATM   28  C17 UNL     1      23.144  26.767  20.486  1.00  0.00     0.261 C 
HETATM   29  O5  UNL     1      24.217  26.729  21.161  1.00  0.00    -0.304 OA
ENDBRANCH  25  28
ENDBRANCH  23  25
ENDBRANCH  20  21
ENDBRANCH  19  20
ENDBRANCH   1  19
BRANCH   1  30
HETATM   30  N4  UNL     1      18.161  23.731  18.492  1.00  0.00    -0.325 N 
HETATM   31  C18 UNL     1      17.256  24.584  17.900  1.00  0.00     0.362 C 
HETATM   32  O6  UNL     1      16.234  25.092  18.382  1.00  0.00    -0.238 OA
ATOM     33  H4  UNL     1      18.979  23.510  17.925  1.00  0.00     0.165 HD
BRANCH  31  34
HETATM   34  O7  UNL     1      17.492  24.909  16.537  1.00  0.00    -0.282 OA
BRANCH  34  35
HETATM   35  C19 UNL     1      18.737  25.250  15.995  1.00  0.00     0.117 C 
HETATM   36  C20 UNL     1      19.440  23.979  15.631  1.00  0.00     0.059 C 
HETATM   37  C21 UNL     1      19.412  25.973  17.139  1.00  0.00     0.051 C 
HETATM   38  C22 UNL     1      20.896  25.923  17.184  1.00  0.00     0.020 C 
HETATM   39  C23 UNL     1      21.576  26.812  16.197  1.00  0.00     0.014 C 
HETATM   40  C24 UNL     1      22.634  26.045  15.425  1.00  0.00     0.023 C 
HETATM   41  C25 UNL     1      22.367  27.919  16.923  1.00  0.00     0.023 C 
HETATM   42  C26 UNL     1      20.688  27.494  15.238  1.00  0.00     0.144 C 
HETATM   43  O8  UNL     1      20.505  28.685  15.472  1.00  0.00    -0.296 OA
HETATM   44  C27 UNL     1      19.956  27.059  14.025  1.00  0.00     0.156 C 
HETATM   45  S1  UNL     1      18.431  26.254  14.553  1.00  0.00    -0.123 SA
ENDBRANCH  34  35
ENDBRANCH  31  34
ENDBRANCH   1  30
TORSDOF 16
ENDMDL
MODEL 2
REMARK VINA RESULT: -8.629686109      1.062      2.305
REMARK  16 active torsions:
REMARK  status: ('A' for Active; 'I' for Inactive)
REMARK    1  A    between atoms: C2_2  and  C3_3 
REMARK    2  A    between atoms: C3_3  and  C4_4 
REMARK    3  A    between atoms: C4_4  and  C5_5 
REMARK    4  A    between atoms: C5_5  and  O1_6 
REMARK    5  A    between atoms: O1_6  and  C6_7 
REMARK       I    between atoms: C6_7  and  N1_9 
REMARK    6  A    between atoms: N2_12  and  C9_13 
REMARK    7  A    between atoms: C9_13  and  O3_14 
REMARK    8  A    between atoms: C9_13  and  C10_16 
REMARK    9  A    between atoms: C10_16  and  C11_17 
REMARK   10  A    between atoms: C10_16  and  N4_28 
REMARK   11  A    between atoms: C11_17  and  C12_18 
REMARK   12  A    between atoms: C12_18  and  C13_19 
REMARK       I    between atoms: C13_19  and  N3_21 
REMARK   13  A    between atoms: N3_21  and  C14_23 
REMARK   14  A    between atoms: C14_23  and  C17_26 
REMARK       I    between atoms: N4_28  and  C18_30 
REMARK   15  A    between atoms: C18_30  and  O7_32 
REMARK   16  A    between atoms: O7_32  and  C19_33 
ROOT
HETATM    1  C10 UNL     1      18.156  23.002  19.873  1.00  0.00     0.161 C 
ENDROOT
BRANCH   1   2
HETATM    2  C9  UNL     1      17.684  21.610  19.468  1.00  0.00     0.137 C 
BRANCH   2   3
HETATM    3  N2  UNL     1      16.412  21.188  19.096  1.00  0.00    -0.361 N 
HETATM    4  C8  UNL     1      15.206  21.396  19.794  1.00  0.00     0.144 C 
HETATM    5  C7  UNL     1      14.376  20.067  19.680  1.00  0.00     0.148 C 
HETATM    6  N1  UNL     1      14.068  19.903  18.302  1.00  0.00    -0.325 N 
HETATM    7  C6  UNL     1      12.737  19.596  17.875  1.00  0.00     0.362 C 
HETATM    8  C29 UNL     1      15.105  20.117  17.306  1.00  0.00     0.148 C 
HETATM    9  O2  UNL     1      11.819  19.629  18.722  1.00  0.00    -0.238 OA
HETATM   10  C28 UNL     1      16.420  20.323  17.890  1.00  0.00     0.144 C 
BRANCH   7  11
HETATM   11  O1  UNL     1      12.457  19.261  16.583  1.00  0.00    -0.304 OA
BRANCH  11  12
HETATM   12  C5  UNL     1      11.850  20.048  15.599  1.00  0.00     0.180 C 
BRANCH  12  13
HETATM   13  C4  UNL     1      12.774  20.717  14.630  1.00  0.00     0.027 C 
BRANCH  13  14
HETATM   14  C3  UNL     1      13.027  22.168  14.981  1.00  0.00     0.002 C 
BRANCH  14  15
HETATM   15  C2  UNL     1      14.465  22.519  14.729  1.00  0.00    -0.004 C 
HETATM   16  C1  UNL     1      15.182  21.489  13.859  1.00  0.00     0.005 C 
ENDBRANCH  14  15
ENDBRANCH  13  14
ENDBRANCH  12  13
ENDBRANCH  11  12
ENDBRANCH   7  11
ENDBRANCH   2   3
BRANCH   2  17
HETATM   17  O3  UNL     1      18.652  20.741  19.534  1.00  0.00    -0.348 OA
ATOM     18  H3  UNL     1      19.110  20.615  20.357  1.00  0.00     0.219 HD
ENDBRANCH   2  17
ENDBRANCH   1   2
BRANCH   1  19
HETATM   19  C11 UNL     1      19.340  23.077  20.637  1.00  0.00     0.043 C 
BRANCH  19  20
HETATM   20  C12 UNL     1      20.688  23.130  19.856  1.00  0.00     0.105 C 
BRANCH  20  21
HETATM   21  C13 UNL     1      21.529  24.116  20.595  1.00  0.00     0.218 C 
HETATM   22  O4  UNL     1      22.594  23.801  21.128  1.00  0.00    -0.274 OA
HETATM   23  N3  UNL     1      21.091  25.496  20.681  1.00  0.00    -0.346 N 
ATOM     24  H3  UNL     1      20.197  25.783  20.284  1.00  0.00     0.163 HD
BRANCH  23  25
HETATM   25  C14 UNL     1      21.938  26.451  21.335  1.00  0.00     0.078 C 
HETATM   26  C15 UNL     1      21.349  27.855  21.001  1.00  0.00     0.046 C 
HETATM   27  C16 UNL     1      21.936  26.388  22.835  1.00  0.00     0.046 C 
BRANCH  25  28
HETATM   28  C17 UNL     1      23.283  26.425  20.723  1.00  0.00     0.261 C 
HETATM   29  O5  UNL     1      23.569  27.439  20.017  1.00  0.00    -0.304 OA
ENDBRANCH  25  28
ENDBRANCH  23  25
ENDBRANCH  20  21
ENDBRANCH  19  20
ENDBRANCH   1  19
BRANCH   1  30
HETATM   30  N4  UNL     1      18.172  23.627  18.564  1.00  0.00    -0.325 N 
HETATM   31  C18 UNL     1      17.278  24.502  17.988  1.00  0.00     0.362 C 
HETATM   32  O6  UNL     1      16.282  25.042  18.490  1.00  0.00    -0.238 OA
ATOM     33  H4  UNL     1      18.970  23.380  17.978  1.00  0.00     0.165 HD
BRANCH  31  34
HETATM   34  O7  UNL     1      17.489  24.812  16.617  1.00  0.00    -0.282 OA
BRANCH  34  35
HETATM   35  C19 UNL     1      18.720  25.170  16.054  1.00  0.00     0.117 C 
HETATM   36  C20 UNL     1      19.456  23.909  15.725  1.00  0.00     0.059 C 
HETATM   37  C21 UNL     1      19.384  25.948  17.169  1.00  0.00     0.051 C 
HETATM   38  C22 UNL     1      20.868  25.940  17.203  1.00  0.00     0.020 C 
HETATM   39  C23 UNL     1      21.516  26.816  16.184  1.00  0.00     0.014 C 
HETATM   40  C24 UNL     1      22.589  26.055  15.427  1.00  0.00     0.023 C 
HETATM   41  C25 UNL     1      22.281  27.967  16.868  1.00  0.00     0.023 C 
HETATM   42  C26 UNL     1      20.603  27.443  15.210  1.00  0.00     0.144 C 
HETATM   43  O8  UNL     1      20.387  28.635  15.408  1.00  0.00    -0.296 OA
HETATM   44  C27 UNL     1      19.874  26.949  14.018  1.00  0.00     0.156 C 
HETATM   45  S1  UNL     1      18.376  26.119  14.584  1.00  0.00    -0.123 SA
ENDBRANCH  34  35
ENDBRANCH  31  34
ENDBRANCH   1  30
TORSDOF 16
ENDMDL
MODEL 3
REMARK VINA RESULT: -8.575291539      1.596      2.622
REMARK  16 active torsions:
REMARK  status: ('A' for Active; 'I' for Inactive)
REMARK    1  A    between atoms: C2_2  and  C3_3 
REMARK    2  A    between atoms: C3_3  and  C4_4 
REMARK    3  A    between atoms: C4_4  and  C5_5 
REMARK    4  A    between atoms: C5_5  and  O1_6 
REMARK    5  A    between atoms: O1_6  and  C6_7 
REMARK       I    between atoms: C6_7  and  N1_9 
REMARK    6  A    between atoms: N2_12  and  C9_13 
REMARK    7  A    between atoms: C9_13  and  O3_14 
REMARK    8  A    between atoms: C9_13  and  C10_16 
REMARK    9  A    between atoms: C10_16  and  C11_17 
REMARK   10  A    between atoms: C10_16  and  N4_28 
REMARK   11  A    between atoms: C11_17  and  C12_18 
REMARK   12  A    between atoms: C12_18  and  C13_19 
REMARK       I    between atoms: C13_19  and  N3_21 
REMARK   13  A    between atoms: N3_21  and  C14_23 
REMARK   14  A    between atoms: C14_23  and  C17_26 
REMARK       I    between atoms: N4_28  and  C18_30 
REMARK   15  A    between atoms: C18_30  and  O7_32 
REMARK   16  A    between atoms: O7_32  and  C19_33 
ROOT
HETATM    1  C10 UNL     1      18.051  23.067  19.774  1.00  0.00     0.161 C 
ENDROOT
BRANCH   1   2
HETATM    2  C9  UNL     1      17.558  21.696  19.327  1.00  0.00     0.137 C 
BRANCH   2   3
HETATM    3  N2  UNL     1      16.282  21.308  18.929  1.00  0.00    -0.361 N 
HETATM    4  C8  UNL     1      15.107  21.318  19.706  1.00  0.00     0.144 C 
HETATM    5  C7  UNL     1      14.315  20.009  19.353  1.00  0.00     0.148 C 
HETATM    6  N1  UNL     1      13.943  20.120  17.985  1.00  0.00    -0.325 N 
HETATM    7  C6  UNL     1      12.603  19.854  17.560  1.00  0.00     0.362 C 
HETATM    8  C29 UNL     1      14.922  20.577  17.013  1.00  0.00     0.148 C 
HETATM    9  O2  UNL     1      11.727  19.674  18.434  1.00  0.00    -0.238 OA
HETATM   10  C28 UNL     1      16.258  20.711  17.571  1.00  0.00     0.144 C 
BRANCH   7  11
HETATM   11  O1  UNL     1      12.269  19.780  16.240  1.00  0.00    -0.304 OA
BRANCH  11  12
HETATM   12  C5  UNL     1      11.070  20.164  15.630  1.00  0.00     0.180 C 
BRANCH  12  13
HETATM   13  C4  UNL     1      11.198  21.034  14.419  1.00  0.00     0.027 C 
BRANCH  13  14
HETATM   14  C3  UNL     1      10.113  20.767  13.398  1.00  0.00     0.002 C 
BRANCH  14  15
HETATM   15  C2  UNL     1       8.882  21.561  13.729  1.00  0.00    -0.004 C 
HETATM   16  C1  UNL     1       8.029  21.871  12.501  1.00  0.00     0.005 C 
ENDBRANCH  14  15
ENDBRANCH  13  14
ENDBRANCH  12  13
ENDBRANCH  11  12
ENDBRANCH   7  11
ENDBRANCH   2   3
BRANCH   2  17
HETATM   17  O3  UNL     1      18.508  20.807  19.381  1.00  0.00    -0.348 OA
ATOM     18  H3  UNL     1      18.915  20.609  20.216  1.00  0.00     0.219 HD
ENDBRANCH   2  17
ENDBRANCH   1   2
BRANCH   1  19
HETATM   19  C11 UNL     1      19.229  23.100  20.550  1.00  0.00     0.043 C 
BRANCH  19  20
HETATM   20  C12 UNL     1      20.584  23.152  19.782  1.00  0.00     0.105 C 
BRANCH  20  21
HETATM   21  C13 UNL     1      21.421  24.134  20.533  1.00  0.00     0.218 C 
HETATM   22  O4  UNL     1      22.448  23.802  21.127  1.00  0.00    -0.274 OA
HETATM   23  N3  UNL     1      21.026  25.529  20.556  1.00  0.00    -0.346 N 
ATOM     24  H3  UNL     1      20.162  25.831  20.106  1.00  0.00     0.163 HD
BRANCH  23  25
HETATM   25  C14 UNL     1      21.870  26.477  21.221  1.00  0.00     0.078 C 
HETATM   26  C15 UNL     1      21.171  27.862  21.075  1.00  0.00     0.046 C 
HETATM   27  C16 UNL     1      22.011  26.280  22.704  1.00  0.00     0.046 C 
BRANCH  25  28
HETATM   28  C17 UNL     1      23.153  26.597  20.497  1.00  0.00     0.261 C 
HETATM   29  O5  UNL     1      24.168  26.782  21.234  1.00  0.00    -0.304 OA
ENDBRANCH  25  28
ENDBRANCH  23  25
ENDBRANCH  20  21
ENDBRANCH  19  20
ENDBRANCH   1  19
BRANCH   1  30
HETATM   30  N4  UNL     1      18.090  23.728  18.483  1.00  0.00    -0.325 N 
HETATM   31  C18 UNL     1      17.199  24.608  17.909  1.00  0.00     0.362 C 
HETATM   32  O6  UNL     1      16.186  25.123  18.402  1.00  0.00    -0.238 OA
ATOM     33  H4  UNL     1      18.904  23.506  17.910  1.00  0.00     0.165 HD
BRANCH  31  34
HETATM   34  O7  UNL     1      17.439  24.957  16.553  1.00  0.00    -0.282 OA
BRANCH  34  35
HETATM   35  C19 UNL     1      18.691  25.275  16.013  1.00  0.00     0.117 C 
HETATM   36  C20 UNL     1      19.384  23.990  15.679  1.00  0.00     0.059 C 
HETATM   37  C21 UNL     1      19.366  26.013  17.148  1.00  0.00     0.051 C 
HETATM   38  C22 UNL     1      20.848  25.948  17.205  1.00  0.00     0.020 C 
HETATM   39  C23 UNL     1      21.545  26.811  16.206  1.00  0.00     0.014 C 
HETATM   40  C24 UNL     1      22.600  26.019  15.456  1.00  0.00     0.023 C 
HETATM   41  C25 UNL     1      22.343  27.923  16.917  1.00  0.00     0.023 C 
HETATM   42  C26 UNL     1      20.671  27.484  15.228  1.00  0.00     0.144 C 
HETATM   43  O8  UNL     1      20.498  28.681  15.438  1.00  0.00    -0.296 OA
HETATM   44  C27 UNL     1      19.943  27.033  14.018  1.00  0.00     0.156 C 
HETATM   45  S1  UNL     1      18.406  26.254  14.551  1.00  0.00    -0.123 SA
ENDBRANCH  34  35
ENDBRANCH  31  34
ENDBRANCH   1  30
TORSDOF 16
ENDMDL
MODEL 4
REMARK VINA RESULT: -8.545464318      2.943     10.960
REMARK  16 active torsions:
REMARK  status: ('A' for Active; 'I' for Inactive)
REMARK    1  A    between atoms: C2_2  and  C3_3 
REMARK    2  A    between atoms: C3_3  and  C4_4 
REMARK    3  A    between atoms: C4_4  and  C5_5 
REMARK    4  A    between atoms: C5_5  and  O1_6 
REMARK    5  A    between atoms: O1_6  and  C6_7 
REMARK       I    between atoms: C6_7  and  N1_9 
REMARK    6  A    between atoms: N2_12  and  C9_13 
REMARK    7  A    between atoms: C9_13  and  O3_14 
REMARK    8  A    between atoms: C9_13  and  C10_16 
REMARK    9  A    between atoms: C10_16  and  C11_17 
REMARK   10  A    between atoms: C10_16  and  N4_28 
REMARK   11  A    between atoms: C11_17  and  C12_18 
REMARK   12  A    between atoms: C12_18  and  C13_19 
REMARK       I    between atoms: C13_19  and  N3_21 
REMARK   13  A    between atoms: N3_21  and  C14_23 
REMARK   14  A    between atoms: C14_23  and  C17_26 
REMARK       I    between atoms: N4_28  and  C18_30 
REMARK   15  A    between atoms: C18_30  and  O7_32 
REMARK   16  A    between atoms: O7_32  and  C19_33 
ROOT
HETATM    1  C10 UNL     1      15.589  22.772  15.648  1.00  0.00     0.161 C 
ENDROOT
BRANCH   1   2
HETATM    2  C9  UNL     1      17.109  22.858  15.717  1.00  0.00     0.137 C 
BRANCH   2   3
HETATM    3  N2  UNL     1      17.925  23.985  15.760  1.00  0.00    -0.361 N 
HETATM    4  C8  UNL     1      17.520  25.333  15.698  1.00  0.00     0.144 C 
HETATM    5  C7  UNL     1      18.567  26.082  14.799  1.00  0.00     0.148 C 
HETATM    6  N1  UNL     1      19.807  26.023  15.492  1.00  0.00    -0.325 N 
HETATM    7  C6  UNL     1      20.611  27.194  15.668  1.00  0.00     0.362 C 
HETATM    8  C29 UNL     1      20.234  24.769  16.089  1.00  0.00     0.148 C 
HETATM    9  O2  UNL     1      20.130  28.300  15.339  1.00  0.00    -0.238 OA
HETATM   10  C28 UNL     1      19.371  23.652  15.743  1.00  0.00     0.144 C 
BRANCH   7  11
HETATM   11  O1  UNL     1      21.878  27.127  16.169  1.00  0.00    -0.304 OA
BRANCH  11  12
HETATM   12  C5  UNL     1      22.321  27.488  17.446  1.00  0.00     0.180 C 
BRANCH  12  13
HETATM   13  C4  UNL     1      21.322  27.349  18.552  1.00  0.00     0.027 C 
BRANCH  13  14
HETATM   14  C3  UNL     1      21.465  26.041  19.300  1.00  0.00     0.002 C 
BRANCH  14  15
HETATM   15  C2  UNL     1      21.232  26.255  20.768  1.00  0.00    -0.004 C 
HETATM   16  C1  UNL     1      21.225  27.732  21.157  1.00  0.00     0.005 C 
ENDBRANCH  14  15
ENDBRANCH  13  14
ENDBRANCH  12  13
ENDBRANCH  11  12
ENDBRANCH   7  11
ENDBRANCH   2   3
BRANCH   2  17
HETATM   17  O3  UNL     1      17.653  21.675  15.697  1.00  0.00    -0.348 OA
ATOM     18  H3  UNL     1      17.864  21.245  16.517  1.00  0.00     0.219 HD
ENDBRANCH   2  17
ENDBRANCH   1   2
BRANCH   1  19
HETATM   19  C11 UNL     1      15.031  22.268  14.454  1.00  0.00     0.043 C 
BRANCH  19  20
HETATM   20  C12 UNL     1      14.762  20.733  14.389  1.00  0.00     0.105 C 
BRANCH  20  21
HETATM   21  C13 UNL     1      13.277  20.600  14.318  1.00  0.00     0.218 C 
HETATM   22  O4  UNL     1      12.521  21.543  14.556  1.00  0.00    -0.274 OA
HETATM   23  N3  UNL     1      12.699  19.324  13.943  1.00  0.00    -0.346 N 
ATOM     24  H3  UNL     1      13.294  18.513  13.776  1.00  0.00     0.163 HD
BRANCH  23  25
HETATM   25  C14 UNL     1      11.275  19.222  13.810  1.00  0.00     0.078 C 
HETATM   26  C15 UNL     1      10.922  17.721  14.038  1.00  0.00     0.046 C 
HETATM   27  C16 UNL     1      10.480  19.958  14.850  1.00  0.00     0.046 C 
BRANCH  25  28
HETATM   28  C17 UNL     1      10.881  19.520  12.417  1.00  0.00     0.261 C 
HETATM   29  O5  UNL     1      11.733  19.188  11.538  1.00  0.00    -0.304 OA
ENDBRANCH  25  28
ENDBRANCH  23  25
ENDBRANCH  20  21
ENDBRANCH  19  20
ENDBRANCH   1  19
BRANCH   1  30
HETATM   30  N4  UNL     1      15.347  22.017  16.863  1.00  0.00    -0.325 N 
HETATM   31  C18 UNL     1      14.779  22.411  18.054  1.00  0.00     0.362 C 
HETATM   32  O6  UNL     1      14.249  23.492  18.345  1.00  0.00    -0.238 OA
ATOM     33  H4  UNL     1      15.645  21.042  16.830  1.00  0.00     0.165 HD
BRANCH  31  34
HETATM   34  O7  UNL     1      14.832  21.473  19.121  1.00  0.00    -0.282 OA
BRANCH  34  35
HETATM   35  C19 UNL     1      14.361  20.156  19.058  1.00  0.00     0.117 C 
HETATM   36  C20 UNL     1      15.368  19.346  18.302  1.00  0.00     0.059 C 
HETATM   37  C21 UNL     1      13.058  20.303  18.303  1.00  0.00     0.051 C 
HETATM   38  C22 UNL     1      12.605  19.132  17.510  1.00  0.00     0.020 C 
HETATM   39  C23 UNL     1      12.030  18.020  18.321  1.00  0.00     0.014 C 
HETATM   40  C24 UNL     1      12.659  16.694  17.935  1.00  0.00     0.023 C 
HETATM   41  C25 UNL     1      10.532  17.835  17.999  1.00  0.00     0.023 C 
HETATM   42  C26 UNL     1      12.125  18.183  19.783  1.00  0.00     0.144 C 
HETATM   43  O8  UNL     1      11.071  18.495  20.331  1.00  0.00    -0.296 OA
HETATM   44  C27 UNL     1      13.228  18.047  20.764  1.00  0.00     0.156 C 
HETATM   45  S1  UNL     1      14.191  19.572  20.734  1.00  0.00    -0.123 SA
ENDBRANCH  34  35
ENDBRANCH  31  34
ENDBRANCH   1  30
TORSDOF 16
ENDMDL
MODEL 5
REMARK VINA RESULT: -8.415396989      2.941     11.070
REMARK  16 active torsions:
REMARK  status: ('A' for Active; 'I' for Inactive)
REMARK    1  A    between atoms: C2_2  and  C3_3 
REMARK    2  A    between atoms: C3_3  and  C4_4 
REMARK    3  A    between atoms: C4_4  and  C5_5 
REMARK    4  A    between atoms: C5_5  and  O1_6 
REMARK    5  A    between atoms: O1_6  and  C6_7 
REMARK       I    between atoms: C6_7  and  N1_9 
REMARK    6  A    between atoms: N2_12  and  C9_13 
REMARK    7  A    between atoms: C9_13  and  O3_14 
REMARK    8  A    between atoms: C9_13  and  C10_16 
REMARK    9  A    between atoms: C10_16  and  C11_17 
REMARK   10  A    between atoms: C10_16  and  N4_28 
REMARK   11  A    between atoms: C11_17  and  C12_18 
REMARK   12  A    between atoms: C12_18  and  C13_19 
REMARK       I    between atoms: C13_19  and  N3_21 
REMARK   13  A    between atoms: N3_21  and  C14_23 
REMARK   14  A    between atoms: C14_23  and  C17_26 
REMARK       I    between atoms: N4_28  and  C18_30 
REMARK   15  A    between atoms: C18_30  and  O7_32 
REMARK   16  A    between atoms: O7_32  and  C19_33 
ROOT
HETATM    1  C10 UNL     1      14.606  22.504  15.352  1.00  0.00     0.161 C 
ENDROOT
BRANCH   1   2
HETATM    2  C9  UNL     1      16.100  22.505  15.050  1.00  0.00     0.137 C 
BRANCH   2   3
HETATM    3  N2  UNL     1      17.138  23.116  15.748  1.00  0.00    -0.361 N 
HETATM    4  C8  UNL     1      18.249  22.488  16.345  1.00  0.00     0.144 C 
HETATM    5  C7  UNL     1      18.500  23.210  17.716  1.00  0.00     0.148 C 
HETATM    6  N1  UNL     1      18.862  24.549  17.405  1.00  0.00    -0.325 N 
HETATM    7  C6  UNL     1      20.004  25.165  18.009  1.00  0.00     0.362 C 
HETATM    8  C29 UNL     1      18.101  25.283  16.406  1.00  0.00     0.148 C 
HETATM    9  O2  UNL     1      20.768  24.455  18.697  1.00  0.00    -0.238 OA
HETATM   10  C28 UNL     1      16.918  24.568  15.956  1.00  0.00     0.144 C 
BRANCH   7  11
HETATM   11  O1  UNL     1      20.264  26.496  17.862  1.00  0.00    -0.304 OA
BRANCH  11  12
HETATM   12  C5  UNL     1      21.502  27.145  17.920  1.00  0.00     0.180 C 
BRANCH  12  13
HETATM   13  C4  UNL     1      22.359  27.035  16.699  1.00  0.00     0.027 C 
BRANCH  13  14
HETATM   14  C3  UNL     1      22.204  28.224  15.774  1.00  0.00     0.002 C 
BRANCH  14  15
HETATM   15  C2  UNL     1      21.584  27.794  14.476  1.00  0.00    -0.004 C 
HETATM   16  C1  UNL     1      20.058  27.843  14.504  1.00  0.00     0.005 C 
ENDBRANCH  14  15
ENDBRANCH  13  14
ENDBRANCH  12  13
ENDBRANCH  11  12
ENDBRANCH   7  11
ENDBRANCH   2   3
BRANCH   2  17
HETATM   17  O3  UNL     1      16.365  21.851  13.956  1.00  0.00    -0.348 OA
ATOM     18  H3  UNL     1      15.766  21.175  13.661  1.00  0.00     0.219 HD
ENDBRANCH   2  17
ENDBRANCH   1   2
BRANCH   1  19
HETATM   19  C11 UNL     1      13.754  21.977  14.359  1.00  0.00     0.043 C 
BRANCH  19  20
HETATM   20  C12 UNL     1      13.795  20.435  14.134  1.00  0.00     0.105 C 
BRANCH  20  21
HETATM   21  C13 UNL     1      12.365  20.006  14.112  1.00  0.00     0.218 C 
HETATM   22  O4  UNL     1      12.033  18.824  14.205  1.00  0.00    -0.274 OA
HETATM   23  N3  UNL     1      11.327  21.011  13.989  1.00  0.00    -0.346 N 
ATOM     24  H3  UNL     1      11.568  21.995  13.872  1.00  0.00     0.163 HD
BRANCH  23  25
HETATM   25  C14 UNL     1       9.955  20.599  14.037  1.00  0.00     0.078 C 
HETATM   26  C15 UNL     1       9.122  21.788  13.471  1.00  0.00     0.046 C 
HETATM   27  C16 UNL     1       9.604  19.437  13.151  1.00  0.00     0.046 C 
BRANCH  25  28
HETATM   28  C17 UNL     1       9.529  20.444  15.444  1.00  0.00     0.261 C 
HETATM   29  O5  UNL     1       8.872  21.422  15.914  1.00  0.00    -0.304 OA
ENDBRANCH  25  28
ENDBRANCH  23  25
ENDBRANCH  20  21
ENDBRANCH  19  20
ENDBRANCH   1  19
BRANCH   1  30
HETATM   30  N4  UNL     1      14.633  21.822  16.633  1.00  0.00    -0.325 N 
HETATM   31  C18 UNL     1      14.556  22.331  17.911  1.00  0.00     0.362 C 
HETATM   32  O6  UNL     1      14.352  23.497  18.274  1.00  0.00    -0.238 OA
ATOM     33  H4  UNL     1      14.722  20.808  16.578  1.00  0.00     0.165 HD
BRANCH  31  34
HETATM   34  O7  UNL     1      14.775  21.411  18.972  1.00  0.00    -0.282 OA
BRANCH  34  35
HETATM   35  C19 UNL     1      14.320  20.087  18.996  1.00  0.00     0.117 C 
HETATM   36  C20 UNL     1      15.312  19.249  18.252  1.00  0.00     0.059 C 
HETATM   37  C21 UNL     1      12.991  20.178  18.277  1.00  0.00     0.051 C 
HETATM   38  C22 UNL     1      12.528  18.961  17.564  1.00  0.00     0.020 C 
HETATM   39  C23 UNL     1      11.994  17.888  18.453  1.00  0.00     0.014 C 
HETATM   40  C24 UNL     1      12.628  16.550  18.119  1.00  0.00     0.023 C 
HETATM   41  C25 UNL     1      10.490  17.669  18.191  1.00  0.00     0.023 C 
HETATM   42  C26 UNL     1      12.134  18.132  19.900  1.00  0.00     0.144 C 
HETATM   43  O8  UNL     1      11.095  18.462  20.464  1.00  0.00    -0.296 OA
HETATM   44  C27 UNL     1      13.270  18.062  20.850  1.00  0.00     0.156 C 
HETATM   45  S1  UNL     1      14.212  19.594  20.706  1.00  0.00    -0.123 SA
ENDBRANCH  34  35
ENDBRANCH  31  34
ENDBRANCH   1  30
TORSDOF 16
ENDMDL
