MODEL 1
REMARK VINA RESULT: -9.481366691      0.000      0.000
REMARK  12 active torsions:
REMARK  status: ('A' for Active; 'I' for Inactive)
REMARK    1  A    between atoms: C2_2  and  C3_3 
REMARK    2  A    between atoms: C3_3  and  C4_4 
REMARK    3  A    between atoms: C4_4  and  C5_5 
REMARK    4  A    between atoms: C5_5  and  N1_6 
REMARK    5  A    between atoms: S1_11  and  C7_13 
REMARK    6  A    between atoms: C16_27  and  C17_28 
REMARK       I    between atoms: C17_28  and  N5_30 
REMARK    7  A    between atoms: N5_30  and  C18_32 
REMARK    8  A    between atoms: C18_32  and  C19_33 
REMARK    9  A    between atoms: C19_33  and  N6_34 
REMARK   10  A    between atoms: N7_37  and  C22_38 
REMARK   11  A    between atoms: C22_38  and  C23_39 
REMARK   12  A    between atoms: C23_39  and  N8_40 
ROOT
HETATM    1  N1  UNL     1      17.399  23.117  16.365  1.00  0.00    -0.344 N 
HETATM    2  C6  UNL     1      18.727  23.486  16.644  1.00  0.00     0.179 C 
HETATM    3  N2  UNL     1      19.670  23.544  15.818  1.00  0.00    -0.377 N 
ATOM      4  H21 UNL     1      20.633  23.812  16.021  1.00  0.00     0.158 HD
ATOM      5  H22 UNL     1      19.476  23.261  14.858  1.00  0.00     0.158 HD
HETATM    6  S1  UNL     1      19.062  23.977  18.305  1.00  0.00     0.124 S 
HETATM    7  O1  UNL     1      19.257  22.744  19.120  1.00  0.00    -0.236 OA
HETATM    8  N4  UNL     1      17.788  24.789  18.722  1.00  0.00    -0.339 N 
ATOM      9  H4  UNL     1      17.605  25.053  19.690  1.00  0.00     0.169 HD
HETATM   10  C15 UNL     1      16.893  25.137  17.653  1.00  0.00     0.164 C 
HETATM   11  C16 UNL     1      16.326  23.921  16.932  1.00  0.00     0.196 C 
ENDROOT
BRANCH  11  12
HETATM   12  C17 UNL     1      15.507  23.210  17.934  1.00  0.00     0.242 C 
HETATM   13  O2  UNL     1      14.316  23.600  18.178  1.00  0.00    -0.271 OA
HETATM   14  N5  UNL     1      15.955  22.089  18.672  1.00  0.00    -0.358 N 
ATOM     15  H5  UNL     1      16.902  21.743  18.518  1.00  0.00     0.162 HD
BRANCH  14  16
HETATM   16  C18 UNL     1      15.107  21.412  19.646  1.00  0.00     0.152 C 
BRANCH  16  17
HETATM   17  C19 UNL     1      14.796  20.014  19.174  1.00  0.00     0.292 C 
BRANCH  17  18
HETATM   18  N6  UNL     1      13.458  19.604  19.447  1.00  0.00     0.093 N 
HETATM   19  C20 UNL     1      13.322  18.317  20.075  1.00  0.00     0.291 C 
HETATM   20  C21 UNL     1      11.820  18.117  20.318  1.00  0.00     0.147 C 
HETATM   21  N7  UNL     1      11.185  17.963  19.074  1.00  0.00    -0.407 N 
HETATM   22  C28 UNL     1      11.884  18.447  17.949  1.00  0.00     0.147 C 
HETATM   23  C29 UNL     1      12.665  19.707  18.235  1.00  0.00     0.291 C 
BRANCH  21  24
HETATM   24  C22 UNL     1      10.278  16.887  18.892  1.00  0.00     0.147 C 
BRANCH  24  25
HETATM   25  C23 UNL     1      10.897  15.633  18.385  1.00  0.00     0.291 C 
BRANCH  25  26
HETATM   26  N8  UNL     1      10.043  14.987  17.423  1.00  0.00     0.094 N 
HETATM   27  C24 UNL     1      10.444  13.608  17.199  1.00  0.00     0.298 C 
HETATM   28  C25 UNL     1      10.787  13.302  15.787  1.00  0.00     0.198 C 
HETATM   29  O3  UNL     1      11.317  14.280  15.020  1.00  0.00    -0.388 OA
HETATM   30  C26 UNL     1      11.195  15.577  15.436  1.00  0.00     0.198 C 
HETATM   31  C27 UNL     1       9.886  15.697  16.184  1.00  0.00     0.298 C 
ENDBRANCH  25  26
ENDBRANCH  24  25
ENDBRANCH  21  24
ENDBRANCH  17  18
ENDBRANCH  16  17
ENDBRANCH  14  16
ENDBRANCH  11  12
BRANCH   1  32
HETATM   32  C5  UNL     1      17.059  22.042  15.512  1.00  0.00     0.126 C 
BRANCH  32  33
HETATM   33  C4  UNL     1      16.291  22.277  14.274  1.00  0.00     0.020 C 
BRANCH  33  34
HETATM   34  C3  UNL     1      15.163  21.335  13.991  1.00  0.00     0.001 C 
BRANCH  34  35
HETATM   35  C2  UNL     1      14.071  21.457  15.047  1.00  0.00    -0.004 C 
HETATM   36  C1  UNL     1      13.326  22.763  14.928  1.00  0.00     0.005 C 
ENDBRANCH  34  35
ENDBRANCH  33  34
ENDBRANCH  32  33
ENDBRANCH   1  32
BRANCH   6  37
HETATM   37  C7  UNL     1      20.520  24.952  18.405  1.00  0.00     0.114 A 
HETATM   38  S2  UNL     1      21.744  24.816  19.580  1.00  0.00    -0.088 SA
HETATM   39  C8  UNL     1      22.786  26.053  19.038  1.00  0.00     0.065 A 
HETATM   40  C9  UNL     1      22.132  26.545  17.932  1.00  0.00    -0.001 A 
HETATM   41  C10 UNL     1      22.633  27.604  17.143  1.00  0.00     0.016 A 
HETATM   42  C14 UNL     1      20.966  25.976  17.607  1.00  0.00     0.070 A 
HETATM   43  C11 UNL     1      21.959  28.082  16.041  1.00  0.00     0.025 A 
HETATM   44  C12 UNL     1      20.765  27.463  15.749  1.00  0.00     0.005 A 
HETATM   45  C13 UNL     1      20.025  27.979  14.552  1.00  0.00     0.068 C 
HETATM   46  N3  UNL     1      20.310  26.469  16.501  1.00  0.00    -0.358 N 
ATOM     47  H3  UNL     1      19.420  26.044  16.243  1.00  0.00     0.166 HD
ENDBRANCH   6  37
TORSDOF 12
ENDMDL
MODEL 2
REMARK VINA RESULT: -9.219444804      2.127      2.854
REMARK  12 active torsions:
REMARK  status: ('A' for Active; 'I' for Inactive)
REMARK    1  A    between atoms: C2_2  and  C3_3 
REMARK    2  A    between atoms: C3_3  and  C4_4 
REMARK    3  A    between atoms: C4_4  and  C5_5 
REMARK    4  A    between atoms: C5_5  and  N1_6 
REMARK    5  A    between atoms: S1_11  and  C7_13 
REMARK    6  A    between atoms: C16_27  and  C17_28 
REMARK       I    between atoms: C17_28  and  N5_30 
REMARK    7  A    between atoms: N5_30  and  C18_32 
REMARK    8  A    between atoms: C18_32  and  C19_33 
REMARK    9  A    between atoms: C19_33  and  N6_34 
REMARK   10  A    between atoms: N7_37  and  C22_38 
REMARK   11  A    between atoms: C22_38  and  C23_39 
REMARK   12  A    between atoms: C23_39  and  N8_40 
ROOT
HETATM    1  N1  UNL     1      18.529  23.252  17.661  1.00  0.00    -0.344 N 
HETATM    2  C6  UNL     1      19.776  23.732  18.098  1.00  0.00     0.179 C 
HETATM    3  N2  UNL     1      20.607  24.373  17.410  1.00  0.00    -0.377 N 
ATOM      4  H21 UNL     1      21.512  24.721  17.727  1.00  0.00     0.158 HD
ATOM      5  H22 UNL     1      20.386  24.532  16.427  1.00  0.00     0.158 HD
HETATM    6  S1  UNL     1      20.159  23.458  19.798  1.00  0.00     0.124 S 
HETATM    7  O1  UNL     1      20.672  22.065  19.936  1.00  0.00    -0.236 OA
HETATM    8  N4  UNL     1      18.793  23.681  20.532  1.00  0.00    -0.339 N 
ATOM      9  H4  UNL     1      18.652  23.418  21.508  1.00  0.00     0.169 HD
HETATM   10  C15 UNL     1      17.751  24.277  19.744  1.00  0.00     0.164 C 
HETATM   11  C16 UNL     1      17.374  23.443  18.527  1.00  0.00     0.196 C 
ENDROOT
BRANCH  11  12
HETATM   12  C17 UNL     1      16.811  22.188  19.063  1.00  0.00     0.242 C 
HETATM   13  O2  UNL     1      17.565  21.174  19.243  1.00  0.00    -0.271 OA
HETATM   14  N5  UNL     1      15.447  22.014  19.404  1.00  0.00    -0.358 N 
ATOM     15  H5  UNL     1      14.803  22.792  19.271  1.00  0.00     0.162 HD
BRANCH  14  16
HETATM   16  C18 UNL     1      14.937  20.758  19.938  1.00  0.00     0.152 C 
BRANCH  16  17
HETATM   17  C19 UNL     1      14.251  19.975  18.847  1.00  0.00     0.292 C 
BRANCH  17  18
HETATM   18  N6  UNL     1      13.019  19.384  19.255  1.00  0.00     0.093 N 
HETATM   19  C20 UNL     1      13.098  18.003  19.650  1.00  0.00     0.291 C 
HETATM   20  C21 UNL     1      11.683  17.605  20.095  1.00  0.00     0.147 C 
HETATM   21  N7  UNL     1      10.848  17.595  18.965  1.00  0.00    -0.407 N 
HETATM   22  C28 UNL     1      11.294  18.332  17.849  1.00  0.00     0.147 C 
HETATM   23  C29 UNL     1      12.016  19.603  18.229  1.00  0.00     0.291 C 
BRANCH  21  24
HETATM   24  C22 UNL     1      10.008  16.474  18.739  1.00  0.00     0.147 C 
BRANCH  24  25
HETATM   25  C23 UNL     1      10.705  15.274  18.202  1.00  0.00     0.291 C 
BRANCH  25  26
HETATM   26  N8  UNL     1       9.949  14.670  17.137  1.00  0.00     0.094 N 
HETATM   27  C24 UNL     1      10.441  13.339  16.825  1.00  0.00     0.298 C 
HETATM   28  C25 UNL     1      10.884  13.174  15.417  1.00  0.00     0.198 C 
HETATM   29  O3  UNL     1      11.401  14.241  14.770  1.00  0.00    -0.388 OA
HETATM   30  C26 UNL     1      11.181  15.489  15.284  1.00  0.00     0.198 C 
HETATM   31  C27 UNL     1       9.824  15.475  15.954  1.00  0.00     0.298 C 
ENDBRANCH  25  26
ENDBRANCH  24  25
ENDBRANCH  21  24
ENDBRANCH  17  18
ENDBRANCH  16  17
ENDBRANCH  14  16
ENDBRANCH  11  12
BRANCH   1  32
HETATM   32  C5  UNL     1      18.333  22.649  16.396  1.00  0.00     0.126 C 
BRANCH  32  33
HETATM   33  C4  UNL     1      17.437  23.266  15.399  1.00  0.00     0.020 C 
BRANCH  33  34
HETATM   34  C3  UNL     1      16.218  22.487  15.015  1.00  0.00     0.001 C 
BRANCH  34  35
HETATM   35  C2  UNL     1      15.001  22.953  15.805  1.00  0.00    -0.004 C 
HETATM   36  C1  UNL     1      13.738  22.860  14.987  1.00  0.00     0.005 C 
ENDBRANCH  34  35
ENDBRANCH  33  34
ENDBRANCH  32  33
ENDBRANCH   1  32
BRANCH   6  37
HETATM   37  C7  UNL     1      21.395  24.570  20.365  1.00  0.00     0.114 A 
HETATM   38  S2  UNL     1      21.128  26.065  21.135  1.00  0.00    -0.088 SA
HETATM   39  C8  UNL     1      22.746  26.546  21.373  1.00  0.00     0.065 A 
HETATM   40  C9  UNL     1      23.462  25.503  20.833  1.00  0.00    -0.001 A 
HETATM   41  C10 UNL     1      24.873  25.464  20.803  1.00  0.00     0.016 A 
HETATM   42  C14 UNL     1      22.763  24.486  20.315  1.00  0.00     0.070 A 
HETATM   43  C11 UNL     1      25.568  24.410  20.254  1.00  0.00     0.025 A 
HETATM   44  C12 UNL     1      24.804  23.389  19.735  1.00  0.00     0.005 A 
HETATM   45  C13 UNL     1      25.554  22.239  19.134  1.00  0.00     0.068 C 
HETATM   46  N3  UNL     1      23.480  23.442  19.772  1.00  0.00    -0.358 N 
ATOM     47  H3  UNL     1      22.959  22.661  19.374  1.00  0.00     0.166 HD
ENDBRANCH   6  37
TORSDOF 12
ENDMDL
MODEL 3
REMARK VINA RESULT: -9.152222892      2.091      3.463
REMARK  12 active torsions:
REMARK  status: ('A' for Active; 'I' for Inactive)
REMARK    1  A    between atoms: C2_2  and  C3_3 
REMARK    2  A    between atoms: C3_3  and  C4_4 
REMARK    3  A    between atoms: C4_4  and  C5_5 
REMARK    4  A    between atoms: C5_5  and  N1_6 
REMARK    5  A    between atoms: S1_11  and  C7_13 
REMARK    6  A    between atoms: C16_27  and  C17_28 
REMARK       I    between atoms: C17_28  and  N5_30 
REMARK    7  A    between atoms: N5_30  and  C18_32 
REMARK    8  A    between atoms: C18_32  and  C19_33 
REMARK    9  A    between atoms: C19_33  and  N6_34 
REMARK   10  A    between atoms: N7_37  and  C22_38 
REMARK   11  A    between atoms: C22_38  and  C23_39 
REMARK   12  A    between atoms: C23_39  and  N8_40 
ROOT
HETATM    1  N1  UNL     1      18.702  23.676  17.860  1.00  0.00    -0.344 N 
HETATM    2  C6  UNL     1      19.978  24.058  18.313  1.00  0.00     0.179 C 
HETATM    3  N2  UNL     1      20.807  24.762  17.688  1.00  0.00    -0.377 N 
ATOM      4  H21 UNL     1      21.732  25.039  18.017  1.00  0.00     0.158 HD
ATOM      5  H22 UNL     1      20.561  25.057  16.743  1.00  0.00     0.158 HD
HETATM    6  S1  UNL     1      20.404  23.549  19.948  1.00  0.00     0.124 S 
HETATM    7  O1  UNL     1      20.876  22.136  19.882  1.00  0.00    -0.236 OA
HETATM    8  N4  UNL     1      19.069  23.709  20.752  1.00  0.00    -0.339 N 
ATOM      9  H4  UNL     1      18.950  23.323  21.689  1.00  0.00     0.169 HD
HETATM   10  C15 UNL     1      18.023  24.435  20.087  1.00  0.00     0.164 C 
HETATM   11  C16 UNL     1      17.582  23.781  18.784  1.00  0.00     0.196 C 
ENDROOT
BRANCH  11  12
HETATM   12  C17 UNL     1      16.995  22.482  19.168  1.00  0.00     0.242 C 
HETATM   13  O2  UNL     1      17.745  21.459  19.308  1.00  0.00    -0.271 OA
HETATM   14  N5  UNL     1      15.614  22.275  19.400  1.00  0.00    -0.358 N 
ATOM     15  H5  UNL     1      14.972  23.061  19.293  1.00  0.00     0.162 HD
BRANCH  14  16
HETATM   16  C18 UNL     1      15.079  20.975  19.786  1.00  0.00     0.152 C 
BRANCH  16  17
HETATM   17  C19 UNL     1      14.372  20.341  18.615  1.00  0.00     0.292 C 
BRANCH  17  18
HETATM   18  N6  UNL     1      13.091  19.806  18.943  1.00  0.00     0.093 N 
HETATM   19  C20 UNL     1      13.107  18.609  19.740  1.00  0.00     0.291 C 
HETATM   20  C21 UNL     1      11.638  18.256  20.010  1.00  0.00     0.147 C 
HETATM   21  N7  UNL     1      11.047  17.857  18.799  1.00  0.00    -0.407 N 
HETATM   22  C28 UNL     1      11.699  18.268  17.618  1.00  0.00     0.147 C 
HETATM   23  C29 UNL     1      12.312  19.644  17.729  1.00  0.00     0.291 C 
BRANCH  21  24
HETATM   24  C22 UNL     1      10.285  16.661  18.765  1.00  0.00     0.147 C 
BRANCH  24  25
HETATM   25  C23 UNL     1      10.966  15.509  18.114  1.00  0.00     0.291 C 
BRANCH  25  26
HETATM   26  N8  UNL     1      10.090  14.853  17.178  1.00  0.00     0.094 N 
HETATM   27  C24 UNL     1      10.460  13.459  16.994  1.00  0.00     0.298 C 
HETATM   28  C25 UNL     1      10.784  13.103  15.589  1.00  0.00     0.198 C 
HETATM   29  O3  UNL     1      11.328  14.047  14.789  1.00  0.00    -0.388 OA
HETATM   30  C26 UNL     1      11.237  15.357  15.165  1.00  0.00     0.198 C 
HETATM   31  C27 UNL     1       9.937  15.528  15.920  1.00  0.00     0.298 C 
ENDBRANCH  25  26
ENDBRANCH  24  25
ENDBRANCH  21  24
ENDBRANCH  17  18
ENDBRANCH  16  17
ENDBRANCH  14  16
ENDBRANCH  11  12
BRANCH   1  32
HETATM   32  C5  UNL     1      18.448  23.253  16.535  1.00  0.00     0.126 C 
BRANCH  32  33
HETATM   33  C4  UNL     1      17.612  24.068  15.632  1.00  0.00     0.020 C 
BRANCH  33  34
HETATM   34  C3  UNL     1      17.829  25.549  15.667  1.00  0.00     0.001 C 
BRANCH  34  35
HETATM   35  C2  UNL     1      18.730  25.996  14.523  1.00  0.00    -0.004 C 
HETATM   36  C1  UNL     1      19.676  27.088  14.955  1.00  0.00     0.005 C 
ENDBRANCH  34  35
ENDBRANCH  33  34
ENDBRANCH  32  33
ENDBRANCH   1  32
BRANCH   6  37
HETATM   37  C7  UNL     1      21.692  24.540  20.614  1.00  0.00     0.114 A 
HETATM   38  S2  UNL     1      21.497  25.937  21.567  1.00  0.00    -0.088 SA
HETATM   39  C8  UNL     1      23.137  26.330  21.820  1.00  0.00     0.065 A 
HETATM   40  C9  UNL     1      23.802  25.337  21.138  1.00  0.00    -0.001 A 
HETATM   41  C10 UNL     1      25.210  25.254  21.067  1.00  0.00     0.016 A 
HETATM   42  C14 UNL     1      23.055  24.416  20.518  1.00  0.00     0.070 A 
HETATM   43  C11 UNL     1      25.853  24.252  20.376  1.00  0.00     0.025 A 
HETATM   44  C12 UNL     1      25.041  23.329  19.756  1.00  0.00     0.005 A 
HETATM   45  C13 UNL     1      25.734  22.236  19.000  1.00  0.00     0.068 C 
HETATM   46  N3  UNL     1      23.720  23.423  19.834  1.00  0.00    -0.358 N 
ATOM     47  H3  UNL     1      23.162  22.714  19.357  1.00  0.00     0.166 HD
ENDBRANCH   6  37
TORSDOF 12
ENDMDL
MODEL 4
REMARK VINA RESULT: -9.116322509      3.994     12.627
REMARK  12 active torsions:
REMARK  status: ('A' for Active; 'I' for Inactive)
REMARK    1  A    between atoms: C2_2  and  C3_3 
REMARK    2  A    between atoms: C3_3  and  C4_4 
REMARK    3  A    between atoms: C4_4  and  C5_5 
REMARK    4  A    between atoms: C5_5  and  N1_6 
REMARK    5  A    between atoms: S1_11  and  C7_13 
REMARK    6  A    between atoms: C16_27  and  C17_28 
REMARK       I    between atoms: C17_28  and  N5_30 
REMARK    7  A    between atoms: N5_30  and  C18_32 
REMARK    8  A    between atoms: C18_32  and  C19_33 
REMARK    9  A    between atoms: C19_33  and  N6_34 
REMARK   10  A    between atoms: N7_37  and  C22_38 
REMARK   11  A    between atoms: C22_38  and  C23_39 
REMARK   12  A    between atoms: C23_39  and  N8_40 
ROOT
HETATM    1  N1  UNL     1      15.420  21.310  16.888  1.00  0.00    -0.344 N 
HETATM    2  C6  UNL     1      14.497  20.489  16.217  1.00  0.00     0.179 C 
HETATM    3  N2  UNL     1      13.944  19.461  16.680  1.00  0.00    -0.377 N 
ATOM      4  H21 UNL     1      13.274  18.866  16.194  1.00  0.00     0.158 HD
ATOM      5  H22 UNL     1      14.213  19.161  17.617  1.00  0.00     0.158 HD
HETATM    6  S1  UNL     1      14.032  21.008  14.597  1.00  0.00     0.124 S 
HETATM    7  O1  UNL     1      15.090  20.558  13.647  1.00  0.00    -0.236 OA
HETATM    8  N4  UNL     1      13.941  22.569  14.714  1.00  0.00    -0.339 N 
ATOM      9  H4  UNL     1      13.866  23.171  13.894  1.00  0.00     0.169 HD
HETATM   10  C15 UNL     1      13.971  23.097  16.049  1.00  0.00     0.164 C 
HETATM   11  C16 UNL     1      15.254  22.753  16.796  1.00  0.00     0.196 C 
ENDROOT
BRANCH  11  12
HETATM   12  C17 UNL     1      16.337  23.438  16.063  1.00  0.00     0.242 C 
HETATM   13  O2  UNL     1      16.953  22.834  15.123  1.00  0.00    -0.271 OA
HETATM   14  N5  UNL     1      16.763  24.761  16.334  1.00  0.00    -0.358 N 
ATOM     15  H5  UNL     1      16.307  25.283  17.081  1.00  0.00     0.162 HD
BRANCH  14  16
HETATM   16  C18 UNL     1      17.833  25.400  15.578  1.00  0.00     0.152 C 
BRANCH  16  17
HETATM   17  C19 UNL     1      19.116  25.364  16.370  1.00  0.00     0.292 C 
BRANCH  17  18
HETATM   18  N6  UNL     1      19.890  26.556  16.259  1.00  0.00     0.093 N 
HETATM   19  C20 UNL     1      20.792  26.605  15.140  1.00  0.00     0.291 C 
HETATM   20  C21 UNL     1      21.466  27.984  15.195  1.00  0.00     0.147 C 
HETATM   21  N7  UNL     1      22.307  28.022  16.320  1.00  0.00    -0.407 N 
HETATM   22  C28 UNL     1      22.041  27.081  17.336  1.00  0.00     0.147 C 
HETATM   23  C29 UNL     1      20.567  26.810  17.518  1.00  0.00     0.291 C 
BRANCH  21  24
HETATM   24  C22 UNL     1      23.638  28.490  16.169  1.00  0.00     0.147 C 
BRANCH  24  25
HETATM   25  C23 UNL     1      24.544  27.561  15.440  1.00  0.00     0.291 C 
BRANCH  25  26
HETATM   26  N8  UNL     1      25.614  27.108  16.291  1.00  0.00     0.094 N 
HETATM   27  C24 UNL     1      25.836  28.025  17.397  1.00  0.00     0.298 C 
HETATM   28  C25 UNL     1      27.212  28.583  17.450  1.00  0.00     0.198 C 
HETATM   29  O3  UNL     1      27.885  28.762  16.292  1.00  0.00    -0.388 OA
HETATM   30  C26 UNL     1      27.444  28.116  15.171  1.00  0.00     0.198 C 
HETATM   31  C27 UNL     1      26.839  26.800  15.608  1.00  0.00     0.298 C 
ENDBRANCH  25  26
ENDBRANCH  24  25
ENDBRANCH  21  24
ENDBRANCH  17  18
ENDBRANCH  16  17
ENDBRANCH  14  16
ENDBRANCH  11  12
BRANCH   1  32
HETATM   32  C5  UNL     1      16.463  20.801  17.697  1.00  0.00     0.126 C 
BRANCH  32  33
HETATM   33  C4  UNL     1      16.668  21.306  19.067  1.00  0.00     0.020 C 
BRANCH  33  34
HETATM   34  C3  UNL     1      17.989  21.946  19.360  1.00  0.00     0.001 C 
BRANCH  34  35
HETATM   35  C2  UNL     1      17.844  23.455  19.512  1.00  0.00    -0.004 C 
HETATM   36  C1  UNL     1      18.245  23.917  20.890  1.00  0.00     0.005 C 
ENDBRANCH  34  35
ENDBRANCH  33  34
ENDBRANCH  32  33
ENDBRANCH   1  32
BRANCH   6  37
HETATM   37  C7  UNL     1      12.500  20.299  14.110  1.00  0.00     0.114 A 
HETATM   38  S2  UNL     1      10.954  20.950  14.395  1.00  0.00    -0.088 SA
HETATM   39  C8  UNL     1      10.004  19.740  13.658  1.00  0.00     0.065 A 
HETATM   40  C9  UNL     1      10.944  18.845  13.202  1.00  0.00    -0.001 A 
HETATM   41  C10 UNL     1      10.614  17.657  12.513  1.00  0.00     0.016 A 
HETATM   42  C14 UNL     1      12.229  19.135  13.436  1.00  0.00     0.070 A 
HETATM   43  C11 UNL     1      11.573  16.774  12.068  1.00  0.00     0.025 A 
HETATM   44  C12 UNL     1      12.879  17.119  12.333  1.00  0.00     0.005 A 
HETATM   45  C13 UNL     1      13.928  16.162  11.853  1.00  0.00     0.068 C 
HETATM   46  N3  UNL     1      13.171  18.239  12.981  1.00  0.00    -0.358 N 
ATOM     47  H3  UNL     1      14.154  18.449  13.153  1.00  0.00     0.166 HD
ENDBRANCH   6  37
TORSDOF 12
ENDMDL
MODEL 5
REMARK VINA RESULT: -9.065079725      2.866      3.751
REMARK  12 active torsions:
REMARK  status: ('A' for Active; 'I' for Inactive)
REMARK    1  A    between atoms: C2_2  and  C3_3 
REMARK    2  A    between atoms: C3_3  and  C4_4 
REMARK    3  A    between atoms: C4_4  and  C5_5 
REMARK    4  A    between atoms: C5_5  and  N1_6 
REMARK    5  A    between atoms: S1_11  and  C7_13 
REMARK    6  A    between atoms: C16_27  and  C17_28 
REMARK       I    between atoms: C17_28  and  N5_30 
REMARK    7  A    between atoms: N5_30  and  C18_32 
REMARK    8  A    between atoms: C18_32  and  C19_33 
REMARK    9  A    between atoms: C19_33  and  N6_34 
REMARK   10  A    between atoms: N7_37  and  C22_38 
REMARK   11  A    between atoms: C22_38  and  C23_39 
REMARK   12  A    between atoms: C23_39  and  N8_40 
ROOT
HETATM    1  N1  UNL     1      18.607  23.310  17.675  1.00  0.00    -0.344 N 
HETATM    2  C6  UNL     1      19.847  23.789  18.133  1.00  0.00     0.179 C 
HETATM    3  N2  UNL     1      20.689  24.432  17.460  1.00  0.00    -0.377 N 
ATOM      4  H21 UNL     1      21.588  24.780  17.793  1.00  0.00     0.158 HD
ATOM      5  H22 UNL     1      20.483  24.593  16.474  1.00  0.00     0.158 HD
HETATM    6  S1  UNL     1      20.204  23.510  19.838  1.00  0.00     0.124 S 
HETATM    7  O1  UNL     1      20.714  22.117  19.981  1.00  0.00    -0.236 OA
HETATM    8  N4  UNL     1      18.825  23.731  20.552  1.00  0.00    -0.339 N 
ATOM      9  H4  UNL     1      18.669  23.466  21.524  1.00  0.00     0.169 HD
HETATM   10  C15 UNL     1      17.796  24.329  19.748  1.00  0.00     0.164 C 
HETATM   11  C16 UNL     1      17.439  23.498  18.523  1.00  0.00     0.196 C 
ENDROOT
BRANCH  11  12
HETATM   12  C17 UNL     1      16.867  22.241  19.047  1.00  0.00     0.242 C 
HETATM   13  O2  UNL     1      17.634  21.264  19.340  1.00  0.00    -0.271 OA
HETATM   14  N5  UNL     1      15.483  22.027  19.255  1.00  0.00    -0.358 N 
ATOM     15  H5  UNL     1      14.829  22.776  19.028  1.00  0.00     0.162 HD
BRANCH  14  16
HETATM   16  C18 UNL     1      14.964  20.771  19.783  1.00  0.00     0.152 C 
BRANCH  16  17
HETATM   17  C19 UNL     1      14.575  19.858  18.648  1.00  0.00     0.292 C 
BRANCH  17  18
HETATM   18  N6  UNL     1      13.245  20.068  18.176  1.00  0.00     0.093 N 
HETATM   19  C20 UNL     1      12.351  18.953  18.335  1.00  0.00     0.291 C 
HETATM   20  C21 UNL     1      10.985  19.424  17.815  1.00  0.00     0.147 C 
HETATM   21  N7  UNL     1      11.075  19.600  16.424  1.00  0.00    -0.407 N 
HETATM   22  C28 UNL     1      12.373  19.760  15.895  1.00  0.00     0.147 C 
HETATM   23  C29 UNL     1      13.290  20.542  16.804  1.00  0.00     0.291 C 
BRANCH  21  24
HETATM   24  C22 UNL     1      10.074  19.035  15.592  1.00  0.00     0.147 C 
BRANCH  24  25
HETATM   25  C23 UNL     1       9.946  19.673  14.254  1.00  0.00     0.291 C 
BRANCH  25  26
HETATM   26  N8  UNL     1       9.897  18.683  13.211  1.00  0.00     0.094 N 
HETATM   27  C24 UNL     1      10.424  17.407  13.666  1.00  0.00     0.298 C 
HETATM   28  C25 UNL     1      11.576  16.912  12.871  1.00  0.00     0.198 C 
HETATM   29  O3  UNL     1      12.411  17.813  12.308  1.00  0.00    -0.388 OA
HETATM   30  C26 UNL     1      11.991  19.107  12.184  1.00  0.00     0.198 C 
HETATM   31  C27 UNL     1      10.494  19.085  11.968  1.00  0.00     0.298 C 
ENDBRANCH  25  26
ENDBRANCH  24  25
ENDBRANCH  21  24
ENDBRANCH  17  18
ENDBRANCH  16  17
ENDBRANCH  14  16
ENDBRANCH  11  12
BRANCH   1  32
HETATM   32  C5  UNL     1      18.431  22.710  16.406  1.00  0.00     0.126 C 
BRANCH  32  33
HETATM   33  C4  UNL     1      17.348  23.153  15.508  1.00  0.00     0.020 C 
BRANCH  33  34
HETATM   34  C3  UNL     1      16.237  22.181  15.261  1.00  0.00     0.001 C 
BRANCH  34  35
HETATM   35  C2  UNL     1      15.940  22.058  13.772  1.00  0.00    -0.004 C 
HETATM   36  C1  UNL     1      14.992  20.920  13.485  1.00  0.00     0.005 C 
ENDBRANCH  34  35
ENDBRANCH  33  34
ENDBRANCH  32  33
ENDBRANCH   1  32
BRANCH   6  37
HETATM   37  C7  UNL     1      21.430  24.621  20.428  1.00  0.00     0.114 A 
HETATM   38  S2  UNL     1      21.150  26.099  21.225  1.00  0.00    -0.088 SA
HETATM   39  C8  UNL     1      22.765  26.588  21.475  1.00  0.00     0.065 A 
HETATM   40  C9  UNL     1      23.489  25.561  20.916  1.00  0.00    -0.001 A 
HETATM   41  C10 UNL     1      24.900  25.533  20.888  1.00  0.00     0.016 A 
HETATM   42  C14 UNL     1      22.799  24.549  20.378  1.00  0.00     0.070 A 
HETATM   43  C11 UNL     1      25.604  24.494  20.320  1.00  0.00     0.025 A 
HETATM   44  C12 UNL     1      24.849  23.478  19.781  1.00  0.00     0.005 A 
HETATM   45  C13 UNL     1      25.608  22.344  19.160  1.00  0.00     0.068 C 
HETATM   46  N3  UNL     1      23.524  23.520  19.817  1.00  0.00    -0.358 N 
ATOM     47  H3  UNL     1      23.009  22.743  19.404  1.00  0.00     0.166 HD
ENDBRANCH   6  37
TORSDOF 12
ENDMDL
