MODEL 1
REMARK VINA RESULT: -9.193520580      0.000      0.000
REMARK  18 active torsions:
REMARK  status: ('A' for Active; 'I' for Inactive)
REMARK    1  A    between atoms: C2_2  and  C3_3 
REMARK    2  A    between atoms: C3_3  and  C4_4 
REMARK    3  A    between atoms: C4_4  and  C5_5 
REMARK    4  A    between atoms: C5_5  and  O1_6 
REMARK    5  A    between atoms: O1_6  and  C6_7 
REMARK       I    between atoms: C6_7  and  N1_9 
REMARK    6  A    between atoms: N2_12  and  C9_13 
REMARK    7  A    between atoms: C9_13  and  C10_14 
REMARK    8  A    between atoms: C10_14  and  N3_15 
REMARK    9  A    between atoms: N3_15  and  C11_16 
REMARK   10  A    between atoms: C11_16  and  O3_17 
REMARK   11  A    between atoms: C11_16  and  C12_19 
REMARK   12  A    between atoms: C14_21  and  C15_22 
REMARK   13  A    between atoms: N5_32  and  C23_33 
REMARK   14  A    between atoms: C23_33  and  C24_34 
REMARK       I    between atoms: C24_34  and  N6_36 
REMARK   15  A    between atoms: N6_36  and  C25_38 
REMARK   16  A    between atoms: C25_38  and  C28_41 
REMARK   17  A    between atoms: C28_41  and  O5_42 
REMARK   18  A    between atoms: C28_41  and  O6_44 
ROOT
HETATM    1  C12 UNL     1      14.587  22.376  16.934  1.00  0.00     0.118 A 
HETATM    2  C13 UNL     1      13.515  22.450  16.021  1.00  0.00     0.068 A 
HETATM    3  C14 UNL     1      13.412  21.218  15.418  1.00  0.00     0.061 A 
HETATM    4  N4  UNL     1      14.374  20.489  15.949  1.00  0.00    -0.297 N 
ATOM      5  H4  UNL     1      14.559  19.520  15.688  1.00  0.00     0.187 HD
HETATM    6  N5  UNL     1      15.090  21.170  16.881  1.00  0.00    -0.278 N 
ENDROOT
BRANCH   1   7
HETATM    7  C11 UNL     1      15.056  23.598  17.617  1.00  0.00     0.242 C 
BRANCH   7   8
HETATM    8  N3  UNL     1      16.300  24.177  17.571  1.00  0.00    -0.390 NA
BRANCH   8   9
HETATM    9  C10 UNL     1      17.537  24.776  17.493  1.00  0.00     0.197 C 
BRANCH   9  10
HETATM   10  C9  UNL     1      18.465  24.294  18.591  1.00  0.00     0.091 C 
BRANCH  10  11
HETATM   11  N2  UNL     1      19.811  23.988  18.318  1.00  0.00    -0.287 NA
HETATM   12  C8  UNL     1      20.746  23.895  19.346  1.00  0.00     0.114 C 
HETATM   13  C7  UNL     1      21.586  25.031  19.775  1.00  0.00     0.143 C 
HETATM   14  N1  UNL     1      21.825  25.986  18.710  1.00  0.00    -0.326 N 
HETATM   15  C6  UNL     1      23.090  26.513  18.447  1.00  0.00     0.362 C 
HETATM   16  C31 UNL     1      20.602  26.264  17.941  1.00  0.00     0.143 C 
HETATM   17  O2  UNL     1      24.092  26.123  19.134  1.00  0.00    -0.238 OA
HETATM   18  C30 UNL     1      20.274  24.961  17.254  1.00  0.00     0.114 C 
BRANCH  15  19
HETATM   19  O1  UNL     1      23.378  27.439  17.489  1.00  0.00    -0.304 OA
BRANCH  19  20
HETATM   20  C5  UNL     1      23.381  27.348  16.122  1.00  0.00     0.180 C 
BRANCH  20  21
HETATM   21  C4  UNL     1      22.452  28.270  15.375  1.00  0.00     0.027 C 
BRANCH  21  22
HETATM   22  C3  UNL     1      21.509  27.389  14.585  1.00  0.00     0.002 C 
BRANCH  22  23
HETATM   23  C2  UNL     1      20.080  27.864  14.623  1.00  0.00    -0.004 C 
HETATM   24  C1  UNL     1      19.130  26.763  14.318  1.00  0.00     0.005 C 
ENDBRANCH  22  23
ENDBRANCH  21  22
ENDBRANCH  20  21
ENDBRANCH  19  20
ENDBRANCH  15  19
ENDBRANCH  10  11
ENDBRANCH   9  10
ENDBRANCH   8   9
ENDBRANCH   7   8
BRANCH   7  25
HETATM   25  O3  UNL     1      14.113  24.165  18.326  1.00  0.00    -0.334 OA
ATOM     26  H3  UNL     1      14.278  24.364  19.240  1.00  0.00     0.220 HD
ENDBRANCH   7  25
ENDBRANCH   1   7
BRANCH   6  27
HETATM   27  C23 UNL     1      16.013  20.440  17.775  1.00  0.00     0.252 C 
BRANCH  27  28
HETATM   28  C24 UNL     1      14.962  20.045  18.872  1.00  0.00     0.238 C 
HETATM   29  O4  UNL     1      14.879  20.699  19.889  1.00  0.00    -0.272 OA
HETATM   30  N6  UNL     1      14.182  18.937  18.558  1.00  0.00    -0.346 N 
ATOM     31  H6  UNL     1      14.450  18.530  17.662  1.00  0.00     0.163 HD
BRANCH  30  32
HETATM   32  C25 UNL     1      13.108  18.222  19.159  1.00  0.00     0.075 C 
HETATM   33  C26 UNL     1      13.475  17.827  20.610  1.00  0.00     0.043 C 
HETATM   34  C27 UNL     1      13.070  16.800  18.456  1.00  0.00     0.043 C 
BRANCH  32  35
HETATM   35  C28 UNL     1      11.785  18.732  19.052  1.00  0.00     0.283 C 
BRANCH  35  36
HETATM   36  O5  UNL     1      11.013  18.408  20.198  1.00  0.00    -0.369 OA
ATOM     37  H5  UNL     1      10.339  19.058  20.356  1.00  0.00     0.212 HD
ENDBRANCH  35  36
BRANCH  35  38
HETATM   38  O6  UNL     1      11.026  19.419  18.237  1.00  0.00    -0.364 OA
HETATM   39  C29 UNL     1      10.467  19.171  17.008  1.00  0.00     0.204 C 
ENDBRANCH  35  38
ENDBRANCH  32  35
ENDBRANCH  30  32
ENDBRANCH  27  28
ENDBRANCH   6  27
BRANCH   3  40
HETATM   40  C15 UNL     1      12.447  20.812  14.380  1.00  0.00    -0.007 A 
HETATM   41  C16 UNL     1      12.763  19.656  13.652  1.00  0.00     0.020 A 
HETATM   42  C17 UNL     1      11.809  19.141  12.802  1.00  0.00    -0.061 A 
HETATM   43  C18 UNL     1      12.127  17.935  11.964  1.00  0.00     0.048 C 
HETATM   44  C19 UNL     1      10.538  19.757  12.674  1.00  0.00     0.013 A 
HETATM   45  C20 UNL     1      10.256  20.882  13.408  1.00  0.00    -0.061 A 
HETATM   46  C21 UNL     1       8.905  21.475  13.382  1.00  0.00     0.048 C 
HETATM   47  C22 UNL     1      11.247  21.373  14.247  1.00  0.00     0.020 A 
ENDBRANCH   3  40
TORSDOF 18
ENDMDL
MODEL 2
REMARK VINA RESULT: -9.029733607      1.126      1.764
REMARK  18 active torsions:
REMARK  status: ('A' for Active; 'I' for Inactive)
REMARK    1  A    between atoms: C2_2  and  C3_3 
REMARK    2  A    between atoms: C3_3  and  C4_4 
REMARK    3  A    between atoms: C4_4  and  C5_5 
REMARK    4  A    between atoms: C5_5  and  O1_6 
REMARK    5  A    between atoms: O1_6  and  C6_7 
REMARK       I    between atoms: C6_7  and  N1_9 
REMARK    6  A    between atoms: N2_12  and  C9_13 
REMARK    7  A    between atoms: C9_13  and  C10_14 
REMARK    8  A    between atoms: C10_14  and  N3_15 
REMARK    9  A    between atoms: N3_15  and  C11_16 
REMARK   10  A    between atoms: C11_16  and  O3_17 
REMARK   11  A    between atoms: C11_16  and  C12_19 
REMARK   12  A    between atoms: C14_21  and  C15_22 
REMARK   13  A    between atoms: N5_32  and  C23_33 
REMARK   14  A    between atoms: C23_33  and  C24_34 
REMARK       I    between atoms: C24_34  and  N6_36 
REMARK   15  A    between atoms: N6_36  and  C25_38 
REMARK   16  A    between atoms: C25_38  and  C28_41 
REMARK   17  A    between atoms: C28_41  and  O5_42 
REMARK   18  A    between atoms: C28_41  and  O6_44 
ROOT
HETATM    1  C12 UNL     1      15.378  21.977  15.584  1.00  0.00     0.118 A 
HETATM    2  C13 UNL     1      14.323  21.979  14.648  1.00  0.00     0.068 A 
HETATM    3  C14 UNL     1      13.584  20.840  14.869  1.00  0.00     0.061 A 
HETATM    4  N4  UNL     1      14.188  20.222  15.865  1.00  0.00    -0.297 N 
ATOM      5  H4  UNL     1      13.875  19.330  16.250  1.00  0.00     0.187 HD
HETATM    6  N5  UNL     1      15.271  20.902  16.322  1.00  0.00    -0.278 N 
ENDROOT
BRANCH   1   7
HETATM    7  C11 UNL     1      16.447  22.991  15.489  1.00  0.00     0.242 C 
BRANCH   7   8
HETATM    8  N3  UNL     1      16.774  23.974  16.388  1.00  0.00    -0.390 NA
BRANCH   8   9
HETATM    9  C10 UNL     1      17.102  24.986  17.263  1.00  0.00     0.197 C 
BRANCH   9  10
HETATM   10  C9  UNL     1      18.040  24.505  18.353  1.00  0.00     0.091 C 
BRANCH  10  11
HETATM   11  N2  UNL     1      19.352  24.097  18.051  1.00  0.00    -0.287 NA
HETATM   12  C8  UNL     1      20.216  23.664  19.054  1.00  0.00     0.114 C 
HETATM   13  C7  UNL     1      21.161  24.562  19.745  1.00  0.00     0.143 C 
HETATM   14  N1  UNL     1      21.566  25.688  18.926  1.00  0.00    -0.326 N 
HETATM   15  C6  UNL     1      22.897  26.094  18.817  1.00  0.00     0.362 C 
HETATM   16  C31 UNL     1      20.426  26.281  18.209  1.00  0.00     0.143 C 
HETATM   17  O2  UNL     1      23.809  25.440  19.424  1.00  0.00    -0.238 OA
HETATM   18  C30 UNL     1      19.981  25.211  17.242  1.00  0.00     0.114 C 
BRANCH  15  19
HETATM   19  O1  UNL     1      23.342  27.163  18.097  1.00  0.00    -0.304 OA
BRANCH  19  20
HETATM   20  C5  UNL     1      23.985  27.228  16.889  1.00  0.00     0.180 C 
BRANCH  20  21
HETATM   21  C4  UNL     1      23.189  26.840  15.671  1.00  0.00     0.027 C 
BRANCH  21  22
HETATM   22  C3  UNL     1      22.251  27.992  15.380  1.00  0.00     0.002 C 
BRANCH  22  23
HETATM   23  C2  UNL     1      21.334  27.732  14.213  1.00  0.00    -0.004 C 
HETATM   24  C1  UNL     1      19.906  27.812  14.613  1.00  0.00     0.005 C 
ENDBRANCH  22  23
ENDBRANCH  21  22
ENDBRANCH  20  21
ENDBRANCH  19  20
ENDBRANCH  15  19
ENDBRANCH  10  11
ENDBRANCH   9  10
ENDBRANCH   8   9
ENDBRANCH   7   8
BRANCH   7  25
HETATM   25  O3  UNL     1      17.150  22.870  14.391  1.00  0.00    -0.334 OA
ATOM     26  H3  UNL     1      16.725  23.002  13.552  1.00  0.00     0.220 HD
ENDBRANCH   7  25
ENDBRANCH   1   7
BRANCH   6  27
HETATM   27  C23 UNL     1      15.898  20.512  17.602  1.00  0.00     0.252 C 
BRANCH  27  28
HETATM   28  C24 UNL     1      14.588  20.479  18.466  1.00  0.00     0.238 C 
HETATM   29  O4  UNL     1      13.998  21.510  18.704  1.00  0.00    -0.272 OA
HETATM   30  N6  UNL     1      14.203  19.211  18.890  1.00  0.00    -0.346 N 
ATOM     31  H6  UNL     1      14.868  18.497  18.595  1.00  0.00     0.163 HD
BRANCH  30  32
HETATM   32  C25 UNL     1      13.124  18.649  19.628  1.00  0.00     0.075 C 
HETATM   33  C26 UNL     1      13.285  18.966  21.135  1.00  0.00     0.043 C 
HETATM   34  C27 UNL     1      13.349  17.078  19.621  1.00  0.00     0.043 C 
BRANCH  32  35
HETATM   35  C28 UNL     1      11.791  18.842  19.171  1.00  0.00     0.283 C 
BRANCH  35  36
HETATM   36  O5  UNL     1      10.858  18.160  19.997  1.00  0.00    -0.369 OA
ATOM     37  H5  UNL     1      11.207  18.021  20.869  1.00  0.00     0.212 HD
ENDBRANCH  35  36
BRANCH  35  38
HETATM   38  O6  UNL     1      11.121  19.453  18.228  1.00  0.00    -0.364 OA
HETATM   39  C29 UNL     1      10.509  19.047  17.068  1.00  0.00     0.204 C 
ENDBRANCH  35  38
ENDBRANCH  32  35
ENDBRANCH  30  32
ENDBRANCH  27  28
ENDBRANCH   6  27
BRANCH   3  40
HETATM   40  C15 UNL     1      12.389  20.396  14.129  1.00  0.00    -0.007 A 
HETATM   41  C16 UNL     1      11.232  21.173  14.288  1.00  0.00     0.020 A 
HETATM   42  C17 UNL     1      10.150  20.903  13.479  1.00  0.00    -0.061 A 
HETATM   43  C18 UNL     1       8.874  21.676  13.655  1.00  0.00     0.048 C 
HETATM   44  C19 UNL     1      10.208  19.874  12.505  1.00  0.00     0.013 A 
HETATM   45  C20 UNL     1      11.359  19.137  12.368  1.00  0.00    -0.061 A 
HETATM   46  C21 UNL     1      11.486  18.141  11.287  1.00  0.00     0.048 C 
HETATM   47  C22 UNL     1      12.423  19.437  13.207  1.00  0.00     0.020 A 
ENDBRANCH   3  40
TORSDOF 18
ENDMDL
MODEL 3
REMARK VINA RESULT: -9.021251030      2.195     11.694
REMARK  18 active torsions:
REMARK  status: ('A' for Active; 'I' for Inactive)
REMARK    1  A    between atoms: C2_2  and  C3_3 
REMARK    2  A    between atoms: C3_3  and  C4_4 
REMARK    3  A    between atoms: C4_4  and  C5_5 
REMARK    4  A    between atoms: C5_5  and  O1_6 
REMARK    5  A    between atoms: O1_6  and  C6_7 
REMARK       I    between atoms: C6_7  and  N1_9 
REMARK    6  A    between atoms: N2_12  and  C9_13 
REMARK    7  A    between atoms: C9_13  and  C10_14 
REMARK    8  A    between atoms: C10_14  and  N3_15 
REMARK    9  A    between atoms: N3_15  and  C11_16 
REMARK   10  A    between atoms: C11_16  and  O3_17 
REMARK   11  A    between atoms: C11_16  and  C12_19 
REMARK   12  A    between atoms: C14_21  and  C15_22 
REMARK   13  A    between atoms: N5_32  and  C23_33 
REMARK   14  A    between atoms: C23_33  and  C24_34 
REMARK       I    between atoms: C24_34  and  N6_36 
REMARK   15  A    between atoms: N6_36  and  C25_38 
REMARK   16  A    between atoms: C25_38  and  C28_41 
REMARK   17  A    between atoms: C28_41  and  O5_42 
REMARK   18  A    between atoms: C28_41  and  O6_44 
ROOT
HETATM    1  C12 UNL     1      18.688  23.042  19.034  1.00  0.00     0.118 A 
HETATM    2  C13 UNL     1      19.889  23.033  19.775  1.00  0.00     0.068 A 
HETATM    3  C14 UNL     1      20.263  24.344  19.955  1.00  0.00     0.061 A 
HETATM    4  N4  UNL     1      19.337  25.057  19.345  1.00  0.00    -0.297 N 
ATOM      5  H4  UNL     1      19.350  26.076  19.295  1.00  0.00     0.187 HD
HETATM    6  N5  UNL     1      18.365  24.287  18.791  1.00  0.00    -0.278 N 
ENDROOT
BRANCH   1   7
HETATM    7  C11 UNL     1      18.123  21.774  18.534  1.00  0.00     0.242 C 
BRANCH   7   8
HETATM    8  N3  UNL     1      17.526  21.524  17.323  1.00  0.00    -0.390 NA
BRANCH   8   9
HETATM    9  C10 UNL     1      16.961  21.279  16.092  1.00  0.00     0.197 C 
BRANCH   9  10
HETATM   10  C9  UNL     1      15.448  21.380  16.137  1.00  0.00     0.091 C 
BRANCH  10  11
HETATM   11  N2  UNL     1      14.640  20.294  15.758  1.00  0.00    -0.287 NA
HETATM   12  C8  UNL     1      13.524  20.481  14.945  1.00  0.00     0.114 C 
HETATM   13  C7  UNL     1      12.165  20.694  15.481  1.00  0.00     0.143 C 
HETATM   14  N1  UNL     1      11.974  20.087  16.784  1.00  0.00    -0.326 N 
HETATM   15  C6  UNL     1      10.841  19.335  17.100  1.00  0.00     0.362 C 
HETATM   16  C31 UNL     1      13.125  20.320  17.670  1.00  0.00     0.143 C 
HETATM   17  O2  UNL     1       9.949  19.132  16.211  1.00  0.00    -0.238 OA
HETATM   18  C30 UNL     1      14.263  19.563  17.029  1.00  0.00     0.114 C 
BRANCH  15  19
HETATM   19  O1  UNL     1      10.581  18.770  18.313  1.00  0.00    -0.304 OA
BRANCH  19  20
HETATM   20  C5  UNL     1      10.567  17.458  18.709  1.00  0.00     0.180 C 
BRANCH  20  21
HETATM   21  C4  UNL     1      11.903  16.793  18.914  1.00  0.00     0.027 C 
BRANCH  21  22
HETATM   22  C3  UNL     1      12.373  17.181  20.299  1.00  0.00     0.002 C 
BRANCH  22  23
HETATM   23  C2  UNL     1      13.703  17.890  20.299  1.00  0.00    -0.004 C 
HETATM   24  C1  UNL     1      13.643  19.165  21.059  1.00  0.00     0.005 C 
ENDBRANCH  22  23
ENDBRANCH  21  22
ENDBRANCH  20  21
ENDBRANCH  19  20
ENDBRANCH  15  19
ENDBRANCH  10  11
ENDBRANCH   9  10
ENDBRANCH   8   9
ENDBRANCH   7   8
BRANCH   7  25
HETATM   25  O3  UNL     1      18.256  20.796  19.395  1.00  0.00    -0.334 OA
ATOM     26  H3  UNL     1      18.772  20.937  20.179  1.00  0.00     0.220 HD
ENDBRANCH   7  25
ENDBRANCH   1   7
BRANCH   6  27
HETATM   27  C23 UNL     1      17.112  24.912  18.319  1.00  0.00     0.252 C 
BRANCH  27  28
HETATM   28  C24 UNL     1      17.546  25.136  16.828  1.00  0.00     0.238 C 
HETATM   29  O4  UNL     1      16.859  24.701  15.929  1.00  0.00    -0.272 OA
HETATM   30  N6  UNL     1      18.727  25.852  16.667  1.00  0.00    -0.346 N 
ATOM     31  H6  UNL     1      19.148  26.090  17.565  1.00  0.00     0.163 HD
BRANCH  30  32
HETATM   32  C25 UNL     1      19.503  26.341  15.578  1.00  0.00     0.075 C 
HETATM   33  C26 UNL     1      18.623  26.470  14.311  1.00  0.00     0.043 C 
HETATM   34  C27 UNL     1      20.474  25.159  15.155  1.00  0.00     0.043 C 
BRANCH  32  35
HETATM   35  C28 UNL     1      20.345  27.470  15.774  1.00  0.00     0.283 C 
BRANCH  35  36
HETATM   36  O5  UNL     1      20.018  28.519  14.875  1.00  0.00    -0.369 OA
ATOM     37  H5  UNL     1      20.798  28.892  14.481  1.00  0.00     0.212 HD
ENDBRANCH  35  36
BRANCH  35  38
HETATM   38  O6  UNL     1      21.337  27.877  16.523  1.00  0.00    -0.364 OA
HETATM   39  C29 UNL     1      21.888  27.447  17.705  1.00  0.00     0.204 C 
ENDBRANCH  35  38
ENDBRANCH  32  35
ENDBRANCH  30  32
ENDBRANCH  27  28
ENDBRANCH   6  27
BRANCH   3  40
HETATM   40  C15 UNL     1      21.461  24.839  20.657  1.00  0.00    -0.007 A 
HETATM   41  C16 UNL     1      21.241  25.752  21.699  1.00  0.00     0.020 A 
HETATM   42  C17 UNL     1      22.309  26.100  22.496  1.00  0.00    -0.061 A 
HETATM   43  C18 UNL     1      22.127  27.116  23.588  1.00  0.00     0.048 C 
HETATM   44  C19 UNL     1      23.594  25.543  22.276  1.00  0.00     0.013 A 
HETATM   45  C20 UNL     1      23.775  24.644  21.254  1.00  0.00    -0.061 A 
HETATM   46  C21 UNL     1      25.071  23.962  21.076  1.00  0.00     0.048 C 
HETATM   47  C22 UNL     1      22.674  24.326  20.470  1.00  0.00     0.020 A 
ENDBRANCH   3  40
TORSDOF 18
ENDMDL
MODEL 4
REMARK VINA RESULT: -8.992614129      1.450      1.648
REMARK  18 active torsions:
REMARK  status: ('A' for Active; 'I' for Inactive)
REMARK    1  A    between atoms: C2_2  and  C3_3 
REMARK    2  A    between atoms: C3_3  and  C4_4 
REMARK    3  A    between atoms: C4_4  and  C5_5 
REMARK    4  A    between atoms: C5_5  and  O1_6 
REMARK    5  A    between atoms: O1_6  and  C6_7 
REMARK       I    between atoms: C6_7  and  N1_9 
REMARK    6  A    between atoms: N2_12  and  C9_13 
REMARK    7  A    between atoms: C9_13  and  C10_14 
REMARK    8  A    between atoms: C10_14  and  N3_15 
REMARK    9  A    between atoms: N3_15  and  C11_16 
REMARK   10  A    between atoms: C11_16  and  O3_17 
REMARK   11  A    between atoms: C11_16  and  C12_19 
REMARK   12  A    between atoms: C14_21  and  C15_22 
REMARK   13  A    between atoms: N5_32  and  C23_33 
REMARK   14  A    between atoms: C23_33  and  C24_34 
REMARK       I    between atoms: C24_34  and  N6_36 
REMARK   15  A    between atoms: N6_36  and  C25_38 
REMARK   16  A    between atoms: C25_38  and  C28_41 
REMARK   17  A    between atoms: C28_41  and  O5_42 
REMARK   18  A    between atoms: C28_41  and  O6_44 
ROOT
HETATM    1  C12 UNL     1      15.130  21.373  16.352  1.00  0.00     0.118 A 
HETATM    2  C13 UNL     1      14.573  21.120  15.082  1.00  0.00     0.068 A 
HETATM    3  C14 UNL     1      13.219  20.953  15.260  1.00  0.00     0.061 A 
HETATM    4  N4  UNL     1      13.019  21.092  16.555  1.00  0.00    -0.297 N 
ATOM      5  H4  UNL     1      12.104  21.007  16.999  1.00  0.00     0.187 HD
HETATM    6  N5  UNL     1      14.165  21.361  17.235  1.00  0.00    -0.278 N 
ENDROOT
BRANCH   1   7
HETATM    7  C11 UNL     1      16.596  21.429  16.514  1.00  0.00     0.242 C 
BRANCH   7   8
HETATM    8  N3  UNL     1      17.327  21.433  17.676  1.00  0.00    -0.390 NA
BRANCH   8   9
HETATM    9  C10 UNL     1      18.030  21.426  18.860  1.00  0.00     0.197 C 
BRANCH   9  10
HETATM   10  C9  UNL     1      18.545  22.807  19.216  1.00  0.00     0.091 C 
BRANCH  10  11
HETATM   11  N2  UNL     1      19.861  23.192  18.898  1.00  0.00    -0.287 NA
HETATM   12  C8  UNL     1      20.691  23.764  19.860  1.00  0.00     0.114 C 
HETATM   13  C7  UNL     1      20.816  25.222  20.050  1.00  0.00     0.143 C 
HETATM   14  N1  UNL     1      20.548  25.971  18.837  1.00  0.00    -0.326 N 
HETATM   15  C6  UNL     1      21.365  27.018  18.408  1.00  0.00     0.362 C 
HETATM   16  C31 UNL     1      19.372  25.452  18.123  1.00  0.00     0.143 C 
HETATM   17  O2  UNL     1      22.411  27.317  19.075  1.00  0.00    -0.238 OA
HETATM   18  C30 UNL     1      19.776  24.070  17.669  1.00  0.00     0.114 C 
BRANCH  15  19
HETATM   19  O1  UNL     1      21.152  27.786  17.302  1.00  0.00    -0.304 OA
BRANCH  19  20
HETATM   20  C5  UNL     1      21.787  27.811  16.088  1.00  0.00     0.180 C 
BRANCH  20  21
HETATM   21  C4  UNL     1      22.315  26.498  15.569  1.00  0.00     0.027 C 
BRANCH  21  22
HETATM   22  C3  UNL     1      21.183  25.847  14.804  1.00  0.00     0.002 C 
BRANCH  22  23
HETATM   23  C2  UNL     1      20.160  26.833  14.302  1.00  0.00    -0.004 C 
HETATM   24  C1  UNL     1      18.776  26.336  14.509  1.00  0.00     0.005 C 
ENDBRANCH  22  23
ENDBRANCH  21  22
ENDBRANCH  20  21
ENDBRANCH  19  20
ENDBRANCH  15  19
ENDBRANCH  10  11
ENDBRANCH   9  10
ENDBRANCH   8   9
ENDBRANCH   7   8
BRANCH   7  25
HETATM   25  O3  UNL     1      17.223  21.458  15.365  1.00  0.00    -0.334 OA
ATOM     26  H3  UNL     1      16.814  21.890  14.625  1.00  0.00     0.220 HD
ENDBRANCH   7  25
ENDBRANCH   1   7
BRANCH   6  27
HETATM   27  C23 UNL     1      14.096  21.824  18.637  1.00  0.00     0.252 C 
BRANCH  27  28
HETATM   28  C24 UNL     1      14.109  20.412  19.318  1.00  0.00     0.238 C 
HETATM   29  O4  UNL     1      15.017  20.111  20.063  1.00  0.00    -0.272 OA
HETATM   30  N6  UNL     1      13.025  19.601  19.000  1.00  0.00    -0.346 N 
ATOM     31  H6  UNL     1      12.401  20.053  18.331  1.00  0.00     0.163 HD
BRANCH  30  32
HETATM   32  C25 UNL     1      12.556  18.307  19.361  1.00  0.00     0.075 C 
HETATM   33  C26 UNL     1      12.680  18.102  20.891  1.00  0.00     0.043 C 
HETATM   34  C27 UNL     1      13.638  17.275  18.828  1.00  0.00     0.043 C 
BRANCH  32  35
HETATM   35  C28 UNL     1      11.312  17.848  18.850  1.00  0.00     0.283 C 
BRANCH  35  36
HETATM   36  O5  UNL     1      10.388  17.586  19.896  1.00  0.00    -0.369 OA
ATOM     37  H5  UNL     1       9.500  17.526  19.565  1.00  0.00     0.212 HD
ENDBRANCH  35  36
BRANCH  35  38
HETATM   38  O6  UNL     1      10.717  17.584  17.714  1.00  0.00    -0.364 OA
HETATM   39  C29 UNL     1      10.451  18.310  16.579  1.00  0.00     0.204 C 
ENDBRANCH  35  38
ENDBRANCH  32  35
ENDBRANCH  30  32
ENDBRANCH  27  28
ENDBRANCH   6  27
BRANCH   3  40
HETATM   40  C15 UNL     1      12.215  20.654  14.223  1.00  0.00    -0.007 A 
HETATM   41  C16 UNL     1      12.461  19.529  13.422  1.00  0.00     0.020 A 
HETATM   42  C17 UNL     1      11.466  19.108  12.567  1.00  0.00    -0.061 A 
HETATM   43  C18 UNL     1      11.710  17.941  11.653  1.00  0.00     0.048 C 
HETATM   44  C19 UNL     1      10.223  19.789  12.505  1.00  0.00     0.013 A 
HETATM   45  C20 UNL     1      10.010  20.881  13.309  1.00  0.00    -0.061 A 
HETATM   46  C21 UNL     1       8.688  21.535  13.349  1.00  0.00     0.048 C 
HETATM   47  C22 UNL     1      11.041  21.276  14.152  1.00  0.00     0.020 A 
ENDBRANCH   3  40
TORSDOF 18
ENDMDL
MODEL 5
REMARK VINA RESULT: -8.929789386      2.286     11.790
REMARK  18 active torsions:
REMARK  status: ('A' for Active; 'I' for Inactive)
REMARK    1  A    between atoms: C2_2  and  C3_3 
REMARK    2  A    between atoms: C3_3  and  C4_4 
REMARK    3  A    between atoms: C4_4  and  C5_5 
REMARK    4  A    between atoms: C5_5  and  O1_6 
REMARK    5  A    between atoms: O1_6  and  C6_7 
REMARK       I    between atoms: C6_7  and  N1_9 
REMARK    6  A    between atoms: N2_12  and  C9_13 
REMARK    7  A    between atoms: C9_13  and  C10_14 
REMARK    8  A    between atoms: C10_14  and  N3_15 
REMARK    9  A    between atoms: N3_15  and  C11_16 
REMARK   10  A    between atoms: C11_16  and  O3_17 
REMARK   11  A    between atoms: C11_16  and  C12_19 
REMARK   12  A    between atoms: C14_21  and  C15_22 
REMARK   13  A    between atoms: N5_32  and  C23_33 
REMARK   14  A    between atoms: C23_33  and  C24_34 
REMARK       I    between atoms: C24_34  and  N6_36 
REMARK   15  A    between atoms: N6_36  and  C25_38 
REMARK   16  A    between atoms: C25_38  and  C28_41 
REMARK   17  A    between atoms: C28_41  and  O5_42 
REMARK   18  A    between atoms: C28_41  and  O6_44 
ROOT
HETATM    1  C12 UNL     1      17.974  22.955  19.277  1.00  0.00     0.118 A 
HETATM    2  C13 UNL     1      19.122  22.859  20.090  1.00  0.00     0.068 A 
HETATM    3  C14 UNL     1      19.770  24.070  20.019  1.00  0.00     0.061 A 
HETATM    4  N4  UNL     1      19.041  24.808  19.206  1.00  0.00    -0.297 N 
ATOM      5  H4  UNL     1      19.279  25.765  18.945  1.00  0.00     0.187 HD
HETATM    6  N5  UNL     1      17.939  24.154  18.754  1.00  0.00    -0.278 N 
ENDROOT
BRANCH   1   7
HETATM    7  C11 UNL     1      17.158  21.754  19.012  1.00  0.00     0.242 C 
BRANCH   7   8
HETATM    8  N3  UNL     1      15.808  21.674  18.775  1.00  0.00    -0.390 NA
BRANCH   8   9
HETATM    9  C10 UNL     1      14.449  21.622  18.562  1.00  0.00     0.197 C 
BRANCH   9  10
HETATM   10  C9  UNL     1      14.112  21.574  17.084  1.00  0.00     0.091 C 
BRANCH  10  11
HETATM   11  N2  UNL     1      14.045  20.348  16.398  1.00  0.00    -0.287 NA
HETATM   12  C8  UNL     1      13.645  20.296  15.064  1.00  0.00     0.114 C 
HETATM   13  C7  UNL     1      12.247  20.061  14.653  1.00  0.00     0.143 C 
HETATM   14  N1  UNL     1      11.496  19.295  15.628  1.00  0.00    -0.326 N 
HETATM   15  C6  UNL     1      10.674  18.225  15.268  1.00  0.00     0.362 C 
HETATM   16  C31 UNL     1      11.759  19.751  17.002  1.00  0.00     0.143 C 
HETATM   17  O2  UNL     1      10.598  17.871  14.045  1.00  0.00    -0.238 OA
HETATM   18  C30 UNL     1      13.210  19.415  17.247  1.00  0.00     0.114 C 
BRANCH  15  19
HETATM   19  O1  UNL     1       9.914  17.488  16.126  1.00  0.00    -0.304 OA
BRANCH  19  20
HETATM   20  C5  UNL     1      10.144  16.271  16.713  1.00  0.00     0.180 C 
BRANCH  20  21
HETATM   21  C4  UNL     1      11.332  16.173  17.635  1.00  0.00     0.027 C 
BRANCH  21  22
HETATM   22  C3  UNL     1      10.895  16.738  18.969  1.00  0.00     0.002 C 
BRANCH  22  23
HETATM   23  C2  UNL     1      12.030  16.900  19.947  1.00  0.00    -0.004 C 
HETATM   24  C1  UNL     1      12.033  18.252  20.561  1.00  0.00     0.005 C 
ENDBRANCH  22  23
ENDBRANCH  21  22
ENDBRANCH  20  21
ENDBRANCH  19  20
ENDBRANCH  15  19
ENDBRANCH  10  11
ENDBRANCH   9  10
ENDBRANCH   8   9
ENDBRANCH   7   8
BRANCH   7  25
HETATM   25  O3  UNL     1      17.875  20.658  18.996  1.00  0.00    -0.334 OA
ATOM     26  H3  UNL     1      18.689  20.631  19.484  1.00  0.00     0.220 HD
ENDBRANCH   7  25
ENDBRANCH   1   7
BRANCH   6  27
HETATM   27  C23 UNL     1      16.868  24.906  18.069  1.00  0.00     0.252 C 
BRANCH  27  28
HETATM   28  C24 UNL     1      17.535  24.963  16.650  1.00  0.00     0.238 C 
HETATM   29  O4  UNL     1      17.134  24.236  15.767  1.00  0.00    -0.272 OA
HETATM   30  N6  UNL     1      18.565  25.889  16.528  1.00  0.00    -0.346 N 
ATOM     31  H6  UNL     1      18.749  26.367  17.410  1.00  0.00     0.163 HD
BRANCH  30  32
HETATM   32  C25 UNL     1      19.432  26.345  15.495  1.00  0.00     0.075 C 
HETATM   33  C26 UNL     1      18.643  26.515  14.173  1.00  0.00     0.043 C 
HETATM   34  C27 UNL     1      20.376  25.123  15.131  1.00  0.00     0.043 C 
BRANCH  32  35
HETATM   35  C28 UNL     1      20.307  27.435  15.750  1.00  0.00     0.283 C 
BRANCH  35  36
HETATM   36  O5  UNL     1      20.040  28.527  14.881  1.00  0.00    -0.369 OA
ATOM     37  H5  UNL     1      20.469  29.320  15.181  1.00  0.00     0.212 HD
ENDBRANCH  35  36
BRANCH  35  38
HETATM   38  O6  UNL     1      21.293  27.782  16.538  1.00  0.00    -0.364 OA
HETATM   39  C29 UNL     1      21.676  27.430  17.809  1.00  0.00     0.204 C 
ENDBRANCH  35  38
ENDBRANCH  32  35
ENDBRANCH  30  32
ENDBRANCH  27  28
ENDBRANCH   6  27
BRANCH   3  40
HETATM   40  C15 UNL     1      21.027  24.447  20.690  1.00  0.00    -0.007 A 
HETATM   41  C16 UNL     1      22.207  23.915  20.149  1.00  0.00     0.020 A 
HETATM   42  C17 UNL     1      23.412  24.383  20.628  1.00  0.00    -0.061 A 
HETATM   43  C18 UNL     1      24.697  23.799  20.114  1.00  0.00     0.048 C 
HETATM   44  C19 UNL     1      23.458  25.382  21.633  1.00  0.00     0.013 A 
HETATM   45  C20 UNL     1      22.285  25.890  22.135  1.00  0.00    -0.061 A 
HETATM   46  C21 UNL     1      22.304  27.009  23.095  1.00  0.00     0.048 C 
HETATM   47  C22 UNL     1      21.093  25.386  21.631  1.00  0.00     0.020 A 
ENDBRANCH   3  40
TORSDOF 18
ENDMDL
