MODEL 1
REMARK VINA RESULT: -9.890123429      0.000      0.000
REMARK  12 active torsions:
REMARK  status: ('A' for Active; 'I' for Inactive)
REMARK    1  A    between atoms: O1_2  and  C2_3 
REMARK    2  A    between atoms: C2_3  and  C3_4 
REMARK    3  A    between atoms: C3_4  and  O2_5 
REMARK    4  A    between atoms: O2_5  and  C4_6 
REMARK    5  A    between atoms: C5_9  and  N2_10 
REMARK    6  A    between atoms: N2_10  and  C6_12 
REMARK    7  A    between atoms: C6_12  and  C7_13 
REMARK    8  A    between atoms: C7_13  and  N3_14 
REMARK    9  A    between atoms: N5_23  and  C13_25 
REMARK   10  A    between atoms: C13_25  and  C14_26 
REMARK   11  A    between atoms: C14_26  and  C15_27 
REMARK   12  A    between atoms: C21_35  and  C22_36 
ROOT
HETATM    1  C4  UNL     1      10.254  18.135  16.463  1.00  0.00     0.175 A 
HETATM    2  N1  UNL     1      11.072  18.643  15.484  1.00  0.00    -0.169 N 
ATOM      3  H1  UNL     1      11.178  18.136  14.605  1.00  0.00     0.186 HD
HETATM    4  C5  UNL     1      11.731  19.790  15.662  1.00  0.00     0.681 A 
HETATM    5  N4  UNL     1      11.554  20.425  16.851  1.00  0.00    -0.176 N 
ATOM      6  H4  UNL     1      12.052  21.302  17.004  1.00  0.00     0.186 HD
HETATM    7  C12 UNL     1      10.774  19.974  17.826  1.00  0.00     0.135 A 
HETATM    8  N5  UNL     1      10.602  20.557  18.952  1.00  0.00    -0.375 N 
ATOM      9  H5  UNL     1       9.979  20.120  19.633  1.00  0.00     0.161 HD
HETATM   10  C21 UNL     1      10.070  18.762  17.650  1.00  0.00     0.104 A 
ENDROOT
BRANCH  10  11
HETATM   11  C22 UNL     1       9.158  18.312  18.699  1.00  0.00     0.124 A 
HETATM   12  N7  UNL     1       7.789  18.395  18.602  1.00  0.00    -0.340 N 
HETATM   13  C23 UNL     1       7.208  17.929  19.711  1.00  0.00     0.062 A 
ATOM     14  H7  UNL     1       7.286  18.763  17.794  1.00  0.00     0.167 HD
HETATM   15  C24 UNL     1       5.898  17.781  20.136  1.00  0.00     0.058 A 
HETATM   16  C28 UNL     1       8.209  17.527  20.560  1.00  0.00     0.063 A 
HETATM   17  C25 UNL     1       5.583  17.250  21.373  1.00  0.00     0.074 A 
HETATM   18 CL1  UNL     1       3.905  17.102  21.824  1.00  0.00    -0.081 Cl
HETATM   19  C26 UNL     1       6.599  16.846  22.227  1.00  0.00     0.140 A 
HETATM   20  F1  UNL     1       6.285  16.327  23.438  1.00  0.00    -0.204 F 
HETATM   21  C27 UNL     1       7.897  16.997  21.793  1.00  0.00     0.075 A 
HETATM   22  N8  UNL     1       9.378  17.779  19.903  1.00  0.00    -0.340 N 
ATOM     23  H8  UNL     1      10.304  17.584  20.284  1.00  0.00     0.167 HD
ENDBRANCH  10  11
BRANCH   1  24
HETATM   24  O2  UNL     1       9.599  16.917  16.208  1.00  0.00    -0.332 OA
BRANCH  24  25
HETATM   25  C3  UNL     1       9.421  16.686  14.785  1.00  0.00     0.203 C 
BRANCH  25  26
HETATM   26  C2  UNL     1       8.975  15.277  14.543  1.00  0.00     0.193 C 
BRANCH  26  27
HETATM   27  O1  UNL     1       8.454  14.735  15.683  1.00  0.00    -0.394 OA
HETATM   28  C1  UNL     1       7.101  14.821  15.852  1.00  0.00     0.201 C 
ENDBRANCH  26  27
ENDBRANCH  25  26
ENDBRANCH  24  25
ENDBRANCH   1  24
BRANCH   8  29
HETATM   29  C13 UNL     1      11.232  21.778  19.302  1.00  0.00     0.127 C 
BRANCH  29  30
HETATM   30  C14 UNL     1      12.672  21.531  19.666  1.00  0.00     0.076 C 
BRANCH  30  31
HETATM   31  C15 UNL     1      13.542  22.721  19.494  1.00  0.00     0.011 A 
HETATM   32  C16 UNL     1      13.385  23.471  18.355  1.00  0.00     0.025 A 
HETATM   33  C17 UNL     1      14.190  24.582  18.181  1.00  0.00     0.004 A 
HETATM   34  C18 UNL     1      15.129  24.928  19.129  1.00  0.00     0.024 A 
HETATM   35  C19 UNL     1      15.242  24.138  20.252  1.00  0.00     0.005 A 
HETATM   36  C20 UNL     1      16.259  24.525  21.260  1.00  0.00     0.068 C 
HETATM   37  N6  UNL     1      14.463  23.061  20.423  1.00  0.00    -0.363 N 
ATOM     38  H6  UNL     1      14.567  22.492  21.263  1.00  0.00     0.165 HD
ENDBRANCH  30  31
ENDBRANCH  29  30
ENDBRANCH   8  29
BRANCH   4  39
HETATM   39  N2  UNL     1      12.498  20.315  14.794  1.00  0.00    -0.224 N 
ATOM     40  H2  UNL     1      12.319  20.026  13.831  1.00  0.00     0.177 HD
BRANCH  39  41
HETATM   41  C6  UNL     1      13.562  21.235  14.952  1.00  0.00     0.168 C 
BRANCH  41  42
HETATM   42  C7  UNL     1      14.812  20.522  15.426  1.00  0.00     0.292 C 
BRANCH  42  43
HETATM   43  N3  UNL     1      15.995  21.303  15.285  1.00  0.00     0.094 N 
HETATM   44  C8  UNL     1      15.833  22.691  15.619  1.00  0.00     0.298 C 
HETATM   45  C9  UNL     1      17.229  23.303  15.646  1.00  0.00     0.198 C 
HETATM   46  O3  UNL     1      18.217  22.339  15.516  1.00  0.00    -0.388 OA
HETATM   47  C10 UNL     1      18.147  21.644  14.324  1.00  0.00     0.198 C 
HETATM   48  C11 UNL     1      16.742  21.072  14.094  1.00  0.00     0.298 C 
ENDBRANCH  42  43
ENDBRANCH  41  42
ENDBRANCH  39  41
ENDBRANCH   4  39
TORSDOF 12
ENDMDL
MODEL 2
REMARK VINA RESULT: -9.876778664      3.709      9.211
REMARK  12 active torsions:
REMARK  status: ('A' for Active; 'I' for Inactive)
REMARK    1  A    between atoms: O1_2  and  C2_3 
REMARK    2  A    between atoms: C2_3  and  C3_4 
REMARK    3  A    between atoms: C3_4  and  O2_5 
REMARK    4  A    between atoms: O2_5  and  C4_6 
REMARK    5  A    between atoms: C5_9  and  N2_10 
REMARK    6  A    between atoms: N2_10  and  C6_12 
REMARK    7  A    between atoms: C6_12  and  C7_13 
REMARK    8  A    between atoms: C7_13  and  N3_14 
REMARK    9  A    between atoms: N5_23  and  C13_25 
REMARK   10  A    between atoms: C13_25  and  C14_26 
REMARK   11  A    between atoms: C14_26  and  C15_27 
REMARK   12  A    between atoms: C21_35  and  C22_36 
ROOT
HETATM    1  C4  UNL     1      11.465  19.595  16.589  1.00  0.00     0.175 A 
HETATM    2  N1  UNL     1      10.567  18.678  16.101  1.00  0.00    -0.169 N 
ATOM      3  H1  UNL     1      10.810  18.127  15.278  1.00  0.00     0.186 HD
HETATM    4  C5  UNL     1       9.381  18.496  16.685  1.00  0.00     0.681 A 
HETATM    5  N4  UNL     1       9.107  19.256  17.778  1.00  0.00    -0.176 N 
ATOM      6  H4  UNL     1       8.204  19.130  18.235  1.00  0.00     0.186 HD
HETATM    7  C12 UNL     1       9.943  20.154  18.287  1.00  0.00     0.135 A 
HETATM    8  N5  UNL     1       9.698  20.881  19.311  1.00  0.00    -0.375 N 
ATOM      9  H5  UNL     1      10.413  21.542  19.618  1.00  0.00     0.161 HD
HETATM   10  C21 UNL     1      11.202  20.356  17.679  1.00  0.00     0.104 A 
ENDROOT
BRANCH  10  11
HETATM   11  C22 UNL     1      12.143  21.293  18.291  1.00  0.00     0.124 A 
HETATM   12  N7  UNL     1      12.622  22.413  17.653  1.00  0.00    -0.340 N 
HETATM   13  C23 UNL     1      13.477  23.073  18.439  1.00  0.00     0.062 A 
ATOM     14  H7  UNL     1      12.360  22.700  16.710  1.00  0.00     0.167 HD
HETATM   15  C24 UNL     1      14.228  24.229  18.306  1.00  0.00     0.058 A 
HETATM   16  C28 UNL     1      13.568  22.380  19.620  1.00  0.00     0.063 A 
HETATM   17  C25 UNL     1      15.052  24.690  19.316  1.00  0.00     0.074 A 
HETATM   18 CL1  UNL     1      15.962  26.156  19.059  1.00  0.00    -0.081 Cl
HETATM   19  C26 UNL     1      15.139  23.985  20.507  1.00  0.00     0.140 A 
HETATM   20  F1  UNL     1      15.948  24.441  21.493  1.00  0.00    -0.204 F 
HETATM   21  C27 UNL     1      14.387  22.838  20.628  1.00  0.00     0.075 A 
HETATM   22  N8  UNL     1      12.739  21.304  19.485  1.00  0.00    -0.340 N 
ATOM     23  H8  UNL     1      12.593  20.598  20.206  1.00  0.00     0.167 HD
ENDBRANCH  10  11
BRANCH   1  24
HETATM   24  O2  UNL     1      12.691  19.740  15.917  1.00  0.00    -0.332 OA
BRANCH  24  25
HETATM   25  C3  UNL     1      12.552  20.516  14.697  1.00  0.00     0.203 C 
BRANCH  25  26
HETATM   26  C2  UNL     1      13.806  21.288  14.431  1.00  0.00     0.193 C 
BRANCH  26  27
HETATM   27  O1  UNL     1      14.566  21.377  15.562  1.00  0.00    -0.394 OA
HETATM   28  C1  UNL     1      15.674  22.175  15.507  1.00  0.00     0.201 C 
ENDBRANCH  26  27
ENDBRANCH  25  26
ENDBRANCH  24  25
ENDBRANCH   1  24
BRANCH   8  29
HETATM   29  C13 UNL     1       8.485  20.814  20.042  1.00  0.00     0.127 C 
BRANCH  29  30
HETATM   30  C14 UNL     1       8.687  20.029  21.311  1.00  0.00     0.076 C 
BRANCH  30  31
HETATM   31  C15 UNL     1       7.818  18.830  21.414  1.00  0.00     0.011 A 
HETATM   32  C16 UNL     1       6.468  19.028  21.563  1.00  0.00     0.025 A 
HETATM   33  C17 UNL     1       5.646  17.920  21.662  1.00  0.00     0.004 A 
HETATM   34  C18 UNL     1       6.171  16.646  21.613  1.00  0.00     0.024 A 
HETATM   35  C19 UNL     1       7.534  16.509  21.462  1.00  0.00     0.005 A 
HETATM   36  C20 UNL     1       8.079  15.130  21.412  1.00  0.00     0.068 C 
HETATM   37  N6  UNL     1       8.332  17.580  21.366  1.00  0.00    -0.363 N 
ATOM     38  H6  UNL     1       9.337  17.452  21.255  1.00  0.00     0.165 HD
ENDBRANCH  30  31
ENDBRANCH  29  30
ENDBRANCH   8  29
BRANCH   4  39
HETATM   39  N2  UNL     1       8.509  17.660  16.284  1.00  0.00    -0.224 N 
ATOM     40  H2  UNL     1       7.676  18.075  15.867  1.00  0.00     0.177 HD
BRANCH  39  41
HETATM   41  C6  UNL     1       8.514  16.245  16.327  1.00  0.00     0.168 C 
BRANCH  41  42
HETATM   42  C7  UNL     1       7.506  15.744  17.342  1.00  0.00     0.292 C 
BRANCH  42  43
HETATM   43  N3  UNL     1       6.155  15.987  16.961  1.00  0.00     0.094 N 
HETATM   44  C8  UNL     1       5.356  16.617  17.976  1.00  0.00     0.298 C 
HETATM   45  C9  UNL     1       4.040  17.014  17.318  1.00  0.00     0.198 C 
HETATM   46  O3  UNL     1       4.068  16.811  15.946  1.00  0.00    -0.388 OA
HETATM   47  C10 UNL     1       4.269  15.491  15.594  1.00  0.00     0.198 C 
HETATM   48  C11 UNL     1       5.504  14.909  16.293  1.00  0.00     0.298 C 
ENDBRANCH  42  43
ENDBRANCH  41  42
ENDBRANCH  39  41
ENDBRANCH   4  39
TORSDOF 12
ENDMDL
MODEL 3
REMARK VINA RESULT: -9.876353090      3.898      9.227
REMARK  12 active torsions:
REMARK  status: ('A' for Active; 'I' for Inactive)
REMARK    1  A    between atoms: O1_2  and  C2_3 
REMARK    2  A    between atoms: C2_3  and  C3_4 
REMARK    3  A    between atoms: C3_4  and  O2_5 
REMARK    4  A    between atoms: O2_5  and  C4_6 
REMARK    5  A    between atoms: C5_9  and  N2_10 
REMARK    6  A    between atoms: N2_10  and  C6_12 
REMARK    7  A    between atoms: C6_12  and  C7_13 
REMARK    8  A    between atoms: C7_13  and  N3_14 
REMARK    9  A    between atoms: N5_23  and  C13_25 
REMARK   10  A    between atoms: C13_25  and  C14_26 
REMARK   11  A    between atoms: C14_26  and  C15_27 
REMARK   12  A    between atoms: C21_35  and  C22_36 
ROOT
HETATM    1  C4  UNL     1      11.593  20.768  16.367  1.00  0.00     0.175 A 
HETATM    2  N1  UNL     1      10.675  19.890  15.844  1.00  0.00    -0.169 N 
ATOM      3  H1  UNL     1      10.505  19.883  14.838  1.00  0.00     0.186 HD
HETATM    4  C5  UNL     1      10.001  19.048  16.629  1.00  0.00     0.681 A 
HETATM    5  N4  UNL     1      10.265  19.101  17.962  1.00  0.00    -0.176 N 
ATOM      6  H4  UNL     1       9.757  18.464  18.576  1.00  0.00     0.186 HD
HETATM    7  C12 UNL     1      11.143  19.930  18.514  1.00  0.00     0.135 A 
HETATM    8  N5  UNL     1      11.399  19.995  19.766  1.00  0.00    -0.375 N 
ATOM      9  H5  UNL     1      12.093  20.672  20.083  1.00  0.00     0.161 HD
HETATM   10  C21 UNL     1      11.864  20.826  17.694  1.00  0.00     0.104 A 
ENDROOT
BRANCH  10  11
HETATM   11  C22 UNL     1      12.881  21.683  18.301  1.00  0.00     0.124 A 
HETATM   12  N7  UNL     1      14.011  22.105  17.642  1.00  0.00    -0.340 N 
HETATM   13  C23 UNL     1      14.769  22.859  18.442  1.00  0.00     0.062 A 
ATOM     14  H7  UNL     1      14.238  21.874  16.674  1.00  0.00     0.167 HD
HETATM   15  C24 UNL     1      15.976  23.524  18.297  1.00  0.00     0.058 A 
HETATM   16  C28 UNL     1      14.132  22.941  19.655  1.00  0.00     0.063 A 
HETATM   17  C25 UNL     1      16.542  24.252  19.328  1.00  0.00     0.074 A 
HETATM   18 CL1  UNL     1      18.065  25.056  19.055  1.00  0.00    -0.081 Cl
HETATM   19  C26 UNL     1      15.892  24.330  20.551  1.00  0.00     0.140 A 
HETATM   20  F1  UNL     1      16.451  25.044  21.557  1.00  0.00    -0.204 F 
HETATM   21  C27 UNL     1      14.693  23.666  20.683  1.00  0.00     0.075 A 
HETATM   22  N8  UNL     1      12.987  22.210  19.523  1.00  0.00    -0.340 N 
ATOM     23  H8  UNL     1      12.299  22.083  20.265  1.00  0.00     0.167 HD
ENDBRANCH  10  11
BRANCH   1  24
HETATM   24  O2  UNL     1      12.258  21.633  15.480  1.00  0.00    -0.332 OA
BRANCH  24  25
HETATM   25  C3  UNL     1      12.933  20.905  14.419  1.00  0.00     0.203 C 
BRANCH  25  26
HETATM   26  C2  UNL     1      14.242  21.557  14.100  1.00  0.00     0.193 C 
BRANCH  26  27
HETATM   27  O1  UNL     1      15.178  21.247  15.044  1.00  0.00    -0.394 OA
HETATM   28  C1  UNL     1      15.512  19.928  15.181  1.00  0.00     0.201 C 
ENDBRANCH  26  27
ENDBRANCH  25  26
ENDBRANCH  24  25
ENDBRANCH   1  24
BRANCH   8  29
HETATM   29  C13 UNL     1      10.767  19.175  20.734  1.00  0.00     0.127 C 
BRANCH  29  30
HETATM   30  C14 UNL     1       9.419  19.743  21.093  1.00  0.00     0.076 C 
BRANCH  30  31
HETATM   31  C15 UNL     1       8.365  18.712  21.265  1.00  0.00     0.011 A 
HETATM   32  C16 UNL     1       7.081  19.141  21.494  1.00  0.00     0.025 A 
HETATM   33  C17 UNL     1       6.088  18.192  21.658  1.00  0.00     0.004 A 
HETATM   34  C18 UNL     1       6.382  16.846  21.593  1.00  0.00     0.024 A 
HETATM   35  C19 UNL     1       7.688  16.475  21.360  1.00  0.00     0.005 A 
HETATM   36  C20 UNL     1       7.984  15.023  21.294  1.00  0.00     0.068 C 
HETATM   37  N6  UNL     1       8.651  17.393  21.201  1.00  0.00    -0.363 N 
ATOM     38  H6  UNL     1       9.611  17.093  21.030  1.00  0.00     0.165 HD
ENDBRANCH  30  31
ENDBRANCH  29  30
ENDBRANCH   8  29
BRANCH   4  39
HETATM   39  N2  UNL     1       9.143  18.209  16.206  1.00  0.00    -0.224 N 
ATOM     40  H2  UNL     1       8.284  18.620  15.840  1.00  0.00     0.177 HD
BRANCH  39  41
HETATM   41  C6  UNL     1       9.193  16.795  16.162  1.00  0.00     0.168 C 
BRANCH  41  42
HETATM   42  C7  UNL     1       8.286  16.203  17.222  1.00  0.00     0.292 C 
BRANCH  42  43
HETATM   43  N3  UNL     1       6.903  16.279  16.888  1.00  0.00     0.094 N 
HETATM   44  C8  UNL     1       6.073  16.833  17.921  1.00  0.00     0.298 C 
HETATM   45  C9  UNL     1       4.697  17.061  17.305  1.00  0.00     0.198 C 
HETATM   46  O3  UNL     1       4.701  16.835  15.937  1.00  0.00    -0.388 OA
HETATM   47  C10 UNL     1       5.042  15.540  15.599  1.00  0.00     0.198 C 
HETATM   48  C11 UNL     1       6.360  15.120  16.261  1.00  0.00     0.298 C 
ENDBRANCH  42  43
ENDBRANCH  41  42
ENDBRANCH  39  41
ENDBRANCH   4  39
TORSDOF 12
ENDMDL
MODEL 4
REMARK VINA RESULT: -9.855013587      1.229      1.508
REMARK  12 active torsions:
REMARK  status: ('A' for Active; 'I' for Inactive)
REMARK    1  A    between atoms: O1_2  and  C2_3 
REMARK    2  A    between atoms: C2_3  and  C3_4 
REMARK    3  A    between atoms: C3_4  and  O2_5 
REMARK    4  A    between atoms: O2_5  and  C4_6 
REMARK    5  A    between atoms: C5_9  and  N2_10 
REMARK    6  A    between atoms: N2_10  and  C6_12 
REMARK    7  A    between atoms: C6_12  and  C7_13 
REMARK    8  A    between atoms: C7_13  and  N3_14 
REMARK    9  A    between atoms: N5_23  and  C13_25 
REMARK   10  A    between atoms: C13_25  and  C14_26 
REMARK   11  A    between atoms: C14_26  and  C15_27 
REMARK   12  A    between atoms: C21_35  and  C22_36 
ROOT
HETATM    1  C4  UNL     1      10.189  18.745  16.224  1.00  0.00     0.175 A 
HETATM    2  N1  UNL     1      11.037  19.187  15.238  1.00  0.00    -0.169 N 
ATOM      3  H1  UNL     1      11.040  18.717  14.333  1.00  0.00     0.186 HD
HETATM    4  C5  UNL     1      11.857  20.219  15.444  1.00  0.00     0.681 A 
HETATM    5  N4  UNL     1      11.812  20.808  16.669  1.00  0.00    -0.176 N 
ATOM      6  H4  UNL     1      12.433  21.598  16.843  1.00  0.00     0.186 HD
HETATM    7  C12 UNL     1      11.010  20.418  17.652  1.00  0.00     0.135 A 
HETATM    8  N5  UNL     1      10.960  20.959  18.811  1.00  0.00    -0.375 N 
ATOM      9  H5  UNL     1      10.306  20.577  19.495  1.00  0.00     0.161 HD
HETATM   10  C21 UNL     1      10.137  19.327  17.447  1.00  0.00     0.104 A 
ENDROOT
BRANCH  10  11
HETATM   11  C22 UNL     1       9.206  18.953  18.510  1.00  0.00     0.124 A 
HETATM   12  N7  UNL     1       9.500  18.032  19.488  1.00  0.00    -0.340 N 
HETATM   13  C23 UNL     1       8.462  17.874  20.314  1.00  0.00     0.062 A 
ATOM     14  H7  UNL     1      10.389  17.538  19.570  1.00  0.00     0.167 HD
HETATM   15  C24 UNL     1       8.220  17.099  21.436  1.00  0.00     0.058 A 
HETATM   16  C28 UNL     1       7.461  18.705  19.878  1.00  0.00     0.063 A 
HETATM   17  C25 UNL     1       7.015  17.141  22.113  1.00  0.00     0.074 A 
HETATM   18 CL1  UNL     1       6.799  16.129  23.516  1.00  0.00    -0.081 Cl
HETATM   19  C26 UNL     1       6.007  17.984  21.667  1.00  0.00     0.140 A 
HETATM   20  F1  UNL     1       4.828  18.022  22.333  1.00  0.00    -0.204 F 
HETATM   21  C27 UNL     1       6.259  18.751  20.552  1.00  0.00     0.075 A 
HETATM   22  N8  UNL     1       7.957  19.342  18.779  1.00  0.00    -0.340 N 
ATOM     23  H8  UNL     1       7.440  20.029  18.231  1.00  0.00     0.167 HD
ENDBRANCH  10  11
BRANCH   1  24
HETATM   24  O2  UNL     1       9.361  17.646  15.938  1.00  0.00    -0.332 OA
BRANCH  24  25
HETATM   25  C3  UNL     1       9.954  16.764  14.948  1.00  0.00     0.203 C 
BRANCH  25  26
HETATM   26  C2  UNL     1       8.954  15.744  14.501  1.00  0.00     0.193 C 
BRANCH  26  27
HETATM   27  O1  UNL     1       8.629  14.906  15.530  1.00  0.00    -0.394 OA
HETATM   28  C1  UNL     1       7.315  14.861  15.905  1.00  0.00     0.201 C 
ENDBRANCH  26  27
ENDBRANCH  25  26
ENDBRANCH  24  25
ENDBRANCH   1  24
BRANCH   8  29
HETATM   29  C13 UNL     1      11.768  22.060  19.193  1.00  0.00     0.127 C 
BRANCH  29  30
HETATM   30  C14 UNL     1      13.056  21.570  19.800  1.00  0.00     0.076 C 
BRANCH  30  31
HETATM   31  C15 UNL     1      14.236  22.393  19.435  1.00  0.00     0.011 A 
HETATM   32  C16 UNL     1      14.771  22.227  18.181  1.00  0.00     0.025 A 
HETATM   33  C17 UNL     1      15.872  22.986  17.828  1.00  0.00     0.004 A 
HETATM   34  C18 UNL     1      16.421  23.888  18.716  1.00  0.00     0.024 A 
HETATM   35  C19 UNL     1      15.842  24.011  19.959  1.00  0.00     0.005 A 
HETATM   36  C20 UNL     1      16.447  24.986  20.900  1.00  0.00     0.068 C 
HETATM   37  N6  UNL     1      14.775  23.278  20.304  1.00  0.00    -0.363 N 
ATOM     38  H6  UNL     1      14.365  23.387  21.231  1.00  0.00     0.165 HD
ENDBRANCH  30  31
ENDBRANCH  29  30
ENDBRANCH   8  29
BRANCH   4  39
HETATM   39  N2  UNL     1      12.660  20.678  14.571  1.00  0.00    -0.224 N 
ATOM     40  H2  UNL     1      12.225  20.960  13.692  1.00  0.00     0.177 HD
BRANCH  39  41
HETATM   41  C6  UNL     1      14.063  20.858  14.626  1.00  0.00     0.168 C 
BRANCH  41  42
HETATM   42  C7  UNL     1      14.496  21.936  13.653  1.00  0.00     0.292 C 
BRANCH  42  43
HETATM   43  N3  UNL     1      15.799  22.446  13.920  1.00  0.00     0.094 N 
HETATM   44  C8  UNL     1      16.175  23.569  13.107  1.00  0.00     0.298 C 
HETATM   45  C9  UNL     1      17.471  24.122  13.691  1.00  0.00     0.198 C 
HETATM   46  O3  UNL     1      17.798  23.508  14.890  1.00  0.00    -0.388 OA
HETATM   47  C10 UNL     1      18.005  22.148  14.768  1.00  0.00     0.198 C 
HETATM   48  C11 UNL     1      16.822  21.465  14.069  1.00  0.00     0.298 C 
ENDBRANCH  42  43
ENDBRANCH  41  42
ENDBRANCH  39  41
ENDBRANCH   4  39
TORSDOF 12
ENDMDL
MODEL 5
REMARK VINA RESULT: -9.837343324      2.868      6.384
REMARK  12 active torsions:
REMARK  status: ('A' for Active; 'I' for Inactive)
REMARK    1  A    between atoms: O1_2  and  C2_3 
REMARK    2  A    between atoms: C2_3  and  C3_4 
REMARK    3  A    between atoms: C3_4  and  O2_5 
REMARK    4  A    between atoms: O2_5  and  C4_6 
REMARK    5  A    between atoms: C5_9  and  N2_10 
REMARK    6  A    between atoms: N2_10  and  C6_12 
REMARK    7  A    between atoms: C6_12  and  C7_13 
REMARK    8  A    between atoms: C7_13  and  N3_14 
REMARK    9  A    between atoms: N5_23  and  C13_25 
REMARK   10  A    between atoms: C13_25  and  C14_26 
REMARK   11  A    between atoms: C14_26  and  C15_27 
REMARK   12  A    between atoms: C21_35  and  C22_36 
ROOT
HETATM    1  C4  UNL     1      12.841  19.761  16.985  1.00  0.00     0.175 A 
HETATM    2  N1  UNL     1      13.731  20.534  17.691  1.00  0.00    -0.169 N 
ATOM      3  H1  UNL     1      14.509  20.976  17.202  1.00  0.00     0.186 HD
HETATM    4  C5  UNL     1      13.596  20.715  19.006  1.00  0.00     0.681 A 
HETATM    5  N4  UNL     1      12.542  20.103  19.608  1.00  0.00    -0.176 N 
ATOM      6  H4  UNL     1      12.425  20.231  20.613  1.00  0.00     0.186 HD
HETATM    7  C12 UNL     1      11.656  19.349  18.969  1.00  0.00     0.135 A 
HETATM    8  N5  UNL     1      10.662  18.762  19.522  1.00  0.00    -0.375 N 
ATOM      9  H5  UNL     1      10.042  18.203  18.935  1.00  0.00     0.161 HD
HETATM   10  C21 UNL     1      11.787  19.149  17.577  1.00  0.00     0.104 A 
ENDROOT
BRANCH  10  11
HETATM   11  C22 UNL     1      10.766  18.378  16.871  1.00  0.00     0.124 A 
HETATM   12  N7  UNL     1       9.494  18.179  17.355  1.00  0.00    -0.340 N 
HETATM   13  C23 UNL     1       8.782  17.425  16.513  1.00  0.00     0.062 A 
ATOM     14  H7  UNL     1       9.144  18.556  18.236  1.00  0.00     0.167 HD
HETATM   15  C24 UNL     1       7.487  16.934  16.504  1.00  0.00     0.058 A 
HETATM   16  C28 UNL     1       9.594  17.118  15.450  1.00  0.00     0.063 A 
HETATM   17  C25 UNL     1       7.004  16.154  15.469  1.00  0.00     0.074 A 
HETATM   18 CL1  UNL     1       5.359  15.579  15.542  1.00  0.00    -0.081 Cl
HETATM   19  C26 UNL     1       7.830  15.848  14.397  1.00  0.00     0.140 A 
HETATM   20  F1  UNL     1       7.352  15.084  13.386  1.00  0.00    -0.204 F 
HETATM   21  C27 UNL     1       9.115  16.343  14.417  1.00  0.00     0.075 A 
HETATM   22  N8  UNL     1      10.791  17.719  15.710  1.00  0.00    -0.340 N 
ATOM     23  H8  UNL     1      11.603  17.670  15.095  1.00  0.00     0.167 HD
ENDBRANCH  10  11
BRANCH   1  24
HETATM   24  O2  UNL     1      13.053  19.607  15.604  1.00  0.00    -0.332 OA
BRANCH  24  25
HETATM   25  C3  UNL     1      12.751  20.824  14.871  1.00  0.00     0.203 C 
BRANCH  25  26
HETATM   26  C2  UNL     1      13.956  21.281  14.110  1.00  0.00     0.193 C 
BRANCH  26  27
HETATM   27  O1  UNL     1      14.956  21.645  14.966  1.00  0.00    -0.394 OA
HETATM   28  C1  UNL     1      16.182  21.072  14.773  1.00  0.00     0.201 C 
ENDBRANCH  26  27
ENDBRANCH  25  26
ENDBRANCH  24  25
ENDBRANCH   1  24
BRANCH   8  29
HETATM   29  C13 UNL     1      10.380  18.848  20.909  1.00  0.00     0.127 C 
BRANCH  29  30
HETATM   30  C14 UNL     1       9.342  19.909  21.161  1.00  0.00     0.076 C 
BRANCH  30  31
HETATM   31  C15 UNL     1       7.968  19.501  20.778  1.00  0.00     0.011 A 
HETATM   32  C16 UNL     1       7.431  20.049  19.639  1.00  0.00     0.025 A 
HETATM   33  C17 UNL     1       6.150  19.679  19.270  1.00  0.00     0.004 A 
HETATM   34  C18 UNL     1       5.429  18.782  20.029  1.00  0.00     0.024 A 
HETATM   35  C19 UNL     1       6.019  18.265  21.162  1.00  0.00     0.005 A 
HETATM   36  C20 UNL     1       5.228  17.302  21.965  1.00  0.00     0.068 C 
HETATM   37  N6  UNL     1       7.259  18.622  21.521  1.00  0.00    -0.363 N 
ATOM     38  H6  UNL     1       7.674  18.225  22.364  1.00  0.00     0.165 HD
ENDBRANCH  30  31
ENDBRANCH  29  30
ENDBRANCH   8  29
BRANCH   4  39
HETATM   39  N2  UNL     1      14.382  21.422  19.714  1.00  0.00    -0.224 N 
ATOM     40  H2  UNL     1      15.249  20.957  19.988  1.00  0.00     0.177 HD
BRANCH  39  41
HETATM   41  C6  UNL     1      14.245  22.751  20.181  1.00  0.00     0.168 C 
BRANCH  41  42
HETATM   42  C7  UNL     1      14.357  23.729  19.029  1.00  0.00     0.292 C 
BRANCH  42  43
HETATM   43  N3  UNL     1      15.698  24.126  18.755  1.00  0.00     0.094 N 
HETATM   44  C8  UNL     1      15.926  25.543  18.832  1.00  0.00     0.298 C 
HETATM   45  C9  UNL     1      17.434  25.751  18.755  1.00  0.00     0.198 C 
HETATM   46  O3  UNL     1      18.124  24.549  18.805  1.00  0.00    -0.388 OA
HETATM   47  C10 UNL     1      17.819  23.701  17.758  1.00  0.00     0.198 C 
HETATM   48  C11 UNL     1      16.304  23.498  17.628  1.00  0.00     0.298 C 
ENDBRANCH  42  43
ENDBRANCH  41  42
ENDBRANCH  39  41
ENDBRANCH   4  39
TORSDOF 12
ENDMDL
