MODEL 1
REMARK VINA RESULT: -8.279394084      0.000      0.000
REMARK  11 active torsions:
REMARK  status: ('A' for Active; 'I' for Inactive)
REMARK    1  A    between atoms: C1_2  and  C2_3 
REMARK       I    between atoms: C1_2  and  N3_15 
REMARK    2  A    between atoms: C2_3  and  N1_4 
REMARK    3  A    between atoms: N3_15  and  C9_17 
REMARK    4  A    between atoms: C9_17  and  C10_18 
REMARK    5  A    between atoms: C10_18  and  S1_19 
REMARK    6  A    between atoms: S1_19  and  S2_20 
REMARK    7  A    between atoms: S2_20  and  C11_21 
REMARK    8  A    between atoms: C11_21  and  C12_22 
REMARK    9  A    between atoms: C12_22  and  N4_23 
REMARK       I    between atoms: N4_23  and  C13_25 
REMARK   10  A    between atoms: C13_25  and  C14_27 
REMARK   11  A    between atoms: C16_29  and  N5_30 
ROOT
HETATM    1  S1  UNL     1      11.155  19.968  19.621  1.00  0.00    -0.096 SA
ENDROOT
BRANCH   1   2
HETATM    2  C10 UNL     1       9.566  19.445  20.276  1.00  0.00     0.105 C 
BRANCH   2   3
HETATM    3  C9  UNL     1       8.417  20.232  19.738  1.00  0.00     0.133 C 
BRANCH   3   4
HETATM    4  N3  UNL     1       7.556  19.542  18.838  1.00  0.00    -0.359 N 
HETATM    5  C1  UNL     1       6.342  18.949  19.282  1.00  0.00     0.235 C 
HETATM    6  O1  UNL     1       6.028  19.036  20.485  1.00  0.00    -0.272 OA
ATOM      7  H3  UNL     1       7.815  19.472  17.853  1.00  0.00     0.162 HD
BRANCH   5   8
HETATM    8  C2  UNL     1       5.471  18.234  18.293  1.00  0.00     0.228 C 
BRANCH   8   9
HETATM    9  N1  UNL     1       6.123  17.086  17.737  1.00  0.00    -0.341 N 
HETATM   10  C3  UNL     1       6.966  16.182  18.537  1.00  0.00     0.129 C 
HETATM   11  C4  UNL     1       8.105  15.957  17.532  1.00  0.00     0.069 C 
HETATM   12  C5  UNL     1       7.443  15.931  16.184  1.00  0.00     0.208 C 
HETATM   13  C6  UNL     1       8.296  16.586  15.125  1.00  0.00     0.076 C 
HETATM   14  N2  UNL     1       7.484  14.707  15.462  1.00  0.00    -0.057 N 
HETATM   15  C8  UNL     1       6.130  16.568  16.409  1.00  0.00     0.256 C 
HETATM   16  C7  UNL     1       8.769  15.147  14.897  1.00  0.00     0.237 C 
ATOM     17  H22 UNL     1       7.402  13.811  15.943  1.00  0.00     0.278 HD
ATOM     18  H21 UNL     1       6.712  14.430  14.856  1.00  0.00     0.278 HD
HETATM   19  O2  UNL     1       5.131  16.689  15.641  1.00  0.00    -0.271 OA
ENDBRANCH   8   9
ENDBRANCH   5   8
ENDBRANCH   3   4
ENDBRANCH   2   3
ENDBRANCH   1   2
BRANCH   1  20
HETATM   20  S2  UNL     1      12.116  18.478  18.499  1.00  0.00    -0.096 SA
BRANCH  20  21
HETATM   21  C11 UNL     1      11.232  18.037  16.978  1.00  0.00     0.105 C 
BRANCH  21  22
HETATM   22  C12 UNL     1      12.047  18.493  15.787  1.00  0.00     0.134 C 
BRANCH  22  23
HETATM   23  N4  UNL     1      13.110  19.378  16.146  1.00  0.00    -0.356 N 
HETATM   24  C13 UNL     1      13.269  20.678  15.592  1.00  0.00     0.253 C 
HETATM   25  O3  UNL     1      12.463  21.120  14.740  1.00  0.00    -0.268 OA
ATOM     26  H4  UNL     1      13.791  19.060  16.835  1.00  0.00     0.162 HD
BRANCH  24  27
HETATM   27  C14 UNL     1      14.379  21.547  15.996  1.00  0.00     0.056 A 
HETATM   28  C15 UNL     1      14.228  22.346  17.106  1.00  0.00     0.056 A 
HETATM   29  C16 UNL     1      15.232  23.192  17.548  1.00  0.00     0.121 A 
HETATM   30  C17 UNL     1      16.414  23.220  16.842  1.00  0.00     0.045 A 
HETATM   31 BR1  UNL     1      17.840  24.364  17.400  1.00  0.00    -0.048 Br
HETATM   32  C18 UNL     1      16.596  22.423  15.715  1.00  0.00     0.046 A 
HETATM   33  C19 UNL     1      15.567  21.590  15.305  1.00  0.00     0.051 A 
HETATM   34 CL1  UNL     1      15.729  20.563  13.899  1.00  0.00    -0.083 Cl
BRANCH  29  35
HETATM   35  N5  UNL     1      15.076  24.018  18.695  1.00  0.00    -0.114 N 
HETATM   36  O4  UNL     1      14.608  25.182  18.635  1.00  0.00    -0.532 OA
HETATM   37  O5  UNL     1      15.444  23.559  19.949  1.00  0.00    -0.532 OA
ENDBRANCH  29  35
ENDBRANCH  24  27
ENDBRANCH  22  23
ENDBRANCH  21  22
ENDBRANCH  20  21
ENDBRANCH   1  20
TORSDOF 11
ENDMDL
MODEL 2
REMARK VINA RESULT: -8.254591722      2.456      4.158
REMARK  11 active torsions:
REMARK  status: ('A' for Active; 'I' for Inactive)
REMARK    1  A    between atoms: C1_2  and  C2_3 
REMARK       I    between atoms: C1_2  and  N3_15 
REMARK    2  A    between atoms: C2_3  and  N1_4 
REMARK    3  A    between atoms: N3_15  and  C9_17 
REMARK    4  A    between atoms: C9_17  and  C10_18 
REMARK    5  A    between atoms: C10_18  and  S1_19 
REMARK    6  A    between atoms: S1_19  and  S2_20 
REMARK    7  A    between atoms: S2_20  and  C11_21 
REMARK    8  A    between atoms: C11_21  and  C12_22 
REMARK    9  A    between atoms: C12_22  and  N4_23 
REMARK       I    between atoms: N4_23  and  C13_25 
REMARK   10  A    between atoms: C13_25  and  C14_27 
REMARK   11  A    between atoms: C16_29  and  N5_30 
ROOT
HETATM    1  S1  UNL     1       8.871  16.034  15.823  1.00  0.00    -0.096 SA
ENDROOT
BRANCH   1   2
HETATM    2  C10 UNL     1       7.469  15.798  14.724  1.00  0.00     0.105 C 
BRANCH   2   3
HETATM    3  C9  UNL     1       6.170  16.222  15.325  1.00  0.00     0.133 C 
BRANCH   3   4
HETATM    4  N3  UNL     1       6.257  16.970  16.533  1.00  0.00    -0.359 N 
HETATM    5  C1  UNL     1       5.093  17.326  17.269  1.00  0.00     0.235 C 
HETATM    6  O1  UNL     1       3.975  16.975  16.845  1.00  0.00    -0.272 OA
ATOM      7  H3  UNL     1       7.173  17.256  16.879  1.00  0.00     0.162 HD
BRANCH   5   8
HETATM    8  C2  UNL     1       5.240  18.114  18.536  1.00  0.00     0.228 C 
BRANCH   8   9
HETATM    9  N1  UNL     1       6.503  17.877  19.171  1.00  0.00    -0.341 N 
HETATM   10  C3  UNL     1       6.715  16.794  20.146  1.00  0.00     0.129 C 
HETATM   11  C4  UNL     1       7.579  17.549  21.166  1.00  0.00     0.069 C 
HETATM   12  C5  UNL     1       8.438  18.472  20.350  1.00  0.00     0.208 C 
HETATM   13  C6  UNL     1       8.652  19.798  21.039  1.00  0.00     0.076 C 
HETATM   14  N2  UNL     1       9.841  18.238  20.363  1.00  0.00    -0.057 N 
HETATM   15  C8  UNL     1       7.752  18.551  19.045  1.00  0.00     0.256 C 
HETATM   16  C7  UNL     1       9.918  19.104  21.549  1.00  0.00     0.237 C 
ATOM     17  H22 UNL     1      10.214  17.289  20.381  1.00  0.00     0.278 HD
ATOM     18  H21 UNL     1      10.411  18.426  19.539  1.00  0.00     0.278 HD
HETATM   19  O2  UNL     1       8.113  19.088  17.957  1.00  0.00    -0.271 OA
ENDBRANCH   8   9
ENDBRANCH   5   8
ENDBRANCH   3   4
ENDBRANCH   2   3
ENDBRANCH   1   2
BRANCH   1  20
HETATM   20  S2  UNL     1      10.075  17.666  15.285  1.00  0.00    -0.096 SA
BRANCH  20  21
HETATM   21  C11 UNL     1      11.283  18.121  16.558  1.00  0.00     0.105 C 
BRANCH  21  22
HETATM   22  C12 UNL     1      12.383  18.942  15.920  1.00  0.00     0.134 C 
BRANCH  22  23
HETATM   23  N4  UNL     1      13.082  19.762  16.859  1.00  0.00    -0.356 N 
HETATM   24  C13 UNL     1      13.071  21.183  16.819  1.00  0.00     0.253 C 
HETATM   25  O3  UNL     1      12.434  21.799  15.933  1.00  0.00    -0.268 OA
ATOM     26  H4  UNL     1      13.615  19.303  17.597  1.00  0.00     0.162 HD
BRANCH  24  27
HETATM   27  C14 UNL     1      13.805  21.978  17.809  1.00  0.00     0.056 A 
HETATM   28  C15 UNL     1      15.017  22.525  17.457  1.00  0.00     0.056 A 
HETATM   29  C16 UNL     1      15.767  23.287  18.338  1.00  0.00     0.121 A 
HETATM   30  C17 UNL     1      15.266  23.495  19.603  1.00  0.00     0.045 A 
HETATM   31 BR1  UNL     1      16.249  24.539  20.867  1.00  0.00    -0.048 Br
HETATM   32  C18 UNL     1      14.041  22.954  19.989  1.00  0.00     0.046 A 
HETATM   33  C19 UNL     1      13.322  22.197  19.078  1.00  0.00     0.051 A 
HETATM   34 CL1  UNL     1      11.778  21.490  19.495  1.00  0.00    -0.083 Cl
BRANCH  29  35
HETATM   35  N5  UNL     1      17.019  23.852  17.975  1.00  0.00    -0.114 N 
HETATM   36  O4  UNL     1      18.102  23.222  18.069  1.00  0.00    -0.532 OA
HETATM   37  O5  UNL     1      17.095  25.149  17.493  1.00  0.00    -0.532 OA
ENDBRANCH  29  35
ENDBRANCH  24  27
ENDBRANCH  22  23
ENDBRANCH  21  22
ENDBRANCH  20  21
ENDBRANCH   1  20
TORSDOF 11
ENDMDL
MODEL 3
REMARK VINA RESULT: -8.241813179      1.562      2.087
REMARK  11 active torsions:
REMARK  status: ('A' for Active; 'I' for Inactive)
REMARK    1  A    between atoms: C1_2  and  C2_3 
REMARK       I    between atoms: C1_2  and  N3_15 
REMARK    2  A    between atoms: C2_3  and  N1_4 
REMARK    3  A    between atoms: N3_15  and  C9_17 
REMARK    4  A    between atoms: C9_17  and  C10_18 
REMARK    5  A    between atoms: C10_18  and  S1_19 
REMARK    6  A    between atoms: S1_19  and  S2_20 
REMARK    7  A    between atoms: S2_20  and  C11_21 
REMARK    8  A    between atoms: C11_21  and  C12_22 
REMARK    9  A    between atoms: C12_22  and  N4_23 
REMARK       I    between atoms: N4_23  and  C13_25 
REMARK   10  A    between atoms: C13_25  and  C14_27 
REMARK   11  A    between atoms: C16_29  and  N5_30 
ROOT
HETATM    1  S1  UNL     1      10.312  20.598  18.401  1.00  0.00    -0.096 SA
ENDROOT
BRANCH   1   2
HETATM    2  C10 UNL     1      11.517  19.998  19.591  1.00  0.00     0.105 C 
BRANCH   2   3
HETATM    3  C9  UNL     1      10.906  19.215  20.706  1.00  0.00     0.133 C 
BRANCH   3   4
HETATM    4  N3  UNL     1      10.031  18.160  20.320  1.00  0.00    -0.359 N 
HETATM    5  C1  UNL     1       8.673  18.134  20.741  1.00  0.00     0.235 C 
HETATM    6  O1  UNL     1       8.243  19.054  21.463  1.00  0.00    -0.272 OA
ATOM      7  H3  UNL     1      10.385  17.408  19.729  1.00  0.00     0.162 HD
BRANCH   5   8
HETATM    8  C2  UNL     1       7.793  17.000  20.307  1.00  0.00     0.228 C 
BRANCH   8   9
HETATM    9  N1  UNL     1       7.290  17.191  18.979  1.00  0.00    -0.341 N 
HETATM   10  C3  UNL     1       6.488  18.362  18.589  1.00  0.00     0.129 C 
HETATM   11  C4  UNL     1       5.442  17.662  17.710  1.00  0.00     0.069 C 
HETATM   12  C5  UNL     1       6.188  16.563  17.009  1.00  0.00     0.208 C 
HETATM   13  C6  UNL     1       5.344  15.320  16.854  1.00  0.00     0.076 C 
HETATM   14  N2  UNL     1       6.310  16.658  15.595  1.00  0.00    -0.057 N 
HETATM   15  C8  UNL     1       7.417  16.387  17.809  1.00  0.00     0.256 C 
HETATM   16  C7  UNL     1       5.026  15.946  15.492  1.00  0.00     0.237 C 
ATOM     17  H22 UNL     1       6.447  17.560  15.140  1.00  0.00     0.278 HD
ATOM     18  H21 UNL     1       7.141  16.312  15.117  1.00  0.00     0.278 HD
HETATM   19  O2  UNL     1       8.446  15.683  17.591  1.00  0.00    -0.271 OA
ENDBRANCH   8   9
ENDBRANCH   5   8
ENDBRANCH   3   4
ENDBRANCH   2   3
ENDBRANCH   1   2
BRANCH   1  20
HETATM   20  S2  UNL     1       9.848  19.192  16.915  1.00  0.00    -0.096 SA
BRANCH  20  21
HETATM   21  C11 UNL     1      11.094  17.885  16.745  1.00  0.00     0.105 C 
BRANCH  21  22
HETATM   22  C12 UNL     1      12.041  18.251  15.623  1.00  0.00     0.134 C 
BRANCH  22  23
HETATM   23  N4  UNL     1      13.059  19.167  16.031  1.00  0.00    -0.356 N 
HETATM   24  C13 UNL     1      13.155  20.500  15.544  1.00  0.00     0.253 C 
HETATM   25  O3  UNL     1      12.330  20.944  14.711  1.00  0.00    -0.268 OA
ATOM     26  H4  UNL     1      13.753  18.848  16.707  1.00  0.00     0.162 HD
BRANCH  24  27
HETATM   27  C14 UNL     1      14.220  21.400  15.997  1.00  0.00     0.056 A 
HETATM   28  C15 UNL     1      14.004  22.176  17.113  1.00  0.00     0.056 A 
HETATM   29  C16 UNL     1      14.964  23.050  17.600  1.00  0.00     0.121 A 
HETATM   30  C17 UNL     1      16.165  23.130  16.933  1.00  0.00     0.045 A 
HETATM   31 BR1  UNL     1      17.532  24.314  17.553  1.00  0.00    -0.048 Br
HETATM   32  C18 UNL     1      16.412  22.357  15.800  1.00  0.00     0.046 A 
HETATM   33  C19 UNL     1      15.427  21.496  15.345  1.00  0.00     0.051 A 
HETATM   34 CL1  UNL     1      15.670  20.496  13.931  1.00  0.00    -0.083 Cl
BRANCH  29  35
HETATM   35  N5  UNL     1      14.742  23.852  18.752  1.00  0.00    -0.114 N 
HETATM   36  O4  UNL     1      14.965  23.443  19.918  1.00  0.00    -0.532 OA
HETATM   37  O5  UNL     1      14.259  25.145  18.628  1.00  0.00    -0.532 OA
ENDBRANCH  29  35
ENDBRANCH  24  27
ENDBRANCH  22  23
ENDBRANCH  21  22
ENDBRANCH  20  21
ENDBRANCH   1  20
TORSDOF 11
ENDMDL
MODEL 4
REMARK VINA RESULT: -8.215273861      2.043      2.216
REMARK  11 active torsions:
REMARK  status: ('A' for Active; 'I' for Inactive)
REMARK    1  A    between atoms: C1_2  and  C2_3 
REMARK       I    between atoms: C1_2  and  N3_15 
REMARK    2  A    between atoms: C2_3  and  N1_4 
REMARK    3  A    between atoms: N3_15  and  C9_17 
REMARK    4  A    between atoms: C9_17  and  C10_18 
REMARK    5  A    between atoms: C10_18  and  S1_19 
REMARK    6  A    between atoms: S1_19  and  S2_20 
REMARK    7  A    between atoms: S2_20  and  C11_21 
REMARK    8  A    between atoms: C11_21  and  C12_22 
REMARK    9  A    between atoms: C12_22  and  N4_23 
REMARK       I    between atoms: N4_23  and  C13_25 
REMARK   10  A    between atoms: C13_25  and  C14_27 
REMARK   11  A    between atoms: C16_29  and  N5_30 
ROOT
HETATM    1  S1  UNL     1      10.885  19.486  19.719  1.00  0.00    -0.096 SA
ENDROOT
BRANCH   1   2
HETATM    2  C10 UNL     1       9.472  20.133  18.815  1.00  0.00     0.105 C 
BRANCH   2   3
HETATM    3  C9  UNL     1       8.193  20.047  19.579  1.00  0.00     0.133 C 
BRANCH   3   4
HETATM    4  N3  UNL     1       7.365  18.927  19.285  1.00  0.00    -0.359 N 
HETATM    5  C1  UNL     1       6.004  19.092  18.906  1.00  0.00     0.235 C 
HETATM    6  O1  UNL     1       5.529  20.241  18.831  1.00  0.00    -0.272 OA
ATOM      7  H3  UNL     1       7.756  17.986  19.346  1.00  0.00     0.162 HD
BRANCH   5   8
HETATM    8  C2  UNL     1       5.175  17.879  18.606  1.00  0.00     0.228 C 
BRANCH   8   9
HETATM    9  N1  UNL     1       5.934  16.863  17.940  1.00  0.00    -0.341 N 
HETATM   10  C3  UNL     1       6.793  15.907  18.658  1.00  0.00     0.129 C 
HETATM   11  C4  UNL     1       7.998  15.896  17.707  1.00  0.00     0.069 C 
HETATM   12  C5  UNL     1       7.414  16.022  16.330  1.00  0.00     0.208 C 
HETATM   13  C6  UNL     1       8.277  16.872  15.428  1.00  0.00     0.076 C 
HETATM   14  N2  UNL     1       7.579  14.918  15.449  1.00  0.00    -0.057 N 
HETATM   15  C8  UNL     1       6.050  16.540  16.556  1.00  0.00     0.256 C 
HETATM   16  C7  UNL     1       8.860  15.511  15.034  1.00  0.00     0.237 C 
ATOM     17  H22 UNL     1       7.533  13.959  15.795  1.00  0.00     0.278 HD
ATOM     18  H21 UNL     1       6.863  14.684  14.762  1.00  0.00     0.278 HD
HETATM   19  O2  UNL     1       5.089  16.708  15.750  1.00  0.00    -0.271 OA
ENDBRANCH   8   9
ENDBRANCH   5   8
ENDBRANCH   3   4
ENDBRANCH   2   3
ENDBRANCH   1   2
BRANCH   1  20
HETATM   20  S2  UNL     1      12.252  18.469  18.495  1.00  0.00    -0.096 SA
BRANCH  20  21
HETATM   21  C11 UNL     1      11.515  17.826  16.968  1.00  0.00     0.105 C 
BRANCH  21  22
HETATM   22  C12 UNL     1      12.142  18.531  15.785  1.00  0.00     0.134 C 
BRANCH  22  23
HETATM   23  N4  UNL     1      13.187  19.429  16.162  1.00  0.00    -0.356 N 
HETATM   24  C13 UNL     1      13.318  20.744  15.636  1.00  0.00     0.253 C 
HETATM   25  O3  UNL     1      12.504  21.187  14.793  1.00  0.00    -0.268 OA
ATOM     26  H4  UNL     1      13.874  19.111  16.845  1.00  0.00     0.162 HD
BRANCH  24  27
HETATM   27  C14 UNL     1      14.411  21.627  16.058  1.00  0.00     0.056 A 
HETATM   28  C15 UNL     1      15.559  21.672  15.303  1.00  0.00     0.056 A 
HETATM   29  C16 UNL     1      16.632  22.482  15.639  1.00  0.00     0.121 A 
HETATM   30  C17 UNL     1      16.527  23.261  16.770  1.00  0.00     0.045 A 
HETATM   31 BR1  UNL     1      17.970  24.402  17.289  1.00  0.00    -0.048 Br
HETATM   32  C18 UNL     1      15.376  23.237  17.555  1.00  0.00     0.046 A 
HETATM   33  C19 UNL     1      14.326  22.412  17.184  1.00  0.00     0.051 A 
HETATM   34 CL1  UNL     1      12.852  22.333  18.123  1.00  0.00    -0.083 Cl
BRANCH  29  35
HETATM   35  N5  UNL     1      17.819  22.529  14.859  1.00  0.00    -0.114 N 
HETATM   36  O4  UNL     1      17.988  23.352  13.925  1.00  0.00    -0.532 OA
HETATM   37  O5  UNL     1      18.859  21.647  15.105  1.00  0.00    -0.532 OA
ENDBRANCH  29  35
ENDBRANCH  24  27
ENDBRANCH  22  23
ENDBRANCH  21  22
ENDBRANCH  20  21
ENDBRANCH   1  20
TORSDOF 11
ENDMDL
MODEL 5
REMARK VINA RESULT: -8.138539100      2.519      2.906
REMARK  11 active torsions:
REMARK  status: ('A' for Active; 'I' for Inactive)
REMARK    1  A    between atoms: C1_2  and  C2_3 
REMARK       I    between atoms: C1_2  and  N3_15 
REMARK    2  A    between atoms: C2_3  and  N1_4 
REMARK    3  A    between atoms: N3_15  and  C9_17 
REMARK    4  A    between atoms: C9_17  and  C10_18 
REMARK    5  A    between atoms: C10_18  and  S1_19 
REMARK    6  A    between atoms: S1_19  and  S2_20 
REMARK    7  A    between atoms: S2_20  and  C11_21 
REMARK    8  A    between atoms: C11_21  and  C12_22 
REMARK    9  A    between atoms: C12_22  and  N4_23 
REMARK       I    between atoms: N4_23  and  C13_25 
REMARK   10  A    between atoms: C13_25  and  C14_27 
REMARK   11  A    between atoms: C16_29  and  N5_30 
ROOT
HETATM    1  S1  UNL     1       9.703  20.245  18.790  1.00  0.00    -0.096 SA
ENDROOT
BRANCH   1   2
HETATM    2  C10 UNL     1      10.975  19.841  19.993  1.00  0.00     0.105 C 
BRANCH   2   3
HETATM    3  C9  UNL     1      10.524  18.859  21.022  1.00  0.00     0.133 C 
BRANCH   3   4
HETATM    4  N3  UNL     1       9.613  17.861  20.574  1.00  0.00    -0.359 N 
HETATM    5  C1  UNL     1       8.236  17.901  20.930  1.00  0.00     0.235 C 
HETATM    6  O1  UNL     1       7.822  18.830  21.650  1.00  0.00    -0.272 OA
ATOM      7  H3  UNL     1       9.955  17.101  19.985  1.00  0.00     0.162 HD
BRANCH   5   8
HETATM    8  C2  UNL     1       7.319  16.824  20.432  1.00  0.00     0.228 C 
BRANCH   8   9
HETATM    9  N1  UNL     1       6.934  17.038  19.069  1.00  0.00    -0.341 N 
HETATM   10  C3  UNL     1       6.157  18.210  18.633  1.00  0.00     0.129 C 
HETATM   11  C4  UNL     1       5.199  17.520  17.652  1.00  0.00     0.069 C 
HETATM   12  C5  UNL     1       6.015  16.442  16.998  1.00  0.00     0.208 C 
HETATM   13  C6  UNL     1       5.201  15.195  16.744  1.00  0.00     0.076 C 
HETATM   14  N2  UNL     1       6.261  16.567  15.602  1.00  0.00    -0.057 N 
HETATM   15  C8  UNL     1       7.171  16.259  17.898  1.00  0.00     0.256 C 
HETATM   16  C7  UNL     1       4.999  15.846  15.372  1.00  0.00     0.237 C 
ATOM     17  H22 UNL     1       6.428  17.479  15.179  1.00  0.00     0.278 HD
ATOM     18  H21 UNL     1       7.134  16.238  15.192  1.00  0.00     0.278 HD
HETATM   19  O2  UNL     1       8.222  15.569  17.759  1.00  0.00    -0.271 OA
ENDBRANCH   8   9
ENDBRANCH   5   8
ENDBRANCH   3   4
ENDBRANCH   2   3
ENDBRANCH   1   2
BRANCH   1  20
HETATM   20  S2  UNL     1       9.807  19.073  17.053  1.00  0.00    -0.096 SA
BRANCH  20  21
HETATM   21  C11 UNL     1      11.286  18.026  16.977  1.00  0.00     0.105 C 
BRANCH  21  22
HETATM   22  C12 UNL     1      12.141  18.468  15.809  1.00  0.00     0.134 C 
BRANCH  22  23
HETATM   23  N4  UNL     1      13.175  19.378  16.190  1.00  0.00    -0.356 N 
HETATM   24  C13 UNL     1      13.338  20.666  15.610  1.00  0.00     0.253 C 
HETATM   25  O3  UNL     1      12.564  21.073  14.712  1.00  0.00    -0.268 OA
ATOM     26  H4  UNL     1      13.830  19.089  16.917  1.00  0.00     0.162 HD
BRANCH  24  27
HETATM   27  C14 UNL     1      14.417  21.563  16.039  1.00  0.00     0.056 A 
HETATM   28  C15 UNL     1      15.576  21.609  15.300  1.00  0.00     0.056 A 
HETATM   29  C16 UNL     1      16.637  22.431  15.643  1.00  0.00     0.121 A 
HETATM   30  C17 UNL     1      16.509  23.223  16.762  1.00  0.00     0.045 A 
HETATM   31 BR1  UNL     1      17.934  24.381  17.290  1.00  0.00    -0.048 Br
HETATM   32  C18 UNL     1      15.346  23.198  17.530  1.00  0.00     0.046 A 
HETATM   33  C19 UNL     1      14.308  22.361  17.153  1.00  0.00     0.051 A 
HETATM   34 CL1  UNL     1      12.821  22.281  18.070  1.00  0.00    -0.083 Cl
BRANCH  29  35
HETATM   35  N5  UNL     1      17.836  22.478  14.881  1.00  0.00    -0.114 N 
HETATM   36  O4  UNL     1      17.995  23.260  13.911  1.00  0.00    -0.532 OA
HETATM   37  O5  UNL     1      18.899  21.644  15.187  1.00  0.00    -0.532 OA
ENDBRANCH  29  35
ENDBRANCH  24  27
ENDBRANCH  22  23
ENDBRANCH  21  22
ENDBRANCH  20  21
ENDBRANCH   1  20
TORSDOF 11
ENDMDL
