MODEL 1
REMARK VINA RESULT: -4.090954384      0.000      0.000
REMARK  1 active torsions:
REMARK  status: ('A' for Active; 'I' for Inactive)
REMARK    1  A    between atoms: N1_1  and  C1_4 
ROOT
HETATM    1  C1  UNL     1      30.001  66.108  98.169  1.00  0.00     0.682 A 
HETATM    2  N2  UNL     1      28.864  65.790  98.795  1.00  0.00    -0.150 N 
ATOM      3  H2  UNL     1      28.940  65.217  99.635  1.00  0.00     0.188 HD
HETATM    4  C2  UNL     1      27.629  66.160  98.415  1.00  0.00     0.307 A 
HETATM    5  O1  UNL     1      26.600  65.805  99.083  1.00  0.00    -0.259 OA
HETATM    6  S1  UNL     1      27.578  67.115  97.004  1.00  0.00     0.033 SA
HETATM    7  C3  UNL     1      29.129  67.405  96.363  1.00  0.00     0.307 A 
HETATM    8  O2  UNL     1      29.365  68.087  95.318  1.00  0.00    -0.259 OA
HETATM    9  N3  UNL     1      30.125  66.843  97.062  1.00  0.00    -0.150 N 
ATOM     10  H3  UNL     1      31.072  66.992  96.714  1.00  0.00     0.188 HD
ENDROOT
BRANCH   1  11
HETATM   11  N1  UNL     1      31.082  65.619  98.747  1.00  0.00    -0.234 N 
ATOM     12  H12 UNL     1      30.989  65.066  99.598  1.00  0.00     0.174 HD
ATOM     13  H11 UNL     1      31.949  65.854  98.263  1.00  0.00     0.174 HD
ENDBRANCH   1  11
TORSDOF 1
ENDMDL
MODEL 2
REMARK VINA RESULT: -4.048662030      2.108      2.771
REMARK  1 active torsions:
REMARK  status: ('A' for Active; 'I' for Inactive)
REMARK    1  A    between atoms: N1_1  and  C1_4 
ROOT
HETATM    1  C1  UNL     1      27.469  66.261  98.210  1.00  0.00     0.682 A 
HETATM    2  N2  UNL     1      28.657  65.770  98.574  1.00  0.00    -0.150 N 
ATOM      3  H2  UNL     1      28.686  65.196  99.417  1.00  0.00     0.188 HD
HETATM    4  C2  UNL     1      29.819  65.967  97.926  1.00  0.00     0.307 A 
HETATM    5  O1  UNL     1      30.907  65.453  98.355  1.00  0.00    -0.259 OA
HETATM    6  S1  UNL     1      29.697  66.935  96.530  1.00  0.00     0.033 SA
HETATM    7  C3  UNL     1      28.102  67.457  96.243  1.00  0.00     0.307 A 
HETATM    8  O2  UNL     1      27.744  68.189  95.268  1.00  0.00    -0.259 OA
HETATM    9  N3  UNL     1      27.213  67.029  97.149  1.00  0.00    -0.150 N 
ATOM     10  H3  UNL     1      26.244  67.318  97.014  1.00  0.00     0.188 HD
ENDROOT
BRANCH   1  11
HETATM   11  N1  UNL     1      26.482  65.919  99.017  1.00  0.00    -0.234 N 
ATOM     12  H12 UNL     1      26.421  66.345  99.941  1.00  0.00     0.174 HD
ATOM     13  H11 UNL     1      25.845  65.230  98.618  1.00  0.00     0.174 HD
ENDBRANCH   1  11
TORSDOF 1
ENDMDL
MODEL 3
REMARK VINA RESULT: -4.033776565      0.045      3.009
REMARK  1 active torsions:
REMARK  status: ('A' for Active; 'I' for Inactive)
REMARK    1  A    between atoms: N1_1  and  C1_4 
ROOT
HETATM    1  C1  UNL     1      29.988  66.062  98.194  1.00  0.00     0.682 A 
HETATM    2  N2  UNL     1      30.145  66.795  97.088  1.00  0.00    -0.150 N 
ATOM      3  H2  UNL     1      31.097  66.925  96.746  1.00  0.00     0.188 HD
HETATM    4  C2  UNL     1      29.156  67.375  96.385  1.00  0.00     0.307 A 
HETATM    5  O1  UNL     1      29.407  68.058  95.335  1.00  0.00    -0.259 OA
HETATM    6  S1  UNL     1      27.594  67.116  97.013  1.00  0.00     0.033 SA
HETATM    7  C3  UNL     1      27.613  66.160  98.422  1.00  0.00     0.307 A 
HETATM    8  O2  UNL     1      26.582  65.823  99.083  1.00  0.00    -0.259 OA
HETATM    9  N3  UNL     1      28.837  65.771  98.804  1.00  0.00    -0.150 N 
ATOM     10  H3  UNL     1      28.895  65.195  99.643  1.00  0.00     0.188 HD
ENDROOT
BRANCH   1  11
HETATM   11  N1  UNL     1      31.121  65.604  98.693  1.00  0.00    -0.234 N 
ATOM     12  H12 UNL     1      31.895  65.391  98.066  1.00  0.00     0.174 HD
ATOM     13  H11 UNL     1      31.111  65.502  99.708  1.00  0.00     0.174 HD
ENDBRANCH   1  11
TORSDOF 1
ENDMDL
MODEL 4
REMARK VINA RESULT: -4.007159896      2.103      3.258
REMARK  1 active torsions:
REMARK  status: ('A' for Active; 'I' for Inactive)
REMARK    1  A    between atoms: N1_1  and  C1_4 
ROOT
HETATM    1  C1  UNL     1      27.519  66.214  98.262  1.00  0.00     0.682 A 
HETATM    2  N2  UNL     1      27.221  66.979  97.208  1.00  0.00    -0.150 N 
ATOM      3  H2  UNL     1      26.245  67.253  97.093  1.00  0.00     0.188 HD
HETATM    4  C2  UNL     1      28.095  67.419  96.286  1.00  0.00     0.307 A 
HETATM    5  O1  UNL     1      27.712  68.149  95.310  1.00  0.00    -0.259 OA
HETATM    6  S1  UNL     1      29.705  66.922  96.541  1.00  0.00     0.033 SA
HETATM    7  C3  UNL     1      29.870  65.957  97.935  1.00  0.00     0.307 A 
HETATM    8  O2  UNL     1      30.965  65.460  98.346  1.00  0.00    -0.259 OA
HETATM    9  N3  UNL     1      28.724  65.747  98.596  1.00  0.00    -0.150 N 
ATOM     10  H3  UNL     1      28.778  65.175  99.439  1.00  0.00     0.188 HD
ENDROOT
BRANCH   1  11
HETATM   11  N1  UNL     1      26.478  65.920  99.018  1.00  0.00    -0.234 N 
ATOM     12  H12 UNL     1      26.628  65.505  99.937  1.00  0.00     0.174 HD
ATOM     13  H11 UNL     1      25.581  66.147  98.590  1.00  0.00     0.174 HD
ENDBRANCH   1  11
TORSDOF 1
ENDMDL
MODEL 5
REMARK VINA RESULT: -3.462037102      2.442      2.851
REMARK  1 active torsions:
REMARK  status: ('A' for Active; 'I' for Inactive)
REMARK    1  A    between atoms: N1_1  and  C1_4 
ROOT
HETATM    1  C1  UNL     1      28.960  67.363  99.571  1.00  0.00     0.682 A 
HETATM    2  N2  UNL     1      30.009  66.554  99.396  1.00  0.00    -0.150 N 
ATOM      3  H2  UNL     1      30.632  66.420 100.193  1.00  0.00     0.188 HD
HETATM    4  C2  UNL     1      30.315  65.900  98.262  1.00  0.00     0.307 A 
HETATM    5  O1  UNL     1      31.344  65.145  98.193  1.00  0.00    -0.259 OA
HETATM    6  S1  UNL     1      29.233  66.170  96.974  1.00  0.00     0.033 SA
HETATM    7  C3  UNL     1      27.969  67.228  97.403  1.00  0.00     0.307 A 
HETATM    8  O2  UNL     1      27.033  67.591  96.624  1.00  0.00    -0.259 OA
HETATM    9  N3  UNL     1      28.029  67.672  98.665  1.00  0.00    -0.150 N 
ATOM     10  H3  UNL     1      27.291  68.308  98.965  1.00  0.00     0.188 HD
ENDROOT
BRANCH   1  11
HETATM   11  N1  UNL     1      28.884  67.883 100.782  1.00  0.00    -0.234 N 
ATOM     12  H12 UNL     1      29.597  67.649 101.473  1.00  0.00     0.174 HD
ATOM     13  H11 UNL     1      28.082  68.497 100.916  1.00  0.00     0.174 HD
ENDBRANCH   1  11
TORSDOF 1
ENDMDL
