MODEL 1
REMARK VINA RESULT: -9.457508088      0.000      0.000
REMARK  18 active torsions:
REMARK  status: ('A' for Active; 'I' for Inactive)
REMARK    1  A    between atoms: C5_7  and  C6_8 
REMARK    2  A    between atoms: C6_8  and  O3_9 
REMARK    3  A    between atoms: O3_9  and  S1_10 
REMARK    4  A    between atoms: S1_10  and  O6_13 
REMARK    5  A    between atoms: O6_13  and  C7_14 
REMARK    6  A    between atoms: C8_15  and  O7_16 
REMARK    7  A    between atoms: O7_16  and  S2_17 
REMARK    8  A    between atoms: C10_22  and  C11_23 
REMARK    9  A    between atoms: C11_23  and  O11_24 
REMARK   10  A    between atoms: C11_23  and  C12_26 
REMARK   11  A    between atoms: C12_26  and  O12_27 
REMARK   12  A    between atoms: O12_27  and  N1_28 
REMARK   13  A    between atoms: N1_28  and  C13_29 
REMARK   14  A    between atoms: C13_29  and  C14_30 
REMARK   15  A    between atoms: C16_32  and  O13_33 
REMARK   16  A    between atoms: C19_37  and  O14_38 
REMARK   17  A    between atoms: C20_40  and  N2_41 
REMARK   18  A    between atoms: C22_49  and  O17_50 
ROOT
HETATM    1  C7  UNL     1      44.781 -16.772  34.347  1.00  0.00     0.194 C 
HETATM    2  C8  UNL     1      46.093 -16.393  34.492  1.00  0.00     0.133 C 
HETATM    3  C9  UNL     1      47.111 -16.555  33.534  1.00  0.00     0.055 C 
HETATM    4  C10 UNL     1      47.016 -16.995  32.238  1.00  0.00     0.019 C 
HETATM    5  C20 UNL     1      45.951 -17.702  31.660  1.00  0.00     0.110 C 
HETATM    6  N3  UNL     1      44.892 -18.182  32.328  1.00  0.00    -0.307 N 
ATOM      7  H3  UNL     1      44.422 -18.958  31.864  1.00  0.00     0.170 HD
HETATM    8  C21 UNL     1      44.331 -17.818  33.519  1.00  0.00     0.284 C 
HETATM    9  O15 UNL     1      43.331 -18.470  33.910  1.00  0.00    -0.265 OA
ENDROOT
BRANCH   1  10
HETATM   10  O6  UNL     1      43.758 -16.157  35.004  1.00  0.00    -0.202 OA
BRANCH  10  11
HETATM   11  S1  UNL     1      43.252 -14.563  34.858  1.00  0.00     0.407 S 
HETATM   12  O4  UNL     1      44.198 -13.834  33.922  1.00  0.00    -0.168 OA
HETATM   13  O5  UNL     1      43.238 -13.796  36.145  1.00  0.00    -0.168 OA
BRANCH  11  14
HETATM   14  O3  UNL     1      41.714 -14.454  34.175  1.00  0.00    -0.249 OA
BRANCH  14  15
HETATM   15  C6  UNL     1      41.324 -15.687  33.653  1.00  0.00     0.253 C 
BRANCH  15  16
HETATM   16  C5  UNL     1      41.235 -15.599  32.159  1.00  0.00     0.294 C 
HETATM   17  O2  UNL     1      42.126 -16.435  31.493  1.00  0.00    -0.321 OA
HETATM   18  C4  UNL     1      42.480 -15.757  30.326  1.00  0.00     0.359 C 
HETATM   19  O1  UNL     1      41.485 -15.842  29.358  1.00  0.00    -0.318 OA
HETATM   20  C22 UNL     1      42.409 -14.327  30.759  1.00  0.00     0.338 C 
HETATM   21  C2  UNL     1      41.207 -14.560  28.927  1.00  0.00     0.166 C 
HETATM   22  C1  UNL     1      41.455 -14.455  27.421  1.00  0.00     0.078 C 
HETATM   23  C3  UNL     1      39.778 -14.176  29.190  1.00  0.00     0.078 C 
HETATM   24  O18 UNL     1      42.042 -13.685  29.581  1.00  0.00    -0.292 OA
HETATM   25  O16 UNL     1      41.442 -14.315  31.728  1.00  0.00    -0.296 OA
BRANCH  20  26
HETATM   26  O17 UNL     1      43.661 -13.934  31.223  1.00  0.00    -0.339 OA
ATOM     27  H17 UNL     1      44.050 -13.340  30.593  1.00  0.00     0.215 HD
ENDBRANCH  20  26
ENDBRANCH  15  16
ENDBRANCH  14  15
ENDBRANCH  11  14
ENDBRANCH  10  11
ENDBRANCH   1  10
BRANCH   2  28
HETATM   28  O7  UNL     1      46.420 -15.809  35.687  1.00  0.00    -0.211 OA
BRANCH  28  29
HETATM   29  S2  UNL     1      46.484 -16.477  37.211  1.00  0.00     0.257 S 
HETATM   30  O8  UNL     1      45.179 -16.846  37.811  1.00  0.00    -0.572 OA
HETATM   31  O9  UNL     1      47.159 -15.539  38.200  1.00  0.00    -0.572 OA
HETATM   32  O10 UNL     1      47.481 -17.856  37.175  1.00  0.00    -0.572 OA
ENDBRANCH  28  29
ENDBRANCH   2  28
BRANCH   4  33
HETATM   33  C11 UNL     1      48.121 -16.731  31.331  1.00  0.00     0.182 C 
BRANCH  33  34
HETATM   34  O11 UNL     1      49.114 -17.732  31.462  1.00  0.00    -0.389 OA
ATOM     35  H11 UNL     1      49.024 -18.379  30.772  1.00  0.00     0.210 HD
ENDBRANCH  33  34
BRANCH  33  36
HETATM   36  C12 UNL     1      48.752 -15.396  31.368  1.00  0.00     0.254 C 
BRANCH  36  37
HETATM   37  O12 UNL     1      50.113 -15.353  31.666  1.00  0.00    -0.207 OA
BRANCH  37  38
HETATM   38  N1  UNL     1      50.928 -14.438  31.921  1.00  0.00    -0.293 NA
BRANCH  38  39
HETATM   39  C13 UNL     1      51.703 -13.562  32.166  1.00  0.00     0.232 C 
BRANCH  39  40
HETATM   40  C14 UNL     1      51.837 -12.713  33.375  1.00  0.00     0.031 A 
HETATM   41  C15 UNL     1      52.821 -11.749  33.435  1.00  0.00     0.053 A 
HETATM   42  C16 UNL     1      52.963 -10.948  34.540  1.00  0.00     0.066 A 
HETATM   43  C17 UNL     1      52.135 -11.087  35.604  1.00  0.00     0.039 A 
HETATM   44  C18 UNL     1      51.141 -12.039  35.578  1.00  0.00     0.040 A 
HETATM   45  C19 UNL     1      50.994 -12.855  34.458  1.00  0.00     0.078 A 
BRANCH  42  46
HETATM   46  O13 UNL     1      53.969  -9.970  34.588  1.00  0.00    -0.361 OA
ATOM     47  H13 UNL     1      53.746  -9.049  34.666  1.00  0.00     0.217 HD
ENDBRANCH  42  46
BRANCH  45  48
HETATM   48  O14 UNL     1      49.992 -13.819  34.426  1.00  0.00    -0.360 OA
ATOM     49  H14 UNL     1      49.284 -13.780  35.058  1.00  0.00     0.217 HD
ENDBRANCH  45  48
ENDBRANCH  39  40
ENDBRANCH  38  39
ENDBRANCH  37  38
ENDBRANCH  36  37
ENDBRANCH  33  36
ENDBRANCH   4  33
BRANCH   5  50
HETATM   50  N2  UNL     1      46.024 -17.891  30.375  1.00  0.00    -0.385 N 
ATOM     51  H22 UNL     1      46.720 -17.374  29.838  1.00  0.00     0.157 HD
ATOM     52  H21 UNL     1      45.361 -18.561  29.984  1.00  0.00     0.157 HD
ENDBRANCH   5  50
TORSDOF 18
ENDMDL
MODEL 2
REMARK VINA RESULT: -9.448482582      1.629      2.429
REMARK  18 active torsions:
REMARK  status: ('A' for Active; 'I' for Inactive)
REMARK    1  A    between atoms: C5_7  and  C6_8 
REMARK    2  A    between atoms: C6_8  and  O3_9 
REMARK    3  A    between atoms: O3_9  and  S1_10 
REMARK    4  A    between atoms: S1_10  and  O6_13 
REMARK    5  A    between atoms: O6_13  and  C7_14 
REMARK    6  A    between atoms: C8_15  and  O7_16 
REMARK    7  A    between atoms: O7_16  and  S2_17 
REMARK    8  A    between atoms: C10_22  and  C11_23 
REMARK    9  A    between atoms: C11_23  and  O11_24 
REMARK   10  A    between atoms: C11_23  and  C12_26 
REMARK   11  A    between atoms: C12_26  and  O12_27 
REMARK   12  A    between atoms: O12_27  and  N1_28 
REMARK   13  A    between atoms: N1_28  and  C13_29 
REMARK   14  A    between atoms: C13_29  and  C14_30 
REMARK   15  A    between atoms: C16_32  and  O13_33 
REMARK   16  A    between atoms: C19_37  and  O14_38 
REMARK   17  A    between atoms: C20_40  and  N2_41 
REMARK   18  A    between atoms: C22_49  and  O17_50 
ROOT
HETATM    1  C7  UNL     1      44.708 -15.807  32.337  1.00  0.00     0.194 C 
HETATM    2  C8  UNL     1      45.829 -16.423  32.839  1.00  0.00     0.133 C 
HETATM    3  C9  UNL     1      46.966 -16.800  32.101  1.00  0.00     0.055 C 
HETATM    4  C10 UNL     1      47.268 -16.542  30.787  1.00  0.00     0.019 C 
HETATM    5  C20 UNL     1      46.381 -16.137  29.778  1.00  0.00     0.110 C 
HETATM    6  N3  UNL     1      45.049 -16.061  29.909  1.00  0.00    -0.307 N 
ATOM      7  H3  UNL     1      44.538 -16.118  29.028  1.00  0.00     0.170 HD
HETATM    8  C21 UNL     1      44.253 -15.921  31.010  1.00  0.00     0.284 C 
HETATM    9  O15 UNL     1      43.010 -15.892  30.825  1.00  0.00    -0.265 OA
ENDROOT
BRANCH   1  10
HETATM   10  O6  UNL     1      43.907 -15.004  33.091  1.00  0.00    -0.202 OA
BRANCH  10  11
HETATM   11  S1  UNL     1      42.682 -15.468  34.142  1.00  0.00     0.407 S 
HETATM   12  O4  UNL     1      43.261 -15.602  35.539  1.00  0.00    -0.168 OA
HETATM   13  O5  UNL     1      42.045 -16.782  33.810  1.00  0.00    -0.168 OA
BRANCH  11  14
HETATM   14  O3  UNL     1      41.461 -14.309  34.232  1.00  0.00    -0.249 OA
BRANCH  14  15
HETATM   15  C6  UNL     1      40.387 -14.670  33.419  1.00  0.00     0.253 C 
BRANCH  15  16
HETATM   16  C5  UNL     1      40.511 -13.994  32.086  1.00  0.00     0.294 C 
HETATM   17  O2  UNL     1      40.045 -12.683  32.075  1.00  0.00    -0.321 OA
HETATM   18  C4  UNL     1      39.517 -12.481  30.799  1.00  0.00     0.359 C 
HETATM   19  O1  UNL     1      40.515 -12.264  29.856  1.00  0.00    -0.318 OA
HETATM   20  C22 UNL     1      39.009 -13.843  30.448  1.00  0.00     0.338 C 
HETATM   21  C2  UNL     1      40.299 -13.137  28.808  1.00  0.00     0.166 C 
HETATM   22  C1  UNL     1      40.106 -12.351  27.510  1.00  0.00     0.078 C 
HETATM   23  C3  UNL     1      41.454 -14.078  28.612  1.00  0.00     0.078 C 
HETATM   24  O18 UNL     1      39.160 -13.862  29.066  1.00  0.00    -0.292 OA
HETATM   25  O16 UNL     1      39.847 -14.697  31.114  1.00  0.00    -0.296 OA
BRANCH  20  26
HETATM   26  O17 UNL     1      37.681 -13.947  30.851  1.00  0.00    -0.339 OA
ATOM     27  H17 UNL     1      37.649 -13.983  31.799  1.00  0.00     0.215 HD
ENDBRANCH  20  26
ENDBRANCH  15  16
ENDBRANCH  14  15
ENDBRANCH  11  14
ENDBRANCH  10  11
ENDBRANCH   1  10
BRANCH   2  28
HETATM   28  O7  UNL     1      45.817 -16.689  34.182  1.00  0.00    -0.211 OA
BRANCH  28  29
HETATM   29  S2  UNL     1      46.913 -16.256  35.359  1.00  0.00     0.257 S 
HETATM   30  O8  UNL     1      47.438 -14.871  35.277  1.00  0.00    -0.572 OA
HETATM   31  O9  UNL     1      48.127 -17.174  35.350  1.00  0.00    -0.572 OA
HETATM   32  O10 UNL     1      46.209 -16.487  36.891  1.00  0.00    -0.572 OA
ENDBRANCH  28  29
ENDBRANCH   2  28
BRANCH   4  33
HETATM   33  C11 UNL     1      48.644 -16.702  30.346  1.00  0.00     0.182 C 
BRANCH  33  34
HETATM   34  O11 UNL     1      48.860 -18.023  29.882  1.00  0.00    -0.389 OA
ATOM     35  H11 UNL     1      49.470 -18.477  30.453  1.00  0.00     0.210 HD
ENDBRANCH  33  34
BRANCH  33  36
HETATM   36  C12 UNL     1      49.726 -16.317  31.275  1.00  0.00     0.254 C 
BRANCH  36  37
HETATM   37  O12 UNL     1      49.860 -14.959  31.554  1.00  0.00    -0.207 OA
BRANCH  37  38
HETATM   38  N1  UNL     1      50.813 -14.221  31.890  1.00  0.00    -0.293 NA
BRANCH  38  39
HETATM   39  C13 UNL     1      51.721 -13.515  32.215  1.00  0.00     0.232 C 
BRANCH  39  40
HETATM   40  C14 UNL     1      51.882 -12.652  33.411  1.00  0.00     0.031 A 
HETATM   41  C15 UNL     1      52.856 -11.677  33.430  1.00  0.00     0.053 A 
HETATM   42  C16 UNL     1      53.023 -10.863  34.523  1.00  0.00     0.066 A 
HETATM   43  C17 UNL     1      52.230 -11.000  35.614  1.00  0.00     0.039 A 
HETATM   44  C18 UNL     1      51.247 -11.964  35.628  1.00  0.00     0.040 A 
HETATM   45  C19 UNL     1      51.075 -12.793  34.521  1.00  0.00     0.078 A 
BRANCH  42  46
HETATM   46  O13 UNL     1      54.019  -9.873  34.530  1.00  0.00    -0.361 OA
ATOM     47  H13 UNL     1      54.567  -9.744  35.296  1.00  0.00     0.217 HD
ENDBRANCH  42  46
BRANCH  45  48
HETATM   48  O14 UNL     1      50.084 -13.768  34.529  1.00  0.00    -0.360 OA
ATOM     49  H14 UNL     1      49.718 -14.057  35.357  1.00  0.00     0.217 HD
ENDBRANCH  45  48
ENDBRANCH  39  40
ENDBRANCH  38  39
ENDBRANCH  37  38
ENDBRANCH  36  37
ENDBRANCH  33  36
ENDBRANCH   4  33
BRANCH   5  50
HETATM   50  N2  UNL     1      46.921 -15.818  28.640  1.00  0.00    -0.385 N 
ATOM     51  H22 UNL     1      47.280 -14.872  28.511  1.00  0.00     0.157 HD
ATOM     52  H21 UNL     1      46.949 -16.556  27.936  1.00  0.00     0.157 HD
ENDBRANCH   5  50
TORSDOF 18
ENDMDL
MODEL 3
REMARK VINA RESULT: -9.422170012      2.316      5.920
REMARK  18 active torsions:
REMARK  status: ('A' for Active; 'I' for Inactive)
REMARK    1  A    between atoms: C5_7  and  C6_8 
REMARK    2  A    between atoms: C6_8  and  O3_9 
REMARK    3  A    between atoms: O3_9  and  S1_10 
REMARK    4  A    between atoms: S1_10  and  O6_13 
REMARK    5  A    between atoms: O6_13  and  C7_14 
REMARK    6  A    between atoms: C8_15  and  O7_16 
REMARK    7  A    between atoms: O7_16  and  S2_17 
REMARK    8  A    between atoms: C10_22  and  C11_23 
REMARK    9  A    between atoms: C11_23  and  O11_24 
REMARK   10  A    between atoms: C11_23  and  C12_26 
REMARK   11  A    between atoms: C12_26  and  O12_27 
REMARK   12  A    between atoms: O12_27  and  N1_28 
REMARK   13  A    between atoms: N1_28  and  C13_29 
REMARK   14  A    between atoms: C13_29  and  C14_30 
REMARK   15  A    between atoms: C16_32  and  O13_33 
REMARK   16  A    between atoms: C19_37  and  O14_38 
REMARK   17  A    between atoms: C20_40  and  N2_41 
REMARK   18  A    between atoms: C22_49  and  O17_50 
ROOT
HETATM    1  C7  UNL     1      43.227 -15.496  31.086  1.00  0.00     0.194 C 
HETATM    2  C8  UNL     1      43.797 -15.786  29.871  1.00  0.00     0.133 C 
HETATM    3  C9  UNL     1      45.149 -15.605  29.527  1.00  0.00     0.055 C 
HETATM    4  C10 UNL     1      46.201 -15.231  30.326  1.00  0.00     0.019 C 
HETATM    5  C20 UNL     1      46.131 -14.619  31.586  1.00  0.00     0.110 C 
HETATM    6  N3  UNL     1      45.007 -14.176  32.166  1.00  0.00    -0.307 N 
ATOM      7  H3  UNL     1      45.155 -13.452  32.869  1.00  0.00     0.170 HD
HETATM    8  C21 UNL     1      43.697 -14.519  31.984  1.00  0.00     0.284 C 
HETATM    9  O15 UNL     1      42.839 -13.913  32.674  1.00  0.00    -0.265 OA
ENDROOT
BRANCH   1  10
HETATM   10  O6  UNL     1      42.123 -16.142  31.557  1.00  0.00    -0.202 OA
BRANCH  10  11
HETATM   11  S1  UNL     1      42.063 -17.402  32.665  1.00  0.00     0.407 S 
HETATM   12  O4  UNL     1      43.177 -18.384  32.349  1.00  0.00    -0.168 OA
HETATM   13  O5  UNL     1      40.783 -18.179  32.651  1.00  0.00    -0.168 OA
BRANCH  11  14
HETATM   14  O3  UNL     1      42.324 -16.863  34.240  1.00  0.00    -0.249 OA
BRANCH  14  15
HETATM   15  C6  UNL     1      43.443 -17.489  34.791  1.00  0.00     0.253 C 
BRANCH  15  16
HETATM   16  C5  UNL     1      44.459 -16.459  35.183  1.00  0.00     0.294 C 
HETATM   17  O2  UNL     1      45.569 -16.416  34.345  1.00  0.00    -0.321 OA
HETATM   18  C4  UNL     1      46.646 -16.070  35.163  1.00  0.00     0.359 C 
HETATM   19  O1  UNL     1      46.658 -14.710  35.451  1.00  0.00    -0.318 OA
HETATM   20  C22 UNL     1      46.262 -16.690  36.469  1.00  0.00     0.338 C 
HETATM   21  C2  UNL     1      46.756 -14.572  36.822  1.00  0.00     0.166 C 
HETATM   22  C1  UNL     1      48.013 -13.774  37.173  1.00  0.00     0.078 C 
HETATM   23  C3  UNL     1      45.572 -13.851  37.401  1.00  0.00     0.078 C 
HETATM   24  O18 UNL     1      46.848 -15.823  37.385  1.00  0.00    -0.292 OA
HETATM   25  O16 UNL     1      44.894 -16.660  36.467  1.00  0.00    -0.296 OA
BRANCH  20  26
HETATM   26  O17 UNL     1      46.787 -17.977  36.528  1.00  0.00    -0.339 OA
ATOM     27  H17 UNL     1      47.734 -17.923  36.545  1.00  0.00     0.215 HD
ENDBRANCH  20  26
ENDBRANCH  15  16
ENDBRANCH  14  15
ENDBRANCH  11  14
ENDBRANCH  10  11
ENDBRANCH   1  10
BRANCH   2  28
HETATM   28  O7  UNL     1      42.954 -16.292  28.918  1.00  0.00    -0.211 OA
BRANCH  28  29
HETATM   29  S2  UNL     1      41.757 -15.529  28.047  1.00  0.00     0.257 S 
HETATM   30  O8  UNL     1      42.118 -14.212  27.467  1.00  0.00    -0.572 OA
HETATM   31  O9  UNL     1      40.516 -15.296  28.896  1.00  0.00    -0.572 OA
HETATM   32  O10 UNL     1      41.236 -16.556  26.794  1.00  0.00    -0.572 OA
ENDBRANCH  28  29
ENDBRANCH   2  28
BRANCH   4  33
HETATM   33  C11 UNL     1      47.554 -15.468  29.850  1.00  0.00     0.182 C 
BRANCH  33  34
HETATM   34  O11 UNL     1      47.569 -15.559  28.437  1.00  0.00    -0.389 OA
ATOM     35  H11 UNL     1      46.757 -15.940  28.123  1.00  0.00     0.210 HD
ENDBRANCH  33  34
BRANCH  33  36
HETATM   36  C12 UNL     1      48.312 -16.597  30.429  1.00  0.00     0.254 C 
BRANCH  36  37
HETATM   37  O12 UNL     1      49.201 -16.295  31.458  1.00  0.00    -0.207 OA
BRANCH  37  38
HETATM   38  N1  UNL     1      50.127 -15.466  31.603  1.00  0.00    -0.293 NA
BRANCH  38  39
HETATM   39  C13 UNL     1      51.008 -14.670  31.739  1.00  0.00     0.232 C 
BRANCH  39  40
HETATM   40  C14 UNL     1      51.224 -13.652  32.796  1.00  0.00     0.031 A 
HETATM   41  C15 UNL     1      52.255 -12.744  32.677  1.00  0.00     0.053 A 
HETATM   42  C16 UNL     1      52.473 -11.789  33.639  1.00  0.00     0.066 A 
HETATM   43  C17 UNL     1      51.676 -11.716  34.733  1.00  0.00     0.039 A 
HETATM   44  C18 UNL     1      50.637 -12.608  34.883  1.00  0.00     0.040 A 
HETATM   45  C19 UNL     1      50.413 -13.578  33.909  1.00  0.00     0.078 A 
BRANCH  42  46
HETATM   46  O13 UNL     1      53.526 -10.870  33.507  1.00  0.00    -0.361 OA
ATOM     47  H13 UNL     1      54.362 -11.140  33.141  1.00  0.00     0.217 HD
ENDBRANCH  42  46
BRANCH  45  48
HETATM   48  O14 UNL     1      49.365 -14.481  34.055  1.00  0.00    -0.360 OA
ATOM     49  H14 UNL     1      48.470 -14.181  33.953  1.00  0.00     0.217 HD
ENDBRANCH  45  48
ENDBRANCH  39  40
ENDBRANCH  38  39
ENDBRANCH  37  38
ENDBRANCH  36  37
ENDBRANCH  33  36
ENDBRANCH   4  33
BRANCH   5  50
HETATM   50  N2  UNL     1      47.260 -14.485  32.218  1.00  0.00    -0.385 N 
ATOM     51  H22 UNL     1      47.805 -15.318  32.438  1.00  0.00     0.157 HD
ATOM     52  H21 UNL     1      47.528 -13.530  32.455  1.00  0.00     0.157 HD
ENDBRANCH   5  50
TORSDOF 18
ENDMDL
MODEL 4
REMARK VINA RESULT: -9.324695962      3.430      4.867
REMARK  18 active torsions:
REMARK  status: ('A' for Active; 'I' for Inactive)
REMARK    1  A    between atoms: C5_7  and  C6_8 
REMARK    2  A    between atoms: C6_8  and  O3_9 
REMARK    3  A    between atoms: O3_9  and  S1_10 
REMARK    4  A    between atoms: S1_10  and  O6_13 
REMARK    5  A    between atoms: O6_13  and  C7_14 
REMARK    6  A    between atoms: C8_15  and  O7_16 
REMARK    7  A    between atoms: O7_16  and  S2_17 
REMARK    8  A    between atoms: C10_22  and  C11_23 
REMARK    9  A    between atoms: C11_23  and  O11_24 
REMARK   10  A    between atoms: C11_23  and  C12_26 
REMARK   11  A    between atoms: C12_26  and  O12_27 
REMARK   12  A    between atoms: O12_27  and  N1_28 
REMARK   13  A    between atoms: N1_28  and  C13_29 
REMARK   14  A    between atoms: C13_29  and  C14_30 
REMARK   15  A    between atoms: C16_32  and  O13_33 
REMARK   16  A    between atoms: C19_37  and  O14_38 
REMARK   17  A    between atoms: C20_40  and  N2_41 
REMARK   18  A    between atoms: C22_49  and  O17_50 
ROOT
HETATM    1  C7  UNL     1      43.725 -14.889  30.561  1.00  0.00     0.194 C 
HETATM    2  C8  UNL     1      44.297 -14.836  31.808  1.00  0.00     0.133 C 
HETATM    3  C9  UNL     1      45.570 -15.327  32.156  1.00  0.00     0.055 C 
HETATM    4  C10 UNL     1      46.550 -15.839  31.342  1.00  0.00     0.019 C 
HETATM    5  C20 UNL     1      46.400 -16.307  30.029  1.00  0.00     0.110 C 
HETATM    6  N3  UNL     1      45.230 -16.451  29.390  1.00  0.00    -0.307 N 
ATOM      7  H3  UNL     1      45.251 -17.123  28.624  1.00  0.00     0.170 HD
HETATM    8  C21 UNL     1      44.014 -15.858  29.582  1.00  0.00     0.284 C 
HETATM    9  O15 UNL     1      43.076 -16.206  28.823  1.00  0.00    -0.265 OA
ENDROOT
BRANCH   1  10
HETATM   10  O6  UNL     1      42.797 -13.986  30.135  1.00  0.00    -0.202 OA
BRANCH  10  11
HETATM   11  S1  UNL     1      41.127 -14.154  30.128  1.00  0.00     0.407 S 
HETATM   12  O4  UNL     1      40.767 -15.492  30.748  1.00  0.00    -0.168 OA
HETATM   13  O5  UNL     1      40.507 -14.127  28.765  1.00  0.00    -0.168 OA
BRANCH  11  14
HETATM   14  O3  UNL     1      40.374 -12.969  31.061  1.00  0.00    -0.249 OA
BRANCH  14  15
HETATM   15  C6  UNL     1      39.698 -12.062  30.244  1.00  0.00     0.253 C 
BRANCH  15  16
HETATM   16  C5  UNL     1      39.177 -10.925  31.072  1.00  0.00     0.294 C 
HETATM   17  O2  UNL     1      37.842 -10.617  30.828  1.00  0.00    -0.321 OA
HETATM   18  C4  UNL     1      37.735  -9.237  31.005  1.00  0.00     0.359 C 
HETATM   19  O1  UNL     1      37.696  -8.892  32.352  1.00  0.00    -0.318 OA
HETATM   20  C22 UNL     1      39.083  -8.758  30.572  1.00  0.00     0.338 C 
HETATM   21  C2  UNL     1      38.655  -7.921  32.564  1.00  0.00     0.166 C 
HETATM   22  C1  UNL     1      37.996  -6.654  33.113  1.00  0.00     0.078 C 
HETATM   23  C3  UNL     1      39.697  -8.366  33.551  1.00  0.00     0.078 C 
HETATM   24  O18 UNL     1      39.259  -7.629  31.364  1.00  0.00    -0.292 OA
HETATM   25  O16 UNL     1      39.924  -9.793  30.879  1.00  0.00    -0.296 OA
BRANCH  20  26
HETATM   26  O17 UNL     1      39.042  -8.465  29.212  1.00  0.00    -0.339 OA
ATOM     27  H17 UNL     1      39.672  -7.779  29.025  1.00  0.00     0.215 HD
ENDBRANCH  20  26
ENDBRANCH  15  16
ENDBRANCH  14  15
ENDBRANCH  11  14
ENDBRANCH  10  11
ENDBRANCH   1  10
BRANCH   2  28
HETATM   28  O7  UNL     1      43.543 -14.251  32.790  1.00  0.00    -0.211 OA
BRANCH  28  29
HETATM   29  S2  UNL     1      42.511 -14.952  33.893  1.00  0.00     0.257 S 
HETATM   30  O8  UNL     1      41.163 -14.342  33.997  1.00  0.00    -0.572 OA
HETATM   31  O9  UNL     1      43.100 -14.928  35.297  1.00  0.00    -0.572 OA
HETATM   32  O10 UNL     1      42.339 -16.605  33.525  1.00  0.00    -0.572 OA
ENDBRANCH  28  29
ENDBRANCH   2  28
BRANCH   4  33
HETATM   33  C11 UNL     1      47.904 -15.936  31.862  1.00  0.00     0.182 C 
BRANCH  33  34
HETATM   34  O11 UNL     1      47.932 -16.766  33.009  1.00  0.00    -0.389 OA
ATOM     35  H11 UNL     1      48.204 -17.645  32.773  1.00  0.00     0.210 HD
ENDBRANCH  33  34
BRANCH  33  36
HETATM   36  C12 UNL     1      48.639 -14.684  32.137  1.00  0.00     0.254 C 
BRANCH  36  37
HETATM   37  O12 UNL     1      50.007 -14.689  31.878  1.00  0.00    -0.207 OA
BRANCH  37  38
HETATM   38  N1  UNL     1      50.954 -13.913  32.138  1.00  0.00    -0.293 NA
BRANCH  38  39
HETATM   39  C13 UNL     1      51.856 -13.168  32.382  1.00  0.00     0.232 C 
BRANCH  39  40
HETATM   40  C14 UNL     1      52.092 -12.306  33.566  1.00  0.00     0.031 A 
HETATM   41  C15 UNL     1      52.959 -11.238  33.478  1.00  0.00     0.053 A 
HETATM   42  C16 UNL     1      53.192 -10.422  34.557  1.00  0.00     0.066 A 
HETATM   43  C17 UNL     1      52.571 -10.649  35.741  1.00  0.00     0.039 A 
HETATM   44  C18 UNL     1      51.698 -11.708  35.863  1.00  0.00     0.040 A 
HETATM   45  C19 UNL     1      51.460 -12.538  34.770  1.00  0.00     0.078 A 
BRANCH  42  46
HETATM   46  O13 UNL     1      54.077  -9.338  34.455  1.00  0.00    -0.361 OA
ATOM     47  H13 UNL     1      54.107  -8.672  35.133  1.00  0.00     0.217 HD
ENDBRANCH  42  46
BRANCH  45  48
HETATM   48  O14 UNL     1      50.580 -13.608  34.887  1.00  0.00    -0.360 OA
ATOM     49  H14 UNL     1      50.073 -13.713  35.684  1.00  0.00     0.217 HD
ENDBRANCH  45  48
ENDBRANCH  39  40
ENDBRANCH  38  39
ENDBRANCH  37  38
ENDBRANCH  36  37
ENDBRANCH  33  36
ENDBRANCH   4  33
BRANCH   5  50
HETATM   50  N2  UNL     1      47.499 -16.618  29.407  1.00  0.00    -0.385 N 
ATOM     51  H22 UNL     1      48.204 -17.170  29.895  1.00  0.00     0.157 HD
ATOM     52  H21 UNL     1      47.581 -16.279  28.448  1.00  0.00     0.157 HD
ENDBRANCH   5  50
TORSDOF 18
ENDMDL
MODEL 5
REMARK VINA RESULT: -9.234724493      3.466      8.919
REMARK  18 active torsions:
REMARK  status: ('A' for Active; 'I' for Inactive)
REMARK    1  A    between atoms: C5_7  and  C6_8 
REMARK    2  A    between atoms: C6_8  and  O3_9 
REMARK    3  A    between atoms: O3_9  and  S1_10 
REMARK    4  A    between atoms: S1_10  and  O6_13 
REMARK    5  A    between atoms: O6_13  and  C7_14 
REMARK    6  A    between atoms: C8_15  and  O7_16 
REMARK    7  A    between atoms: O7_16  and  S2_17 
REMARK    8  A    between atoms: C10_22  and  C11_23 
REMARK    9  A    between atoms: C11_23  and  O11_24 
REMARK   10  A    between atoms: C11_23  and  C12_26 
REMARK   11  A    between atoms: C12_26  and  O12_27 
REMARK   12  A    between atoms: O12_27  and  N1_28 
REMARK   13  A    between atoms: N1_28  and  C13_29 
REMARK   14  A    between atoms: C13_29  and  C14_30 
REMARK   15  A    between atoms: C16_32  and  O13_33 
REMARK   16  A    between atoms: C19_37  and  O14_38 
REMARK   17  A    between atoms: C20_40  and  N2_41 
REMARK   18  A    between atoms: C22_49  and  O17_50 
ROOT
HETATM    1  C7  UNL     1      43.136 -15.729  33.012  1.00  0.00     0.194 C 
HETATM    2  C8  UNL     1      41.821 -15.824  33.395  1.00  0.00     0.133 C 
HETATM    3  C9  UNL     1      41.135 -14.921  34.228  1.00  0.00     0.055 C 
HETATM    4  C10 UNL     1      41.559 -13.716  34.731  1.00  0.00     0.019 C 
HETATM    5  C20 UNL     1      42.880 -13.253  34.817  1.00  0.00     0.110 C 
HETATM    6  N3  UNL     1      43.971 -13.979  34.535  1.00  0.00    -0.307 N 
ATOM      7  H3  UNL     1      44.823 -13.648  34.986  1.00  0.00     0.170 HD
HETATM    8  C21 UNL     1      44.146 -15.085  33.751  1.00  0.00     0.284 C 
HETATM    9  O15 UNL     1      45.304 -15.568  33.684  1.00  0.00    -0.265 OA
ENDROOT
BRANCH   1  10
HETATM   10  O6  UNL     1      43.607 -16.261  31.849  1.00  0.00    -0.202 OA
BRANCH  10  11
HETATM   11  S1  UNL     1      43.424 -15.655  30.294  1.00  0.00     0.407 S 
HETATM   12  O4  UNL     1      43.763 -14.176  30.302  1.00  0.00    -0.168 OA
HETATM   13  O5  UNL     1      42.039 -15.779  29.739  1.00  0.00    -0.168 OA
BRANCH  11  14
HETATM   14  O3  UNL     1      44.483 -16.389  29.207  1.00  0.00    -0.249 OA
BRANCH  14  15
HETATM   15  C6  UNL     1      45.379 -17.218  29.883  1.00  0.00     0.253 C 
BRANCH  15  16
HETATM   16  C5  UNL     1      46.558 -16.416  30.349  1.00  0.00     0.294 C 
HETATM   17  O2  UNL     1      47.285 -15.834  29.316  1.00  0.00    -0.321 OA
HETATM   18  C4  UNL     1      48.612 -15.826  29.747  1.00  0.00     0.359 C 
HETATM   19  O1  UNL     1      48.853 -14.803  30.658  1.00  0.00    -0.318 OA
HETATM   20  C22 UNL     1      48.677 -17.057  30.594  1.00  0.00     0.338 C 
HETATM   21  C2  UNL     1      49.457 -15.362  31.767  1.00  0.00     0.166 C 
HETATM   22  C1  UNL     1      50.822 -14.713  31.996  1.00  0.00     0.078 C 
HETATM   23  C3  UNL     1      48.637 -15.169  33.011  1.00  0.00     0.078 C 
HETATM   24  O18 UNL     1      49.632 -16.707  31.542  1.00  0.00    -0.292 OA
HETATM   25  O16 UNL     1      47.410 -17.185  31.098  1.00  0.00    -0.296 OA
BRANCH  20  26
HETATM   26  O17 UNL     1      49.067 -18.131  29.800  1.00  0.00    -0.339 OA
ATOM     27  H17 UNL     1      49.836 -17.882  29.302  1.00  0.00     0.215 HD
ENDBRANCH  20  26
ENDBRANCH  15  16
ENDBRANCH  14  15
ENDBRANCH  11  14
ENDBRANCH  10  11
ENDBRANCH   1  10
BRANCH   2  28
HETATM   28  O7  UNL     1      41.133 -16.907  32.916  1.00  0.00    -0.211 OA
BRANCH  28  29
HETATM   29  S2  UNL     1      41.091 -18.472  33.483  1.00  0.00     0.257 S 
HETATM   30  O8  UNL     1      42.222 -18.876  34.354  1.00  0.00    -0.572 OA
HETATM   31  O9  UNL     1      41.053 -19.476  32.340  1.00  0.00    -0.572 OA
HETATM   32  O10 UNL     1      39.634 -18.722  34.326  1.00  0.00    -0.572 OA
ENDBRANCH  28  29
ENDBRANCH   2  28
BRANCH   4  33
HETATM   33  C11 UNL     1      40.565 -12.791  35.251  1.00  0.00     0.182 C 
BRANCH  33  34
HETATM   34  O11 UNL     1      40.680 -12.689  36.659  1.00  0.00    -0.389 OA
ATOM     35  H11 UNL     1      39.822 -12.578  37.052  1.00  0.00     0.210 HD
ENDBRANCH  33  34
BRANCH  33  36
HETATM   36  C12 UNL     1      39.151 -13.003  34.881  1.00  0.00     0.254 C 
BRANCH  36  37
HETATM   37  O12 UNL     1      38.581 -12.070  34.018  1.00  0.00    -0.207 OA
BRANCH  37  38
HETATM   38  N1  UNL     1      38.891 -11.604  32.899  1.00  0.00    -0.293 NA
BRANCH  38  39
HETATM   39  C13 UNL     1      39.182 -11.160  31.829  1.00  0.00     0.232 C 
BRANCH  39  40
HETATM   40  C14 UNL     1      39.461 -11.854  30.547  1.00  0.00     0.031 A 
HETATM   41  C15 UNL     1      39.832 -11.126  29.437  1.00  0.00     0.053 A 
HETATM   42  C16 UNL     1      40.100 -11.744  28.241  1.00  0.00     0.066 A 
HETATM   43  C17 UNL     1      40.004 -13.092  28.124  1.00  0.00     0.039 A 
HETATM   44  C18 UNL     1      39.636 -13.849  29.213  1.00  0.00     0.040 A 
HETATM   45  C19 UNL     1      39.363 -13.224  30.429  1.00  0.00     0.078 A 
BRANCH  42  46
HETATM   46  O13 UNL     1      40.477 -10.993  27.117  1.00  0.00    -0.361 OA
ATOM     47  H13 UNL     1      41.312 -11.146  26.690  1.00  0.00     0.217 HD
ENDBRANCH  42  46
BRANCH  45  48
HETATM   48  O14 UNL     1      38.991 -13.984  31.533  1.00  0.00    -0.360 OA
ATOM     49  H14 UNL     1      38.161 -14.446  31.526  1.00  0.00     0.217 HD
ENDBRANCH  45  48
ENDBRANCH  39  40
ENDBRANCH  38  39
ENDBRANCH  37  38
ENDBRANCH  36  37
ENDBRANCH  33  36
ENDBRANCH   4  33
BRANCH   5  50
HETATM   50  N2  UNL     1      43.027 -12.020  35.203  1.00  0.00    -0.385 N 
ATOM     51  H22 UNL     1      43.561 -11.828  36.050  1.00  0.00     0.157 HD
ATOM     52  H21 UNL     1      42.586 -11.312  34.615  1.00  0.00     0.157 HD
ENDBRANCH   5  50
TORSDOF 18
ENDMDL
