MODEL 1
REMARK VINA RESULT: -6.743711861      0.000      0.000
REMARK  7 active torsions:
REMARK  status: ('A' for Active; 'I' for Inactive)
REMARK    1  A    between atoms: C2_2  and  C3_3 
REMARK    2  A    between atoms: C2_2  and  N1_6 
REMARK    3  A    between atoms: C3_3  and  O1_4 
REMARK    4  A    between atoms: N1_6  and  C4_8 
REMARK    5  A    between atoms: C4_8  and  N3_11 
REMARK    6  A    between atoms: N3_11  and  C6_13 
REMARK    7  A    between atoms: C6_13  and  C7_14 
ROOT
HETATM    1  C4  UNL     1       2.184  -8.234  -7.098  1.00  0.00     0.180 C 
HETATM    2  C5  UNL     1       3.311  -7.425  -6.772  1.00  0.00     0.136 C 
HETATM    3  N2  UNL     1       4.247  -6.757  -6.530  1.00  0.00    -0.188 NA
ENDROOT
BRANCH   1   4
HETATM    4  N1  UNL     1       2.264  -9.603  -6.811  1.00  0.00    -0.361 N 
ATOM      5  H1  UNL     1       2.994 -10.156  -7.261  1.00  0.00     0.162 HD
BRANCH   4   6
HETATM    6  C2  UNL     1       1.385 -10.238  -5.934  1.00  0.00     0.103 C 
HETATM    7  C1  UNL     1       1.432 -11.746  -6.119  1.00  0.00     0.034 C 
BRANCH   6   8
HETATM    8  C3  UNL     1       1.660 -10.001  -4.455  1.00  0.00     0.188 C 
BRANCH   8   9
HETATM    9  O1  UNL     1       0.810  -8.975  -4.044  1.00  0.00    -0.399 OA
ATOM     10  H1  UNL     1       0.136  -9.374  -3.506  1.00  0.00     0.209 HD
ENDBRANCH   8   9
ENDBRANCH   6   8
ENDBRANCH   4   6
ENDBRANCH   1   4
BRANCH   1  11
HETATM   11  N3  UNL     1       0.891  -7.607  -6.886  1.00  0.00    -0.367 N 
ATOM     12  H3  UNL     1       0.389  -7.550  -6.000  1.00  0.00     0.161 HD
BRANCH  11  13
HETATM   13  C6  UNL     1       0.445  -7.082  -8.149  1.00  0.00     0.127 C 
BRANCH  13  14
HETATM   14  C7  UNL     1      -0.798  -6.279  -8.004  1.00  0.00     0.010 C 
HETATM   15  C8  UNL     1      -1.087  -5.222  -8.985  1.00  0.00     0.050 C 
HETATM   16  C9  UNL     1      -2.528  -5.079  -9.371  1.00  0.00     0.056 C 
HETATM   17  N4  UNL     1      -3.509  -5.550  -8.484  1.00  0.00    -0.402 N 
HETATM   18  C10 UNL     1      -3.103  -6.365  -7.385  1.00  0.00     0.119 C 
ATOM     19  H4  UNL     1      -4.492  -5.314  -8.622  1.00  0.00     0.158 HD
HETATM   20  C11 UNL     1      -1.961  -7.260  -7.852  1.00  0.00     0.026 C 
ENDBRANCH  13  14
ENDBRANCH  11  13
ENDBRANCH   1  11
TORSDOF 7
ENDMDL
MODEL 2
REMARK VINA RESULT: -6.637603660      5.042      7.664
REMARK  7 active torsions:
REMARK  status: ('A' for Active; 'I' for Inactive)
REMARK    1  A    between atoms: C2_2  and  C3_3 
REMARK    2  A    between atoms: C2_2  and  N1_6 
REMARK    3  A    between atoms: C3_3  and  O1_4 
REMARK    4  A    between atoms: N1_6  and  C4_8 
REMARK    5  A    between atoms: C4_8  and  N3_11 
REMARK    6  A    between atoms: N3_11  and  C6_13 
REMARK    7  A    between atoms: C6_13  and  C7_14 
ROOT
HETATM    1  C4  UNL     1      -5.856  -7.993  -8.114  1.00  0.00     0.180 C 
HETATM    2  C5  UNL     1      -5.813  -7.189  -6.937  1.00  0.00     0.136 C 
HETATM    3  N2  UNL     1      -5.767  -6.548  -5.954  1.00  0.00    -0.188 NA
ENDROOT
BRANCH   1   4
HETATM    4  N1  UNL     1      -7.091  -8.542  -8.480  1.00  0.00    -0.361 N 
ATOM      5  H1  UNL     1      -7.103  -9.406  -9.022  1.00  0.00     0.162 HD
BRANCH   4   6
HETATM    6  C2  UNL     1      -8.306  -7.954  -8.131  1.00  0.00     0.103 C 
HETATM    7  C1  UNL     1      -8.859  -7.128  -9.281  1.00  0.00     0.034 C 
BRANCH   6   8
HETATM    8  C3  UNL     1      -9.416  -8.929  -7.761  1.00  0.00     0.188 C 
BRANCH   8   9
HETATM    9  O1  UNL     1     -10.337  -8.221  -6.988  1.00  0.00    -0.399 OA
ATOM     10  H1  UNL     1     -10.192  -8.476  -6.084  1.00  0.00     0.209 HD
ENDBRANCH   8   9
ENDBRANCH   6   8
ENDBRANCH   4   6
ENDBRANCH   1   4
BRANCH   1  11
HETATM   11  N3  UNL     1      -5.006  -7.540  -9.202  1.00  0.00    -0.367 N 
ATOM     12  H3  UNL     1      -5.321  -7.217 -10.116  1.00  0.00     0.161 HD
BRANCH  11  13
HETATM   13  C6  UNL     1      -3.641  -7.630  -8.758  1.00  0.00     0.127 C 
BRANCH  13  14
HETATM   14  C7  UNL     1      -2.854  -6.430  -9.150  1.00  0.00     0.010 C 
HETATM   15  C8  UNL     1      -3.454  -5.097  -8.988  1.00  0.00     0.050 C 
HETATM   16  C9  UNL     1      -2.515  -4.020  -8.532  1.00  0.00     0.056 C 
HETATM   17  N4  UNL     1      -1.141  -4.188  -8.765  1.00  0.00    -0.402 N 
HETATM   18  C10 UNL     1      -0.669  -5.467  -9.186  1.00  0.00     0.119 C 
ATOM     19  H4  UNL     1      -0.493  -3.411  -8.635  1.00  0.00     0.158 HD
HETATM   20  C11 UNL     1      -1.489  -6.536  -8.472  1.00  0.00     0.026 C 
ENDBRANCH  13  14
ENDBRANCH  11  13
ENDBRANCH   1  11
TORSDOF 7
ENDMDL
MODEL 3
REMARK VINA RESULT: -6.622781335      2.508      6.072
REMARK  7 active torsions:
REMARK  status: ('A' for Active; 'I' for Inactive)
REMARK    1  A    between atoms: C2_2  and  C3_3 
REMARK    2  A    between atoms: C2_2  and  N1_6 
REMARK    3  A    between atoms: C3_3  and  O1_4 
REMARK    4  A    between atoms: N1_6  and  C4_8 
REMARK    5  A    between atoms: C4_8  and  N3_11 
REMARK    6  A    between atoms: N3_11  and  C6_13 
REMARK    7  A    between atoms: C6_13  and  C7_14 
ROOT
HETATM    1  C4  UNL     1      -0.591  -6.601  -7.689  1.00  0.00     0.180 C 
HETATM    2  C5  UNL     1      -0.244  -6.092  -8.974  1.00  0.00     0.136 C 
HETATM    3  N2  UNL     1       0.043  -5.647 -10.023  1.00  0.00    -0.188 NA
ENDROOT
BRANCH   1   4
HETATM    4  N1  UNL     1      -1.931  -6.943  -7.468  1.00  0.00    -0.361 N 
ATOM      5  H1  UNL     1      -2.146  -7.867  -7.092  1.00  0.00     0.162 HD
BRANCH   4   6
HETATM    6  C2  UNL     1      -2.983  -6.070  -7.740  1.00  0.00     0.103 C 
HETATM    7  C1  UNL     1      -3.805  -6.563  -8.920  1.00  0.00     0.034 C 
BRANCH   6   8
HETATM    8  C3  UNL     1      -3.979  -5.878  -6.604  1.00  0.00     0.188 C 
BRANCH   8   9
HETATM    9  O1  UNL     1      -4.219  -4.508  -6.501  1.00  0.00    -0.399 OA
ATOM     10  H1  UNL     1      -3.658  -4.081  -7.139  1.00  0.00     0.209 HD
ENDBRANCH   8   9
ENDBRANCH   6   8
ENDBRANCH   4   6
ENDBRANCH   1   4
BRANCH   1  11
HETATM   11  N3  UNL     1       0.403  -7.466  -7.078  1.00  0.00    -0.367 N 
ATOM     12  H3  UNL     1       1.360  -7.208  -6.841  1.00  0.00     0.161 HD
BRANCH  11  13
HETATM   13  C6  UNL     1      -0.205  -8.753  -6.868  1.00  0.00     0.127 C 
BRANCH  13  14
HETATM   14  C7  UNL     1       0.474  -9.513  -5.785  1.00  0.00     0.010 C 
HETATM   15  C8  UNL     1       0.585 -10.975  -5.897  1.00  0.00     0.050 C 
HETATM   16  C9  UNL     1       1.876 -11.562  -5.410  1.00  0.00     0.056 C 
HETATM   17  N4  UNL     1       2.632 -10.834  -4.477  1.00  0.00    -0.402 N 
HETATM   18  C10 UNL     1       2.283  -9.473  -4.226  1.00  0.00     0.119 C 
ATOM     19  H4  UNL     1       3.415 -11.269  -3.989  1.00  0.00     0.158 HD
HETATM   20  C11 UNL     1       1.829  -8.848  -5.540  1.00  0.00     0.026 C 
ENDBRANCH  13  14
ENDBRANCH  11  13
ENDBRANCH   1  11
TORSDOF 7
ENDMDL
MODEL 4
REMARK VINA RESULT: -6.587320611      2.401      5.934
REMARK  7 active torsions:
REMARK  status: ('A' for Active; 'I' for Inactive)
REMARK    1  A    between atoms: C2_2  and  C3_3 
REMARK    2  A    between atoms: C2_2  and  N1_6 
REMARK    3  A    between atoms: C3_3  and  O1_4 
REMARK    4  A    between atoms: N1_6  and  C4_8 
REMARK    5  A    between atoms: C4_8  and  N3_11 
REMARK    6  A    between atoms: N3_11  and  C6_13 
REMARK    7  A    between atoms: C6_13  and  C7_14 
ROOT
HETATM    1  C4  UNL     1      -1.535  -6.934  -7.980  1.00  0.00     0.180 C 
HETATM    2  C5  UNL     1      -0.827  -6.177  -8.958  1.00  0.00     0.136 C 
HETATM    3  N2  UNL     1      -0.246  -5.530  -9.748  1.00  0.00    -0.188 NA
ENDROOT
BRANCH   1   4
HETATM    4  N1  UNL     1      -2.870  -7.258  -8.252  1.00  0.00    -0.361 N 
ATOM      5  H1  UNL     1      -3.077  -8.153  -8.697  1.00  0.00     0.162 HD
BRANCH   4   6
HETATM    6  C2  UNL     1      -3.928  -6.405  -7.939  1.00  0.00     0.103 C 
HETATM    7  C1  UNL     1      -5.254  -7.147  -7.983  1.00  0.00     0.034 C 
BRANCH   6   8
HETATM    8  C3  UNL     1      -3.862  -5.771  -6.555  1.00  0.00     0.188 C 
BRANCH   8   9
HETATM    9  O1  UNL     1      -5.051  -6.098  -5.903  1.00  0.00    -0.399 OA
ATOM     10  H1  UNL     1      -4.889  -6.006  -4.971  1.00  0.00     0.209 HD
ENDBRANCH   8   9
ENDBRANCH   6   8
ENDBRANCH   4   6
ENDBRANCH   1   4
BRANCH   1  11
HETATM   11  N3  UNL     1      -0.752  -7.953  -7.301  1.00  0.00    -0.367 N 
ATOM     12  H3  UNL     1      -1.116  -8.801  -6.868  1.00  0.00     0.161 HD
BRANCH  11  13
HETATM   13  C6  UNL     1       0.628  -7.550  -7.351  1.00  0.00     0.127 C 
BRANCH  13  14
HETATM   14  C7  UNL     1       1.501  -8.482  -6.588  1.00  0.00     0.010 C 
HETATM   15  C8  UNL     1       2.553  -7.929  -5.721  1.00  0.00     0.050 C 
HETATM   16  C9  UNL     1       2.767  -8.655  -4.427  1.00  0.00     0.056 C 
HETATM   17  N4  UNL     1       2.369  -9.999  -4.339  1.00  0.00    -0.402 N 
HETATM   18  C10 UNL     1       1.555 -10.540  -5.379  1.00  0.00     0.119 C 
ATOM     19  H4  UNL     1       2.656 -10.576  -3.549  1.00  0.00     0.158 HD
HETATM   20  C11 UNL     1       0.589  -9.456  -5.841  1.00  0.00     0.026 C 
ENDBRANCH  13  14
ENDBRANCH  11  13
ENDBRANCH   1  11
TORSDOF 7
ENDMDL
MODEL 5
REMARK VINA RESULT: -6.543249065      1.873      3.043
REMARK  7 active torsions:
REMARK  status: ('A' for Active; 'I' for Inactive)
REMARK    1  A    between atoms: C2_2  and  C3_3 
REMARK    2  A    between atoms: C2_2  and  N1_6 
REMARK    3  A    between atoms: C3_3  and  O1_4 
REMARK    4  A    between atoms: N1_6  and  C4_8 
REMARK    5  A    between atoms: C4_8  and  N3_11 
REMARK    6  A    between atoms: N3_11  and  C6_13 
REMARK    7  A    between atoms: C6_13  and  C7_14 
ROOT
HETATM    1  C4  UNL     1       0.107  -7.160  -7.732  1.00  0.00     0.180 C 
HETATM    2  C5  UNL     1       0.007  -6.305  -8.868  1.00  0.00     0.136 C 
HETATM    3  N2  UNL     1      -0.064  -5.620  -9.820  1.00  0.00    -0.188 NA
ENDROOT
BRANCH   1   4
HETATM    4  N1  UNL     1       1.146  -6.915  -6.825  1.00  0.00    -0.361 N 
ATOM      5  H1  UNL     1       1.214  -5.992  -6.395  1.00  0.00     0.162 HD
BRANCH   4   6
HETATM    6  C2  UNL     1       2.091  -7.883  -6.488  1.00  0.00     0.103 C 
HETATM    7  C1  UNL     1       3.502  -7.366  -6.718  1.00  0.00     0.034 C 
BRANCH   6   8
HETATM    8  C3  UNL     1       2.059  -8.343  -5.036  1.00  0.00     0.188 C 
BRANCH   8   9
HETATM    9  O1  UNL     1       0.747  -8.730  -4.763  1.00  0.00    -0.399 OA
ATOM     10  H1  UNL     1       0.338  -8.929  -5.598  1.00  0.00     0.209 HD
ENDBRANCH   8   9
ENDBRANCH   6   8
ENDBRANCH   4   6
ENDBRANCH   1   4
BRANCH   1  11
HETATM   11  N3  UNL     1      -1.162  -7.577  -7.160  1.00  0.00    -0.367 N 
ATOM     12  H3  UNL     1      -1.320  -7.860  -6.193  1.00  0.00     0.161 HD
BRANCH  11  13
HETATM   13  C6  UNL     1      -2.153  -7.519  -8.201  1.00  0.00     0.127 C 
BRANCH  13  14
HETATM   14  C7  UNL     1      -3.379  -6.806  -7.754  1.00  0.00     0.010 C 
HETATM   15  C8  UNL     1      -3.256  -5.452  -7.191  1.00  0.00     0.050 C 
HETATM   16  C9  UNL     1      -4.347  -4.496  -7.570  1.00  0.00     0.056 C 
HETATM   17  N4  UNL     1      -5.587  -5.020  -7.966  1.00  0.00    -0.402 N 
HETATM   18  C10 UNL     1      -5.685  -6.418  -8.239  1.00  0.00     0.119 C 
ATOM     19  H4  UNL     1      -6.403  -4.414  -8.058  1.00  0.00     0.158 HD
HETATM   20  C11 UNL     1      -4.387  -6.865  -8.902  1.00  0.00     0.026 C 
ENDBRANCH  13  14
ENDBRANCH  11  13
ENDBRANCH   1  11
TORSDOF 7
ENDMDL
