MODEL 1
REMARK VINA RESULT: -7.511505492      0.000      0.000
REMARK  6 active torsions:
REMARK  status: ('A' for Active; 'I' for Inactive)
REMARK    1  A    between atoms: C2_2  and  C3_3 
REMARK    2  A    between atoms: C5_6  and  O1_7 
REMARK    3  A    between atoms: C8_11  and  N1_12 
REMARK    4  A    between atoms: C11_19  and  N4_20 
REMARK    5  A    between atoms: C14_28  and  O3_29 
REMARK    6  A    between atoms: C14_28  and  C15_31 
ROOT
HETATM    1  N1  UNL     1      -2.592   3.948  11.413  1.00  0.00    -0.284 N 
HETATM    2  C9  UNL     1      -3.474   4.803  10.663  1.00  0.00     0.143 A 
HETATM    3  N2  UNL     1      -4.575   4.353  10.040  1.00  0.00    -0.336 N 
ATOM      4  H2  UNL     1      -4.792   3.358  10.094  1.00  0.00     0.168 HD
HETATM    5  C10 UNL     1      -5.405   5.155   9.350  1.00  0.00     0.183 A 
HETATM    6  N3  UNL     1      -5.162   6.450   9.255  1.00  0.00    -0.337 N 
ATOM      7  H3  UNL     1      -5.795   7.053   8.729  1.00  0.00     0.168 HD
HETATM    8  C11 UNL     1      -4.078   6.970   9.853  1.00  0.00     0.131 A 
HETATM    9  C12 UNL     1      -3.220   6.167  10.562  1.00  0.00     0.124 A 
HETATM   10  N5  UNL     1      -2.037   6.643  11.219  1.00  0.00    -0.317 N 
ATOM     11  H5  UNL     1      -1.821   7.638  11.165  1.00  0.00     0.169 HD
HETATM   12  C13 UNL     1      -1.148   5.799  11.943  1.00  0.00     0.279 C 
HETATM   13  O2  UNL     1      -0.338   6.315  12.745  1.00  0.00    -0.268 OA
HETATM   14  C14 UNL     1      -1.236   4.330  11.701  1.00  0.00     0.227 C 
ENDROOT
BRANCH   1  15
HETATM   15  C8  UNL     1      -3.148   2.734  11.869  1.00  0.00     0.120 A 
HETATM   16  C7  UNL     1      -3.840   2.660  13.045  1.00  0.00     0.182 A 
HETATM   17  C5  UNL     1      -4.389   1.437  13.456  1.00  0.00     0.148 A 
HETATM   18  F2  UNL     1      -4.050   3.683  13.899  1.00  0.00    -0.200 F 
HETATM   19  C4  UNL     1      -4.247   0.296  12.694  1.00  0.00     0.162 A 
HETATM   20  C3  UNL     1      -3.537   0.364  11.482  1.00  0.00     0.024 A 
HETATM   21  F1  UNL     1      -4.790  -0.881  13.115  1.00  0.00    -0.202 F 
HETATM   22  C19 UNL     1      -3.005   1.573  11.096  1.00  0.00     0.155 A 
HETATM   23  F3  UNL     1      -2.330   1.596   9.926  1.00  0.00    -0.203 F 
BRANCH  17  24
HETATM   24  O1  UNL     1      -5.102   1.328  14.654  1.00  0.00    -0.350 OA
HETATM   25  C6  UNL     1      -4.486   0.961  15.871  1.00  0.00     0.210 C 
ENDBRANCH  17  24
BRANCH  20  26
HETATM   26  C2  UNL     1      -3.439  -0.884  10.751  1.00  0.00     0.040 C 
HETATM   27  C1  UNL     1      -2.771  -2.035  11.382  1.00  0.00     0.010 C 
ENDBRANCH  20  26
ENDBRANCH   1  15
BRANCH  14  28
HETATM   28  O3  UNL     1      -0.910   3.749  12.955  1.00  0.00    -0.362 OA
ATOM     29  H3  UNL     1       0.034   3.646  12.967  1.00  0.00     0.213 HD
ENDBRANCH  14  28
BRANCH  14  30
HETATM   30  C15 UNL     1      -0.241   3.830  10.740  1.00  0.00     0.052 C 
HETATM   31  C16 UNL     1      -0.160   4.354   9.356  1.00  0.00     0.010 C 
HETATM   32  C17 UNL     1       1.375   4.279   9.424  1.00  0.00     0.001 C 
HETATM   33  C18 UNL     1       1.192   4.264  10.954  1.00  0.00     0.010 C 
ENDBRANCH  14  30
BRANCH   8  34
HETATM   34  N4  UNL     1      -3.866   8.214   9.747  1.00  0.00    -0.383 N 
ATOM     35  H42 UNL     1      -3.823   8.662   8.831  1.00  0.00     0.157 HD
ATOM     36  H41 UNL     1      -3.738   8.762  10.598  1.00  0.00     0.157 HD
ENDBRANCH   8  34
TORSDOF 6
ENDMDL
MODEL 2
REMARK VINA RESULT: -7.429615218      2.145      3.806
REMARK  6 active torsions:
REMARK  status: ('A' for Active; 'I' for Inactive)
REMARK    1  A    between atoms: C2_2  and  C3_3 
REMARK    2  A    between atoms: C5_6  and  O1_7 
REMARK    3  A    between atoms: C8_11  and  N1_12 
REMARK    4  A    between atoms: C11_19  and  N4_20 
REMARK    5  A    between atoms: C14_28  and  O3_29 
REMARK    6  A    between atoms: C14_28  and  C15_31 
ROOT
HETATM    1  N1  UNL     1      -3.323   3.845  11.016  1.00  0.00    -0.284 N 
HETATM    2  C9  UNL     1      -1.912   4.002  10.773  1.00  0.00     0.143 A 
HETATM    3  N2  UNL     1      -0.970   3.542  11.612  1.00  0.00    -0.336 N 
ATOM      4  H2  UNL     1      -1.267   3.067  12.465  1.00  0.00     0.168 HD
HETATM    5  C10 UNL     1       0.347   3.677  11.379  1.00  0.00     0.183 A 
HETATM    6  N3  UNL     1       0.776   4.285  10.288  1.00  0.00    -0.337 N 
ATOM      7  H3  UNL     1       1.777   4.385  10.117  1.00  0.00     0.168 HD
HETATM    8  C11 UNL     1      -0.110   4.771   9.404  1.00  0.00     0.131 A 
HETATM    9  C12 UNL     1      -1.458   4.642   9.625  1.00  0.00     0.124 A 
HETATM   10  N5  UNL     1      -2.468   5.141   8.736  1.00  0.00    -0.317 N 
ATOM     11  H5  UNL     1      -2.169   5.616   7.884  1.00  0.00     0.169 HD
HETATM   12  C13 UNL     1      -3.863   5.010   8.981  1.00  0.00     0.279 C 
HETATM   13  O2  UNL     1      -4.665   5.171   8.033  1.00  0.00    -0.268 OA
HETATM   14  C14 UNL     1      -4.295   4.684  10.370  1.00  0.00     0.227 C 
ENDROOT
BRANCH   1  15
HETATM   15  C8  UNL     1      -3.686   2.806  11.897  1.00  0.00     0.120 A 
HETATM   16  C7  UNL     1      -3.956   3.045  13.216  1.00  0.00     0.182 A 
HETATM   17  C5  UNL     1      -4.327   1.985  14.056  1.00  0.00     0.148 A 
HETATM   18  F2  UNL     1      -3.888   4.246  13.825  1.00  0.00    -0.200 F 
HETATM   19  C4  UNL     1      -4.426   0.695  13.579  1.00  0.00     0.162 A 
HETATM   20  C3  UNL     1      -4.150   0.440  12.225  1.00  0.00     0.024 A 
HETATM   21  F1  UNL     1      -4.789  -0.318  14.417  1.00  0.00    -0.202 F 
HETATM   22  C19 UNL     1      -3.788   1.492  11.416  1.00  0.00     0.155 A 
HETATM   23  F3  UNL     1      -3.531   1.205  10.121  1.00  0.00    -0.203 F 
BRANCH  17  24
HETATM   24  O1  UNL     1      -4.609   2.198  15.409  1.00  0.00    -0.350 OA
HETATM   25  C6  UNL     1      -5.910   2.493  15.874  1.00  0.00     0.210 C 
ENDBRANCH  17  24
BRANCH  20  26
HETATM   26  C2  UNL     1      -4.281  -0.945  11.816  1.00  0.00     0.040 C 
HETATM   27  C1  UNL     1      -3.069  -1.711  11.480  1.00  0.00     0.010 C 
ENDBRANCH  20  26
ENDBRANCH   1  15
BRANCH  14  28
HETATM   28  O3  UNL     1      -5.461   3.891  10.197  1.00  0.00    -0.362 OA
ATOM     29  H3  UNL     1      -6.170   4.493  10.005  1.00  0.00     0.213 HD
ENDBRANCH  14  28
BRANCH  14  30
HETATM   30  C15 UNL     1      -4.706   5.861  11.152  1.00  0.00     0.052 C 
HETATM   31  C16 UNL     1      -3.746   6.928  11.520  1.00  0.00     0.010 C 
HETATM   32  C17 UNL     1      -4.835   7.985  11.275  1.00  0.00     0.001 C 
HETATM   33  C18 UNL     1      -5.536   6.900  10.434  1.00  0.00     0.010 C 
ENDBRANCH  14  30
BRANCH   8  34
HETATM   34  N4  UNL     1       0.326   5.350   8.365  1.00  0.00    -0.383 N 
ATOM     35  H42 UNL     1       0.690   4.811   7.579  1.00  0.00     0.157 HD
ATOM     36  H41 UNL     1       0.305   6.370   8.329  1.00  0.00     0.157 HD
ENDBRANCH   8  34
TORSDOF 6
ENDMDL
MODEL 3
REMARK VINA RESULT: -7.397814849      2.935      6.441
REMARK  6 active torsions:
REMARK  status: ('A' for Active; 'I' for Inactive)
REMARK    1  A    between atoms: C2_2  and  C3_3 
REMARK    2  A    between atoms: C5_6  and  O1_7 
REMARK    3  A    between atoms: C8_11  and  N1_12 
REMARK    4  A    between atoms: C11_19  and  N4_20 
REMARK    5  A    between atoms: C14_28  and  O3_29 
REMARK    6  A    between atoms: C14_28  and  C15_31 
ROOT
HETATM    1  N1  UNL     1      -3.652   4.001  10.819  1.00  0.00    -0.284 N 
HETATM    2  C9  UNL     1      -2.676   4.562  11.716  1.00  0.00     0.143 A 
HETATM    3  N2  UNL     1      -1.780   5.489  11.337  1.00  0.00    -0.336 N 
ATOM      4  H2  UNL     1      -1.786   5.802  10.366  1.00  0.00     0.168 HD
HETATM    5  C10 UNL     1      -0.877   6.021  12.178  1.00  0.00     0.183 A 
HETATM    6  N3  UNL     1      -0.834   5.643  13.444  1.00  0.00    -0.337 N 
ATOM      7  H3  UNL     1      -0.146   6.051  14.077  1.00  0.00     0.168 HD
HETATM    8  C11 UNL     1      -1.700   4.720  13.893  1.00  0.00     0.131 A 
HETATM    9  C12 UNL     1      -2.629   4.166  13.049  1.00  0.00     0.124 A 
HETATM   10  N5  UNL     1      -3.580   3.168  13.447  1.00  0.00    -0.317 N 
ATOM     11  H5  UNL     1      -3.573   2.855  14.418  1.00  0.00     0.169 HD
HETATM   12  C13 UNL     1      -4.532   2.593  12.560  1.00  0.00     0.279 C 
HETATM   13  O2  UNL     1      -5.519   1.988  13.036  1.00  0.00    -0.268 OA
HETATM   14  C14 UNL     1      -4.295   2.746  11.096  1.00  0.00     0.227 C 
ENDROOT
BRANCH   1  15
HETATM   15  C8  UNL     1      -3.953   4.770   9.675  1.00  0.00     0.120 A 
HETATM   16  C7  UNL     1      -3.256   4.624   8.509  1.00  0.00     0.182 A 
HETATM   17  C5  UNL     1      -3.597   5.399   7.391  1.00  0.00     0.148 A 
HETATM   18  F2  UNL     1      -2.220   3.784   8.314  1.00  0.00    -0.200 F 
HETATM   19  C4  UNL     1      -4.628   6.313   7.440  1.00  0.00     0.162 A 
HETATM   20  C3  UNL     1      -5.350   6.469   8.636  1.00  0.00     0.024 A 
HETATM   21  F1  UNL     1      -4.939   7.054   6.339  1.00  0.00    -0.202 F 
HETATM   22  C19 UNL     1      -5.002   5.701   9.722  1.00  0.00     0.155 A 
HETATM   23  F3  UNL     1      -5.720   5.881  10.853  1.00  0.00    -0.203 F 
BRANCH  17  24
HETATM   24  O1  UNL     1      -2.903   5.273   6.183  1.00  0.00    -0.350 OA
HETATM   25  C6  UNL     1      -1.752   6.036   5.888  1.00  0.00     0.210 C 
ENDBRANCH  17  24
BRANCH  20  26
HETATM   26  C2  UNL     1      -6.414   7.453   8.593  1.00  0.00     0.040 C 
HETATM   27  C1  UNL     1      -7.806   6.997   8.438  1.00  0.00     0.010 C 
ENDBRANCH  20  26
ENDBRANCH   1  15
BRANCH  14  28
HETATM   28  O3  UNL     1      -5.599   2.829  10.538  1.00  0.00    -0.362 OA
ATOM     29  H3  UNL     1      -6.105   3.385  11.118  1.00  0.00     0.213 HD
ENDBRANCH  14  28
BRANCH  14  30
HETATM   30  C15 UNL     1      -3.653   1.577  10.476  1.00  0.00     0.052 C 
HETATM   31  C16 UNL     1      -2.522   0.872  11.126  1.00  0.00     0.010 C 
HETATM   32  C17 UNL     1      -3.095  -0.474  10.649  1.00  0.00     0.001 C 
HETATM   33  C18 UNL     1      -4.431   0.280  10.497  1.00  0.00     0.010 C 
ENDBRANCH  14  30
BRANCH   8  34
HETATM   34  N4  UNL     1      -1.639   4.374  15.110  1.00  0.00    -0.383 N 
ATOM     35  H42 UNL     1      -0.835   3.857  15.467  1.00  0.00     0.157 HD
ATOM     36  H41 UNL     1      -2.412   4.622  15.727  1.00  0.00     0.157 HD
ENDBRANCH   8  34
TORSDOF 6
ENDMDL
MODEL 4
REMARK VINA RESULT: -7.373142954      2.270      4.549
REMARK  6 active torsions:
REMARK  status: ('A' for Active; 'I' for Inactive)
REMARK    1  A    between atoms: C2_2  and  C3_3 
REMARK    2  A    between atoms: C5_6  and  O1_7 
REMARK    3  A    between atoms: C8_11  and  N1_12 
REMARK    4  A    between atoms: C11_19  and  N4_20 
REMARK    5  A    between atoms: C14_28  and  O3_29 
REMARK    6  A    between atoms: C14_28  and  C15_31 
ROOT
HETATM    1  N1  UNL     1      -3.318   3.878  10.930  1.00  0.00    -0.284 N 
HETATM    2  C9  UNL     1      -1.904   4.014  10.695  1.00  0.00     0.143 A 
HETATM    3  N2  UNL     1      -0.973   3.519  11.526  1.00  0.00    -0.336 N 
ATOM      4  H2  UNL     1      -1.281   3.033  12.368  1.00  0.00     0.168 HD
HETATM    5  C10 UNL     1       0.347   3.636  11.299  1.00  0.00     0.183 A 
HETATM    6  N3  UNL     1       0.790   4.259  10.222  1.00  0.00    -0.337 N 
ATOM      7  H3  UNL     1       1.793   4.345  10.056  1.00  0.00     0.168 HD
HETATM    8  C11 UNL     1      -0.085   4.779   9.346  1.00  0.00     0.131 A 
HETATM    9  C12 UNL     1      -1.436   4.669   9.561  1.00  0.00     0.124 A 
HETATM   10  N5  UNL     1      -2.433   5.205   8.680  1.00  0.00    -0.317 N 
ATOM     11  H5  UNL     1      -2.124   5.692   7.839  1.00  0.00     0.169 HD
HETATM   12  C13 UNL     1      -3.832   5.094   8.918  1.00  0.00     0.279 C 
HETATM   13  O2  UNL     1      -4.627   5.289   7.973  1.00  0.00    -0.268 OA
HETATM   14  C14 UNL     1      -4.273   4.747  10.300  1.00  0.00     0.227 C 
ENDROOT
BRANCH   1  15
HETATM   15  C8  UNL     1      -3.702   2.827  11.789  1.00  0.00     0.120 A 
HETATM   16  C7  UNL     1      -3.831   1.543  11.338  1.00  0.00     0.182 A 
HETATM   17  C5  UNL     1      -4.203   0.524  12.227  1.00  0.00     0.148 A 
HETATM   18  F2  UNL     1      -3.642   1.135  10.066  1.00  0.00    -0.200 F 
HETATM   19  C4  UNL     1      -4.444   0.790  13.559  1.00  0.00     0.162 A 
HETATM   20  C3  UNL     1      -4.313   2.107  14.031  1.00  0.00     0.024 A 
HETATM   21  F1  UNL     1      -4.804  -0.219  14.403  1.00  0.00    -0.202 F 
HETATM   22  C19 UNL     1      -3.948   3.093  13.144  1.00  0.00     0.155 A 
HETATM   23  F3  UNL     1      -3.834   4.346  13.637  1.00  0.00    -0.203 F 
BRANCH  17  24
HETATM   24  O1  UNL     1      -4.343  -0.798  11.797  1.00  0.00    -0.350 OA
HETATM   25  C6  UNL     1      -3.234  -1.645  11.576  1.00  0.00     0.210 C 
ENDBRANCH  17  24
BRANCH  20  26
HETATM   26  C2  UNL     1      -4.587   2.289  15.444  1.00  0.00     0.040 C 
HETATM   27  C1  UNL     1      -5.963   2.587  15.875  1.00  0.00     0.010 C 
ENDBRANCH  20  26
ENDBRANCH   1  15
BRANCH  14  28
HETATM   28  O3  UNL     1      -5.453   3.979  10.107  1.00  0.00    -0.362 OA
ATOM     29  H3  UNL     1      -6.163   4.599   9.998  1.00  0.00     0.213 HD
ENDBRANCH  14  28
BRANCH  14  30
HETATM   30  C15 UNL     1      -4.666   5.914  11.105  1.00  0.00     0.052 C 
HETATM   31  C16 UNL     1      -3.759   7.071  11.296  1.00  0.00     0.010 C 
HETATM   32  C17 UNL     1      -4.962   8.024  11.192  1.00  0.00     0.001 C 
HETATM   33  C18 UNL     1      -5.682   6.853  10.495  1.00  0.00     0.010 C 
ENDBRANCH  14  30
BRANCH   8  34
HETATM   34  N4  UNL     1       0.364   5.372   8.320  1.00  0.00    -0.383 N 
ATOM     35  H42 UNL     1       0.375   4.909   7.412  1.00  0.00     0.157 HD
ATOM     36  H41 UNL     1       0.716   6.324   8.422  1.00  0.00     0.157 HD
ENDBRANCH   8  34
TORSDOF 6
ENDMDL
MODEL 5
REMARK VINA RESULT: -7.338957179      0.867      2.484
REMARK  6 active torsions:
REMARK  status: ('A' for Active; 'I' for Inactive)
REMARK    1  A    between atoms: C2_2  and  C3_3 
REMARK    2  A    between atoms: C5_6  and  O1_7 
REMARK    3  A    between atoms: C8_11  and  N1_12 
REMARK    4  A    between atoms: C11_19  and  N4_20 
REMARK    5  A    between atoms: C14_28  and  O3_29 
REMARK    6  A    between atoms: C14_28  and  C15_31 
ROOT
HETATM    1  N1  UNL     1      -2.656   4.083  11.434  1.00  0.00    -0.284 N 
HETATM    2  C9  UNL     1      -3.538   4.931  10.675  1.00  0.00     0.143 A 
HETATM    3  N2  UNL     1      -4.656   4.480  10.084  1.00  0.00    -0.336 N 
ATOM      4  H2  UNL     1      -4.887   3.490  10.169  1.00  0.00     0.168 HD
HETATM    5  C10 UNL     1      -5.486   5.274   9.386  1.00  0.00     0.183 A 
HETATM    6  N3  UNL     1      -5.227   6.562   9.250  1.00  0.00    -0.337 N 
ATOM      7  H3  UNL     1      -5.860   7.159   8.718  1.00  0.00     0.168 HD
HETATM    8  C11 UNL     1      -4.125   7.082   9.814  1.00  0.00     0.131 A 
HETATM    9  C12 UNL     1      -3.266   6.287  10.531  1.00  0.00     0.124 A 
HETATM   10  N5  UNL     1      -2.065   6.763  11.155  1.00  0.00    -0.317 N 
ATOM     11  H5  UNL     1      -1.836   7.754  11.069  1.00  0.00     0.169 HD
HETATM   12  C13 UNL     1      -1.177   5.927  11.887  1.00  0.00     0.279 C 
HETATM   13  O2  UNL     1      -0.345   6.453  12.660  1.00  0.00    -0.268 OA
HETATM   14  C14 UNL     1      -1.290   4.454  11.687  1.00  0.00     0.227 C 
ENDROOT
BRANCH   1  15
HETATM   15  C8  UNL     1      -3.222   2.891  11.933  1.00  0.00     0.120 A 
HETATM   16  C7  UNL     1      -3.169   1.722  11.226  1.00  0.00     0.182 A 
HETATM   17  C5  UNL     1      -3.733   0.556  11.763  1.00  0.00     0.148 A 
HETATM   18  F2  UNL     1      -2.619   1.568  10.005  1.00  0.00    -0.200 F 
HETATM   19  C4  UNL     1      -4.344   0.561  13.000  1.00  0.00     0.162 A 
HETATM   20  C3  UNL     1      -4.402   1.759  13.733  1.00  0.00     0.024 A 
HETATM   21  F1  UNL     1      -4.884  -0.587  13.500  1.00  0.00    -0.202 F 
HETATM   22  C19 UNL     1      -3.844   2.892  13.190  1.00  0.00     0.155 A 
HETATM   23  F3  UNL     1      -3.921   4.023  13.926  1.00  0.00    -0.203 F 
BRANCH  17  24
HETATM   24  O1  UNL     1      -3.696  -0.655  11.066  1.00  0.00    -0.350 OA
HETATM   25  C6  UNL     1      -2.861  -1.727  11.453  1.00  0.00     0.210 C 
ENDBRANCH  17  24
BRANCH  20  26
HETATM   26  C2  UNL     1      -5.064   1.666  15.020  1.00  0.00     0.040 C 
HETATM   27  C1  UNL     1      -4.249   1.658  16.247  1.00  0.00     0.010 C 
ENDBRANCH  20  26
ENDBRANCH   1  15
BRANCH  14  28
HETATM   28  O3  UNL     1      -0.950   3.902  12.952  1.00  0.00    -0.362 OA
ATOM     29  H3  UNL     1      -0.031   4.097  13.092  1.00  0.00     0.213 HD
ENDBRANCH  14  28
BRANCH  14  30
HETATM   30  C15 UNL     1      -0.319   3.912  10.724  1.00  0.00     0.052 C 
HETATM   31  C16 UNL     1      -0.198   4.453   9.349  1.00  0.00     0.010 C 
HETATM   32  C17 UNL     1       1.329   4.287   9.425  1.00  0.00     0.001 C 
HETATM   33  C18 UNL     1       1.135   4.259  10.953  1.00  0.00     0.010 C 
ENDBRANCH  14  30
BRANCH   8  34
HETATM   34  N4  UNL     1      -3.897   8.320   9.670  1.00  0.00    -0.383 N 
ATOM     35  H42 UNL     1      -3.895   8.747   8.743  1.00  0.00     0.157 HD
ATOM     36  H41 UNL     1      -3.715   8.883  10.501  1.00  0.00     0.157 HD
ENDBRANCH   8  34
TORSDOF 6
ENDMDL
