MODEL 1
REMARK VINA RESULT: -6.228517126      0.000      0.000
REMARK  8 active torsions:
REMARK  status: ('A' for Active; 'I' for Inactive)
REMARK    1  A    between atoms: N1_1  and  C1_5 
REMARK    2  A    between atoms: N2_8  and  C4_9 
REMARK    3  A    between atoms: C6_12  and  O1_13 
REMARK    4  A    between atoms: C7_15  and  C8_16 
REMARK    5  A    between atoms: C11_19  and  C12_20 
REMARK    6  A    between atoms: C12_20  and  N3_21 
REMARK    7  A    between atoms: C12_20  and  C13_25 
REMARK    8  A    between atoms: C16_31  and  O2_32 
ROOT
HETATM    1  C4  UNL     1      -2.807   2.840  11.500  1.00  0.00     0.077 A 
HETATM    2  C5  UNL     1      -3.311   1.553  11.553  1.00  0.00     0.096 A 
HETATM    3 CL1  UNL     1      -3.095   0.431  10.218  1.00  0.00    -0.079 Cl
HETATM    4  C6  UNL     1      -4.018   1.175  12.664  1.00  0.00     0.097 A 
HETATM    5  C7  UNL     1      -4.236   2.064  13.738  1.00  0.00    -0.009 A 
HETATM    6  C11 UNL     1      -3.755   3.357  13.698  1.00  0.00     0.008 A 
HETATM    7  C14 UNL     1      -3.047   3.715  12.571  1.00  0.00     0.071 A 
HETATM    8 CL4  UNL     1      -2.422   5.333  12.451  1.00  0.00    -0.081 Cl
ENDROOT
BRANCH   1   9
HETATM    9  N2  UNL     1      -1.808   3.144  10.543  1.00  0.00    -0.376 N 
HETATM   10  C3  UNL     1      -0.449   2.761  10.638  1.00  0.00     0.125 C 
HETATM   11  C2  UNL     1       0.495   3.882  10.185  1.00  0.00     0.055 C 
HETATM   12  C1  UNL     1      -0.018   4.665   9.003  1.00  0.00     0.215 C 
HETATM   13  C16 UNL     1      -1.127   3.801   8.366  1.00  0.00     0.166 C 
HETATM   14  C15 UNL     1      -2.266   3.887   9.341  1.00  0.00     0.157 C 
BRANCH  12  15
HETATM   15  N1  UNL     1      -0.668   5.889   9.376  1.00  0.00    -0.072 N 
ATOM     16  H13 UNL     1      -1.274   5.746  10.183  1.00  0.00     0.274 HD
ATOM     17  H12 UNL     1      -0.001   6.545   9.781  1.00  0.00     0.274 HD
ATOM     18  H11 UNL     1      -1.183   6.321   8.608  1.00  0.00     0.274 HD
ENDBRANCH  12  15
BRANCH  13  19
HETATM   19  O2  UNL     1      -1.545   4.370   7.178  1.00  0.00    -0.392 OA
ATOM     20  H2  UNL     1      -2.469   4.195   7.042  1.00  0.00     0.210 HD
ENDBRANCH  13  19
ENDBRANCH   1   9
BRANCH   4  21
HETATM   21  O1  UNL     1      -4.527  -0.127  12.718  1.00  0.00    -0.358 OA
ATOM     22  H1  UNL     1      -4.141  -0.737  13.335  1.00  0.00     0.217 HD
ENDBRANCH   4  21
BRANCH   6  23
HETATM   23  C12 UNL     1      -3.906   4.266  14.826  1.00  0.00     0.251 C 
BRANCH  23  24
HETATM   24  N3  UNL     1      -2.514   4.823  15.091  1.00  0.00    -0.068 N 
ATOM     25  H33 UNL     1      -2.365   5.110  16.058  1.00  0.00     0.275 HD
ATOM     26  H32 UNL     1      -1.778   4.117  15.059  1.00  0.00     0.275 HD
ATOM     27  H31 UNL     1      -2.387   5.576  14.415  1.00  0.00     0.275 HD
ENDBRANCH  23  24
BRANCH  23  28
HETATM   28  C13 UNL     1      -4.652   5.564  14.489  1.00  0.00     0.213 C 
HETATM   29 CL2  UNL     1      -3.831   6.938  15.207  1.00  0.00    -0.106 Cl
HETATM   30 CL3  UNL     1      -6.302   5.448  15.259  1.00  0.00    -0.106 Cl
ENDBRANCH  23  28
ENDBRANCH   6  23
BRANCH   5  31
HETATM   31  C8  UNL     1      -5.045   1.486  14.817  1.00  0.00     0.022 A 
HETATM   32  C9  UNL     1      -4.738   1.908  16.204  1.00  0.00     0.010 A 
HETATM   33  C10 UNL     1      -4.486   0.459  15.786  1.00  0.00     0.010 A 
ENDBRANCH   5  31
TORSDOF 8
ENDMDL
MODEL 2
REMARK VINA RESULT: -5.878639060      2.532      3.842
REMARK  8 active torsions:
REMARK  status: ('A' for Active; 'I' for Inactive)
REMARK    1  A    between atoms: N1_1  and  C1_5 
REMARK    2  A    between atoms: N2_8  and  C4_9 
REMARK    3  A    between atoms: C6_12  and  O1_13 
REMARK    4  A    between atoms: C7_15  and  C8_16 
REMARK    5  A    between atoms: C11_19  and  C12_20 
REMARK    6  A    between atoms: C12_20  and  N3_21 
REMARK    7  A    between atoms: C12_20  and  C13_25 
REMARK    8  A    between atoms: C16_31  and  O2_32 
ROOT
HETATM    1  C4  UNL     1      -1.751   4.001  11.691  1.00  0.00     0.077 A 
HETATM    2  C5  UNL     1      -1.787   5.076  12.562  1.00  0.00     0.096 A 
HETATM    3 CL1  UNL     1      -0.614   6.380  12.453  1.00  0.00    -0.079 Cl
HETATM    4  C6  UNL     1      -2.744   5.089  13.542  1.00  0.00     0.097 A 
HETATM    5  C7  UNL     1      -3.679   4.039  13.675  1.00  0.00    -0.009 A 
HETATM    6  C11 UNL     1      -3.651   2.951  12.826  1.00  0.00     0.008 A 
HETATM    7  C14 UNL     1      -2.679   2.961  11.847  1.00  0.00     0.071 A 
HETATM    8 CL4  UNL     1      -2.581   1.615  10.751  1.00  0.00    -0.081 Cl
ENDROOT
BRANCH   1   9
HETATM    9  N2  UNL     1      -1.013   4.121  10.488  1.00  0.00    -0.376 N 
HETATM   10  C3  UNL     1       0.321   3.685  10.307  1.00  0.00     0.125 C 
HETATM   11  C2  UNL     1       1.143   4.684   9.482  1.00  0.00     0.055 C 
HETATM   12  C1  UNL     1       0.368   5.326   8.359  1.00  0.00     0.215 C 
HETATM   13  C16 UNL     1      -0.878   4.441   8.139  1.00  0.00     0.166 C 
HETATM   14  C15 UNL     1      -1.740   4.716   9.337  1.00  0.00     0.157 C 
BRANCH  12  15
HETATM   15  N1  UNL     1      -0.150   6.620   8.697  1.00  0.00    -0.072 N 
ATOM     16  H13 UNL     1      -1.083   6.543   9.102  1.00  0.00     0.274 HD
ATOM     17  H12 UNL     1       0.347   7.012   9.496  1.00  0.00     0.274 HD
ATOM     18  H11 UNL     1      -0.148   7.272   7.913  1.00  0.00     0.274 HD
ENDBRANCH  12  15
BRANCH  13  19
HETATM   19  O2  UNL     1      -1.566   4.864   7.018  1.00  0.00    -0.392 OA
ATOM     20  H2  UNL     1      -2.182   4.195   6.744  1.00  0.00     0.210 HD
ENDBRANCH  13  19
ENDBRANCH   1   9
BRANCH   4  21
HETATM   21  O1  UNL     1      -2.781   6.174  14.422  1.00  0.00    -0.358 OA
ATOM     22  H1  UNL     1      -2.737   6.002  15.355  1.00  0.00     0.217 HD
ENDBRANCH   4  21
BRANCH   6  23
HETATM   23  C12 UNL     1      -4.651   1.896  12.899  1.00  0.00     0.251 C 
BRANCH  23  24
HETATM   24  N3  UNL     1      -5.171   1.727  11.478  1.00  0.00    -0.068 N 
ATOM     25  H33 UNL     1      -5.596   2.570  11.095  1.00  0.00     0.275 HD
ATOM     26  H32 UNL     1      -4.433   1.634  10.780  1.00  0.00     0.275 HD
ATOM     27  H31 UNL     1      -5.805   0.928  11.513  1.00  0.00     0.275 HD
ENDBRANCH  23  24
BRANCH  23  28
HETATM   28  C13 UNL     1      -4.068   0.496  13.138  1.00  0.00     0.213 C 
HETATM   29 CL2  UNL     1      -4.758  -0.648  12.002  1.00  0.00    -0.106 Cl
HETATM   30 CL3  UNL     1      -4.578  -0.018  14.812  1.00  0.00    -0.106 Cl
ENDBRANCH  23  28
ENDBRANCH   6  23
BRANCH   5  31
HETATM   31  C8  UNL     1      -4.597   4.218  14.805  1.00  0.00     0.022 A 
HETATM   32  C9  UNL     1      -5.975   3.691  14.657  1.00  0.00     0.010 A 
HETATM   33  C10 UNL     1      -5.753   5.200  14.761  1.00  0.00     0.010 A 
ENDBRANCH   5  31
TORSDOF 8
ENDMDL
MODEL 3
REMARK VINA RESULT: -5.625880012      2.753      4.189
REMARK  8 active torsions:
REMARK  status: ('A' for Active; 'I' for Inactive)
REMARK    1  A    between atoms: N1_1  and  C1_5 
REMARK    2  A    between atoms: N2_8  and  C4_9 
REMARK    3  A    between atoms: C6_12  and  O1_13 
REMARK    4  A    between atoms: C7_15  and  C8_16 
REMARK    5  A    between atoms: C11_19  and  C12_20 
REMARK    6  A    between atoms: C12_20  and  N3_21 
REMARK    7  A    between atoms: C12_20  and  C13_25 
REMARK    8  A    between atoms: C16_31  and  O2_32 
ROOT
HETATM    1  C4  UNL     1      -2.629   5.038  11.560  1.00  0.00     0.077 A 
HETATM    2  C5  UNL     1      -2.734   6.014  12.535  1.00  0.00     0.096 A 
HETATM    3 CL1  UNL     1      -1.826   7.515  12.427  1.00  0.00    -0.079 Cl
HETATM    4  C6  UNL     1      -3.543   5.774  13.615  1.00  0.00     0.097 A 
HETATM    5  C7  UNL     1      -4.258   4.565  13.746  1.00  0.00    -0.009 A 
HETATM    6  C11 UNL     1      -4.156   3.572  12.792  1.00  0.00     0.008 A 
HETATM    7  C14 UNL     1      -3.337   3.836  11.715  1.00  0.00     0.071 A 
HETATM    8 CL4  UNL     1      -3.154   2.624  10.483  1.00  0.00    -0.081 Cl
ENDROOT
BRANCH   1   9
HETATM    9  N2  UNL     1      -2.086   5.387  10.300  1.00  0.00    -0.376 N 
HETATM   10  C3  UNL     1      -2.783   6.073   9.277  1.00  0.00     0.125 C 
HETATM   11  C2  UNL     1      -2.474   5.499   7.889  1.00  0.00     0.055 C 
HETATM   12  C1  UNL     1      -1.037   5.078   7.712  1.00  0.00     0.215 C 
HETATM   13  C16 UNL     1      -0.247   5.766   8.846  1.00  0.00     0.166 C 
HETATM   14  C15 UNL     1      -0.661   5.025  10.085  1.00  0.00     0.157 C 
BRANCH  12  15
HETATM   15  N1  UNL     1      -0.831   3.673   7.916  1.00  0.00    -0.072 N 
ATOM     16  H13 UNL     1      -0.598   3.477   8.889  1.00  0.00     0.274 HD
ATOM     17  H12 UNL     1      -1.712   3.164   7.848  1.00  0.00     0.274 HD
ATOM     18  H11 UNL     1      -0.132   3.274   7.289  1.00  0.00     0.274 HD
ENDBRANCH  12  15
BRANCH  13  19
HETATM   19  O2  UNL     1       1.108   5.566   8.668  1.00  0.00    -0.392 OA
ATOM     20  H2  UNL     1       1.323   5.605   7.743  1.00  0.00     0.210 HD
ENDBRANCH  13  19
ENDBRANCH   1   9
BRANCH   4  21
HETATM   21  O1  UNL     1      -3.649   6.761  14.600  1.00  0.00    -0.358 OA
ATOM     22  H1  UNL     1      -3.093   6.696  15.367  1.00  0.00     0.217 HD
ENDBRANCH   4  21
BRANCH   6  23
HETATM   23  C12 UNL     1      -4.942   2.349  12.871  1.00  0.00     0.251 C 
BRANCH  23  24
HETATM   24  N3  UNL     1      -5.408   2.070  11.449  1.00  0.00    -0.068 N 
ATOM     25  H33 UNL     1      -6.103   2.733  11.108  1.00  0.00     0.275 HD
ATOM     26  H32 UNL     1      -4.699   2.262  10.741  1.00  0.00     0.275 HD
ATOM     27  H31 UNL     1      -5.731   1.102  11.452  1.00  0.00     0.275 HD
ENDBRANCH  23  24
BRANCH  23  28
HETATM   28  C13 UNL     1      -4.111   1.085  13.133  1.00  0.00     0.213 C 
HETATM   29 CL2  UNL     1      -4.604  -0.199  12.045  1.00  0.00    -0.106 Cl
HETATM   30 CL3  UNL     1      -4.487   0.539  14.832  1.00  0.00    -0.106 Cl
ENDBRANCH  23  28
ENDBRANCH   6  23
BRANCH   5  31
HETATM   31  C8  UNL     1      -5.037   4.481  14.985  1.00  0.00     0.022 A 
HETATM   32  C9  UNL     1      -6.308   3.718  14.946  1.00  0.00     0.010 A 
HETATM   33  C10 UNL     1      -6.345   5.229  15.172  1.00  0.00     0.010 A 
ENDBRANCH   5  31
TORSDOF 8
ENDMDL
MODEL 4
REMARK VINA RESULT: -5.619382132      3.661      7.211
REMARK  8 active torsions:
REMARK  status: ('A' for Active; 'I' for Inactive)
REMARK    1  A    between atoms: N1_1  and  C1_5 
REMARK    2  A    between atoms: N2_8  and  C4_9 
REMARK    3  A    between atoms: C6_12  and  O1_13 
REMARK    4  A    between atoms: C7_15  and  C8_16 
REMARK    5  A    between atoms: C11_19  and  C12_20 
REMARK    6  A    between atoms: C12_20  and  N3_21 
REMARK    7  A    between atoms: C12_20  and  C13_25 
REMARK    8  A    between atoms: C16_31  and  O2_32 
ROOT
HETATM    1  C4  UNL     1      -3.367   4.663   9.509  1.00  0.00     0.077 A 
HETATM    2  C5  UNL     1      -2.138   4.291   8.993  1.00  0.00     0.096 A 
HETATM    3 CL1  UNL     1      -0.983   3.379   9.954  1.00  0.00    -0.079 Cl
HETATM    4  C6  UNL     1      -1.821   4.679   7.719  1.00  0.00     0.097 A 
HETATM    5  C7  UNL     1      -2.715   5.440   6.935  1.00  0.00    -0.009 A 
HETATM    6  C11 UNL     1      -3.940   5.834   7.435  1.00  0.00     0.008 A 
HETATM    7  C14 UNL     1      -4.237   5.432   8.720  1.00  0.00     0.071 A 
HETATM    8 CL4  UNL     1      -5.759   5.903   9.416  1.00  0.00    -0.081 Cl
ENDROOT
BRANCH   1   9
HETATM    9  N2  UNL     1      -3.851   4.004  10.666  1.00  0.00    -0.376 N 
HETATM   10  C3  UNL     1      -3.916   4.575  11.958  1.00  0.00     0.125 C 
HETATM   11  C2  UNL     1      -3.504   3.577  13.047  1.00  0.00     0.055 C 
HETATM   12  C1  UNL     1      -3.975   2.168  12.788  1.00  0.00     0.215 C 
HETATM   13  C16 UNL     1      -5.090   2.279  11.726  1.00  0.00     0.166 C 
HETATM   14  C15 UNL     1      -4.360   2.623  10.460  1.00  0.00     0.157 C 
BRANCH  12  15
HETATM   15  N1  UNL     1      -2.971   1.338  12.187  1.00  0.00    -0.072 N 
ATOM     16  H13 UNL     1      -3.347   0.418  11.962  1.00  0.00     0.274 HD
ATOM     17  H12 UNL     1      -2.749   1.662  11.246  1.00  0.00     0.274 HD
ATOM     18  H11 UNL     1      -2.126   1.257  12.752  1.00  0.00     0.274 HD
ENDBRANCH  12  15
BRANCH  13  19
HETATM   19  O2  UNL     1      -5.693   1.049  11.544  1.00  0.00    -0.392 OA
ATOM     20  H2  UNL     1      -6.632   1.159  11.449  1.00  0.00     0.210 HD
ENDBRANCH  13  19
ENDBRANCH   1   9
BRANCH   4  21
HETATM   21  O1  UNL     1      -0.580   4.303   7.198  1.00  0.00    -0.358 OA
ATOM     22  H1  UNL     1       0.139   4.922   7.250  1.00  0.00     0.217 HD
ENDBRANCH   4  21
BRANCH   6  23
HETATM   23  C12 UNL     1      -4.905   6.555   6.619  1.00  0.00     0.251 C 
BRANCH  23  24
HETATM   24  N3  UNL     1      -6.212   5.785   6.755  1.00  0.00    -0.068 N 
ATOM     25  H33 UNL     1      -6.369   5.111   6.006  1.00  0.00     0.275 HD
ATOM     26  H32 UNL     1      -6.214   5.116   7.524  1.00  0.00     0.275 HD
ATOM     27  H31 UNL     1      -6.941   6.495   6.827  1.00  0.00     0.275 HD
ENDBRANCH  23  24
BRANCH  23  28
HETATM   28  C13 UNL     1      -5.333   7.909   7.202  1.00  0.00     0.213 C 
HETATM   29 CL2  UNL     1      -5.930   8.956   5.928  1.00  0.00    -0.106 Cl
HETATM   30 CL3  UNL     1      -3.836   8.689   7.896  1.00  0.00    -0.106 Cl
ENDBRANCH  23  28
ENDBRANCH   6  23
BRANCH   5  31
HETATM   31  C8  UNL     1      -2.180   5.787   5.615  1.00  0.00     0.022 A 
HETATM   32  C9  UNL     1      -1.285   6.965   5.526  1.00  0.00     0.010 A 
HETATM   33  C10 UNL     1      -2.652   7.008   4.845  1.00  0.00     0.010 A 
ENDBRANCH   5  31
TORSDOF 8
ENDMDL
MODEL 5
REMARK VINA RESULT: -5.617294463      3.053      3.984
REMARK  8 active torsions:
REMARK  status: ('A' for Active; 'I' for Inactive)
REMARK    1  A    between atoms: N1_1  and  C1_5 
REMARK    2  A    between atoms: N2_8  and  C4_9 
REMARK    3  A    between atoms: C6_12  and  O1_13 
REMARK    4  A    between atoms: C7_15  and  C8_16 
REMARK    5  A    between atoms: C11_19  and  C12_20 
REMARK    6  A    between atoms: C12_20  and  N3_21 
REMARK    7  A    between atoms: C12_20  and  C13_25 
REMARK    8  A    between atoms: C16_31  and  O2_32 
ROOT
HETATM    1  C4  UNL     1      -3.551   5.094  12.209  1.00  0.00     0.077 A 
HETATM    2  C5  UNL     1      -3.827   4.430  11.026  1.00  0.00     0.096 A 
HETATM    3 CL1  UNL     1      -3.597   5.208   9.467  1.00  0.00    -0.079 Cl
HETATM    4  C6  UNL     1      -4.318   3.153  11.094  1.00  0.00     0.097 A 
HETATM    5  C7  UNL     1      -4.544   2.514  12.332  1.00  0.00    -0.009 A 
HETATM    6  C11 UNL     1      -4.290   3.163  13.523  1.00  0.00     0.008 A 
HETATM    7  C14 UNL     1      -3.796   4.447  13.430  1.00  0.00     0.071 A 
HETATM    8 CL4  UNL     1      -3.464   5.326  14.893  1.00  0.00    -0.081 Cl
ENDROOT
BRANCH   1   9
HETATM    9  N2  UNL     1      -2.742   6.255  12.168  1.00  0.00    -0.376 N 
HETATM   10  C3  UNL     1      -1.334   6.260  12.031  1.00  0.00     0.125 C 
HETATM   11  C2  UNL     1      -0.674   7.310  12.933  1.00  0.00     0.055 C 
HETATM   12  C1  UNL     1      -1.455   8.596  13.039  1.00  0.00     0.215 C 
HETATM   13  C16 UNL     1      -2.448   8.591  11.857  1.00  0.00     0.166 C 
HETATM   14  C15 UNL     1      -3.465   7.552  12.235  1.00  0.00     0.157 C 
BRANCH  12  15
HETATM   15  N1  UNL     1      -2.276   8.662  14.214  1.00  0.00    -0.072 N 
ATOM     16  H13 UNL     1      -3.231   8.929  13.976  1.00  0.00     0.274 HD
ATOM     17  H12 UNL     1      -2.451   7.729  14.587  1.00  0.00     0.274 HD
ATOM     18  H11 UNL     1      -1.897   9.276  14.935  1.00  0.00     0.274 HD
ENDBRANCH  12  15
BRANCH  13  19
HETATM   19  O2  UNL     1      -3.098   9.808  11.782  1.00  0.00    -0.392 OA
ATOM     20  H2  UNL     1      -3.004  10.278  12.602  1.00  0.00     0.210 HD
ENDBRANCH  13  19
ENDBRANCH   1   9
BRANCH   4  21
HETATM   21  O1  UNL     1      -4.597   2.483   9.899  1.00  0.00    -0.358 OA
ATOM     22  H1  UNL     1      -5.314   1.861   9.886  1.00  0.00     0.217 HD
ENDBRANCH   4  21
BRANCH   6  23
HETATM   23  C12 UNL     1      -4.446   2.496  14.808  1.00  0.00     0.251 C 
BRANCH  23  24
HETATM   24  N3  UNL     1      -3.220   2.887  15.622  1.00  0.00    -0.068 N 
ATOM     25  H33 UNL     1      -3.441   3.397  16.477  1.00  0.00     0.275 HD
ATOM     26  H32 UNL     1      -2.757   2.096  16.070  1.00  0.00     0.275 HD
ATOM     27  H31 UNL     1      -2.618   3.403  14.981  1.00  0.00     0.275 HD
ENDBRANCH  23  24
BRANCH  23  28
HETATM   28  C13 UNL     1      -5.552   3.089  15.692  1.00  0.00     0.213 C 
HETATM   29 CL2  UNL     1      -6.377   1.813  16.566  1.00  0.00    -0.106 Cl
HETATM   30 CL3  UNL     1      -6.770   3.865  14.576  1.00  0.00    -0.106 Cl
ENDBRANCH  23  28
ENDBRANCH   6  23
BRANCH   5  31
HETATM   31  C8  UNL     1      -5.106   1.166  12.197  1.00  0.00     0.022 A 
HETATM   32  C9  UNL     1      -4.383   0.053  12.856  1.00  0.00     0.010 A 
HETATM   33  C10 UNL     1      -4.458   0.102  11.330  1.00  0.00     0.010 A 
ENDBRANCH   5  31
TORSDOF 8
ENDMDL
