MODEL 1
REMARK VINA RESULT: -8.058637384      0.000      0.000
REMARK  7 active torsions:
REMARK  status: ('A' for Active; 'I' for Inactive)
REMARK    1  A    between atoms: N1_2  and  C2_3 
REMARK       I    between atoms: N1_2  and  C7_9 
REMARK    2  A    between atoms: C2_3  and  C3_4 
REMARK    3  A    between atoms: C3_4  and  C4_5 
REMARK    4  A    between atoms: C4_5  and  C5_6 
REMARK    5  A    between atoms: C5_6  and  C6_7 
REMARK       I    between atoms: C7_9  and  N2_11 
REMARK    6  A    between atoms: N2_11  and  C8_13 
REMARK    7  A    between atoms: C11_18  and  C12_19 
ROOT
HETATM    1  C8  UNL     1      14.301  11.075  11.804  1.00  0.00     0.686 A 
HETATM    2  N3  UNL     1      15.212  11.313  10.842  1.00  0.00    -0.202 N 
ATOM      3  H3  UNL     1      15.160  12.153  10.267  1.00  0.00     0.183 HD
HETATM    4  C9  UNL     1      16.178  10.422  10.666  1.00  0.00     0.108 A 
HETATM    5  C10 UNL     1      16.250   9.265  11.460  1.00  0.00     0.050 A 
HETATM    6  C11 UNL     1      15.324   9.031  12.432  1.00  0.00     0.079 A 
HETATM    7  N5  UNL     1      14.362   9.958  12.578  1.00  0.00    -0.189 N 
ATOM      8  H5  UNL     1      13.650   9.818  13.295  1.00  0.00     0.184 HD
ENDROOT
BRANCH   1   9
HETATM    9  N2  UNL     1      13.342  11.920  12.008  1.00  0.00    -0.141 N 
HETATM   10  C7  UNL     1      12.612  11.879  13.227  1.00  0.00     0.336 C 
HETATM   11  N1  UNL     1      13.100  12.538  14.414  1.00  0.00    -0.338 N 
HETATM   12  O1  UNL     1      11.527  11.242  13.213  1.00  0.00    -0.246 OA
HETATM   13  C1  UNL     1      14.344  13.240  14.336  1.00  0.00     0.154 C 
ATOM     14  H2  UNL     1      13.110  12.612  11.296  1.00  0.00     0.189 HD
BRANCH  11  15
HETATM   15  C2  UNL     1      12.324  12.415  15.603  1.00  0.00     0.127 C 
BRANCH  15  16
HETATM   16  C3  UNL     1      13.048  11.983  16.839  1.00  0.00     0.020 C 
BRANCH  16  17
HETATM   17  C4  UNL     1      12.384  10.940  17.676  1.00  0.00     0.002 C 
BRANCH  17  18
HETATM   18  C5  UNL     1      11.229  11.453  18.485  1.00  0.00     0.011 C 
BRANCH  18  19
HETATM   19  C6  UNL     1      11.377  11.133  19.960  1.00  0.00     0.086 C 
HETATM   20  S1  UNL     1      12.223  12.434  20.857  1.00  0.00    -0.098 SA
ENDBRANCH  18  19
ENDBRANCH  17  18
ENDBRANCH  16  17
ENDBRANCH  15  16
ENDBRANCH  11  15
ENDBRANCH   1   9
BRANCH   6  21
HETATM   21  C12 UNL     1      15.316   7.861  13.305  1.00  0.00     0.084 A 
HETATM   22  N4  UNL     1      15.143   7.920  14.663  1.00  0.00    -0.342 N 
HETATM   23  C13 UNL     1      15.180   6.703  15.203  1.00  0.00     0.127 A 
ATOM     24  H4  UNL     1      15.003   8.782  15.191  1.00  0.00     0.167 HD
HETATM   25 CL1  UNL     1      15.000   6.321  16.928  1.00  0.00    -0.063 Cl
HETATM   26  C14 UNL     1      15.378   5.813  14.203  1.00  0.00     0.096 A 
HETATM   27 CL2  UNL     1      15.512   4.082  14.307  1.00  0.00    -0.079 Cl
HETATM   28  C15 UNL     1      15.464   6.533  13.007  1.00  0.00     0.087 A 
HETATM   29 CL3  UNL     1      15.722   5.797  11.423  1.00  0.00    -0.080 Cl
ENDBRANCH   6  21
TORSDOF 7
ENDMDL
MODEL 2
REMARK VINA RESULT: -8.042204029      0.976      1.661
REMARK  7 active torsions:
REMARK  status: ('A' for Active; 'I' for Inactive)
REMARK    1  A    between atoms: N1_2  and  C2_3 
REMARK       I    between atoms: N1_2  and  C7_9 
REMARK    2  A    between atoms: C2_3  and  C3_4 
REMARK    3  A    between atoms: C3_4  and  C4_5 
REMARK    4  A    between atoms: C4_5  and  C5_6 
REMARK    5  A    between atoms: C5_6  and  C6_7 
REMARK       I    between atoms: C7_9  and  N2_11 
REMARK    6  A    between atoms: N2_11  and  C8_13 
REMARK    7  A    between atoms: C11_18  and  C12_19 
ROOT
HETATM    1  C8  UNL     1      14.095  11.226  11.554  1.00  0.00     0.686 A 
HETATM    2  N3  UNL     1      14.901  11.499  10.511  1.00  0.00    -0.202 N 
ATOM      3  H3  UNL     1      14.771  12.344   9.955  1.00  0.00     0.183 HD
HETATM    4  C9  UNL     1      15.867  10.637  10.228  1.00  0.00     0.108 A 
HETATM    5  C10 UNL     1      16.046   9.473  10.996  1.00  0.00     0.050 A 
HETATM    6  C11 UNL     1      15.225   9.203  12.050  1.00  0.00     0.079 A 
HETATM    7  N5  UNL     1      14.259  10.102  12.302  1.00  0.00    -0.189 N 
ATOM      8  H5  UNL     1      13.625   9.935  13.084  1.00  0.00     0.184 HD
ENDROOT
BRANCH   1   9
HETATM    9  N2  UNL     1      13.139  12.042  11.862  1.00  0.00    -0.141 N 
HETATM   10  C7  UNL     1      12.472  11.911  13.111  1.00  0.00     0.336 C 
HETATM   11  N1  UNL     1      13.013  12.495  14.314  1.00  0.00    -0.338 N 
HETATM   12  O1  UNL     1      11.394  11.262  13.108  1.00  0.00    -0.246 OA
HETATM   13  C1  UNL     1      14.245  13.216  14.221  1.00  0.00     0.154 C 
ATOM     14  H2  UNL     1      12.865  12.778  11.211  1.00  0.00     0.189 HD
BRANCH  11  15
HETATM   15  C2  UNL     1      12.301  12.282  15.529  1.00  0.00     0.127 C 
BRANCH  15  16
HETATM   16  C3  UNL     1      13.117  12.142  16.774  1.00  0.00     0.020 C 
BRANCH  16  17
HETATM   17  C4  UNL     1      12.650  11.136  17.774  1.00  0.00     0.002 C 
BRANCH  17  18
HETATM   18  C5  UNL     1      11.332  11.472  18.406  1.00  0.00     0.011 C 
BRANCH  18  19
HETATM   19  C6  UNL     1      11.317  11.172  19.892  1.00  0.00     0.086 C 
HETATM   20  S1  UNL     1      12.188  12.416  20.845  1.00  0.00    -0.098 SA
ENDBRANCH  18  19
ENDBRANCH  17  18
ENDBRANCH  16  17
ENDBRANCH  15  16
ENDBRANCH  11  15
ENDBRANCH   1   9
BRANCH   6  21
HETATM   21  C12 UNL     1      15.333   8.023  12.903  1.00  0.00     0.084 A 
HETATM   22  N4  UNL     1      15.919   6.847  12.512  1.00  0.00    -0.342 N 
HETATM   23  C13 UNL     1      15.875   5.943  13.490  1.00  0.00     0.127 A 
ATOM     24  H4  UNL     1      16.333   6.685  11.594  1.00  0.00     0.167 HD
HETATM   25 CL1  UNL     1      16.517   4.290  13.410  1.00  0.00    -0.063 Cl
HETATM   26  C14 UNL     1      15.257   6.512  14.551  1.00  0.00     0.096 A 
HETATM   27 CL2  UNL     1      14.917   5.812  16.106  1.00  0.00    -0.079 Cl
HETATM   28  C15 UNL     1      14.914   7.819  14.189  1.00  0.00     0.087 A 
HETATM   29 CL3  UNL     1      14.083   8.956  15.256  1.00  0.00    -0.080 Cl
ENDBRANCH   6  21
TORSDOF 7
ENDMDL
MODEL 3
REMARK VINA RESULT: -7.705789715      3.569      6.264
REMARK  7 active torsions:
REMARK  status: ('A' for Active; 'I' for Inactive)
REMARK    1  A    between atoms: N1_2  and  C2_3 
REMARK       I    between atoms: N1_2  and  C7_9 
REMARK    2  A    between atoms: C2_3  and  C3_4 
REMARK    3  A    between atoms: C3_4  and  C4_5 
REMARK    4  A    between atoms: C4_5  and  C5_6 
REMARK    5  A    between atoms: C5_6  and  C6_7 
REMARK       I    between atoms: C7_9  and  N2_11 
REMARK    6  A    between atoms: N2_11  and  C8_13 
REMARK    7  A    between atoms: C11_18  and  C12_19 
ROOT
HETATM    1  C8  UNL     1      15.456  10.994  11.054  1.00  0.00     0.686 A 
HETATM    2  N3  UNL     1      14.589  11.707  10.310  1.00  0.00    -0.202 N 
ATOM      3  H3  UNL     1      14.813  11.967   9.349  1.00  0.00     0.183 HD
HETATM    4  C9  UNL     1      13.437  12.060  10.863  1.00  0.00     0.108 A 
HETATM    5  C10 UNL     1      13.130  11.700  12.186  1.00  0.00     0.050 A 
HETATM    6  C11 UNL     1      14.013  10.978  12.933  1.00  0.00     0.079 A 
HETATM    7  N5  UNL     1      15.167  10.642  12.335  1.00  0.00    -0.189 N 
ATOM      8  H5  UNL     1      15.854  10.101  12.862  1.00  0.00     0.184 HD
ENDROOT
BRANCH   1   9
HETATM    9  N2  UNL     1      16.592  10.630  10.550  1.00  0.00    -0.141 N 
HETATM   10  C7  UNL     1      17.108   9.337  10.835  1.00  0.00     0.336 C 
HETATM   11  N1  UNL     1      16.693   8.182  10.076  1.00  0.00    -0.338 N 
HETATM   12  O1  UNL     1      17.940   9.257  11.775  1.00  0.00    -0.246 OA
HETATM   13  C1  UNL     1      15.744   8.369   9.023  1.00  0.00     0.154 C 
ATOM     14  H2  UNL     1      17.114  11.269   9.952  1.00  0.00     0.189 HD
BRANCH  11  15
HETATM   15  C2  UNL     1      17.232   6.917  10.453  1.00  0.00     0.127 C 
BRANCH  15  16
HETATM   16  C3  UNL     1      16.266   5.782  10.574  1.00  0.00     0.020 C 
BRANCH  16  17
HETATM   17  C4  UNL     1      15.923   5.337  11.958  1.00  0.00     0.002 C 
BRANCH  17  18
HETATM   18  C5  UNL     1      15.306   6.408  12.807  1.00  0.00     0.011 C 
BRANCH  18  19
HETATM   19  C6  UNL     1      14.589   5.838  14.015  1.00  0.00     0.086 C 
HETATM   20  S1  UNL     1      14.930   4.093  14.247  1.00  0.00    -0.098 SA
ENDBRANCH  18  19
ENDBRANCH  17  18
ENDBRANCH  16  17
ENDBRANCH  15  16
ENDBRANCH  11  15
ENDBRANCH   1   9
BRANCH   6  21
HETATM   21  C12 UNL     1      13.782  10.559  14.313  1.00  0.00     0.084 A 
HETATM   22  N4  UNL     1      14.187   9.354  14.824  1.00  0.00    -0.342 N 
HETATM   23  C13 UNL     1      13.844   9.239  16.106  1.00  0.00     0.127 A 
ATOM     24  H4  UNL     1      14.684   8.638  14.293  1.00  0.00     0.167 HD
HETATM   25 CL1  UNL     1      14.172   7.842  17.152  1.00  0.00    -0.063 Cl
HETATM   26  C14 UNL     1      13.204  10.376  16.466  1.00  0.00     0.096 A 
HETATM   27 CL2  UNL     1      12.532  10.794  18.014  1.00  0.00    -0.079 Cl
HETATM   28  C15 UNL     1      13.162  11.210  15.344  1.00  0.00     0.087 A 
HETATM   29 CL3  UNL     1      12.420  12.813  15.329  1.00  0.00    -0.080 Cl
ENDBRANCH   6  21
TORSDOF 7
ENDMDL
MODEL 4
REMARK VINA RESULT: -7.688879653      4.505      6.190
REMARK  7 active torsions:
REMARK  status: ('A' for Active; 'I' for Inactive)
REMARK    1  A    between atoms: N1_2  and  C2_3 
REMARK       I    between atoms: N1_2  and  C7_9 
REMARK    2  A    between atoms: C2_3  and  C3_4 
REMARK    3  A    between atoms: C3_4  and  C4_5 
REMARK    4  A    between atoms: C4_5  and  C5_6 
REMARK    5  A    between atoms: C5_6  and  C6_7 
REMARK       I    between atoms: C7_9  and  N2_11 
REMARK    6  A    between atoms: N2_11  and  C8_13 
REMARK    7  A    between atoms: C11_18  and  C12_19 
ROOT
HETATM    1  C8  UNL     1      17.801   9.000   9.961  1.00  0.00     0.686 A 
HETATM    2  N3  UNL     1      17.453  10.109   9.283  1.00  0.00    -0.202 N 
ATOM      3  H3  UNL     1      17.262  10.984   9.770  1.00  0.00     0.183 HD
HETATM    4  C9  UNL     1      17.365  10.029   7.962  1.00  0.00     0.108 A 
HETATM    5  C10 UNL     1      17.628   8.823   7.291  1.00  0.00     0.050 A 
HETATM    6  C11 UNL     1      17.981   7.704   7.985  1.00  0.00     0.079 A 
HETATM    7  N5  UNL     1      18.058   7.828   9.321  1.00  0.00    -0.189 N 
ATOM      8  H5  UNL     1      18.319   7.012   9.875  1.00  0.00     0.184 HD
ENDROOT
BRANCH   1   9
HETATM    9  N2  UNL     1      17.898   9.036  11.251  1.00  0.00    -0.141 N 
HETATM   10  C7  UNL     1      16.811   9.522  12.028  1.00  0.00     0.336 C 
HETATM   11  N1  UNL     1      15.709   8.664  12.391  1.00  0.00    -0.338 N 
HETATM   12  O1  UNL     1      16.863  10.729  12.378  1.00  0.00    -0.246 OA
HETATM   13  C1  UNL     1      15.735   7.304  11.950  1.00  0.00     0.154 C 
ATOM     14  H2  UNL     1      18.752   8.717  11.709  1.00  0.00     0.189 HD
BRANCH  11  15
HETATM   15  C2  UNL     1      14.642   9.242  13.139  1.00  0.00     0.127 C 
BRANCH  15  16
HETATM   16  C3  UNL     1      14.497   8.800  14.560  1.00  0.00     0.020 C 
BRANCH  16  17
HETATM   17  C4  UNL     1      13.735   9.705  15.471  1.00  0.00     0.002 C 
BRANCH  17  18
HETATM   18  C5  UNL     1      13.251  10.964  14.813  1.00  0.00     0.011 C 
BRANCH  18  19
HETATM   19  C6  UNL     1      12.531  11.876  15.786  1.00  0.00     0.086 C 
HETATM   20  S1  UNL     1      12.397  11.155  17.422  1.00  0.00    -0.098 SA
ENDBRANCH  18  19
ENDBRANCH  17  18
ENDBRANCH  16  17
ENDBRANCH  15  16
ENDBRANCH  11  15
ENDBRANCH   1   9
BRANCH   6  21
HETATM   21  C12 UNL     1      18.273   6.409   7.377  1.00  0.00     0.084 A 
HETATM   22  N4  UNL     1      19.457   6.104   6.758  1.00  0.00    -0.342 N 
HETATM   23  C13 UNL     1      19.447   4.855   6.295  1.00  0.00     0.127 A 
ATOM     24  H4  UNL     1      20.243   6.749   6.663  1.00  0.00     0.167 HD
HETATM   25 CL1  UNL     1      20.773   4.053   5.429  1.00  0.00    -0.063 Cl
HETATM   26  C14 UNL     1      18.248   4.309   6.606  1.00  0.00     0.096 A 
HETATM   27 CL2  UNL     1      17.666   2.708   6.257  1.00  0.00    -0.079 Cl
HETATM   28  C15 UNL     1      17.505   5.280   7.285  1.00  0.00     0.087 A 
HETATM   29 CL3  UNL     1      15.866   5.028   7.893  1.00  0.00    -0.080 Cl
ENDBRANCH   6  21
TORSDOF 7
ENDMDL
MODEL 5
REMARK VINA RESULT: -7.675735830      1.845      2.449
REMARK  7 active torsions:
REMARK  status: ('A' for Active; 'I' for Inactive)
REMARK    1  A    between atoms: N1_2  and  C2_3 
REMARK       I    between atoms: N1_2  and  C7_9 
REMARK    2  A    between atoms: C2_3  and  C3_4 
REMARK    3  A    between atoms: C3_4  and  C4_5 
REMARK    4  A    between atoms: C4_5  and  C5_6 
REMARK    5  A    between atoms: C5_6  and  C6_7 
REMARK       I    between atoms: C7_9  and  N2_11 
REMARK    6  A    between atoms: N2_11  and  C8_13 
REMARK    7  A    between atoms: C11_18  and  C12_19 
ROOT
HETATM    1  C8  UNL     1      15.467  10.857  10.835  1.00  0.00     0.686 A 
HETATM    2  N3  UNL     1      16.613  11.132  10.186  1.00  0.00    -0.202 N 
ATOM      3  H3  UNL     1      16.783  12.055   9.788  1.00  0.00     0.183 HD
HETATM    4  C9  UNL     1      17.515  10.166  10.079  1.00  0.00     0.108 A 
HETATM    5  C10 UNL     1      17.281   8.894  10.628  1.00  0.00     0.050 A 
HETATM    6  C11 UNL     1      16.117   8.623  11.285  1.00  0.00     0.079 A 
HETATM    7  N5  UNL     1      15.231   9.629  11.370  1.00  0.00    -0.189 N 
ATOM      8  H5  UNL     1      14.348   9.465  11.854  1.00  0.00     0.184 HD
ENDROOT
BRANCH   1   9
HETATM    9  N2  UNL     1      14.560  11.773  10.961  1.00  0.00    -0.141 N 
HETATM   10  C7  UNL     1      13.459  11.562  11.835  1.00  0.00     0.336 C 
HETATM   11  N1  UNL     1      13.562  11.832  13.248  1.00  0.00    -0.338 N 
HETATM   12  O1  UNL     1      12.399  11.132  11.311  1.00  0.00    -0.246 OA
HETATM   13  C1  UNL     1      14.808  12.321  13.755  1.00  0.00     0.154 C 
ATOM     14  H2  UNL     1      14.637  12.643  10.435  1.00  0.00     0.189 HD
BRANCH  11  15
HETATM   15  C2  UNL     1      12.422  11.556  14.057  1.00  0.00     0.127 C 
BRANCH  15  16
HETATM   16  C3  UNL     1      12.307  12.315  15.341  1.00  0.00     0.020 C 
BRANCH  16  17
HETATM   17  C4  UNL     1      12.245  11.507  16.595  1.00  0.00     0.002 C 
BRANCH  17  18
HETATM   18  C5  UNL     1      13.529  11.486  17.371  1.00  0.00     0.011 C 
BRANCH  18  19
HETATM   19  C6  UNL     1      13.620  12.632  18.358  1.00  0.00     0.086 C 
HETATM   20  S1  UNL     1      15.314  13.007  18.811  1.00  0.00    -0.098 SA
ENDBRANCH  18  19
ENDBRANCH  17  18
ENDBRANCH  16  17
ENDBRANCH  15  16
ENDBRANCH  11  15
ENDBRANCH   1   9
BRANCH   6  21
HETATM   21  C12 UNL     1      15.786   7.335  11.886  1.00  0.00     0.084 A 
HETATM   22  N4  UNL     1      16.064   6.125  11.306  1.00  0.00    -0.342 N 
HETATM   23  C13 UNL     1      15.650   5.120  12.076  1.00  0.00     0.127 A 
ATOM     24  H4  UNL     1      16.527   6.009  10.404  1.00  0.00     0.167 HD
HETATM   25 CL1  UNL     1      15.810   3.390  11.707  1.00  0.00    -0.063 Cl
HETATM   26  C14 UNL     1      15.090   5.653  13.186  1.00  0.00     0.096 A 
HETATM   27 CL2  UNL     1      14.379   4.826  14.541  1.00  0.00    -0.079 Cl
HETATM   28  C15 UNL     1      15.171   7.044  13.074  1.00  0.00     0.087 A 
HETATM   29 CL3  UNL     1      14.566   8.174  14.290  1.00  0.00    -0.080 Cl
ENDBRANCH   6  21
TORSDOF 7
ENDMDL
