MODEL 1
REMARK VINA RESULT: -9.198550739      0.000      0.000
REMARK  9 active torsions:
REMARK  status: ('A' for Active; 'I' for Inactive)
REMARK    1  A    between atoms: C2_2  and  C3_3 
REMARK    2  A    between atoms: C4_8  and  N3_9 
REMARK    3  A    between atoms: N3_9  and  C5_11 
REMARK    4  A    between atoms: C7_13  and  N4_14 
REMARK    5  A    between atoms: N4_14  and  C8_16 
REMARK    6  A    between atoms: C8_16  and  C9_17 
REMARK    7  A    between atoms: C16_30  and  C17_31 
REMARK    8  A    between atoms: C17_31  and  C18_32 
REMARK    9  A    between atoms: C18_32  and  C19_33 
ROOT
HETATM    1  C5  UNL     1      14.229  10.846  12.817  1.00  0.00     0.111 A 
HETATM    2  C6  UNL     1      14.048  10.915  14.270  1.00  0.00     0.096 A 
HETATM    3  C7  UNL     1      12.954  11.498  14.819  1.00  0.00     0.105 A 
HETATM    4  N5  UNL     1      12.046  12.020  13.939  1.00  0.00    -0.339 N 
ATOM      5  H5  UNL     1      11.212  12.469  14.319  1.00  0.00     0.168 HD
HETATM    6  C15 UNL     1      12.187  11.975  12.602  1.00  0.00     0.183 A 
HETATM    7  N6  UNL     1      13.300  11.376  12.071  1.00  0.00    -0.338 N 
ATOM      8  H6  UNL     1      13.405  11.343  11.058  1.00  0.00     0.168 HD
ENDROOT
BRANCH   1   9
HETATM    9  N3  UNL     1      15.447  10.301  12.469  1.00  0.00    -0.327 N 
ATOM     10  H3  UNL     1      15.804   9.639  13.159  1.00  0.00     0.169 HD
BRANCH   9  11
HETATM   11  C4  UNL     1      16.214  10.451  11.475  1.00  0.00     0.129 A 
HETATM   12  N2  UNL     1      16.324  11.189  10.421  1.00  0.00    -0.285 N 
HETATM   13  N1  UNL     1      17.069  10.740   9.454  1.00  0.00    -0.303 N 
ATOM     14  H2  UNL     1      15.847  12.088  10.350  1.00  0.00     0.188 HD
HETATM   15  C3  UNL     1      17.519   9.507   9.970  1.00  0.00     0.035 A 
ATOM     16  H1  UNL     1      17.276  11.171   8.553  1.00  0.00     0.186 HD
HETATM   17  C16 UNL     1      17.037   9.289  11.166  1.00  0.00     0.011 A 
BRANCH  15  18
HETATM   18  C2  UNL     1      18.261   8.581   9.040  1.00  0.00     0.055 C 
HETATM   19  C1  UNL     1      17.699   8.820   7.604  1.00  0.00     0.011 C 
ENDBRANCH  15  18
BRANCH  17  20
HETATM   20  C17 UNL     1      17.053   8.129  12.147  1.00  0.00     0.045 C 
BRANCH  20  21
HETATM   21  C18 UNL     1      16.069   7.100  11.617  1.00  0.00     0.020 C 
BRANCH  21  22
HETATM   22  C19 UNL     1      15.358   6.272  12.664  1.00  0.00     0.115 C 
HETATM   23 CL2  UNL     1      14.629   7.178  13.964  1.00  0.00    -0.130 Cl
ENDBRANCH  21  22
ENDBRANCH  20  21
ENDBRANCH  17  20
ENDBRANCH   9  11
ENDBRANCH   1   9
BRANCH   3  24
HETATM   24  N4  UNL     1      12.687  11.687  15.999  1.00  0.00    -0.372 N 
ATOM     25  H4  UNL     1      12.632  12.679  16.227  1.00  0.00     0.161 HD
BRANCH  24  26
HETATM   26  C8  UNL     1      12.430  10.843  17.155  1.00  0.00     0.161 C 
BRANCH  26  27
HETATM   27  C9  UNL     1      12.922  11.704  18.275  1.00  0.00    -0.016 A 
HETATM   28  C10 UNL     1      14.169  12.363  18.034  1.00  0.00     0.011 A 
HETATM   29  C11 UNL     1      14.609  13.176  19.110  1.00  0.00     0.004 A 
HETATM   30  C12 UNL     1      14.022  13.377  20.250  1.00  0.00     0.044 A 
HETATM   31  C13 UNL     1      12.720  12.711  20.510  1.00  0.00     0.138 A 
HETATM   32  F1  UNL     1      12.197  12.862  21.696  1.00  0.00    -0.204 F 
HETATM   33  C14 UNL     1      12.310  11.934  19.458  1.00  0.00     0.080 A 
HETATM   34 CL1  UNL     1      10.727  11.126  19.716  1.00  0.00    -0.080 Cl
ENDBRANCH  26  27
ENDBRANCH  24  26
ENDBRANCH   3  24
TORSDOF 9
ENDMDL
MODEL 2
REMARK VINA RESULT: -9.112037378      4.735      9.434
REMARK  9 active torsions:
REMARK  status: ('A' for Active; 'I' for Inactive)
REMARK    1  A    between atoms: C2_2  and  C3_3 
REMARK    2  A    between atoms: C4_8  and  N3_9 
REMARK    3  A    between atoms: N3_9  and  C5_11 
REMARK    4  A    between atoms: C7_13  and  N4_14 
REMARK    5  A    between atoms: N4_14  and  C8_16 
REMARK    6  A    between atoms: C8_16  and  C9_17 
REMARK    7  A    between atoms: C16_30  and  C17_31 
REMARK    8  A    between atoms: C17_31  and  C18_32 
REMARK    9  A    between atoms: C18_32  and  C19_33 
ROOT
HETATM    1  C5  UNL     1      16.756   9.794   9.141  1.00  0.00     0.111 A 
HETATM    2  C6  UNL     1      16.086   8.491   9.114  1.00  0.00     0.096 A 
HETATM    3  C7  UNL     1      16.263   7.628   8.083  1.00  0.00     0.105 A 
HETATM    4  N5  UNL     1      17.089   8.052   7.078  1.00  0.00    -0.339 N 
ATOM      5  H5  UNL     1      17.241   7.429   6.286  1.00  0.00     0.168 HD
HETATM    6  C15 UNL     1      17.713   9.245   7.075  1.00  0.00     0.183 A 
HETATM    7  N6  UNL     1      17.522  10.097   8.132  1.00  0.00    -0.338 N 
ATOM      8  H6  UNL     1      17.996  11.000   8.127  1.00  0.00     0.168 HD
ENDROOT
BRANCH   1   9
HETATM    9  N3  UNL     1      16.369  10.555  10.225  1.00  0.00    -0.327 N 
ATOM     10  H3  UNL     1      17.155  10.955  10.738  1.00  0.00     0.169 HD
BRANCH   9  11
HETATM   11  C4  UNL     1      15.244  10.860  10.715  1.00  0.00     0.129 A 
HETATM   12  N2  UNL     1      14.287  11.708  10.530  1.00  0.00    -0.285 N 
HETATM   13  N1  UNL     1      13.474  11.916  11.523  1.00  0.00    -0.303 N 
ATOM     14  H2  UNL     1      14.174  12.195   9.641  1.00  0.00     0.188 HD
HETATM   15  C3  UNL     1      13.988  11.056  12.516  1.00  0.00     0.035 A 
ATOM     16  H1  UNL     1      12.670  12.541  11.572  1.00  0.00     0.186 HD
HETATM   17  C16 UNL     1      15.039  10.409  12.086  1.00  0.00     0.011 A 
BRANCH  15  18
HETATM   18  C2  UNL     1      13.420  11.166  13.909  1.00  0.00     0.055 C 
HETATM   19  C1  UNL     1      13.543  12.660  14.341  1.00  0.00     0.011 C 
ENDBRANCH  15  18
BRANCH  17  20
HETATM   20  C17 UNL     1      16.066   9.474  12.704  1.00  0.00     0.045 C 
BRANCH  20  21
HETATM   21  C18 UNL     1      15.309   8.233  13.149  1.00  0.00     0.020 C 
BRANCH  21  22
HETATM   22  C19 UNL     1      15.682   6.949  12.445  1.00  0.00     0.115 C 
HETATM   23 CL2  UNL     1      14.913   5.509  13.061  1.00  0.00    -0.130 Cl
ENDBRANCH  21  22
ENDBRANCH  20  21
ENDBRANCH  17  20
ENDBRANCH   9  11
ENDBRANCH   1   9
BRANCH   3  24
HETATM   24  N4  UNL     1      15.735   6.541   7.884  1.00  0.00    -0.372 N 
ATOM     25  H4  UNL     1      14.788   6.498   8.260  1.00  0.00     0.161 HD
BRANCH  24  26
HETATM   26  C8  UNL     1      16.128   5.297   7.242  1.00  0.00     0.161 C 
BRANCH  26  27
HETATM   27  C9  UNL     1      16.795   4.573   8.368  1.00  0.00    -0.016 A 
HETATM   28  C10 UNL     1      15.964   4.315   9.505  1.00  0.00     0.011 A 
HETATM   29  C11 UNL     1      16.620   3.624  10.555  1.00  0.00     0.004 A 
HETATM   30  C12 UNL     1      17.852   3.217  10.595  1.00  0.00     0.044 A 
HETATM   31  C13 UNL     1      18.725   3.465   9.419  1.00  0.00     0.138 A 
HETATM   32  F1  UNL     1      19.979   3.122   9.522  1.00  0.00    -0.204 F 
HETATM   33  C14 UNL     1      18.071   4.129   8.413  1.00  0.00     0.080 A 
HETATM   34 CL1  UNL     1      19.080   4.431   6.958  1.00  0.00    -0.080 Cl
ENDBRANCH  26  27
ENDBRANCH  24  26
ENDBRANCH   3  24
TORSDOF 9
ENDMDL
MODEL 3
REMARK VINA RESULT: -9.079012128      1.201      1.629
REMARK  9 active torsions:
REMARK  status: ('A' for Active; 'I' for Inactive)
REMARK    1  A    between atoms: C2_2  and  C3_3 
REMARK    2  A    between atoms: C4_8  and  N3_9 
REMARK    3  A    between atoms: N3_9  and  C5_11 
REMARK    4  A    between atoms: C7_13  and  N4_14 
REMARK    5  A    between atoms: N4_14  and  C8_16 
REMARK    6  A    between atoms: C8_16  and  C9_17 
REMARK    7  A    between atoms: C16_30  and  C17_31 
REMARK    8  A    between atoms: C17_31  and  C18_32 
REMARK    9  A    between atoms: C18_32  and  C19_33 
ROOT
HETATM    1  C5  UNL     1      14.048  10.693  12.357  1.00  0.00     0.111 A 
HETATM    2  C6  UNL     1      14.023  10.735  13.822  1.00  0.00     0.096 A 
HETATM    3  C7  UNL     1      13.141  11.518  14.491  1.00  0.00     0.105 A 
HETATM    4  N5  UNL     1      12.294  12.264  13.719  1.00  0.00    -0.339 N 
ATOM      5  H5  UNL     1      11.620  12.868  14.190  1.00  0.00     0.168 HD
HETATM    6  C15 UNL     1      12.297  12.249  12.373  1.00  0.00     0.183 A 
HETATM    7  N6  UNL     1      13.195  11.445  11.720  1.00  0.00    -0.338 N 
ATOM      8  H6  UNL     1      13.196  11.434  10.701  1.00  0.00     0.168 HD
ENDROOT
BRANCH   1   9
HETATM    9  N3  UNL     1      15.077   9.911  11.877  1.00  0.00    -0.327 N 
ATOM     10  H3  UNL     1      15.009   8.934  12.163  1.00  0.00     0.169 HD
BRANCH   9  11
HETATM   11  C4  UNL     1      16.088  10.152  11.156  1.00  0.00     0.129 A 
HETATM   12  N2  UNL     1      16.613  11.127  10.492  1.00  0.00    -0.285 N 
HETATM   13  N1  UNL     1      17.475  10.824   9.568  1.00  0.00    -0.303 N 
ATOM     14  H2  UNL     1      16.360  12.097  10.685  1.00  0.00     0.188 HD
HETATM   15  C3  UNL     1      17.521   9.417   9.650  1.00  0.00     0.035 A 
ATOM     16  H1  UNL     1      17.989  11.445   8.943  1.00  0.00     0.186 HD
HETATM   17  C16 UNL     1      16.713   8.970  10.576  1.00  0.00     0.011 A 
BRANCH  15  18
HETATM   18  C2  UNL     1      18.276   8.670   8.580  1.00  0.00     0.055 C 
HETATM   19  C1  UNL     1      17.609   9.020   7.214  1.00  0.00     0.011 C 
ENDBRANCH  15  18
BRANCH  17  20
HETATM   20  C17 UNL     1      16.243   7.600  11.037  1.00  0.00     0.045 C 
BRANCH  20  21
HETATM   21  C18 UNL     1      17.212   7.152  12.120  1.00  0.00     0.020 C 
BRANCH  21  22
HETATM   22  C19 UNL     1      16.640   7.064  13.517  1.00  0.00     0.115 C 
HETATM   23 CL2  UNL     1      14.905   6.903  13.604  1.00  0.00    -0.130 Cl
ENDBRANCH  21  22
ENDBRANCH  20  21
ENDBRANCH  17  20
ENDBRANCH   9  11
ENDBRANCH   1   9
BRANCH   3  24
HETATM   24  N4  UNL     1      13.034  11.708  15.696  1.00  0.00    -0.372 N 
ATOM     25  H4  UNL     1      12.291  11.146  16.110  1.00  0.00     0.161 HD
BRANCH  24  26
HETATM   26  C8  UNL     1      13.706  12.541  16.680  1.00  0.00     0.161 C 
BRANCH  26  27
HETATM   27  C9  UNL     1      12.930  12.230  17.921  1.00  0.00    -0.016 A 
HETATM   28  C10 UNL     1      11.702  11.525  17.710  1.00  0.00     0.011 A 
HETATM   29  C11 UNL     1      10.989  11.240  18.903  1.00  0.00     0.004 A 
HETATM   30  C12 UNL     1      11.318  11.543  20.121  1.00  0.00     0.044 A 
HETATM   31  C13 UNL     1      12.596  12.263  20.358  1.00  0.00     0.138 A 
HETATM   32  F1  UNL     1      12.859  12.629  21.582  1.00  0.00    -0.204 F 
HETATM   33  C14 UNL     1      13.272  12.525  19.194  1.00  0.00     0.080 A 
HETATM   34 CL1  UNL     1      14.837  13.374  19.432  1.00  0.00    -0.080 Cl
ENDBRANCH  26  27
ENDBRANCH  24  26
ENDBRANCH   3  24
TORSDOF 9
ENDMDL
MODEL 4
REMARK VINA RESULT: -9.056921885      3.695      5.945
REMARK  9 active torsions:
REMARK  status: ('A' for Active; 'I' for Inactive)
REMARK    1  A    between atoms: C2_2  and  C3_3 
REMARK    2  A    between atoms: C4_8  and  N3_9 
REMARK    3  A    between atoms: N3_9  and  C5_11 
REMARK    4  A    between atoms: C7_13  and  N4_14 
REMARK    5  A    between atoms: N4_14  and  C8_16 
REMARK    6  A    between atoms: C8_16  and  C9_17 
REMARK    7  A    between atoms: C16_30  and  C17_31 
REMARK    8  A    between atoms: C17_31  and  C18_32 
REMARK    9  A    between atoms: C18_32  and  C19_33 
ROOT
HETATM    1  C5  UNL     1      16.701   8.344   7.955  1.00  0.00     0.111 A 
HETATM    2  C6  UNL     1      15.806   8.409   9.114  1.00  0.00     0.096 A 
HETATM    3  C7  UNL     1      15.733   9.520   9.889  1.00  0.00     0.105 A 
HETATM    4  N5  UNL     1      16.547  10.559   9.528  1.00  0.00    -0.339 N 
ATOM      5  H5  UNL     1      16.519  11.409  10.091  1.00  0.00     0.168 HD
HETATM    6  C15 UNL     1      17.381  10.526   8.472  1.00  0.00     0.183 A 
HETATM    7  N6  UNL     1      17.432   9.393   7.702  1.00  0.00    -0.338 N 
ATOM      8  H6  UNL     1      18.065   9.370   6.902  1.00  0.00     0.168 HD
ENDROOT
BRANCH   1   9
HETATM    9  N3  UNL     1      16.695   7.099   7.362  1.00  0.00    -0.327 N 
ATOM     10  H3  UNL     1      15.799   6.859   6.937  1.00  0.00     0.169 HD
BRANCH   9  11
HETATM   11  C4  UNL     1      17.568   6.192   7.236  1.00  0.00     0.129 A 
HETATM   12  N2  UNL     1      18.673   5.972   6.606  1.00  0.00    -0.285 N 
HETATM   13  N1  UNL     1      19.046   4.734   6.470  1.00  0.00    -0.303 N 
ATOM     14  H2  UNL     1      19.232   6.739   6.229  1.00  0.00     0.188 HD
HETATM   15  C3  UNL     1      18.011   4.036   7.126  1.00  0.00     0.035 A 
ATOM     16  H1  UNL     1      19.876   4.363   6.008  1.00  0.00     0.186 HD
HETATM   17  C16 UNL     1      17.109   4.857   7.596  1.00  0.00     0.011 A 
BRANCH  15  18
HETATM   18  C2  UNL     1      17.985   2.533   7.005  1.00  0.00     0.055 C 
HETATM   19  C1  UNL     1      18.094   2.190   5.486  1.00  0.00     0.011 C 
ENDBRANCH  15  18
BRANCH  17  20
HETATM   20  C17 UNL     1      15.749   4.711   8.260  1.00  0.00     0.045 C 
BRANCH  20  21
HETATM   21  C18 UNL     1      16.008   4.191   9.665  1.00  0.00     0.020 C 
BRANCH  21  22
HETATM   22  C19 UNL     1      16.603   5.187  10.634  1.00  0.00     0.115 C 
HETATM   23 CL2  UNL     1      15.589   5.607  11.990  1.00  0.00    -0.130 Cl
ENDBRANCH  21  22
ENDBRANCH  20  21
ENDBRANCH  17  20
ENDBRANCH   9  11
ENDBRANCH   1   9
BRANCH   3  24
HETATM   24  N4  UNL     1      15.090   9.709  10.912  1.00  0.00    -0.372 N 
ATOM     25  H4  UNL     1      14.773   8.837  11.335  1.00  0.00     0.161 HD
BRANCH  24  26
HETATM   26  C8  UNL     1      14.665  10.873  11.673  1.00  0.00     0.161 C 
BRANCH  26  27
HETATM   27  C9  UNL     1      14.394  10.274  13.017  1.00  0.00    -0.016 A 
HETATM   28  C10 UNL     1      14.942   8.968  13.224  1.00  0.00     0.011 A 
HETATM   29  C11 UNL     1      14.672   8.427  14.507  1.00  0.00     0.004 A 
HETATM   30  C12 UNL     1      14.004   8.969  15.478  1.00  0.00     0.044 A 
HETATM   31  C13 UNL     1      13.440  10.330  15.285  1.00  0.00     0.138 A 
HETATM   32  F1  UNL     1      12.700  10.814  16.244  1.00  0.00    -0.204 F 
HETATM   33  C14 UNL     1      13.714  10.838  14.041  1.00  0.00     0.080 A 
HETATM   34 CL1  UNL     1      13.072  12.492  13.767  1.00  0.00    -0.080 Cl
ENDBRANCH  26  27
ENDBRANCH  24  26
ENDBRANCH   3  24
TORSDOF 9
ENDMDL
MODEL 5
REMARK VINA RESULT: -8.969558322      4.842      9.858
REMARK  9 active torsions:
REMARK  status: ('A' for Active; 'I' for Inactive)
REMARK    1  A    between atoms: C2_2  and  C3_3 
REMARK    2  A    between atoms: C4_8  and  N3_9 
REMARK    3  A    between atoms: N3_9  and  C5_11 
REMARK    4  A    between atoms: C7_13  and  N4_14 
REMARK    5  A    between atoms: N4_14  and  C8_16 
REMARK    6  A    between atoms: C8_16  and  C9_17 
REMARK    7  A    between atoms: C16_30  and  C17_31 
REMARK    8  A    between atoms: C17_31  and  C18_32 
REMARK    9  A    between atoms: C18_32  and  C19_33 
ROOT
HETATM    1  C5  UNL     1      16.714  10.007   9.234  1.00  0.00     0.111 A 
HETATM    2  C6  UNL     1      16.076   8.693   9.116  1.00  0.00     0.096 A 
HETATM    3  C7  UNL     1      16.294   7.895   8.041  1.00  0.00     0.105 A 
HETATM    4  N5  UNL     1      17.131   8.395   7.082  1.00  0.00    -0.339 N 
ATOM      5  H5  UNL     1      17.314   7.823   6.258  1.00  0.00     0.168 HD
HETATM    6  C15 UNL     1      17.728   9.599   7.161  1.00  0.00     0.183 A 
HETATM    7  N6  UNL     1      17.495  10.384   8.261  1.00  0.00    -0.338 N 
ATOM      8  H6  UNL     1      17.948  11.296   8.320  1.00  0.00     0.168 HD
ENDROOT
BRANCH   1   9
HETATM    9  N3  UNL     1      16.288  10.694  10.351  1.00  0.00    -0.327 N 
ATOM     10  H3  UNL     1      17.054  11.062  10.916  1.00  0.00     0.169 HD
BRANCH   9  11
HETATM   11  C4  UNL     1      15.145  10.963  10.822  1.00  0.00     0.129 A 
HETATM   12  N2  UNL     1      14.174  11.793  10.632  1.00  0.00    -0.285 N 
HETATM   13  N1  UNL     1      13.335  11.962  11.610  1.00  0.00    -0.303 N 
ATOM     14  H2  UNL     1      14.070  12.296   9.750  1.00  0.00     0.188 HD
HETATM   15  C3  UNL     1      13.845  11.094  12.597  1.00  0.00     0.035 A 
ATOM     16  H1  UNL     1      12.515  12.569  11.653  1.00  0.00     0.186 HD
HETATM   17  C16 UNL     1      14.920  10.480  12.178  1.00  0.00     0.011 A 
BRANCH  15  18
HETATM   18  C2  UNL     1      13.243  11.162  13.978  1.00  0.00     0.055 C 
HETATM   19  C1  UNL     1      13.450  12.618  14.501  1.00  0.00     0.011 C 
ENDBRANCH  15  18
BRANCH  17  20
HETATM   20  C17 UNL     1      15.954   9.555  12.800  1.00  0.00     0.045 C 
BRANCH  20  21
HETATM   21  C18 UNL     1      15.311   8.180  12.882  1.00  0.00     0.020 C 
BRANCH  21  22
HETATM   22  C19 UNL     1      16.142   7.034  12.353  1.00  0.00     0.115 C 
HETATM   23 CL2  UNL     1      15.358   5.476  12.361  1.00  0.00    -0.130 Cl
ENDBRANCH  21  22
ENDBRANCH  20  21
ENDBRANCH  17  20
ENDBRANCH   9  11
ENDBRANCH   1   9
BRANCH   3  24
HETATM   24  N4  UNL     1      15.796   6.811   7.768  1.00  0.00    -0.372 N 
ATOM     25  H4  UNL     1      15.188   6.861   6.951  1.00  0.00     0.161 HD
BRANCH  24  26
HETATM   26  C8  UNL     1      15.859   5.469   8.324  1.00  0.00     0.161 C 
BRANCH  26  27
HETATM   27  C9  UNL     1      17.102   4.935   7.686  1.00  0.00    -0.016 A 
HETATM   28  C10 UNL     1      16.940   4.444   6.351  1.00  0.00     0.011 A 
HETATM   29  C11 UNL     1      18.135   3.949   5.770  1.00  0.00     0.004 A 
HETATM   30  C12 UNL     1      19.318   3.892   6.302  1.00  0.00     0.044 A 
HETATM   31  C13 UNL     1      19.506   4.409   7.682  1.00  0.00     0.138 A 
HETATM   32  F1  UNL     1      20.684   4.259   8.222  1.00  0.00    -0.204 F 
HETATM   33  C14 UNL     1      18.341   4.887   8.225  1.00  0.00     0.080 A 
HETATM   34 CL1  UNL     1      18.523   5.545   9.885  1.00  0.00    -0.080 Cl
ENDBRANCH  26  27
ENDBRANCH  24  26
ENDBRANCH   3  24
TORSDOF 9
ENDMDL
