MODEL 1
REMARK VINA RESULT: -7.313442255      0.000      0.000
REMARK  5 active torsions:
REMARK  status: ('A' for Active; 'I' for Inactive)
REMARK    1  A    between atoms: C2_2  and  O1_4 
REMARK    2  A    between atoms: O1_4  and  C4_5 
REMARK    3  A    between atoms: C7_8  and  N1_9 
REMARK    4  A    between atoms: N1_9  and  C8_11 
REMARK    5  A    between atoms: C14_28  and  N6_29 
ROOT
HETATM    1  C8  UNL     1      -4.398   5.429  12.815  1.00  0.00     0.120 A 
HETATM    2  N2  UNL     1      -3.646   5.424  11.699  1.00  0.00    -0.318 N 
ATOM      3  H2  UNL     1      -3.573   6.289  11.164  1.00  0.00     0.170 HD
HETATM    4  C9  UNL     1      -2.985   4.341  11.249  1.00  0.00     0.182 A 
HETATM    5 CL1  UNL     1      -2.016   4.438   9.764  1.00  0.00    -0.045 Cl
HETATM    6  N3  UNL     1      -3.072   3.207  11.936  1.00  0.00    -0.318 N 
ATOM      7  H3  UNL     1      -2.574   2.383  11.599  1.00  0.00     0.170 HD
HETATM    8  C10 UNL     1      -3.808   3.114  13.076  1.00  0.00     0.125 A 
HETATM    9  N4  UNL     1      -3.840   1.917  13.710  1.00  0.00    -0.326 N 
ATOM     10  H4  UNL     1      -3.319   1.131  13.322  1.00  0.00     0.169 HD
HETATM   11  C11 UNL     1      -4.556   1.744  14.859  1.00  0.00     0.130 A 
HETATM   12  N5  UNL     1      -4.656   0.632  15.555  1.00  0.00    -0.302 N 
ATOM     13  H5  UNL     1      -4.174  -0.215  15.257  1.00  0.00     0.171 HD
HETATM   14  C12 UNL     1      -5.402   0.642  16.657  1.00  0.00     0.290 A 
HETATM   15  O2  UNL     1      -5.613  -0.341  17.454  1.00  0.00    -0.260 OA
HETATM   16  S1  UNL     1      -5.980   2.244  16.728  1.00  0.00    -0.023 SA
HETATM   17  C13 UNL     1      -5.227   2.840  15.317  1.00  0.00     0.081 A 
HETATM   18  C14 UNL     1      -5.200   4.083  14.666  1.00  0.00     0.065 A 
HETATM   19  C15 UNL     1      -4.461   4.216  13.503  1.00  0.00     0.080 A 
ENDROOT
BRANCH   1  20
HETATM   20  N1  UNL     1      -5.027   6.412  13.266  1.00  0.00    -0.368 N 
ATOM     21  H1  UNL     1      -5.891   6.047  13.667  1.00  0.00     0.161 HD
BRANCH  20  22
HETATM   22  C7  UNL     1      -5.052   7.762  13.450  1.00  0.00     0.112 C 
HETATM   23  C4  UNL     1      -3.847   8.522  13.963  1.00  0.00     0.144 C 
HETATM   24  C5  UNL     1      -4.858   9.601  14.387  1.00  0.00     0.036 C 
HETATM   25  C6  UNL     1      -5.839   8.423  14.555  1.00  0.00     0.030 C 
BRANCH  23  26
HETATM   26  O1  UNL     1      -3.193   8.038  15.055  1.00  0.00    -0.379 OA
BRANCH  26  27
HETATM   27  C2  UNL     1      -1.816   8.041  14.857  1.00  0.00     0.114 C 
HETATM   28  C1  UNL     1      -1.136   9.177  15.592  1.00  0.00     0.039 C 
HETATM   29  C3  UNL     1      -1.585   8.245  13.357  1.00  0.00     0.039 C 
ENDBRANCH  26  27
ENDBRANCH  23  26
ENDBRANCH  20  22
ENDBRANCH   1  20
BRANCH  18  30
HETATM   30  N6  UNL     1      -5.840   5.057  15.137  1.00  0.00    -0.397 N 
ATOM     31  H62 UNL     1      -6.700   4.911  15.666  1.00  0.00     0.156 HD
ATOM     32  H61 UNL     1      -5.501   6.009  14.997  1.00  0.00     0.156 HD
ENDBRANCH  18  30
TORSDOF 5
ENDMDL
MODEL 2
REMARK VINA RESULT: -7.161355263      1.730      2.634
REMARK  5 active torsions:
REMARK  status: ('A' for Active; 'I' for Inactive)
REMARK    1  A    between atoms: C2_2  and  O1_4 
REMARK    2  A    between atoms: O1_4  and  C4_5 
REMARK    3  A    between atoms: C7_8  and  N1_9 
REMARK    4  A    between atoms: N1_9  and  C8_11 
REMARK    5  A    between atoms: C14_28  and  N6_29 
ROOT
HETATM    1  C8  UNL     1      -4.421   5.429  12.872  1.00  0.00     0.120 A 
HETATM    2  N2  UNL     1      -3.614   5.436  11.794  1.00  0.00    -0.318 N 
ATOM      3  H2  UNL     1      -3.542   6.297  11.253  1.00  0.00     0.170 HD
HETATM    4  C9  UNL     1      -2.898   4.371  11.392  1.00  0.00     0.182 A 
HETATM    5 CL1  UNL     1      -1.860   4.482   9.955  1.00  0.00    -0.045 Cl
HETATM    6  N3  UNL     1      -2.983   3.241  12.088  1.00  0.00    -0.318 N 
ATOM      7  H3  UNL     1      -2.444   2.430  11.786  1.00  0.00     0.170 HD
HETATM    8  C10 UNL     1      -3.772   3.138  13.191  1.00  0.00     0.125 A 
HETATM    9  N4  UNL     1      -3.797   1.948  13.838  1.00  0.00    -0.326 N 
ATOM     10  H4  UNL     1      -3.233   1.175  13.486  1.00  0.00     0.169 HD
HETATM   11  C11 UNL     1      -4.564   1.765  14.953  1.00  0.00     0.130 A 
HETATM   12  N5  UNL     1      -4.662   0.658  15.656  1.00  0.00    -0.302 N 
ATOM     13  H5  UNL     1      -4.140  -0.177  15.393  1.00  0.00     0.171 HD
HETATM   14  C12 UNL     1      -5.462   0.656  16.720  1.00  0.00     0.290 A 
HETATM   15  O2  UNL     1      -5.682  -0.325  17.518  1.00  0.00    -0.260 OA
HETATM   16  S1  UNL     1      -6.094   2.240  16.743  1.00  0.00    -0.023 SA
HETATM   17  C13 UNL     1      -5.291   2.843  15.363  1.00  0.00     0.081 A 
HETATM   18  C14 UNL     1      -5.270   4.079  14.698  1.00  0.00     0.065 A 
HETATM   19  C15 UNL     1      -4.479   4.223  13.571  1.00  0.00     0.080 A 
ENDROOT
BRANCH   1  20
HETATM   20  N1  UNL     1      -5.102   6.397  13.278  1.00  0.00    -0.368 N 
ATOM     21  H1  UNL     1      -5.750   6.026  13.973  1.00  0.00     0.161 HD
BRANCH  20  22
HETATM   22  C7  UNL     1      -5.349   7.734  13.190  1.00  0.00     0.112 C 
HETATM   23  C4  UNL     1      -5.558   8.423  11.858  1.00  0.00     0.144 C 
HETATM   24  C5  UNL     1      -5.161   9.711  12.597  1.00  0.00     0.036 C 
HETATM   25  C6  UNL     1      -4.300   8.781  13.476  1.00  0.00     0.030 C 
BRANCH  23  26
HETATM   26  O1  UNL     1      -4.677   8.169  10.851  1.00  0.00    -0.379 OA
BRANCH  26  27
HETATM   27  C2  UNL     1      -5.326   8.089   9.624  1.00  0.00     0.114 C 
HETATM   28  C1  UNL     1      -6.745   7.575   9.761  1.00  0.00     0.039 C 
HETATM   29  C3  UNL     1      -4.542   7.088   8.771  1.00  0.00     0.039 C 
ENDBRANCH  26  27
ENDBRANCH  23  26
ENDBRANCH  20  22
ENDBRANCH   1  20
BRANCH  18  30
HETATM   30  N6  UNL     1      -5.963   5.037  15.125  1.00  0.00    -0.397 N 
ATOM     31  H62 UNL     1      -6.940   4.901  15.385  1.00  0.00     0.156 HD
ATOM     32  H61 UNL     1      -5.552   5.966  15.217  1.00  0.00     0.156 HD
ENDBRANCH  18  30
TORSDOF 5
ENDMDL
MODEL 3
REMARK VINA RESULT: -6.880814008      2.879      5.019
REMARK  5 active torsions:
REMARK  status: ('A' for Active; 'I' for Inactive)
REMARK    1  A    between atoms: C2_2  and  O1_4 
REMARK    2  A    between atoms: O1_4  and  C4_5 
REMARK    3  A    between atoms: C7_8  and  N1_9 
REMARK    4  A    between atoms: N1_9  and  C8_11 
REMARK    5  A    between atoms: C14_28  and  N6_29 
ROOT
HETATM    1  C8  UNL     1      -4.298   5.290  13.207  1.00  0.00     0.120 A 
HETATM    2  N2  UNL     1      -4.826   6.525  13.293  1.00  0.00    -0.318 N 
ATOM      3  H2  UNL     1      -4.540   7.220  12.604  1.00  0.00     0.170 HD
HETATM    4  C9  UNL     1      -5.711   6.894  14.238  1.00  0.00     0.182 A 
HETATM    5 CL1  UNL     1      -6.352   8.550  14.265  1.00  0.00    -0.045 Cl
HETATM    6  N3  UNL     1      -6.092   5.999  15.143  1.00  0.00    -0.318 N 
ATOM      7  H3  UNL     1      -6.761   6.273  15.862  1.00  0.00     0.170 HD
HETATM    8  C10 UNL     1      -5.613   4.725  15.137  1.00  0.00     0.125 A 
HETATM    9  N4  UNL     1      -6.057   3.881  16.099  1.00  0.00    -0.326 N 
ATOM     10  H4  UNL     1      -6.728   4.217  16.789  1.00  0.00     0.169 HD
HETATM   11  C11 UNL     1      -5.623   2.588  16.160  1.00  0.00     0.130 A 
HETATM   12  N5  UNL     1      -5.987   1.686  17.045  1.00  0.00    -0.302 N 
ATOM     13  H5  UNL     1      -6.655   1.915  17.780  1.00  0.00     0.171 HD
HETATM   14  C12 UNL     1      -5.460   0.467  16.956  1.00  0.00     0.290 A 
HETATM   15  O2  UNL     1      -5.695  -0.533  17.726  1.00  0.00    -0.260 OA
HETATM   16  S1  UNL     1      -4.431   0.578  15.601  1.00  0.00    -0.023 SA
HETATM   17  C13 UNL     1      -4.726   2.212  15.204  1.00  0.00     0.081 A 
HETATM   18  C14 UNL     1      -4.261   3.081  14.205  1.00  0.00     0.065 A 
HETATM   19  C15 UNL     1      -4.727   4.384  14.178  1.00  0.00     0.080 A 
ENDROOT
BRANCH   1  20
HETATM   20  N1  UNL     1      -3.474   4.909  12.346  1.00  0.00    -0.368 N 
ATOM     21  H1  UNL     1      -2.762   4.374  12.841  1.00  0.00     0.161 HD
BRANCH  20  22
HETATM   22  C7  UNL     1      -3.122   4.902  11.030  1.00  0.00     0.112 C 
HETATM   23  C4  UNL     1      -3.468   3.747  10.114  1.00  0.00     0.144 C 
HETATM   24  C5  UNL     1      -2.311   4.251   9.237  1.00  0.00     0.036 C 
HETATM   25  C6  UNL     1      -1.696   4.739  10.564  1.00  0.00     0.030 C 
BRANCH  23  26
HETATM   26  O1  UNL     1      -3.213   2.480  10.544  1.00  0.00    -0.379 OA
BRANCH  26  27
HETATM   27  C2  UNL     1      -4.224   1.607  10.159  1.00  0.00     0.114 C 
HETATM   28  C1  UNL     1      -5.586   2.058  10.648  1.00  0.00     0.039 C 
HETATM   29  C3  UNL     1      -3.914   0.255  10.809  1.00  0.00     0.039 C 
ENDBRANCH  26  27
ENDBRANCH  23  26
ENDBRANCH  20  22
ENDBRANCH   1  20
BRANCH  18  30
HETATM   30  N6  UNL     1      -3.433   2.675  13.350  1.00  0.00    -0.397 N 
ATOM     31  H62 UNL     1      -2.608   2.145  13.631  1.00  0.00     0.156 HD
ATOM     32  H61 UNL     1      -3.581   2.871  12.360  1.00  0.00     0.156 HD
ENDBRANCH  18  30
TORSDOF 5
ENDMDL
MODEL 4
REMARK VINA RESULT: -6.797863777      1.240      1.401
REMARK  5 active torsions:
REMARK  status: ('A' for Active; 'I' for Inactive)
REMARK    1  A    between atoms: C2_2  and  O1_4 
REMARK    2  A    between atoms: O1_4  and  C4_5 
REMARK    3  A    between atoms: C7_8  and  N1_9 
REMARK    4  A    between atoms: N1_9  and  C8_11 
REMARK    5  A    between atoms: C14_28  and  N6_29 
ROOT
HETATM    1  C8  UNL     1      -4.092   5.905  11.658  1.00  0.00     0.120 A 
HETATM    2  N2  UNL     1      -3.693   5.962  10.374  1.00  0.00    -0.318 N 
ATOM      3  H2  UNL     1      -3.683   6.872   9.913  1.00  0.00     0.170 HD
HETATM    4  C9  UNL     1      -3.306   4.886   9.664  1.00  0.00     0.182 A 
HETATM    5 CL1  UNL     1      -2.796   5.066   7.973  1.00  0.00    -0.045 Cl
HETATM    6  N3  UNL     1      -3.316   3.694  10.252  1.00  0.00    -0.318 N 
ATOM      7  H3  UNL     1      -3.026   2.875   9.718  1.00  0.00     0.170 HD
HETATM    8  C10 UNL     1      -3.703   3.536  11.546  1.00  0.00     0.125 A 
HETATM    9  N4  UNL     1      -3.681   2.284  12.063  1.00  0.00    -0.326 N 
ATOM     10  H4  UNL     1      -3.380   1.506  11.476  1.00  0.00     0.169 HD
HETATM   11  C11 UNL     1      -4.055   2.044  13.353  1.00  0.00     0.130 A 
HETATM   12  N5  UNL     1      -4.072   0.875  13.955  1.00  0.00    -0.302 N 
ATOM     13  H5  UNL     1      -3.788   0.029  13.461  1.00  0.00     0.171 HD
HETATM   14  C12 UNL     1      -4.468   0.824  15.224  1.00  0.00     0.290 A 
HETATM   15  O2  UNL     1      -4.548  -0.220  15.966  1.00  0.00    -0.260 OA
HETATM   16  S1  UNL     1      -4.827   2.450  15.592  1.00  0.00    -0.023 SA
HETATM   17  C13 UNL     1      -4.447   3.133  14.075  1.00  0.00     0.081 A 
HETATM   18  C14 UNL     1      -4.473   4.433  13.547  1.00  0.00     0.065 A 
HETATM   19  C15 UNL     1      -4.086   4.633  12.233  1.00  0.00     0.080 A 
ENDROOT
BRANCH   1  20
HETATM   20  N1  UNL     1      -4.458   6.880  12.352  1.00  0.00    -0.368 N 
ATOM     21  H1  UNL     1      -5.147   6.525  13.013  1.00  0.00     0.161 HD
BRANCH  20  22
HETATM   22  C7  UNL     1      -4.329   8.213  12.601  1.00  0.00     0.112 C 
HETATM   23  C4  UNL     1      -3.234   8.759  13.493  1.00  0.00     0.144 C 
HETATM   24  C5  UNL     1      -4.146   9.985  13.661  1.00  0.00     0.036 C 
HETATM   25  C6  UNL     1      -5.302   8.984  13.459  1.00  0.00     0.030 C 
BRANCH  23  26
HETATM   26  O1  UNL     1      -3.023   8.162  14.699  1.00  0.00    -0.379 OA
BRANCH  26  27
HETATM   27  C2  UNL     1      -1.664   8.032  14.963  1.00  0.00     0.114 C 
HETATM   28  C1  UNL     1      -1.122   9.204  15.757  1.00  0.00     0.039 C 
HETATM   29  C3  UNL     1      -0.949   8.009  13.610  1.00  0.00     0.039 C 
ENDBRANCH  26  27
ENDBRANCH  23  26
ENDBRANCH  20  22
ENDBRANCH   1  20
BRANCH  18  30
HETATM   30  N6  UNL     1      -4.844   5.398  14.263  1.00  0.00    -0.397 N 
ATOM     31  H62 UNL     1      -4.485   6.339  14.100  1.00  0.00     0.156 HD
ATOM     32  H61 UNL     1      -5.514   5.248  15.017  1.00  0.00     0.156 HD
ENDBRANCH  18  30
TORSDOF 5
ENDMDL
MODEL 5
REMARK VINA RESULT: -6.775846873      2.708      4.337
REMARK  5 active torsions:
REMARK  status: ('A' for Active; 'I' for Inactive)
REMARK    1  A    between atoms: C2_2  and  O1_4 
REMARK    2  A    between atoms: O1_4  and  C4_5 
REMARK    3  A    between atoms: C7_8  and  N1_9 
REMARK    4  A    between atoms: N1_9  and  C8_11 
REMARK    5  A    between atoms: C14_28  and  N6_29 
ROOT
HETATM    1  C8  UNL     1      -4.223   5.381  13.108  1.00  0.00     0.120 A 
HETATM    2  N2  UNL     1      -4.731   6.623  13.216  1.00  0.00    -0.318 N 
ATOM      3  H2  UNL     1      -4.438   7.323  12.536  1.00  0.00     0.170 HD
HETATM    4  C9  UNL     1      -5.603   6.992  14.173  1.00  0.00     0.182 A 
HETATM    5 CL1  UNL     1      -6.216   8.657  14.229  1.00  0.00    -0.045 Cl
HETATM    6  N3  UNL     1      -5.992   6.089  15.067  1.00  0.00    -0.318 N 
ATOM      7  H3  UNL     1      -6.652   6.363  15.795  1.00  0.00     0.170 HD
HETATM    8  C10 UNL     1      -5.534   4.808  15.039  1.00  0.00     0.125 A 
HETATM    9  N4  UNL     1      -5.985   3.956  15.991  1.00  0.00    -0.326 N 
ATOM     10  H4  UNL     1      -6.646   4.293  16.691  1.00  0.00     0.169 HD
HETATM   11  C11 UNL     1      -5.572   2.656  16.029  1.00  0.00     0.130 A 
HETATM   12  N5  UNL     1      -5.944   1.747  16.904  1.00  0.00    -0.302 N 
ATOM     13  H5  UNL     1      -6.604   1.975  17.647  1.00  0.00     0.171 HD
HETATM   14  C12 UNL     1      -5.439   0.521  16.792  1.00  0.00     0.290 A 
HETATM   15  O2  UNL     1      -5.685  -0.487  17.549  1.00  0.00    -0.260 OA
HETATM   16  S1  UNL     1      -4.417   0.636  15.433  1.00  0.00    -0.023 SA
HETATM   17  C13 UNL     1      -4.688   2.280  15.062  1.00  0.00     0.081 A 
HETATM   18  C14 UNL     1      -4.216   3.156  14.072  1.00  0.00     0.065 A 
HETATM   19  C15 UNL     1      -4.660   4.467  14.069  1.00  0.00     0.080 A 
ENDROOT
BRANCH   1  20
HETATM   20  N1  UNL     1      -3.412   4.999  12.236  1.00  0.00    -0.368 N 
ATOM     21  H1  UNL     1      -2.822   4.293  12.675  1.00  0.00     0.161 HD
BRANCH  20  22
HETATM   22  C7  UNL     1      -2.979   5.123  10.949  1.00  0.00     0.112 C 
HETATM   23  C4  UNL     1      -3.593   6.121   9.991  1.00  0.00     0.144 C 
HETATM   24  C5  UNL     1      -3.035   5.217   8.880  1.00  0.00     0.036 C 
HETATM   25  C6  UNL     1      -3.236   4.074   9.895  1.00  0.00     0.030 C 
BRANCH  23  26
HETATM   26  O1  UNL     1      -4.951   6.187   9.905  1.00  0.00    -0.379 OA
BRANCH  26  27
HETATM   27  C2  UNL     1      -5.365   7.436   9.457  1.00  0.00     0.114 C 
HETATM   28  C1  UNL     1      -4.717   8.565  10.231  1.00  0.00     0.039 C 
HETATM   29  C3  UNL     1      -6.877   7.512   9.689  1.00  0.00     0.039 C 
ENDBRANCH  26  27
ENDBRANCH  23  26
ENDBRANCH  20  22
ENDBRANCH   1  20
BRANCH  18  30
HETATM   30  N6  UNL     1      -3.400   2.750  13.206  1.00  0.00    -0.397 N 
ATOM     31  H62 UNL     1      -3.476   1.810  12.816  1.00  0.00     0.156 HD
ATOM     32  H61 UNL     1      -2.651   3.361  12.880  1.00  0.00     0.156 HD
ENDBRANCH  18  30
TORSDOF 5
ENDMDL
