MODEL 1
REMARK VINA RESULT: -6.232696669      0.000      0.000
REMARK  8 active torsions:
REMARK  status: ('A' for Active; 'I' for Inactive)
REMARK    1  A    between atoms: N1_2  and  C2_5 
REMARK    2  A    between atoms: N2_9  and  C5_10 
REMARK    3  A    between atoms: C6_13  and  N4_14 
REMARK    4  A    between atoms: N4_14  and  C7_16 
REMARK    5  A    between atoms: C7_16  and  C9_18 
REMARK    6  A    between atoms: C9_18  and  O1_19 
REMARK    7  A    between atoms: N5_21  and  O2_23 
REMARK    8  A    between atoms: C10_25  and  C11_26 
ROOT
HETATM    1  C5  UNL     1      -0.631   4.908  11.357  1.00  0.00     0.128 A 
HETATM    2  N3  UNL     1      -1.367   3.808  11.562  1.00  0.00    -0.326 N 
ATOM      3  H3  UNL     1      -1.164   2.967  11.023  1.00  0.00     0.169 HD
HETATM    4  C6  UNL     1      -2.363   3.786  12.458  1.00  0.00     0.127 A 
HETATM    5  C10 UNL     1      -2.656   4.939  13.208  1.00  0.00     0.061 A 
HETATM    6  N6  UNL     1      -1.903   6.014  12.978  1.00  0.00    -0.357 N 
ATOM      7  H6  UNL     1      -2.098   6.861  13.512  1.00  0.00     0.166 HD
HETATM    8  C15 UNL     1      -0.898   6.045  12.078  1.00  0.00     0.050 A 
HETATM    9  C16 UNL     1      -0.096   7.254  11.864  1.00  0.00     0.072 C 
ENDROOT
BRANCH   4  10
HETATM   10  N4  UNL     1      -3.064   2.797  12.674  1.00  0.00    -0.363 N 
ATOM     11  H4  UNL     1      -3.311   2.723  13.661  1.00  0.00     0.162 HD
BRANCH  10  12
HETATM   12  C7  UNL     1      -3.610   1.754  11.934  1.00  0.00     0.155 C 
HETATM   13  C8  UNL     1      -4.719   2.017  10.976  1.00  0.00     0.041 C 
BRANCH  12  14
HETATM   14  C9  UNL     1      -4.066   0.613  12.818  1.00  0.00     0.158 C 
HETATM   15  N5  UNL     1      -4.176   0.785  14.081  1.00  0.00    -0.249 N 
ATOM     16  H5  UNL     1      -3.949   1.703  14.462  1.00  0.00     0.196 HD
BRANCH  14  17
HETATM   17  O1  UNL     1      -4.353  -0.595  12.214  1.00  0.00    -0.347 OA
ATOM     18  H1  UNL     1      -4.336  -1.376  12.754  1.00  0.00     0.219 HD
ENDBRANCH  14  17
BRANCH  15  19
HETATM   19  O2  UNL     1      -4.575  -0.179  14.943  1.00  0.00    -0.288 OA
ATOM     20  H2  UNL     1      -4.510  -0.106  15.888  1.00  0.00     0.244 HD
ENDBRANCH  15  19
ENDBRANCH  12  14
ENDBRANCH  10  12
ENDBRANCH   4  10
BRANCH   5  21
HETATM   21  C11 UNL     1      -3.754   4.902  14.167  1.00  0.00    -0.005 C 
HETATM   22  C12 UNL     1      -3.662   3.906  15.264  1.00  0.00     0.021 C 
HETATM   23  C13 UNL     1      -5.115   4.881  13.459  1.00  0.00     0.021 C 
HETATM   24  C14 UNL     1      -3.758   6.286  14.864  1.00  0.00     0.021 C 
ENDBRANCH   5  21
BRANCH   1  25
HETATM   25  N2  UNL     1       0.406   4.847  10.344  1.00  0.00    -0.346 N 
HETATM   26  C4  UNL     1       1.733   4.333  10.562  1.00  0.00     0.185 C 
HETATM   27  C3  UNL     1       2.090   3.729   9.199  1.00  0.00     0.076 C 
HETATM   28 CL1  UNL     1       2.850   5.649  10.921  1.00  0.00    -0.102 Cl
HETATM   29  C2  UNL     1       1.270   4.485   8.208  1.00  0.00     0.206 C 
HETATM   30  C17 UNL     1       0.306   5.307   8.992  1.00  0.00     0.159 C 
BRANCH  29  31
HETATM   31  N1  UNL     1       2.051   5.263   7.283  1.00  0.00    -0.073 N 
HETATM   32  C1  UNL     1       3.393   4.790   7.192  1.00  0.00     0.267 C 
ATOM     33  H12 UNL     1       2.023   6.255   7.517  1.00  0.00     0.277 HD
ATOM     34  H11 UNL     1       1.608   5.302   6.366  1.00  0.00     0.277 HD
ENDBRANCH  29  31
ENDBRANCH   1  25
TORSDOF 8
ENDMDL
MODEL 2
REMARK VINA RESULT: -6.184599382      1.185      1.414
REMARK  8 active torsions:
REMARK  status: ('A' for Active; 'I' for Inactive)
REMARK    1  A    between atoms: N1_2  and  C2_5 
REMARK    2  A    between atoms: N2_9  and  C5_10 
REMARK    3  A    between atoms: C6_13  and  N4_14 
REMARK    4  A    between atoms: N4_14  and  C7_16 
REMARK    5  A    between atoms: C7_16  and  C9_18 
REMARK    6  A    between atoms: C9_18  and  O1_19 
REMARK    7  A    between atoms: N5_21  and  O2_23 
REMARK    8  A    between atoms: C10_25  and  C11_26 
ROOT
HETATM    1  C5  UNL     1      -0.771   5.052  11.312  1.00  0.00     0.128 A 
HETATM    2  N3  UNL     1      -1.464   3.922  11.505  1.00  0.00    -0.326 N 
ATOM      3  H3  UNL     1      -1.253   3.106  10.933  1.00  0.00     0.169 HD
HETATM    4  C6  UNL     1      -2.427   3.839  12.432  1.00  0.00     0.127 A 
HETATM    5  C10 UNL     1      -2.732   4.957  13.229  1.00  0.00     0.061 A 
HETATM    6  N6  UNL     1      -2.022   6.063  13.009  1.00  0.00    -0.357 N 
ATOM      7  H6  UNL     1      -2.225   6.886  13.577  1.00  0.00     0.166 HD
HETATM    8  C15 UNL     1      -1.049   6.156  12.078  1.00  0.00     0.050 A 
HETATM    9  C16 UNL     1      -0.295   7.397  11.878  1.00  0.00     0.072 C 
ENDROOT
BRANCH   4  10
HETATM   10  N4  UNL     1      -3.089   2.821  12.639  1.00  0.00    -0.363 N 
ATOM     11  H4  UNL     1      -3.330   2.727  13.626  1.00  0.00     0.162 HD
BRANCH  10  12
HETATM   12  C7  UNL     1      -3.596   1.765  11.889  1.00  0.00     0.155 C 
HETATM   13  C8  UNL     1      -4.682   2.005  10.900  1.00  0.00     0.041 C 
BRANCH  12  14
HETATM   14  C9  UNL     1      -4.056   0.620  12.765  1.00  0.00     0.158 C 
HETATM   15  N5  UNL     1      -4.156   0.780  14.031  1.00  0.00    -0.249 N 
ATOM     16  H5  UNL     1      -3.919   1.694  14.419  1.00  0.00     0.196 HD
BRANCH  14  17
HETATM   17  O1  UNL     1      -4.357  -0.580  12.151  1.00  0.00    -0.347 OA
ATOM     18  H1  UNL     1      -3.850  -0.824  11.385  1.00  0.00     0.219 HD
ENDBRANCH  14  17
BRANCH  15  19
HETATM   19  O2  UNL     1      -4.558  -0.188  14.885  1.00  0.00    -0.288 OA
ATOM     20  H2  UNL     1      -4.006  -0.907  15.171  1.00  0.00     0.244 HD
ENDBRANCH  15  19
ENDBRANCH  12  14
ENDBRANCH  10  12
ENDBRANCH   4  10
BRANCH   5  21
HETATM   21  C11 UNL     1      -3.795   4.854  14.222  1.00  0.00    -0.005 C 
HETATM   22  C12 UNL     1      -3.609   3.862  15.312  1.00  0.00     0.021 C 
HETATM   23  C13 UNL     1      -5.174   4.754  13.557  1.00  0.00     0.021 C 
HETATM   24  C14 UNL     1      -3.857   6.233  14.924  1.00  0.00     0.021 C 
ENDBRANCH   5  21
BRANCH   1  25
HETATM   25  N2  UNL     1       0.232   5.057  10.264  1.00  0.00    -0.346 N 
HETATM   26  C4  UNL     1       0.109   5.764   9.016  1.00  0.00     0.185 C 
HETATM   27  C3  UNL     1       1.558   6.149   8.700  1.00  0.00     0.076 C 
HETATM   28 CL1  UNL     1      -0.491   4.687   7.756  1.00  0.00    -0.102 Cl
HETATM   29  C2  UNL     1       2.395   5.128   9.395  1.00  0.00     0.206 C 
HETATM   30  C17 UNL     1       1.476   4.349  10.271  1.00  0.00     0.159 C 
BRANCH  29  31
HETATM   31  N1  UNL     1       3.158   4.298   8.500  1.00  0.00    -0.073 N 
HETATM   32  C1  UNL     1       2.643   2.970   8.438  1.00  0.00     0.267 C 
ATOM     33  H12 UNL     1       4.148   4.300   8.746  1.00  0.00     0.277 HD
ATOM     34  H11 UNL     1       3.222   4.715   7.572  1.00  0.00     0.277 HD
ENDBRANCH  29  31
ENDBRANCH   1  25
TORSDOF 8
ENDMDL
MODEL 3
REMARK VINA RESULT: -6.098506034      2.070      2.454
REMARK  8 active torsions:
REMARK  status: ('A' for Active; 'I' for Inactive)
REMARK    1  A    between atoms: N1_2  and  C2_5 
REMARK    2  A    between atoms: N2_9  and  C5_10 
REMARK    3  A    between atoms: C6_13  and  N4_14 
REMARK    4  A    between atoms: N4_14  and  C7_16 
REMARK    5  A    between atoms: C7_16  and  C9_18 
REMARK    6  A    between atoms: C9_18  and  O1_19 
REMARK    7  A    between atoms: N5_21  and  O2_23 
REMARK    8  A    between atoms: C10_25  and  C11_26 
ROOT
HETATM    1  C5  UNL     1      -1.831   5.365  11.967  1.00  0.00     0.128 A 
HETATM    2  N3  UNL     1      -2.827   4.469  11.948  1.00  0.00    -0.326 N 
ATOM      3  H3  UNL     1      -2.764   3.670  11.318  1.00  0.00     0.169 HD
HETATM    4  C6  UNL     1      -3.903   4.598  12.735  1.00  0.00     0.127 A 
HETATM    5  C10 UNL     1      -4.005   5.696  13.608  1.00  0.00     0.061 A 
HETATM    6  N6  UNL     1      -2.995   6.566  13.600  1.00  0.00    -0.357 N 
ATOM      7  H6  UNL     1      -3.048   7.369  14.226  1.00  0.00     0.166 HD
HETATM    8  C15 UNL     1      -1.907   6.444  12.811  1.00  0.00     0.050 A 
HETATM    9  C16 UNL     1      -0.821   7.428  12.843  1.00  0.00     0.072 C 
ENDROOT
BRANCH   4  10
HETATM   10  N4  UNL     1      -4.840   3.800  12.746  1.00  0.00    -0.363 N 
ATOM     11  H4  UNL     1      -5.739   4.280  12.708  1.00  0.00     0.162 HD
BRANCH  10  12
HETATM   12  C7  UNL     1      -5.002   2.419  12.796  1.00  0.00     0.155 C 
HETATM   13  C8  UNL     1      -4.139   1.598  13.688  1.00  0.00     0.041 C 
BRANCH  12  14
HETATM   14  C9  UNL     1      -4.922   1.792  11.421  1.00  0.00     0.158 C 
HETATM   15  N5  UNL     1      -3.956   1.005  11.130  1.00  0.00    -0.249 N 
ATOM     16  H5  UNL     1      -3.255   0.820  11.848  1.00  0.00     0.196 HD
BRANCH  14  17
HETATM   17  O1  UNL     1      -5.916   2.100  10.514  1.00  0.00    -0.347 OA
ATOM     18  H1  UNL     1      -6.425   1.382  10.153  1.00  0.00     0.219 HD
ENDBRANCH  14  17
BRANCH  15  19
HETATM   19  O2  UNL     1      -3.807   0.403   9.928  1.00  0.00    -0.288 OA
ATOM     20  H2  UNL     1      -3.354   0.795   9.190  1.00  0.00     0.244 HD
ENDBRANCH  15  19
ENDBRANCH  12  14
ENDBRANCH  10  12
ENDBRANCH   4  10
BRANCH   5  21
HETATM   21  C11 UNL     1      -5.190   5.830  14.446  1.00  0.00    -0.005 C 
HETATM   22  C12 UNL     1      -5.579   4.653  15.263  1.00  0.00     0.021 C 
HETATM   23  C13 UNL     1      -6.368   6.421  13.659  1.00  0.00     0.021 C 
HETATM   24  C14 UNL     1      -4.868   6.952  15.464  1.00  0.00     0.021 C 
ENDBRANCH   5  21
BRANCH   1  25
HETATM   25  N2  UNL     1      -0.721   5.158  11.056  1.00  0.00    -0.346 N 
HETATM   26  C4  UNL     1      -0.587   5.793   9.771  1.00  0.00     0.185 C 
HETATM   27  C3  UNL     1       0.931   5.944   9.625  1.00  0.00     0.076 C 
HETATM   28 CL1  UNL     1      -1.187   4.732   8.496  1.00  0.00    -0.102 Cl
HETATM   29  C2  UNL     1       1.517   4.862  10.468  1.00  0.00     0.206 C 
HETATM   30  C17 UNL     1       0.393   4.281  11.255  1.00  0.00     0.159 C 
BRANCH  29  31
HETATM   31  N1  UNL     1       2.248   3.875   9.718  1.00  0.00    -0.073 N 
HETATM   32  C1  UNL     1       2.664   4.374   8.448  1.00  0.00     0.267 C 
ATOM     33  H12 UNL     1       1.713   3.012   9.620  1.00  0.00     0.277 HD
ATOM     34  H11 UNL     1       3.038   3.514  10.252  1.00  0.00     0.277 HD
ENDBRANCH  29  31
ENDBRANCH   1  25
TORSDOF 8
ENDMDL
MODEL 4
REMARK VINA RESULT: -5.982986283      1.972      2.234
REMARK  8 active torsions:
REMARK  status: ('A' for Active; 'I' for Inactive)
REMARK    1  A    between atoms: N1_2  and  C2_5 
REMARK    2  A    between atoms: N2_9  and  C5_10 
REMARK    3  A    between atoms: C6_13  and  N4_14 
REMARK    4  A    between atoms: N4_14  and  C7_16 
REMARK    5  A    between atoms: C7_16  and  C9_18 
REMARK    6  A    between atoms: C9_18  and  O1_19 
REMARK    7  A    between atoms: N5_21  and  O2_23 
REMARK    8  A    between atoms: C10_25  and  C11_26 
ROOT
HETATM    1  C5  UNL     1       0.369   5.687  11.933  1.00  0.00     0.128 A 
HETATM    2  N3  UNL     1      -0.416   4.602  11.941  1.00  0.00    -0.326 N 
ATOM      3  H3  UNL     1      -0.106   3.760  11.457  1.00  0.00     0.169 HD
HETATM    4  C6  UNL     1      -1.599   4.595  12.569  1.00  0.00     0.127 A 
HETATM    5  C10 UNL     1      -2.042   5.750  13.241  1.00  0.00     0.061 A 
HETATM    6  N6  UNL     1      -1.234   6.809  13.212  1.00  0.00    -0.357 N 
ATOM      7  H6  UNL     1      -1.536   7.656  13.693  1.00  0.00     0.166 HD
HETATM    8  C15 UNL     1      -0.041   6.824  12.582  1.00  0.00     0.050 A 
HETATM    9  C16 UNL     1       0.812   8.016  12.583  1.00  0.00     0.072 C 
ENDROOT
BRANCH   4  10
HETATM   10  N4  UNL     1      -2.352   3.621  12.598  1.00  0.00    -0.363 N 
ATOM     11  H4  UNL     1      -2.554   3.334  13.556  1.00  0.00     0.162 HD
BRANCH  10  12
HETATM   12  C7  UNL     1      -3.000   2.807  11.675  1.00  0.00     0.155 C 
HETATM   13  C8  UNL     1      -3.651   3.406  10.478  1.00  0.00     0.041 C 
BRANCH  12  14
HETATM   14  C9  UNL     1      -4.038   1.924  12.333  1.00  0.00     0.158 C 
HETATM   15  N5  UNL     1      -3.688   1.079  13.228  1.00  0.00    -0.249 N 
ATOM     16  H5  UNL     1      -2.700   1.026  13.477  1.00  0.00     0.196 HD
BRANCH  14  17
HETATM   17  O1  UNL     1      -5.352   2.067  11.933  1.00  0.00    -0.347 OA
ATOM     18  H1  UNL     1      -5.670   2.945  11.761  1.00  0.00     0.219 HD
ENDBRANCH  14  17
BRANCH  15  19
HETATM   19  O2  UNL     1      -4.548   0.251  13.864  1.00  0.00    -0.288 OA
ATOM     20  H2  UNL     1      -4.590   0.153  14.808  1.00  0.00     0.244 HD
ENDBRANCH  15  19
ENDBRANCH  12  14
ENDBRANCH  10  12
ENDBRANCH   4  10
BRANCH   5  21
HETATM   21  C11 UNL     1      -3.340   5.731  13.906  1.00  0.00    -0.005 C 
HETATM   22  C12 UNL     1      -3.603   4.613  14.847  1.00  0.00     0.021 C 
HETATM   23  C13 UNL     1      -4.484   5.947  12.906  1.00  0.00     0.021 C 
HETATM   24  C14 UNL     1      -3.397   7.018  14.766  1.00  0.00     0.021 C 
ENDBRANCH   5  21
BRANCH   1  25
HETATM   25  N2  UNL     1       1.618   5.609  11.200  1.00  0.00    -0.346 N 
HETATM   26  C4  UNL     1       1.727   5.606   9.765  1.00  0.00     0.185 C 
HETATM   27  C3  UNL     1       3.061   6.322   9.524  1.00  0.00     0.076 C 
HETATM   28 CL1  UNL     1       1.840   3.953   9.160  1.00  0.00    -0.102 Cl
HETATM   29  C2  UNL     1       3.858   6.091  10.763  1.00  0.00     0.206 C 
HETATM   30  C17 UNL     1       2.930   5.490  11.761  1.00  0.00     0.159 C 
BRANCH  29  31
HETATM   31  N1  UNL     1       5.044   5.304  10.551  1.00  0.00    -0.073 N 
HETATM   32  C1  UNL     1       5.972   5.442  11.625  1.00  0.00     0.267 C 
ATOM     33  H12 UNL     1       5.479   5.523   9.655  1.00  0.00     0.277 HD
ATOM     34  H11 UNL     1       4.814   4.325  10.382  1.00  0.00     0.277 HD
ENDBRANCH  29  31
ENDBRANCH   1  25
TORSDOF 8
ENDMDL
MODEL 5
REMARK VINA RESULT: -5.890875990      1.628      1.930
REMARK  8 active torsions:
REMARK  status: ('A' for Active; 'I' for Inactive)
REMARK    1  A    between atoms: N1_2  and  C2_5 
REMARK    2  A    between atoms: N2_9  and  C5_10 
REMARK    3  A    between atoms: C6_13  and  N4_14 
REMARK    4  A    between atoms: N4_14  and  C7_16 
REMARK    5  A    between atoms: C7_16  and  C9_18 
REMARK    6  A    between atoms: C9_18  and  O1_19 
REMARK    7  A    between atoms: N5_21  and  O2_23 
REMARK    8  A    between atoms: C10_25  and  C11_26 
ROOT
HETATM    1  C5  UNL     1      -2.112   5.147  10.749  1.00  0.00     0.128 A 
HETATM    2  N3  UNL     1      -2.406   3.896  11.127  1.00  0.00    -0.326 N 
ATOM      3  H3  UNL     1      -2.117   3.117  10.536  1.00  0.00     0.169 HD
HETATM    4  C6  UNL     1      -3.069   3.643  12.263  1.00  0.00     0.127 A 
HETATM    5  C10 UNL     1      -3.476   4.707  13.089  1.00  0.00     0.061 A 
HETATM    6  N6  UNL     1      -3.166   5.937  12.681  1.00  0.00    -0.357 N 
ATOM      7  H6  UNL     1      -3.450   6.723  13.265  1.00  0.00     0.166 HD
HETATM    8  C15 UNL     1      -2.497   6.201  11.539  1.00  0.00     0.050 A 
HETATM    9  C16 UNL     1      -2.178   7.574  11.136  1.00  0.00     0.072 C 
ENDROOT
BRANCH   4  10
HETATM   10  N4  UNL     1      -3.362   2.510  12.645  1.00  0.00    -0.363 N 
ATOM     11  H4  UNL     1      -3.276   2.423  13.658  1.00  0.00     0.162 HD
BRANCH  10  12
HETATM   12  C7  UNL     1      -3.777   1.315  12.066  1.00  0.00     0.155 C 
HETATM   13  C8  UNL     1      -4.895   1.309  11.084  1.00  0.00     0.041 C 
BRANCH  12  14
HETATM   14  C9  UNL     1      -4.113   0.270  13.108  1.00  0.00     0.158 C 
HETATM   15  N5  UNL     1      -4.192   0.596  14.342  1.00  0.00    -0.249 N 
ATOM     16  H5  UNL     1      -4.023   1.571  14.592  1.00  0.00     0.196 HD
BRANCH  14  17
HETATM   17  O1  UNL     1      -4.325  -1.025  12.676  1.00  0.00    -0.347 OA
ATOM     18  H1  UNL     1      -3.632  -1.446  12.180  1.00  0.00     0.219 HD
ENDBRANCH  14  17
BRANCH  15  19
HETATM   19  O2  UNL     1      -4.485  -0.273  15.336  1.00  0.00    -0.288 OA
ATOM     20  H2  UNL     1      -4.127  -0.215  16.215  1.00  0.00     0.244 HD
ENDBRANCH  15  19
ENDBRANCH  12  14
ENDBRANCH  10  12
ENDBRANCH   4  10
BRANCH   5  21
HETATM   21  C11 UNL     1      -4.212   4.415  14.313  1.00  0.00    -0.005 C 
HETATM   22  C12 UNL     1      -3.497   3.653  15.368  1.00  0.00     0.021 C 
HETATM   23  C13 UNL     1      -5.603   3.842  14.006  1.00  0.00     0.021 C 
HETATM   24  C14 UNL     1      -4.546   5.788  14.948  1.00  0.00     0.021 C 
ENDBRANCH   5  21
BRANCH   1  25
HETATM   25  N2  UNL     1      -1.417   5.324   9.488  1.00  0.00    -0.346 N 
HETATM   26  C4  UNL     1       0.008   5.213   9.316  1.00  0.00     0.185 C 
HETATM   27  C3  UNL     1       0.135   4.663   7.891  1.00  0.00     0.076 C 
HETATM   28 CL1  UNL     1       0.762   6.806   9.390  1.00  0.00    -0.102 Cl
HETATM   29  C2  UNL     1      -1.103   5.107   7.187  1.00  0.00     0.206 C 
HETATM   30  C17 UNL     1      -2.008   5.666   8.230  1.00  0.00     0.159 C 
BRANCH  29  31
HETATM   31  N1  UNL     1      -0.857   6.022   6.105  1.00  0.00    -0.073 N 
HETATM   32  C1  UNL     1      -1.359   7.326   6.387  1.00  0.00     0.267 C 
ATOM     33  H12 UNL     1      -1.228   5.664   5.225  1.00  0.00     0.277 HD
ATOM     34  H11 UNL     1       0.133   6.051   5.861  1.00  0.00     0.277 HD
ENDBRANCH  29  31
ENDBRANCH   1  25
TORSDOF 8
ENDMDL
