MODEL 1
REMARK VINA RESULT: -7.664111071      0.000      0.000
REMARK  5 active torsions:
REMARK  status: ('A' for Active; 'I' for Inactive)
REMARK    1  A    between atoms: C2_5  and  N2_6 
REMARK    2  A    between atoms: N2_6  and  N3_8 
REMARK    3  A    between atoms: C9_19  and  C10_20 
REMARK    4  A    between atoms: C10_20  and  C11_21 
REMARK    5  A    between atoms: C11_21  and  C12_22 
ROOT
HETATM    1  O1  UNL     1      -1.545   3.105  12.218  1.00  0.00    -0.267 OA
HETATM    2  C1  UNL     1      -1.376   4.356  12.322  1.00  0.00     0.269 A 
HETATM    3  N1  UNL     1      -0.156   4.915  12.388  1.00  0.00    -0.154 N 
ATOM      4  H1  UNL     1       0.652   4.294  12.352  1.00  0.00     0.187 HD
HETATM    5  C2  UNL     1       0.071   6.217  12.496  1.00  0.00     0.700 A 
HETATM    6  N4  UNL     1      -1.005   7.044  12.544  1.00  0.00    -0.179 N 
ATOM      7  H4  UNL     1      -0.869   8.051  12.629  1.00  0.00     0.185 HD
HETATM    8  C8  UNL     1      -2.249   6.540  12.482  1.00  0.00     0.131 A 
HETATM    9 CL1  UNL     1      -3.637   7.597  12.541  1.00  0.00    -0.063 Cl
HETATM   10  C9  UNL     1      -2.471   5.186  12.369  1.00  0.00     0.050 A 
ENDROOT
BRANCH  10  11
HETATM   11  C10 UNL     1      -3.836   4.620  12.298  1.00  0.00     0.055 C 
BRANCH  11  12
HETATM   12  C11 UNL     1      -4.400   4.600  13.696  1.00  0.00     0.083 C 
BRANCH  12  13
HETATM   13  C12 UNL     1      -4.457   3.229  14.257  1.00  0.00     0.097 A 
HETATM   14  N5  UNL     1      -3.978   2.194  13.546  1.00  0.00    -0.286 N 
HETATM   15  N6  UNL     1      -4.016   0.943  14.029  1.00  0.00    -0.263 N 
ATOM     16  H5  UNL     1      -3.580   2.363  12.623  1.00  0.00     0.188 HD
HETATM   17  C13 UNL     1      -4.533   0.661  15.242  1.00  0.00     0.298 A 
ATOM     18  H6  UNL     1      -3.642   0.182  13.462  1.00  0.00     0.190 HD
HETATM   19  O2  UNL     1      -4.536  -0.533  15.633  1.00  0.00    -0.263 OA
HETATM   20  C14 UNL     1      -5.024   1.711  15.975  1.00  0.00     0.172 A 
HETATM   21  S1  UNL     1      -5.660   1.410  17.454  1.00  0.00    -0.054 SA
HETATM   22  N7  UNL     1      -4.976   2.961  15.472  1.00  0.00    -0.331 N 
ATOM     23  H7  UNL     1      -5.346   3.731  16.029  1.00  0.00     0.168 HD
ENDBRANCH  12  13
ENDBRANCH  11  12
ENDBRANCH  10  11
BRANCH   5  24
HETATM   24  N2  UNL     1       1.249   6.732  12.557  1.00  0.00    -0.132 N 
ATOM     25  H2  UNL     1       1.384   7.711  12.808  1.00  0.00     0.205 HD
BRANCH  24  26
HETATM   26  N3  UNL     1       2.333   5.909  12.268  1.00  0.00    -0.295 N 
HETATM   27  C3  UNL     1       3.520   6.089  12.676  1.00  0.00     0.004 C 
HETATM   28  C4  UNL     1       4.679   5.232  12.383  1.00  0.00     0.054 C 
HETATM   29  C7  UNL     1       4.005   7.185  13.529  1.00  0.00     0.054 C 
HETATM   30  C5  UNL     1       5.806   6.237  12.225  1.00  0.00     0.006 C 
HETATM   31  C6  UNL     1       5.339   7.522  12.885  1.00  0.00     0.006 C 
ATOM     32  H3  UNL     1       2.158   5.094  11.680  1.00  0.00     0.186 HD
ENDBRANCH  24  26
ENDBRANCH   5  24
TORSDOF 5
ENDMDL
MODEL 2
REMARK VINA RESULT: -7.602129412      1.264      1.564
REMARK  5 active torsions:
REMARK  status: ('A' for Active; 'I' for Inactive)
REMARK    1  A    between atoms: C2_5  and  N2_6 
REMARK    2  A    between atoms: N2_6  and  N3_8 
REMARK    3  A    between atoms: C9_19  and  C10_20 
REMARK    4  A    between atoms: C10_20  and  C11_21 
REMARK    5  A    between atoms: C11_21  and  C12_22 
ROOT
HETATM    1  O1  UNL     1      -1.847   4.254  15.121  1.00  0.00    -0.267 OA
HETATM    2  C1  UNL     1      -1.852   5.166  14.243  1.00  0.00     0.269 A 
HETATM    3  N1  UNL     1      -0.771   5.456  13.499  1.00  0.00    -0.154 N 
ATOM      4  H1  UNL     1       0.076   4.911  13.662  1.00  0.00     0.187 HD
HETATM    5  C2  UNL     1      -0.727   6.399  12.568  1.00  0.00     0.700 A 
HETATM    6  N4  UNL     1      -1.854   7.124  12.351  1.00  0.00    -0.179 N 
ATOM      7  H4  UNL     1      -1.857   7.859  11.643  1.00  0.00     0.185 HD
HETATM    8  C8  UNL     1      -2.965   6.878  13.064  1.00  0.00     0.131 A 
HETATM    9 CL1  UNL     1      -4.418   7.806  12.789  1.00  0.00    -0.063 Cl
HETATM   10  C9  UNL     1      -2.997   5.896  14.028  1.00  0.00     0.050 A 
ENDROOT
BRANCH  10  11
HETATM   11  C10 UNL     1      -4.215   5.615  14.820  1.00  0.00     0.055 C 
BRANCH  11  12
HETATM   12  C11 UNL     1      -5.054   4.631  14.043  1.00  0.00     0.083 C 
BRANCH  12  13
HETATM   13  C12 UNL     1      -4.886   3.243  14.534  1.00  0.00     0.097 A 
HETATM   14  N5  UNL     1      -4.130   2.374  13.843  1.00  0.00    -0.286 N 
HETATM   15  N6  UNL     1      -3.961   1.111  14.265  1.00  0.00    -0.263 N 
ATOM     16  H5  UNL     1      -3.678   2.679  12.982  1.00  0.00     0.188 HD
HETATM   17  C13 UNL     1      -4.536   0.652  15.394  1.00  0.00     0.298 A 
ATOM     18  H6  UNL     1      -3.379   0.480  13.714  1.00  0.00     0.190 HD
HETATM   19  O2  UNL     1      -4.336  -0.541  15.731  1.00  0.00    -0.263 OA
HETATM   20  C14 UNL     1      -5.310   1.532  16.107  1.00  0.00     0.172 A 
HETATM   21  S1  UNL     1      -6.027   1.014  17.486  1.00  0.00    -0.054 SA
HETATM   22  N7  UNL     1      -5.468   2.798  15.666  1.00  0.00    -0.331 N 
ATOM     23  H7  UNL     1      -6.046   3.440  16.208  1.00  0.00     0.168 HD
ENDBRANCH  12  13
ENDBRANCH  11  12
ENDBRANCH  10  11
BRANCH   5  24
HETATM   24  N2  UNL     1       0.321   6.658  11.866  1.00  0.00    -0.132 N 
ATOM     25  H2  UNL     1       0.390   6.361  10.893  1.00  0.00     0.205 HD
BRANCH  24  26
HETATM   26  N3  UNL     1       1.356   7.358  12.479  1.00  0.00    -0.295 N 
HETATM   27  C3  UNL     1       2.582   7.037  12.438  1.00  0.00     0.004 C 
HETATM   28  C4  UNL     1       3.691   7.761  13.077  1.00  0.00     0.054 C 
HETATM   29  C7  UNL     1       3.170   5.879  11.748  1.00  0.00     0.054 C 
HETATM   30  C5  UNL     1       4.599   6.637  13.544  1.00  0.00     0.006 C 
HETATM   31  C6  UNL     1       4.206   5.403  12.752  1.00  0.00     0.006 C 
ATOM     32  H3  UNL     1       1.108   8.196  13.003  1.00  0.00     0.186 HD
ENDBRANCH  24  26
ENDBRANCH   5  24
TORSDOF 5
ENDMDL
MODEL 3
REMARK VINA RESULT: -7.439003865      1.645      2.034
REMARK  5 active torsions:
REMARK  status: ('A' for Active; 'I' for Inactive)
REMARK    1  A    between atoms: C2_5  and  N2_6 
REMARK    2  A    between atoms: N2_6  and  N3_8 
REMARK    3  A    between atoms: C9_19  and  C10_20 
REMARK    4  A    between atoms: C10_20  and  C11_21 
REMARK    5  A    between atoms: C11_21  and  C12_22 
ROOT
HETATM    1  O1  UNL     1      -3.175   3.400  10.022  1.00  0.00    -0.267 OA
HETATM    2  C1  UNL     1      -2.423   3.889  10.916  1.00  0.00     0.269 A 
HETATM    3  N1  UNL     1      -1.177   4.318  10.653  1.00  0.00    -0.154 N 
ATOM      4  H1  UNL     1      -0.842   4.239   9.693  1.00  0.00     0.187 HD
HETATM    5  C2  UNL     1      -0.354   4.837  11.554  1.00  0.00     0.700 A 
HETATM    6  N4  UNL     1      -0.801   4.942  12.832  1.00  0.00    -0.179 N 
ATOM      7  H4  UNL     1      -0.195   5.335  13.551  1.00  0.00     0.185 HD
HETATM    8  C8  UNL     1      -2.039   4.529  13.152  1.00  0.00     0.131 A 
HETATM    9 CL1  UNL     1      -2.620   4.662  14.792  1.00  0.00    -0.063 Cl
HETATM   10  C9  UNL     1      -2.884   3.992  12.207  1.00  0.00     0.050 A 
ENDROOT
BRANCH  10  11
HETATM   11  C10 UNL     1      -4.249   3.535  12.547  1.00  0.00     0.055 C 
BRANCH  11  12
HETATM   12  C11 UNL     1      -4.207   2.036  12.707  1.00  0.00     0.083 C 
BRANCH  12  13
HETATM   13  C12 UNL     1      -4.502   1.615  14.097  1.00  0.00     0.097 A 
HETATM   14  N5  UNL     1      -3.958   0.487  14.585  1.00  0.00    -0.286 N 
HETATM   15  N6  UNL     1      -4.207   0.081  15.840  1.00  0.00    -0.263 N 
ATOM     16  H5  UNL     1      -3.345  -0.070  13.990  1.00  0.00     0.188 HD
HETATM   17  C13 UNL     1      -5.010   0.777  16.669  1.00  0.00     0.298 A 
ATOM     18  H6  UNL     1      -3.775  -0.780  16.176  1.00  0.00     0.190 HD
HETATM   19  O2  UNL     1      -5.200   0.340  17.831  1.00  0.00    -0.263 OA
HETATM   20  C14 UNL     1      -5.570   1.930  16.180  1.00  0.00     0.172 A 
HETATM   21  S1  UNL     1      -6.552   2.805  17.156  1.00  0.00    -0.054 SA
HETATM   22  N7  UNL     1      -5.307   2.320  14.916  1.00  0.00    -0.331 N 
ATOM     23  H7  UNL     1      -5.732   3.180  14.567  1.00  0.00     0.168 HD
ENDBRANCH  12  13
ENDBRANCH  11  12
ENDBRANCH  10  11
BRANCH   5  24
HETATM   24  N2  UNL     1       0.837   5.244  11.280  1.00  0.00    -0.132 N 
ATOM     25  H2  UNL     1       1.341   4.887  10.468  1.00  0.00     0.205 HD
BRANCH  24  26
HETATM   26  N3  UNL     1       1.412   6.184  12.128  1.00  0.00    -0.295 N 
HETATM   27  C3  UNL     1       2.658   6.369  12.280  1.00  0.00     0.004 C 
HETATM   28  C4  UNL     1       3.287   7.357  13.170  1.00  0.00     0.054 C 
HETATM   29  C7  UNL     1       3.748   5.646  11.607  1.00  0.00     0.054 C 
HETATM   30  C5  UNL     1       4.502   6.610  13.690  1.00  0.00     0.006 C 
HETATM   31  C6  UNL     1       4.748   5.457  12.734  1.00  0.00     0.006 C 
ATOM     32  H3  UNL     1       0.782   6.772  12.672  1.00  0.00     0.186 HD
ENDBRANCH  24  26
ENDBRANCH   5  24
TORSDOF 5
ENDMDL
MODEL 4
REMARK VINA RESULT: -7.402504598      1.718      2.069
REMARK  5 active torsions:
REMARK  status: ('A' for Active; 'I' for Inactive)
REMARK    1  A    between atoms: C2_5  and  N2_6 
REMARK    2  A    between atoms: N2_6  and  N3_8 
REMARK    3  A    between atoms: C9_19  and  C10_20 
REMARK    4  A    between atoms: C10_20  and  C11_21 
REMARK    5  A    between atoms: C11_21  and  C12_22 
ROOT
HETATM    1  O1  UNL     1      -2.391   4.420  14.769  1.00  0.00    -0.267 OA
HETATM    2  C1  UNL     1      -2.017   4.481  13.561  1.00  0.00     0.269 A 
HETATM    3  N1  UNL     1      -0.765   4.819  13.210  1.00  0.00    -0.154 N 
ATOM      4  H1  UNL     1      -0.105   5.033  13.958  1.00  0.00     0.187 HD
HETATM    5  C2  UNL     1      -0.327   4.895  11.961  1.00  0.00     0.700 A 
HETATM    6  N4  UNL     1      -1.206   4.612  10.965  1.00  0.00    -0.179 N 
ATOM      7  H4  UNL     1      -0.904   4.661   9.993  1.00  0.00     0.185 HD
HETATM    8  C8  UNL     1      -2.471   4.266  11.257  1.00  0.00     0.131 A 
HETATM    9 CL1  UNL     1      -3.605   3.898   9.982  1.00  0.00    -0.063 Cl
HETATM   10  C9  UNL     1      -2.913   4.191  12.559  1.00  0.00     0.050 A 
ENDROOT
BRANCH  10  11
HETATM   11  C10 UNL     1      -4.303   3.811  12.893  1.00  0.00     0.055 C 
BRANCH  11  12
HETATM   12  C11 UNL     1      -4.379   2.305  12.904  1.00  0.00     0.083 C 
BRANCH  12  13
HETATM   13  C12 UNL     1      -4.630   1.767  14.262  1.00  0.00     0.097 A 
HETATM   14  N5  UNL     1      -4.018   0.639  14.660  1.00  0.00    -0.286 N 
HETATM   15  N6  UNL     1      -4.226   0.130  15.884  1.00  0.00    -0.263 N 
ATOM     16  H5  UNL     1      -3.384   0.162  14.020  1.00  0.00     0.188 HD
HETATM   17  C13 UNL     1      -5.054   0.719  16.771  1.00  0.00     0.298 A 
ATOM     18  H6  UNL     1      -3.743  -0.727  16.152  1.00  0.00     0.190 HD
HETATM   19  O2  UNL     1      -5.203   0.188  17.900  1.00  0.00    -0.263 OA
HETATM   20  C14 UNL     1      -5.683   1.870  16.373  1.00  0.00     0.172 A 
HETATM   21  S1  UNL     1      -6.697   2.616  17.422  1.00  0.00    -0.054 SA
HETATM   22  N7  UNL     1      -5.461   2.366  15.139  1.00  0.00    -0.331 N 
ATOM     23  H7  UNL     1      -5.937   3.224  14.859  1.00  0.00     0.168 HD
ENDBRANCH  12  13
ENDBRANCH  11  12
ENDBRANCH  10  11
BRANCH   5  24
HETATM   24  N2  UNL     1       0.879   5.222  11.647  1.00  0.00    -0.132 N 
ATOM     25  H2  UNL     1       1.397   4.704  10.937  1.00  0.00     0.205 HD
BRANCH  24  26
HETATM   26  N3  UNL     1       1.451   6.303  12.310  1.00  0.00    -0.295 N 
HETATM   27  C3  UNL     1       2.696   6.513  12.430  1.00  0.00     0.004 C 
HETATM   28  C4  UNL     1       3.323   7.648  13.124  1.00  0.00     0.054 C 
HETATM   29  C7  UNL     1       3.788   5.679  11.905  1.00  0.00     0.054 C 
HETATM   30  C5  UNL     1       4.536   7.011  13.778  1.00  0.00     0.006 C 
HETATM   31  C6  UNL     1       4.784   5.701  13.052  1.00  0.00     0.006 C 
ATOM     32  H3  UNL     1       0.819   6.981  12.733  1.00  0.00     0.186 HD
ENDBRANCH  24  26
ENDBRANCH   5  24
TORSDOF 5
ENDMDL
MODEL 5
REMARK VINA RESULT: -7.389595071      1.807      2.141
REMARK  5 active torsions:
REMARK  status: ('A' for Active; 'I' for Inactive)
REMARK    1  A    between atoms: C2_5  and  N2_6 
REMARK    2  A    between atoms: N2_6  and  N3_8 
REMARK    3  A    between atoms: C9_19  and  C10_20 
REMARK    4  A    between atoms: C10_20  and  C11_21 
REMARK    5  A    between atoms: C11_21  and  C12_22 
ROOT
HETATM    1  O1  UNL     1      -1.737   4.248  15.030  1.00  0.00    -0.267 OA
HETATM    2  C1  UNL     1      -1.782   5.110  14.104  1.00  0.00     0.269 A 
HETATM    3  N1  UNL     1      -0.745   5.336  13.279  1.00  0.00    -0.154 N 
ATOM      4  H1  UNL     1       0.101   4.784  13.420  1.00  0.00     0.187 HD
HETATM    5  C2  UNL     1      -0.744   6.226  12.296  1.00  0.00     0.700 A 
HETATM    6  N4  UNL     1      -1.870   6.961  12.109  1.00  0.00    -0.179 N 
ATOM      7  H4  UNL     1      -1.905   7.656  11.364  1.00  0.00     0.185 HD
HETATM    8  C8  UNL     1      -2.938   6.777  12.903  1.00  0.00     0.131 A 
HETATM    9 CL1  UNL     1      -4.390   7.718  12.667  1.00  0.00    -0.063 Cl
HETATM   10  C9  UNL     1      -2.926   5.850  13.920  1.00  0.00     0.050 A 
ENDROOT
BRANCH  10  11
HETATM   11  C10 UNL     1      -4.096   5.637  14.800  1.00  0.00     0.055 C 
BRANCH  11  12
HETATM   12  C11 UNL     1      -5.034   4.687  14.099  1.00  0.00     0.083 C 
BRANCH  12  13
HETATM   13  C12 UNL     1      -4.877   3.293  14.577  1.00  0.00     0.097 A 
HETATM   14  N5  UNL     1      -4.118   2.428  13.884  1.00  0.00    -0.286 N 
HETATM   15  N6  UNL     1      -3.957   1.160  14.293  1.00  0.00    -0.263 N 
ATOM     16  H5  UNL     1      -3.654   2.742  13.031  1.00  0.00     0.188 HD
HETATM   17  C13 UNL     1      -4.547   0.691  15.411  1.00  0.00     0.298 A 
ATOM     18  H6  UNL     1      -3.372   0.533  13.742  1.00  0.00     0.190 HD
HETATM   19  O2  UNL     1      -4.355  -0.507  15.736  1.00  0.00    -0.263 OA
HETATM   20  C14 UNL     1      -5.325   1.566  16.125  1.00  0.00     0.172 A 
HETATM   21  S1  UNL     1      -6.058   1.035  17.490  1.00  0.00    -0.054 SA
HETATM   22  N7  UNL     1      -5.473   2.837  15.697  1.00  0.00    -0.331 N 
ATOM     23  H7  UNL     1      -6.055   3.475  16.240  1.00  0.00     0.168 HD
ENDBRANCH  12  13
ENDBRANCH  11  12
ENDBRANCH  10  11
BRANCH   5  24
HETATM   24  N2  UNL     1       0.261   6.425  11.517  1.00  0.00    -0.132 N 
ATOM     25  H2  UNL     1       0.840   7.261  11.607  1.00  0.00     0.205 HD
BRANCH  24  26
HETATM   26  N3  UNL     1       0.532   5.465  10.548  1.00  0.00    -0.295 N 
HETATM   27  C3  UNL     1       1.646   4.880  10.386  1.00  0.00     0.004 C 
HETATM   28  C4  UNL     1       1.953   3.863   9.369  1.00  0.00     0.054 C 
HETATM   29  C7  UNL     1       2.873   5.083  11.171  1.00  0.00     0.054 C 
HETATM   30  C5  UNL     1       3.380   4.202   8.978  1.00  0.00     0.006 C 
HETATM   31  C6  UNL     1       3.946   5.061  10.095  1.00  0.00     0.006 C 
ATOM     32  H3  UNL     1      -0.227   5.210   9.916  1.00  0.00     0.186 HD
ENDBRANCH  24  26
ENDBRANCH   5  24
TORSDOF 5
ENDMDL
