MODEL 1
REMARK VINA RESULT: -7.881505062      0.000      0.000
REMARK  6 active torsions:
REMARK  status: ('A' for Active; 'I' for Inactive)
REMARK    1  A    between atoms: O1_2  and  C2_3 
REMARK    2  A    between atoms: C2_3  and  C3_5 
REMARK    3  A    between atoms: C6_9  and  C7_10 
REMARK    4  A    between atoms: C8_11  and  C9_12 
REMARK    5  A    between atoms: C12_16  and  O3_17 
REMARK    6  A    between atoms: C13_19  and  O4_20 
ROOT
HETATM    1  C3  UNL     1       6.423 -28.941  18.384  1.00  0.00     0.078 A 
HETATM    2  C4  UNL     1       7.499 -29.680  17.865  1.00  0.00     0.063 A 
HETATM    3  C5  UNL     1       8.461 -29.121  17.077  1.00  0.00     0.130 A 
HETATM    4  F1  UNL     1       9.500 -29.836  16.575  1.00  0.00    -0.205 F 
HETATM    5  C6  UNL     1       8.419 -27.755  16.739  1.00  0.00     0.038 A 
HETATM    6  C12 UNL     1       7.373 -27.061  17.250  1.00  0.00     0.113 A 
HETATM    7  C13 UNL     1       6.385 -27.616  18.054  1.00  0.00     0.116 A 
ENDROOT
BRANCH   5   8
HETATM    8  C7  UNL     1       9.473 -27.218  15.894  1.00  0.00     0.017 C 
HETATM    9  C8  UNL     1       9.471 -27.068  14.606  1.00  0.00     0.002 C 
BRANCH   9  10
HETATM   10  C9  UNL     1      10.690 -26.487  13.978  1.00  0.00     0.019 C 
HETATM   11  C10 UNL     1      10.985 -25.220  14.179  1.00  0.00     0.008 C 
HETATM   12  C11 UNL     1      12.200 -24.665  13.547  1.00  0.00     0.062 C 
HETATM   13 CL1  UNL     1       9.939 -24.229  15.182  1.00  0.00    -0.089 Cl
ENDBRANCH   9  10
ENDBRANCH   5   8
BRANCH   6  14
HETATM   14  O3  UNL     1       7.249 -25.703  16.969  1.00  0.00    -0.357 OA
ATOM     15  H3  UNL     1       6.817 -25.429  16.169  1.00  0.00     0.217 HD
ENDBRANCH   6  14
BRANCH   7  16
HETATM   16  O4  UNL     1       5.368 -26.795  18.512  1.00  0.00    -0.357 OA
ATOM     17  H4  UNL     1       5.243 -25.924  18.154  1.00  0.00     0.217 HD
ENDBRANCH   7  16
BRANCH   1  18
HETATM   18  C2  UNL     1       5.446 -29.626  19.217  1.00  0.00     0.295 C 
HETATM   19  O2  UNL     1       5.678 -30.867  19.457  1.00  0.00    -0.259 OA
BRANCH  18  20
HETATM   20  O1  UNL     1       4.313 -29.126  19.779  1.00  0.00    -0.322 OA
HETATM   21  C1  UNL     1       3.010 -29.341  19.274  1.00  0.00     0.213 C 
ENDBRANCH  18  20
ENDBRANCH   1  18
TORSDOF 6
ENDMDL
MODEL 2
REMARK VINA RESULT: -7.697331598      1.729      2.264
REMARK  6 active torsions:
REMARK  status: ('A' for Active; 'I' for Inactive)
REMARK    1  A    between atoms: O1_2  and  C2_3 
REMARK    2  A    between atoms: C2_3  and  C3_5 
REMARK    3  A    between atoms: C6_9  and  C7_10 
REMARK    4  A    between atoms: C8_11  and  C9_12 
REMARK    5  A    between atoms: C12_16  and  O3_17 
REMARK    6  A    between atoms: C13_19  and  O4_20 
ROOT
HETATM    1  C3  UNL     1       6.224 -28.431  18.715  1.00  0.00     0.078 A 
HETATM    2  C4  UNL     1       6.296 -27.139  18.166  1.00  0.00     0.063 A 
HETATM    3  C5  UNL     1       7.296 -26.755  17.324  1.00  0.00     0.130 A 
HETATM    4  F1  UNL     1       7.365 -25.507  16.795  1.00  0.00    -0.205 F 
HETATM    5  C6  UNL     1       8.322 -27.647  16.960  1.00  0.00     0.038 A 
HETATM    6  C12 UNL     1       8.234 -28.888  17.499  1.00  0.00     0.113 A 
HETATM    7  C13 UNL     1       7.221 -29.295  18.359  1.00  0.00     0.116 A 
ENDROOT
BRANCH   5   8
HETATM    8  C7  UNL     1       9.361 -27.178  16.058  1.00  0.00     0.017 C 
HETATM    9  C8  UNL     1       9.310 -27.059  14.767  1.00  0.00     0.002 C 
BRANCH   9  10
HETATM   10  C9  UNL     1      10.526 -26.548  14.075  1.00  0.00     0.019 C 
HETATM   11  C10 UNL     1      10.879 -25.289  14.223  1.00  0.00     0.008 C 
HETATM   12  C11 UNL     1      12.088 -24.804  13.527  1.00  0.00     0.062 C 
HETATM   13 CL1  UNL     1       9.914 -24.225  15.232  1.00  0.00    -0.089 Cl
ENDBRANCH   9  10
ENDBRANCH   5   8
BRANCH   6  14
HETATM   14  O3  UNL     1       9.204 -29.838  17.195  1.00  0.00    -0.357 OA
ATOM     15  H3  UNL     1       9.456 -30.475  17.853  1.00  0.00     0.217 HD
ENDBRANCH   6  14
BRANCH   7  16
HETATM   16  O4  UNL     1       7.247 -30.593  18.842  1.00  0.00    -0.357 OA
ATOM     17  H4  UNL     1       7.383 -31.330  18.258  1.00  0.00     0.217 HD
ENDBRANCH   7  16
BRANCH   1  18
HETATM   18  C2  UNL     1       5.117 -28.750  19.604  1.00  0.00     0.295 C 
HETATM   19  O2  UNL     1       5.004 -28.014  20.652  1.00  0.00    -0.259 OA
BRANCH  18  20
HETATM   20  O1  UNL     1       4.180 -29.726  19.474  1.00  0.00    -0.322 OA
HETATM   21  C1  UNL     1       2.790 -29.491  19.374  1.00  0.00     0.213 C 
ENDBRANCH  18  20
ENDBRANCH   1  18
TORSDOF 6
ENDMDL
MODEL 3
REMARK VINA RESULT: -7.685120084      1.787      2.343
REMARK  6 active torsions:
REMARK  status: ('A' for Active; 'I' for Inactive)
REMARK    1  A    between atoms: O1_2  and  C2_3 
REMARK    2  A    between atoms: C2_3  and  C3_5 
REMARK    3  A    between atoms: C6_9  and  C7_10 
REMARK    4  A    between atoms: C8_11  and  C9_12 
REMARK    5  A    between atoms: C12_16  and  O3_17 
REMARK    6  A    between atoms: C13_19  and  O4_20 
ROOT
HETATM    1  C3  UNL     1       6.367 -28.563  18.628  1.00  0.00     0.078 A 
HETATM    2  C4  UNL     1       6.394 -27.265  18.090  1.00  0.00     0.063 A 
HETATM    3  C5  UNL     1       7.382 -26.838  17.254  1.00  0.00     0.130 A 
HETATM    4  F1  UNL     1       7.408 -25.584  16.735  1.00  0.00    -0.205 F 
HETATM    5  C6  UNL     1       8.440 -27.690  16.885  1.00  0.00     0.038 A 
HETATM    6  C12 UNL     1       8.395 -28.938  17.414  1.00  0.00     0.113 A 
HETATM    7  C13 UNL     1       7.395 -29.388  18.268  1.00  0.00     0.116 A 
ENDROOT
BRANCH   5   8
HETATM    8  C7  UNL     1       9.464 -27.176  15.991  1.00  0.00     0.017 C 
HETATM    9  C8  UNL     1       9.408 -27.037  14.702  1.00  0.00     0.002 C 
BRANCH   9  10
HETATM   10  C9  UNL     1      10.608 -26.481  14.016  1.00  0.00     0.019 C 
HETATM   11  C10 UNL     1      10.934 -25.219  14.198  1.00  0.00     0.008 C 
HETATM   12  C11 UNL     1      12.128 -24.688  13.508  1.00  0.00     0.062 C 
HETATM   13 CL1  UNL     1       9.954 -24.205  15.243  1.00  0.00    -0.089 Cl
ENDBRANCH   9  10
ENDBRANCH   5   8
BRANCH   6  14
HETATM   14  O3  UNL     1       9.399 -29.850  17.105  1.00  0.00    -0.357 OA
ATOM     15  H3  UNL     1       9.185 -30.630  16.607  1.00  0.00     0.217 HD
ENDBRANCH   6  14
BRANCH   7  16
HETATM   16  O4  UNL     1       7.467 -30.688  18.740  1.00  0.00    -0.357 OA
ATOM     17  H4  UNL     1       8.233 -30.996  19.210  1.00  0.00     0.217 HD
ENDBRANCH   7  16
BRANCH   1  18
HETATM   18  C2  UNL     1       5.270 -28.928  19.511  1.00  0.00     0.295 C 
HETATM   19  O2  UNL     1       4.763 -30.095  19.331  1.00  0.00    -0.259 OA
BRANCH  18  20
HETATM   20  O1  UNL     1       4.706 -28.196  20.508  1.00  0.00    -0.322 OA
HETATM   21  C1  UNL     1       5.429 -27.586  21.559  1.00  0.00     0.213 C 
ENDBRANCH  18  20
ENDBRANCH   1  18
TORSDOF 6
ENDMDL
MODEL 4
REMARK VINA RESULT: -7.474548892      2.153      2.520
REMARK  6 active torsions:
REMARK  status: ('A' for Active; 'I' for Inactive)
REMARK    1  A    between atoms: O1_2  and  C2_3 
REMARK    2  A    between atoms: C2_3  and  C3_5 
REMARK    3  A    between atoms: C6_9  and  C7_10 
REMARK    4  A    between atoms: C8_11  and  C9_12 
REMARK    5  A    between atoms: C12_16  and  O3_17 
REMARK    6  A    between atoms: C13_19  and  O4_20 
ROOT
HETATM    1  C3  UNL     1       5.534 -28.508  18.814  1.00  0.00     0.078 A 
HETATM    2  C4  UNL     1       5.331 -27.212  18.310  1.00  0.00     0.063 A 
HETATM    3  C5  UNL     1       6.322 -26.495  17.709  1.00  0.00     0.130 A 
HETATM    4  F1  UNL     1       6.125 -25.244  17.222  1.00  0.00    -0.205 F 
HETATM    5  C6  UNL     1       7.617 -27.027  17.564  1.00  0.00     0.038 A 
HETATM    6  C12 UNL     1       7.792 -28.278  18.058  1.00  0.00     0.113 A 
HETATM    7  C13 UNL     1       6.792 -29.021  18.673  1.00  0.00     0.116 A 
ENDROOT
BRANCH   5   8
HETATM    8  C7  UNL     1       8.632 -26.213  16.915  1.00  0.00     0.017 C 
HETATM    9  C8  UNL     1       8.798 -25.999  15.646  1.00  0.00     0.002 C 
BRANCH   9  10
HETATM   10  C9  UNL     1       9.927 -25.116  15.239  1.00  0.00     0.019 C 
HETATM   11  C10 UNL     1      10.761 -25.517  14.304  1.00  0.00     0.008 C 
HETATM   12  C11 UNL     1      11.874 -24.625  13.916  1.00  0.00     0.062 C 
HETATM   13 CL1  UNL     1      10.538 -27.085  13.547  1.00  0.00    -0.089 Cl
ENDBRANCH   9  10
ENDBRANCH   5   8
BRANCH   6  14
HETATM   14  O3  UNL     1       9.040 -28.885  17.960  1.00  0.00    -0.357 OA
ATOM     15  H3  UNL     1       9.811 -28.423  18.269  1.00  0.00     0.217 HD
ENDBRANCH   6  14
BRANCH   7  16
HETATM   16  O4  UNL     1       7.102 -30.290  19.135  1.00  0.00    -0.357 OA
ATOM     17  H4  UNL     1       7.902 -30.451  19.620  1.00  0.00     0.217 HD
ENDBRANCH   7  16
BRANCH   1  18
HETATM   18  C2  UNL     1       4.414 -29.196  19.439  1.00  0.00     0.295 C 
HETATM   19  O2  UNL     1       4.362 -30.468  19.263  1.00  0.00    -0.259 OA
BRANCH  18  20
HETATM   20  O1  UNL     1       3.409 -28.670  20.188  1.00  0.00    -0.322 OA
HETATM   21  C1  UNL     1       2.053 -29.058  20.090  1.00  0.00     0.213 C 
ENDBRANCH  18  20
ENDBRANCH   1  18
TORSDOF 6
ENDMDL
MODEL 5
REMARK VINA RESULT: -7.042731032      1.498      1.665
REMARK  6 active torsions:
REMARK  status: ('A' for Active; 'I' for Inactive)
REMARK    1  A    between atoms: O1_2  and  C2_3 
REMARK    2  A    between atoms: C2_3  and  C3_5 
REMARK    3  A    between atoms: C6_9  and  C7_10 
REMARK    4  A    between atoms: C8_11  and  C9_12 
REMARK    5  A    between atoms: C12_16  and  O3_17 
REMARK    6  A    between atoms: C13_19  and  O4_20 
ROOT
HETATM    1  C3  UNL     1       5.203 -28.824  18.495  1.00  0.00     0.078 A 
HETATM    2  C4  UNL     1       6.568 -29.153  18.558  1.00  0.00     0.063 A 
HETATM    3  C5  UNL     1       7.544 -28.331  18.077  1.00  0.00     0.130 A 
HETATM    4  F1  UNL     1       8.862 -28.650  18.138  1.00  0.00    -0.205 F 
HETATM    5  C6  UNL     1       7.224 -27.095  17.483  1.00  0.00     0.038 A 
HETATM    6  C12 UNL     1       5.903 -26.798  17.432  1.00  0.00     0.113 A 
HETATM    7  C13 UNL     1       4.897 -27.624  17.918  1.00  0.00     0.116 A 
ENDROOT
BRANCH   5   8
HETATM    8  C7  UNL     1       8.309 -26.264  16.988  1.00  0.00     0.017 C 
HETATM    9  C8  UNL     1       8.757 -26.168  15.774  1.00  0.00     0.002 C 
BRANCH   9  10
HETATM   10  C9  UNL     1       9.890 -25.232  15.531  1.00  0.00     0.019 C 
HETATM   11  C10 UNL     1      10.769 -25.504  14.589  1.00  0.00     0.008 C 
HETATM   12  C11 UNL     1      11.884 -24.562  14.366  1.00  0.00     0.062 C 
HETATM   13 CL1  UNL     1      10.597 -26.965  13.631  1.00  0.00    -0.089 Cl
ENDBRANCH   9  10
ENDBRANCH   5   8
BRANCH   6  14
HETATM   14  O3  UNL     1       5.492 -25.597  16.862  1.00  0.00    -0.357 OA
ATOM     15  H3  UNL     1       5.259 -25.571  15.941  1.00  0.00     0.217 HD
ENDBRANCH   6  14
BRANCH   7  16
HETATM   16  O4  UNL     1       3.583 -27.202  17.804  1.00  0.00    -0.357 OA
ATOM     17  H4  UNL     1       3.376 -26.309  17.554  1.00  0.00     0.217 HD
ENDBRANCH   7  16
BRANCH   1  18
HETATM   18  C2  UNL     1       4.235 -29.765  19.036  1.00  0.00     0.295 C 
HETATM   19  O2  UNL     1       4.699 -30.907  19.402  1.00  0.00    -0.259 OA
BRANCH  18  20
HETATM   20  O1  UNL     1       2.896 -29.599  19.207  1.00  0.00    -0.322 OA
HETATM   21  C1  UNL     1       2.306 -28.989  20.337  1.00  0.00     0.213 C 
ENDBRANCH  18  20
ENDBRANCH   1  18
TORSDOF 6
ENDMDL
