MODEL 1
REMARK VINA RESULT: -7.603398882      0.000      0.000
REMARK  5 active torsions:
REMARK  status: ('A' for Active; 'I' for Inactive)
REMARK    1  A    between atoms: C5_5  and  N1_6 
REMARK       I    between atoms: N1_6  and  C6_8 
REMARK    2  A    between atoms: C6_8  and  C7_10 
REMARK    3  A    between atoms: C15_18  and  O2_19 
REMARK    4  A    between atoms: O2_19  and  C16_20 
REMARK    5  A    between atoms: C16_20  and  C17_22 
ROOT
HETATM    1  C7  UNL     1     -33.580  -7.528 -26.523  1.00  0.00     0.065 C 
HETATM    2  C8  UNL     1     -34.130  -8.353 -27.701  1.00  0.00     0.028 C 
HETATM    3  C9  UNL     1     -34.664  -6.557 -26.172  1.00  0.00     0.021 C 
HETATM    4  C10 UNL     1     -34.569  -5.399 -27.103  1.00  0.00     0.002 C 
HETATM    5  C11 UNL     1     -33.316  -4.660 -26.701  1.00  0.00     0.011 C 
HETATM    6  C12 UNL     1     -32.081  -5.476 -26.753  1.00  0.00    -0.020 C 
HETATM    7  C13 UNL     1     -31.193  -5.010 -25.615  1.00  0.00     0.017 C 
HETATM    8  C14 UNL     1     -31.342  -5.055 -28.037  1.00  0.00     0.017 C 
HETATM    9  C15 UNL     1     -32.238  -6.960 -26.783  1.00  0.00     0.157 C 
ENDROOT
BRANCH   1  10
HETATM   10  C6  UNL     1     -33.577  -8.520 -25.386  1.00  0.00     0.230 C 
HETATM   11  N1  UNL     1     -33.207  -9.870 -25.596  1.00  0.00    -0.333 N 
ATOM     12  H1  UNL     1     -32.935 -10.195 -26.524  1.00  0.00     0.165 HD
HETATM   13  O1  UNL     1     -33.919  -8.076 -24.267  1.00  0.00    -0.273 OA
BRANCH  11  14
HETATM   14  C5  UNL     1     -33.222 -10.785 -24.469  1.00  0.00     0.234 C 
HETATM   15  C4  UNL     1     -33.154 -12.194 -25.014  1.00  0.00     0.084 C 
HETATM   16  C2  UNL     1     -32.529 -13.152 -24.022  1.00  0.00     0.029 C 
HETATM   17  C1  UNL     1     -33.241 -13.146 -22.684  1.00  0.00     0.038 C 
HETATM   18  C3  UNL     1     -32.554 -14.531 -24.649  1.00  0.00     0.038 C 
HETATM   19  N2  UNL     1     -31.176 -12.692 -23.788  1.00  0.00    -0.353 N 
HETATM   20  C21 UNL     1     -30.993 -11.293 -23.612  1.00  0.00     0.212 C 
ATOM     21  H2  UNL     1     -30.390 -13.342 -23.751  1.00  0.00     0.163 HD
HETATM   22  O4  UNL     1     -32.150 -10.495 -23.589  1.00  0.00    -0.301 OA
HETATM   23  S1  UNL     1     -29.495 -10.716 -23.454  1.00  0.00    -0.033 SA
ENDBRANCH  11  14
ENDBRANCH   1  10
BRANCH   9  24
HETATM   24  O2  UNL     1     -31.848  -7.497 -28.062  1.00  0.00    -0.313 OA
BRANCH  24  25
HETATM   25  C16 UNL     1     -30.849  -8.410 -28.256  1.00  0.00     0.267 C 
HETATM   26  O3  UNL     1     -31.109  -9.610 -27.983  1.00  0.00    -0.264 OA
BRANCH  25  27
HETATM   27  C17 UNL     1     -29.495  -8.086 -28.759  1.00  0.00     0.044 A 
HETATM   28  C18 UNL     1     -28.603  -7.392 -27.750  1.00  0.00     0.026 C 
HETATM   29  C19 UNL     1     -28.853  -8.915 -29.803  1.00  0.00     0.020 A 
HETATM   30  C20 UNL     1     -29.371  -7.541 -30.164  1.00  0.00     0.020 A 
ENDBRANCH  25  27
ENDBRANCH  24  25
ENDBRANCH   9  24
TORSDOF 5
ENDMDL
MODEL 2
REMARK VINA RESULT: -7.045204207      2.017      2.578
REMARK  5 active torsions:
REMARK  status: ('A' for Active; 'I' for Inactive)
REMARK    1  A    between atoms: C5_5  and  N1_6 
REMARK       I    between atoms: N1_6  and  C6_8 
REMARK    2  A    between atoms: C6_8  and  C7_10 
REMARK    3  A    between atoms: C15_18  and  O2_19 
REMARK    4  A    between atoms: O2_19  and  C16_20 
REMARK    5  A    between atoms: C16_20  and  C17_22 
ROOT
HETATM    1  C7  UNL     1     -33.035  -7.408 -27.835  1.00  0.00     0.065 C 
HETATM    2  C8  UNL     1     -33.238  -7.503 -29.358  1.00  0.00     0.028 C 
HETATM    3  C9  UNL     1     -34.412  -7.338 -27.251  1.00  0.00     0.021 C 
HETATM    4  C10 UNL     1     -34.879  -5.926 -27.334  1.00  0.00     0.002 C 
HETATM    5  C11 UNL     1     -34.050  -5.167 -26.327  1.00  0.00     0.011 C 
HETATM    6  C12 UNL     1     -32.588  -5.248 -26.554  1.00  0.00    -0.020 C 
HETATM    7  C13 UNL     1     -31.928  -5.257 -25.187  1.00  0.00     0.017 C 
HETATM    8  C14 UNL     1     -32.176  -3.907 -27.189  1.00  0.00     0.017 C 
HETATM    9  C15 UNL     1     -32.089  -6.343 -27.435  1.00  0.00     0.157 C 
ENDROOT
BRANCH   1  10
HETATM   10  C6  UNL     1     -32.540  -8.788 -27.473  1.00  0.00     0.230 C 
HETATM   11  N1  UNL     1     -33.152  -9.534 -26.437  1.00  0.00    -0.333 N 
ATOM     12  H1  UNL     1     -33.941  -9.149 -25.918  1.00  0.00     0.165 HD
HETATM   13  O1  UNL     1     -31.570  -9.216 -28.137  1.00  0.00    -0.273 OA
BRANCH  11  14
HETATM   14  C5  UNL     1     -32.638 -10.855 -26.128  1.00  0.00     0.234 C 
HETATM   15  C4  UNL     1     -31.592 -10.705 -25.045  1.00  0.00     0.084 C 
HETATM   16  C2  UNL     1     -31.463 -11.961 -24.209  1.00  0.00     0.029 C 
HETATM   17  C1  UNL     1     -31.169 -13.187 -25.048  1.00  0.00     0.038 C 
HETATM   18  C3  UNL     1     -30.365 -11.715 -23.194  1.00  0.00     0.038 C 
HETATM   19  N2  UNL     1     -32.746 -12.176 -23.572  1.00  0.00    -0.353 N 
HETATM   20  C21 UNL     1     -33.903 -11.994 -24.377  1.00  0.00     0.212 C 
ATOM     21  H2  UNL     1     -32.816 -12.446 -22.591  1.00  0.00     0.163 HD
HETATM   22  O4  UNL     1     -33.696 -11.714 -25.739  1.00  0.00    -0.301 OA
HETATM   23  S1  UNL     1     -35.357 -12.119 -23.692  1.00  0.00    -0.033 SA
ENDBRANCH  11  14
ENDBRANCH   1  10
BRANCH   9  24
HETATM   24  O2  UNL     1     -31.576  -5.817 -28.675  1.00  0.00    -0.313 OA
BRANCH  24  25
HETATM   25  C16 UNL     1     -30.313  -6.031 -29.153  1.00  0.00     0.267 C 
HETATM   26  O3  UNL     1     -30.188  -6.181 -30.396  1.00  0.00    -0.264 OA
BRANCH  25  27
HETATM   27  C17 UNL     1     -29.093  -6.097 -28.316  1.00  0.00     0.044 A 
HETATM   28  C18 UNL     1     -28.657  -4.764 -27.742  1.00  0.00     0.026 C 
HETATM   29  C19 UNL     1     -28.753  -7.325 -27.563  1.00  0.00     0.020 A 
HETATM   30  C20 UNL     1     -27.950  -6.963 -28.793  1.00  0.00     0.020 A 
ENDBRANCH  25  27
ENDBRANCH  24  25
ENDBRANCH   9  24
TORSDOF 5
ENDMDL
MODEL 3
REMARK VINA RESULT: -6.882721692      2.313      3.560
REMARK  5 active torsions:
REMARK  status: ('A' for Active; 'I' for Inactive)
REMARK    1  A    between atoms: C5_5  and  N1_6 
REMARK       I    between atoms: N1_6  and  C6_8 
REMARK    2  A    between atoms: C6_8  and  C7_10 
REMARK    3  A    between atoms: C15_18  and  O2_19 
REMARK    4  A    between atoms: O2_19  and  C16_20 
REMARK    5  A    between atoms: C16_20  and  C17_22 
ROOT
HETATM    1  C7  UNL     1     -31.196  -7.830 -25.929  1.00  0.00     0.065 C 
HETATM    2  C8  UNL     1     -32.514  -7.218 -25.418  1.00  0.00     0.028 C 
HETATM    3  C9  UNL     1     -30.220  -7.673 -24.805  1.00  0.00     0.021 C 
HETATM    4  C10 UNL     1     -29.666  -6.292 -24.861  1.00  0.00     0.002 C 
HETATM    5  C11 UNL     1     -28.779  -6.261 -26.081  1.00  0.00     0.011 C 
HETATM    6  C12 UNL     1     -29.470  -6.599 -27.348  1.00  0.00    -0.020 C 
HETATM    7  C13 UNL     1     -28.471  -7.349 -28.210  1.00  0.00     0.017 C 
HETATM    8  C14 UNL     1     -29.708  -5.264 -28.077  1.00  0.00     0.017 C 
HETATM    9  C15 UNL     1     -30.780  -7.305 -27.249  1.00  0.00     0.157 C 
ENDROOT
BRANCH   1  10
HETATM   10  C6  UNL     1     -31.500  -9.308 -25.963  1.00  0.00     0.230 C 
HETATM   11  N1  UNL     1     -32.015  -9.974 -24.826  1.00  0.00    -0.333 N 
ATOM     12  H1  UNL     1     -32.190  -9.462 -23.960  1.00  0.00     0.165 HD
HETATM   13  O1  UNL     1     -31.269  -9.892 -27.046  1.00  0.00    -0.273 OA
BRANCH  11  14
HETATM   14  C5  UNL     1     -32.290 -11.396 -24.911  1.00  0.00     0.234 C 
HETATM   15  C4  UNL     1     -32.491 -11.915 -23.504  1.00  0.00     0.084 C 
HETATM   16  C2  UNL     1     -33.381 -13.140 -23.477  1.00  0.00     0.029 C 
HETATM   17  C1  UNL     1     -32.865 -14.249 -24.371  1.00  0.00     0.038 C 
HETATM   18  C3  UNL     1     -33.476 -13.597 -22.036  1.00  0.00     0.038 C 
HETATM   19  N2  UNL     1     -34.670 -12.735 -23.999  1.00  0.00    -0.353 N 
HETATM   20  C21 UNL     1     -34.666 -11.905 -25.153  1.00  0.00     0.212 C 
ATOM     21  H2  UNL     1     -35.541 -13.032 -23.559  1.00  0.00     0.163 HD
HETATM   22  O4  UNL     1     -33.417 -11.629 -25.737  1.00  0.00    -0.301 OA
HETATM   23  S1  UNL     1     -36.069 -11.340 -25.713  1.00  0.00    -0.033 SA
ENDBRANCH  11  14
ENDBRANCH   1  10
BRANCH   9  24
HETATM   24  O2  UNL     1     -31.862  -6.450 -27.667  1.00  0.00    -0.313 OA
BRANCH  24  25
HETATM   25  C16 UNL     1     -32.505  -6.533 -28.871  1.00  0.00     0.267 C 
HETATM   26  O3  UNL     1     -32.692  -5.457 -29.496  1.00  0.00    -0.264 OA
BRANCH  25  27
HETATM   27  C17 UNL     1     -32.990  -7.790 -29.484  1.00  0.00     0.044 A 
HETATM   28  C18 UNL     1     -33.966  -8.567 -28.624  1.00  0.00     0.026 C 
HETATM   29  C19 UNL     1     -33.091  -7.932 -30.953  1.00  0.00     0.020 A 
HETATM   30  C20 UNL     1     -31.989  -8.658 -30.213  1.00  0.00     0.020 A 
ENDBRANCH  25  27
ENDBRANCH  24  25
ENDBRANCH   9  24
TORSDOF 5
ENDMDL
MODEL 4
REMARK VINA RESULT: -6.832869476      2.658      6.553
REMARK  5 active torsions:
REMARK  status: ('A' for Active; 'I' for Inactive)
REMARK    1  A    between atoms: C5_5  and  N1_6 
REMARK       I    between atoms: N1_6  and  C6_8 
REMARK    2  A    between atoms: C6_8  and  C7_10 
REMARK    3  A    between atoms: C15_18  and  O2_19 
REMARK    4  A    between atoms: O2_19  and  C16_20 
REMARK    5  A    between atoms: C16_20  and  C17_22 
ROOT
HETATM    1  C7  UNL     1     -33.444 -10.697 -25.516  1.00  0.00     0.065 C 
HETATM    2  C8  UNL     1     -34.178  -9.605 -24.717  1.00  0.00     0.028 C 
HETATM    3  C9  UNL     1     -34.398 -11.849 -25.590  1.00  0.00     0.021 C 
HETATM    4  C10 UNL     1     -34.290 -12.623 -24.323  1.00  0.00     0.002 C 
HETATM    5  C11 UNL     1     -32.943 -13.301 -24.377  1.00  0.00     0.011 C 
HETATM    6  C12 UNL     1     -31.797 -12.373 -24.523  1.00  0.00    -0.020 C 
HETATM    7  C13 UNL     1     -30.764 -13.076 -25.383  1.00  0.00     0.017 C 
HETATM    8  C14 UNL     1     -31.152 -12.265 -23.128  1.00  0.00     0.017 C 
HETATM    9  C15 UNL     1     -32.088 -10.990 -24.999  1.00  0.00     0.157 C 
ENDROOT
BRANCH   1  10
HETATM   10  C6  UNL     1     -33.420 -10.135 -26.917  1.00  0.00     0.230 C 
HETATM   11  N1  UNL     1     -32.287  -9.441 -27.405  1.00  0.00    -0.333 N 
ATOM     12  H1  UNL     1     -31.465  -9.310 -26.815  1.00  0.00     0.165 HD
HETATM   13  O1  UNL     1     -34.451 -10.320 -27.602  1.00  0.00    -0.273 OA
BRANCH  11  14
HETATM   14  C5  UNL     1     -32.314  -8.919 -28.759  1.00  0.00     0.234 C 
HETATM   15  C4  UNL     1     -32.437  -7.414 -28.674  1.00  0.00     0.084 C 
HETATM   16  C2  UNL     1     -31.844  -6.732 -29.889  1.00  0.00     0.029 C 
HETATM   17  C1  UNL     1     -32.450  -7.229 -31.185  1.00  0.00     0.038 C 
HETATM   18  C3  UNL     1     -32.061  -5.242 -29.719  1.00  0.00     0.038 C 
HETATM   19  N2  UNL     1     -30.436  -7.070 -29.917  1.00  0.00    -0.353 N 
HETATM   20  C21 UNL     1     -30.094  -8.422 -29.644  1.00  0.00     0.212 C 
ATOM     21  H2  UNL     1     -29.723  -6.370 -30.123  1.00  0.00     0.163 HD
HETATM   22  O4  UNL     1     -31.155  -9.326 -29.464  1.00  0.00    -0.301 OA
HETATM   23  S1  UNL     1     -28.536  -8.831 -29.559  1.00  0.00    -0.033 SA
ENDBRANCH  11  14
ENDBRANCH   1  10
BRANCH   9  24
HETATM   24  O2  UNL     1     -31.874 -10.025 -23.950  1.00  0.00    -0.313 OA
BRANCH  24  25
HETATM   25  C16 UNL     1     -30.997  -8.979 -24.016  1.00  0.00     0.267 C 
HETATM   26  O3  UNL     1     -31.165  -8.148 -24.946  1.00  0.00    -0.264 OA
BRANCH  25  27
HETATM   27  C17 UNL     1     -29.873  -8.758 -23.078  1.00  0.00     0.044 A 
HETATM   28  C18 UNL     1     -29.712  -7.322 -22.623  1.00  0.00     0.026 C 
HETATM   29  C19 UNL     1     -29.420  -9.833 -22.167  1.00  0.00     0.020 A 
HETATM   30  C20 UNL     1     -28.565  -9.463 -23.358  1.00  0.00     0.020 A 
ENDBRANCH  25  27
ENDBRANCH  24  25
ENDBRANCH   9  24
TORSDOF 5
ENDMDL
MODEL 5
REMARK VINA RESULT: -6.830032676      2.642      4.342
REMARK  5 active torsions:
REMARK  status: ('A' for Active; 'I' for Inactive)
REMARK    1  A    between atoms: C5_5  and  N1_6 
REMARK       I    between atoms: N1_6  and  C6_8 
REMARK    2  A    between atoms: C6_8  and  C7_10 
REMARK    3  A    between atoms: C15_18  and  O2_19 
REMARK    4  A    between atoms: O2_19  and  C16_20 
REMARK    5  A    between atoms: C16_20  and  C17_22 
ROOT
HETATM    1  C7  UNL     1     -31.235  -7.218 -23.658  1.00  0.00     0.065 C 
HETATM    2  C8  UNL     1     -32.334  -6.780 -22.673  1.00  0.00     0.028 C 
HETATM    3  C9  UNL     1     -29.955  -7.161 -22.881  1.00  0.00     0.021 C 
HETATM    4  C10 UNL     1     -29.474  -5.752 -22.883  1.00  0.00     0.002 C 
HETATM    5  C11 UNL     1     -29.020  -5.481 -24.296  1.00  0.00     0.011 C 
HETATM    6  C12 UNL     1     -30.069  -5.677 -25.324  1.00  0.00    -0.020 C 
HETATM    7  C13 UNL     1     -29.381  -6.221 -26.562  1.00  0.00     0.017 C 
HETATM    8  C14 UNL     1     -30.551  -4.268 -25.719  1.00  0.00     0.017 C 
HETATM    9  C15 UNL     1     -31.267  -6.478 -24.939  1.00  0.00     0.157 C 
ENDROOT
BRANCH   1  10
HETATM   10  C6  UNL     1     -31.505  -8.692 -23.834  1.00  0.00     0.230 C 
HETATM   11  N1  UNL     1     -32.543  -9.147 -24.682  1.00  0.00    -0.333 N 
ATOM     12  H1  UNL     1     -33.127  -8.482 -25.190  1.00  0.00     0.165 HD
HETATM   13  O1  UNL     1     -30.764  -9.469 -23.190  1.00  0.00    -0.273 OA
BRANCH  11  14
HETATM   14  C5  UNL     1     -32.763 -10.575 -24.817  1.00  0.00     0.234 C 
HETATM   15  C4  UNL     1     -33.837 -10.975 -23.829  1.00  0.00     0.084 C 
HETATM   16  C2  UNL     1     -34.592 -12.206 -24.286  1.00  0.00     0.029 C 
HETATM   17  C1  UNL     1     -33.674 -13.380 -24.559  1.00  0.00     0.038 C 
HETATM   18  C3  UNL     1     -35.603 -12.540 -23.209  1.00  0.00     0.038 C 
HETATM   19  N2  UNL     1     -35.234 -11.865 -25.539  1.00  0.00    -0.353 N 
HETATM   20  C21 UNL     1     -34.459 -11.136 -26.482  1.00  0.00     0.212 C 
ATOM     21  H2  UNL     1     -36.197 -12.135 -25.736  1.00  0.00     0.163 HD
HETATM   22  O4  UNL     1     -33.114 -10.893 -26.152  1.00  0.00    -0.301 OA
HETATM   23  S1  UNL     1     -35.157 -10.640 -27.848  1.00  0.00    -0.033 SA
ENDBRANCH  11  14
ENDBRANCH   1  10
BRANCH   9  24
HETATM   24  O2  UNL     1     -32.442  -5.647 -24.859  1.00  0.00    -0.313 OA
BRANCH  24  25
HETATM   25  C16 UNL     1     -33.593  -5.849 -25.568  1.00  0.00     0.267 C 
HETATM   26  O3  UNL     1     -34.449  -6.620 -25.064  1.00  0.00    -0.264 OA
BRANCH  25  27
HETATM   27  C17 UNL     1     -33.899  -5.228 -26.877  1.00  0.00     0.044 A 
HETATM   28  C18 UNL     1     -34.684  -3.935 -26.786  1.00  0.00     0.026 C 
HETATM   29  C19 UNL     1     -33.000  -5.417 -28.038  1.00  0.00     0.020 A 
HETATM   30  C20 UNL     1     -34.334  -6.132 -28.009  1.00  0.00     0.020 A 
ENDBRANCH  25  27
ENDBRANCH  24  25
ENDBRANCH   9  24
TORSDOF 5
ENDMDL
