MODEL 1
REMARK VINA RESULT: -9.611425545      0.000      0.000
REMARK  10 active torsions:
REMARK  status: ('A' for Active; 'I' for Inactive)
REMARK    1  A    between atoms: C2_2  and  O2_4 
REMARK    2  A    between atoms: O2_4  and  C3_5 
REMARK    3  A    between atoms: C3_5  and  C4_6 
REMARK    4  A    between atoms: C3_5  and  C20_35 
REMARK    5  A    between atoms: C5_7  and  C6_8 
REMARK    6  A    between atoms: C10_12  and  C11_13 
REMARK    7  A    between atoms: N1_14  and  N2_16 
REMARK       I    between atoms: C12_18  and  N4_20 
REMARK    8  A    between atoms: N4_20  and  O3_22 
REMARK    9  A    between atoms: C14_25  and  O4_26 
REMARK   10  A    between atoms: C16_29  and  O5_30 
ROOT
HETATM    1  C6  UNL     1       3.619 -26.944 -12.647  1.00  0.00     0.024 C 
HETATM    2  C7  UNL     1       3.094 -26.947 -14.067  1.00  0.00     0.044 C 
HETATM    3  C8  UNL     1       2.059 -25.788 -14.037  1.00  0.00    -0.071 C 
HETATM    4  C9  UNL     1       2.245 -24.673 -14.945  1.00  0.00     0.044 C 
HETATM    5  C10 UNL     1       1.112 -25.927 -13.155  1.00  0.00    -0.012 C 
HETATM    6  C13 UNL     1       1.207 -27.178 -12.348  1.00  0.00    -0.030 C 
HETATM    7  C14 UNL     1       0.091 -27.419 -11.384  1.00  0.00     0.151 C 
HETATM    8  C15 UNL     1       0.157 -28.832 -10.928  1.00  0.00     0.068 C 
HETATM    9  C16 UNL     1       1.313 -29.656 -11.314  1.00  0.00     0.122 C 
HETATM   10  C17 UNL     1       2.578 -29.023 -11.718  1.00  0.00     0.046 C 
HETATM   11  C18 UNL     1       2.514 -27.509 -11.753  1.00  0.00    -0.008 C 
HETATM   12  C19 UNL     1       2.833 -27.027 -10.382  1.00  0.00     0.021 C 
ENDROOT
BRANCH   5  13
HETATM   13  C11 UNL     1       0.071 -24.961 -12.965  1.00  0.00     0.119 C 
HETATM   14  N1  UNL     1      -0.689 -24.239 -13.572  1.00  0.00    -0.309 N 
ATOM     15  H1  UNL     1      -1.231 -23.747 -12.861  1.00  0.00     0.186 HD
BRANCH  14  16
HETATM   16  N2  UNL     1      -1.137 -23.797 -14.732  1.00  0.00    -0.272 N 
HETATM   17  C12 UNL     1      -0.729 -22.583 -15.106  1.00  0.00     0.227 C 
HETATM   18  N3  UNL     1      -1.274 -22.204 -16.383  1.00  0.00    -0.060 NA
HETATM   19  N4  UNL     1       0.121 -21.853 -14.322  1.00  0.00    -0.240 N 
ATOM     20  H4  UNL     1       0.861 -22.346 -13.821  1.00  0.00     0.197 HD
ATOM     21  H2  UNL     1      -1.763 -24.355 -15.313  1.00  0.00     0.189 HD
BRANCH  19  22
HETATM   22  O3  UNL     1       0.040 -20.627 -14.187  1.00  0.00    -0.287 OA
ATOM     23  H3  UNL     1       0.582 -20.129 -13.586  1.00  0.00     0.244 HD
ENDBRANCH  19  22
ENDBRANCH  14  16
ENDBRANCH   5  13
BRANCH   7  24
HETATM   24  O4  UNL     1       0.064 -26.569 -10.284  1.00  0.00    -0.391 OA
ATOM     25  H4  UNL     1      -0.632 -25.922 -10.289  1.00  0.00     0.210 HD
ENDBRANCH   7  24
BRANCH   1  26
HETATM   26  C5  UNL     1       4.867 -27.674 -12.493  1.00  0.00    -0.022 C 
HETATM   27  C4  UNL     1       5.931 -27.228 -11.832  1.00  0.00     0.002 C 
BRANCH  27  28
HETATM   28  C3  UNL     1       7.143 -28.092 -11.771  1.00  0.00     0.157 C 
BRANCH  28  29
HETATM   29  O2  UNL     1       7.440 -28.548 -10.505  1.00  0.00    -0.312 OA
BRANCH  29  30
HETATM   30  C2  UNL     1       7.098 -29.829  -9.984  1.00  0.00     0.255 C 
HETATM   31  C1  UNL     1       5.699 -30.257  -9.979  1.00  0.00     0.126 C 
HETATM   32  O1  UNL     1       8.017 -30.528  -9.571  1.00  0.00    -0.266 OA
ENDBRANCH  29  30
ENDBRANCH  28  29
BRANCH  28  33
HETATM   33  C20 UNL     1       8.349 -27.536 -12.476  1.00  0.00     0.011 C 
HETATM   34  C21 UNL     1       8.110 -27.680 -13.980  1.00  0.00     0.012 C 
HETATM   35  C22 UNL     1       8.567 -26.076 -12.100  1.00  0.00     0.012 C 
ENDBRANCH  28  33
ENDBRANCH  27  28
ENDBRANCH   1  26
BRANCH   9  36
HETATM   36  O5  UNL     1       0.877 -30.491 -12.377  1.00  0.00    -0.395 OA
ATOM     37  H5  UNL     1       1.363 -30.223 -13.147  1.00  0.00     0.210 HD
ENDBRANCH   9  36
TORSDOF 10
ENDMDL
MODEL 2
REMARK VINA RESULT: -9.417790234      5.004      7.203
REMARK  10 active torsions:
REMARK  status: ('A' for Active; 'I' for Inactive)
REMARK    1  A    between atoms: C2_2  and  O2_4 
REMARK    2  A    between atoms: O2_4  and  C3_5 
REMARK    3  A    between atoms: C3_5  and  C4_6 
REMARK    4  A    between atoms: C3_5  and  C20_35 
REMARK    5  A    between atoms: C5_7  and  C6_8 
REMARK    6  A    between atoms: C10_12  and  C11_13 
REMARK    7  A    between atoms: N1_14  and  N2_16 
REMARK       I    between atoms: C12_18  and  N4_20 
REMARK    8  A    between atoms: N4_20  and  O3_22 
REMARK    9  A    between atoms: C14_25  and  O4_26 
REMARK   10  A    between atoms: C16_29  and  O5_30 
ROOT
HETATM    1  C6  UNL     1       4.063 -29.584 -11.612  1.00  0.00     0.024 C 
HETATM    2  C7  UNL     1       4.434 -29.719 -10.150  1.00  0.00     0.044 C 
HETATM    3  C8  UNL     1       3.828 -31.102  -9.784  1.00  0.00    -0.071 C 
HETATM    4  C9  UNL     1       4.718 -32.136  -9.292  1.00  0.00     0.044 C 
HETATM    5  C10 UNL     1       2.546 -31.205  -9.985  1.00  0.00    -0.012 C 
HETATM    6  C13 UNL     1       1.911 -29.969 -10.525  1.00  0.00    -0.030 C 
HETATM    7  C14 UNL     1       0.426 -30.015 -10.689  1.00  0.00     0.151 C 
HETATM    8  C15 UNL     1      -0.070 -28.630 -10.898  1.00  0.00     0.068 C 
HETATM    9  C16 UNL     1       0.901 -27.541 -11.083  1.00  0.00     0.122 C 
HETATM   10  C17 UNL     1       2.275 -27.834 -11.522  1.00  0.00     0.046 C 
HETATM   11  C18 UNL     1       2.559 -29.315 -11.676  1.00  0.00    -0.008 C 
HETATM   12  C19 UNL     1       2.150 -29.696 -13.055  1.00  0.00     0.021 C 
ENDROOT
BRANCH   5  13
HETATM   13  C11 UNL     1       1.806 -32.403  -9.721  1.00  0.00     0.119 C 
HETATM   14  N1  UNL     1       1.391 -33.094  -8.816  1.00  0.00    -0.309 N 
ATOM     15  H1  UNL     1       0.903 -33.871  -9.262  1.00  0.00     0.186 HD
BRANCH  14  16
HETATM   16  N2  UNL     1       1.282 -33.301  -7.517  1.00  0.00    -0.272 N 
HETATM   17  C12 UNL     1       0.043 -33.416  -7.034  1.00  0.00     0.227 C 
HETATM   18  N3  UNL     1       0.042 -33.642  -5.612  1.00  0.00    -0.060 NA
HETATM   19  N4  UNL     1      -1.045 -33.334  -7.858  1.00  0.00    -0.240 N 
ATOM     20  H4  UNL     1      -0.979 -33.747  -8.788  1.00  0.00     0.197 HD
ATOM     21  H2  UNL     1       2.102 -33.371  -6.914  1.00  0.00     0.189 HD
BRANCH  19  22
HETATM   22  O3  UNL     1      -2.104 -32.784  -7.534  1.00  0.00    -0.287 OA
ATOM     23  H3  UNL     1      -2.330 -31.896  -7.783  1.00  0.00     0.244 HD
ENDBRANCH  19  22
ENDBRANCH  14  16
ENDBRANCH   5  13
BRANCH   7  24
HETATM   24  O4  UNL     1      -0.033 -30.840 -11.709  1.00  0.00    -0.391 OA
ATOM     25  H4  UNL     1       0.542 -30.910 -12.462  1.00  0.00     0.210 HD
ENDBRANCH   7  24
BRANCH   1  26
HETATM   26  C5  UNL     1       4.827 -28.561 -12.308  1.00  0.00    -0.022 C 
HETATM   27  C4  UNL     1       5.827 -27.866 -11.775  1.00  0.00     0.002 C 
BRANCH  27  28
HETATM   28  C3  UNL     1       6.508 -26.842 -12.617  1.00  0.00     0.157 C 
BRANCH  28  29
HETATM   29  O2  UNL     1       6.134 -26.874 -13.943  1.00  0.00    -0.312 OA
BRANCH  29  30
HETATM   30  C2  UNL     1       5.485 -25.818 -14.646  1.00  0.00     0.255 C 
HETATM   31  C1  UNL     1       4.024 -25.801 -14.735  1.00  0.00     0.126 C 
HETATM   32  O1  UNL     1       6.199 -24.952 -15.140  1.00  0.00    -0.266 OA
ENDBRANCH  29  30
ENDBRANCH  28  29
BRANCH  28  33
HETATM   33  C20 UNL     1       8.000 -26.776 -12.445  1.00  0.00     0.011 C 
HETATM   34  C21 UNL     1       8.403 -25.301 -12.483  1.00  0.00     0.012 C 
HETATM   35  C22 UNL     1       8.420 -27.418 -11.129  1.00  0.00     0.012 C 
ENDBRANCH  28  33
ENDBRANCH  27  28
ENDBRANCH   1  26
BRANCH   9  36
HETATM   36  O5  UNL     1       0.971 -26.847  -9.846  1.00  0.00    -0.395 OA
ATOM     37  H5  UNL     1       0.484 -26.040  -9.961  1.00  0.00     0.210 HD
ENDBRANCH   9  36
TORSDOF 10
ENDMDL
MODEL 3
REMARK VINA RESULT: -9.416931546      5.038      7.346
REMARK  10 active torsions:
REMARK  status: ('A' for Active; 'I' for Inactive)
REMARK    1  A    between atoms: C2_2  and  O2_4 
REMARK    2  A    between atoms: O2_4  and  C3_5 
REMARK    3  A    between atoms: C3_5  and  C4_6 
REMARK    4  A    between atoms: C3_5  and  C20_35 
REMARK    5  A    between atoms: C5_7  and  C6_8 
REMARK    6  A    between atoms: C10_12  and  C11_13 
REMARK    7  A    between atoms: N1_14  and  N2_16 
REMARK       I    between atoms: C12_18  and  N4_20 
REMARK    8  A    between atoms: N4_20  and  O3_22 
REMARK    9  A    between atoms: C14_25  and  O4_26 
REMARK   10  A    between atoms: C16_29  and  O5_30 
ROOT
HETATM    1  C6  UNL     1       4.479 -28.892 -12.111  1.00  0.00     0.024 C 
HETATM    2  C7  UNL     1       5.221 -28.557 -10.834  1.00  0.00     0.044 C 
HETATM    3  C8  UNL     1       5.384 -29.954 -10.173  1.00  0.00    -0.071 C 
HETATM    4  C9  UNL     1       6.724 -30.433  -9.895  1.00  0.00     0.044 C 
HETATM    5  C10 UNL     1       4.267 -30.584  -9.950  1.00  0.00    -0.012 C 
HETATM    6  C13 UNL     1       3.048 -29.836 -10.371  1.00  0.00    -0.030 C 
HETATM    7  C14 UNL     1       1.740 -30.485 -10.054  1.00  0.00     0.151 C 
HETATM    8  C15 UNL     1       0.660 -29.479 -10.220  1.00  0.00     0.068 C 
HETATM    9  C16 UNL     1       0.985 -28.166 -10.799  1.00  0.00     0.122 C 
HETATM   10  C17 UNL     1       2.195 -27.993 -11.619  1.00  0.00     0.046 C 
HETATM   11  C18 UNL     1       3.043 -29.245 -11.722  1.00  0.00    -0.008 C 
HETATM   12  C19 UNL     1       2.511 -30.040 -12.862  1.00  0.00     0.021 C 
ENDROOT
BRANCH   5  13
HETATM   13  C11 UNL     1       4.209 -31.888  -9.360  1.00  0.00     0.119 C 
HETATM   14  N1  UNL     1       3.553 -32.568  -8.600  1.00  0.00    -0.309 N 
ATOM     15  H1  UNL     1       4.025 -33.472  -8.561  1.00  0.00     0.186 HD
BRANCH  14  16
HETATM   16  N2  UNL     1       2.508 -32.675  -7.802  1.00  0.00    -0.272 N 
HETATM   17  C12 UNL     1       1.542 -33.510  -8.192  1.00  0.00     0.227 C 
HETATM   18  N3  UNL     1       0.456 -33.551  -7.249  1.00  0.00    -0.060 NA
HETATM   19  N4  UNL     1       1.653 -34.219  -9.356  1.00  0.00    -0.240 N 
ATOM     20  H4  UNL     1       2.570 -34.580  -9.618  1.00  0.00     0.197 HD
ATOM     21  H2  UNL     1       2.442 -32.148  -6.931  1.00  0.00     0.189 HD
BRANCH  19  22
HETATM   22  O3  UNL     1       0.698 -34.447 -10.108  1.00  0.00    -0.287 OA
ATOM     23  H3  UNL     1       0.782 -34.533 -11.050  1.00  0.00     0.244 HD
ENDBRANCH  19  22
ENDBRANCH  14  16
ENDBRANCH   5  13
BRANCH   7  24
HETATM   24  O4  UNL     1       1.446 -31.621 -10.800  1.00  0.00    -0.391 OA
ATOM     25  H4  UNL     1       0.525 -31.849 -10.843  1.00  0.00     0.210 HD
ENDBRANCH   7  24
BRANCH   1  26
HETATM   26  C5  UNL     1       4.526 -27.828 -13.101  1.00  0.00    -0.022 C 
HETATM   27  C4  UNL     1       5.357 -26.791 -13.061  1.00  0.00     0.002 C 
BRANCH  27  28
HETATM   28  C3  UNL     1       5.277 -25.775 -14.148  1.00  0.00     0.157 C 
BRANCH  28  29
HETATM   29  O2  UNL     1       4.136 -25.870 -14.916  1.00  0.00    -0.312 OA
BRANCH  29  30
HETATM   30  C2  UNL     1       2.820 -25.527 -14.489  1.00  0.00     0.255 C 
HETATM   31  C1  UNL     1       1.683 -26.334 -14.934  1.00  0.00     0.126 C 
HETATM   32  O1  UNL     1       2.708 -24.560 -13.743  1.00  0.00    -0.266 OA
ENDBRANCH  29  30
ENDBRANCH  28  29
BRANCH  28  33
HETATM   33  C20 UNL     1       6.520 -25.650 -14.986  1.00  0.00     0.011 C 
HETATM   34  C21 UNL     1       7.353 -24.506 -14.405  1.00  0.00     0.012 C 
HETATM   35  C22 UNL     1       7.309 -26.953 -14.977  1.00  0.00     0.012 C 
ENDBRANCH  28  33
ENDBRANCH  27  28
ENDBRANCH   1  26
BRANCH   9  36
HETATM   36  O5  UNL     1       1.053 -27.252  -9.714  1.00  0.00    -0.395 OA
ATOM     37  H5  UNL     1       1.560 -27.678  -9.034  1.00  0.00     0.210 HD
ENDBRANCH   9  36
TORSDOF 10
ENDMDL
MODEL 4
REMARK VINA RESULT: -9.336842810      4.590      6.456
REMARK  10 active torsions:
REMARK  status: ('A' for Active; 'I' for Inactive)
REMARK    1  A    between atoms: C2_2  and  O2_4 
REMARK    2  A    between atoms: O2_4  and  C3_5 
REMARK    3  A    between atoms: C3_5  and  C4_6 
REMARK    4  A    between atoms: C3_5  and  C20_35 
REMARK    5  A    between atoms: C5_7  and  C6_8 
REMARK    6  A    between atoms: C10_12  and  C11_13 
REMARK    7  A    between atoms: N1_14  and  N2_16 
REMARK       I    between atoms: C12_18  and  N4_20 
REMARK    8  A    between atoms: N4_20  and  O3_22 
REMARK    9  A    between atoms: C14_25  and  O4_26 
REMARK   10  A    between atoms: C16_29  and  O5_30 
ROOT
HETATM    1  C6  UNL     1       4.111 -29.181 -11.812  1.00  0.00     0.024 C 
HETATM    2  C7  UNL     1       4.368 -29.231 -10.321  1.00  0.00     0.044 C 
HETATM    3  C8  UNL     1       3.774 -30.614  -9.932  1.00  0.00    -0.071 C 
HETATM    4  C9  UNL     1       4.651 -31.593  -9.319  1.00  0.00     0.044 C 
HETATM    5  C10 UNL     1       2.516 -30.767 -10.227  1.00  0.00    -0.012 C 
HETATM    6  C13 UNL     1       1.891 -29.581 -10.879  1.00  0.00    -0.030 C 
HETATM    7  C14 UNL     1       0.426 -29.683 -11.155  1.00  0.00     0.151 C 
HETATM    8  C15 UNL     1      -0.092 -28.327 -11.474  1.00  0.00     0.068 C 
HETATM    9  C16 UNL     1       0.860 -27.217 -11.639  1.00  0.00     0.122 C 
HETATM   10  C17 UNL     1       2.272 -27.487 -11.952  1.00  0.00     0.046 C 
HETATM   11  C18 UNL     1       2.610 -28.964 -12.008  1.00  0.00    -0.008 C 
HETATM   12  C19 UNL     1       2.323 -29.425 -13.393  1.00  0.00     0.021 C 
ENDROOT
BRANCH   5  13
HETATM   13  C11 UNL     1       1.791 -31.975  -9.960  1.00  0.00     0.119 C 
HETATM   14  N1  UNL     1       0.774 -32.389  -9.448  1.00  0.00    -0.309 N 
ATOM     15  H1  UNL     1       0.796 -33.402  -9.568  1.00  0.00     0.186 HD
BRANCH  14  16
HETATM   16  N2  UNL     1      -0.350 -32.129  -8.806  1.00  0.00    -0.272 N 
HETATM   17  C12 UNL     1      -1.483 -32.338  -9.481  1.00  0.00     0.227 C 
HETATM   18  N3  UNL     1      -2.643 -32.026  -8.688  1.00  0.00    -0.060 NA
HETATM   19  N4  UNL     1      -1.462 -32.809 -10.764  1.00  0.00    -0.240 N 
ATOM     20  H4  UNL     1      -0.760 -33.506 -11.013  1.00  0.00     0.197 HD
ATOM     21  H2  UNL     1      -0.353 -31.788  -7.846  1.00  0.00     0.189 HD
BRANCH  19  22
HETATM   22  O3  UNL     1      -2.251 -32.435 -11.640  1.00  0.00    -0.287 OA
ATOM     23  H3  UNL     1      -2.071 -31.715 -12.233  1.00  0.00     0.244 HD
ENDBRANCH  19  22
ENDBRANCH  14  16
ENDBRANCH   5  13
BRANCH   7  24
HETATM   24  O4  UNL     1       0.074 -30.572 -12.164  1.00  0.00    -0.391 OA
ATOM     25  H4  UNL     1      -0.776 -30.418 -12.561  1.00  0.00     0.210 HD
ENDBRANCH   7  24
BRANCH   1  26
HETATM   26  C5  UNL     1       4.899 -28.168 -12.499  1.00  0.00    -0.022 C 
HETATM   27  C4  UNL     1       5.959 -27.553 -11.983  1.00  0.00     0.002 C 
BRANCH  27  28
HETATM   28  C3  UNL     1       6.656 -26.529 -12.811  1.00  0.00     0.157 C 
BRANCH  28  29
HETATM   29  O2  UNL     1       6.331 -26.579 -14.149  1.00  0.00    -0.312 OA
BRANCH  29  30
HETATM   30  C2  UNL     1       5.685 -25.542 -14.883  1.00  0.00     0.255 C 
HETATM   31  C1  UNL     1       4.244 -25.622 -15.129  1.00  0.00     0.126 C 
HETATM   32  O1  UNL     1       6.382 -24.610 -15.268  1.00  0.00    -0.266 OA
ENDBRANCH  29  30
ENDBRANCH  28  29
BRANCH  28  33
HETATM   33  C20 UNL     1       8.141 -26.443 -12.586  1.00  0.00     0.011 C 
HETATM   34  C21 UNL     1       8.518 -24.961 -12.571  1.00  0.00     0.012 C 
HETATM   35  C22 UNL     1       8.527 -27.113 -11.274  1.00  0.00     0.012 C 
ENDBRANCH  28  33
ENDBRANCH  27  28
ENDBRANCH   1  26
BRANCH   9  36
HETATM   36  O5  UNL     1       0.811 -26.462 -10.437  1.00  0.00    -0.395 OA
ATOM     37  H5  UNL     1       1.590 -25.918 -10.427  1.00  0.00     0.210 HD
ENDBRANCH   9  36
TORSDOF 10
ENDMDL
MODEL 5
REMARK VINA RESULT: -9.318018419      5.229      7.391
REMARK  10 active torsions:
REMARK  status: ('A' for Active; 'I' for Inactive)
REMARK    1  A    between atoms: C2_2  and  O2_4 
REMARK    2  A    between atoms: O2_4  and  C3_5 
REMARK    3  A    between atoms: C3_5  and  C4_6 
REMARK    4  A    between atoms: C3_5  and  C20_35 
REMARK    5  A    between atoms: C5_7  and  C6_8 
REMARK    6  A    between atoms: C10_12  and  C11_13 
REMARK    7  A    between atoms: N1_14  and  N2_16 
REMARK       I    between atoms: C12_18  and  N4_20 
REMARK    8  A    between atoms: N4_20  and  O3_22 
REMARK    9  A    between atoms: C14_25  and  O4_26 
REMARK   10  A    between atoms: C16_29  and  O5_30 
ROOT
HETATM    1  C6  UNL     1       4.551 -29.105 -12.083  1.00  0.00     0.024 C 
HETATM    2  C7  UNL     1       5.310 -28.744 -10.823  1.00  0.00     0.044 C 
HETATM    3  C8  UNL     1       5.426 -30.117 -10.105  1.00  0.00    -0.071 C 
HETATM    4  C9  UNL     1       6.751 -30.630  -9.811  1.00  0.00     0.044 C 
HETATM    5  C10 UNL     1       4.289 -30.697  -9.853  1.00  0.00    -0.012 C 
HETATM    6  C13 UNL     1       3.096 -29.925 -10.302  1.00  0.00    -0.030 C 
HETATM    7  C14 UNL     1       1.767 -30.515  -9.955  1.00  0.00     0.151 C 
HETATM    8  C15 UNL     1       0.721 -29.479 -10.160  1.00  0.00     0.068 C 
HETATM    9  C16 UNL     1       1.091 -28.203 -10.794  1.00  0.00     0.122 C 
HETATM   10  C17 UNL     1       2.302 -28.107 -11.624  1.00  0.00     0.046 C 
HETATM   11  C18 UNL     1       3.105 -29.391 -11.676  1.00  0.00    -0.008 C 
HETATM   12  C19 UNL     1       2.541 -30.213 -12.781  1.00  0.00     0.021 C 
ENDROOT
BRANCH   5  13
HETATM   13  C11 UNL     1       4.188 -31.974  -9.209  1.00  0.00     0.119 C 
HETATM   14  N1  UNL     1       3.486 -32.615  -8.458  1.00  0.00    -0.309 N 
ATOM     15  H1  UNL     1       3.948 -33.518  -8.352  1.00  0.00     0.186 HD
BRANCH  14  16
HETATM   16  N2  UNL     1       2.397 -32.680  -7.715  1.00  0.00    -0.272 N 
HETATM   17  C12 UNL     1       1.440 -33.512  -8.132  1.00  0.00     0.227 C 
HETATM   18  N3  UNL     1       0.303 -33.505  -7.249  1.00  0.00    -0.060 NA
HETATM   19  N4  UNL     1       1.601 -34.260  -9.266  1.00  0.00    -0.240 N 
ATOM     20  H4  UNL     1       2.525 -34.643  -9.465  1.00  0.00     0.197 HD
ATOM     21  H2  UNL     1       2.292 -32.125  -6.866  1.00  0.00     0.189 HD
BRANCH  19  22
HETATM   22  O3  UNL     1       0.685 -34.496 -10.062  1.00  0.00    -0.287 OA
ATOM     23  H3  UNL     1       0.094 -35.236  -9.975  1.00  0.00     0.244 HD
ENDBRANCH  19  22
ENDBRANCH  14  16
ENDBRANCH   5  13
BRANCH   7  24
HETATM   24  O4  UNL     1       1.431 -31.670 -10.652  1.00  0.00    -0.391 OA
ATOM     25  H4  UNL     1       2.006 -31.887 -11.377  1.00  0.00     0.210 HD
ENDBRANCH   7  24
BRANCH   1  26
HETATM   26  C5  UNL     1       4.632 -28.085 -13.117  1.00  0.00    -0.022 C 
HETATM   27  C4  UNL     1       5.663 -27.265 -13.295  1.00  0.00     0.002 C 
BRANCH  27  28
HETATM   28  C3  UNL     1       5.591 -26.263 -14.396  1.00  0.00     0.157 C 
BRANCH  28  29
HETATM   29  O2  UNL     1       6.823 -25.847 -14.852  1.00  0.00    -0.312 OA
BRANCH  29  30
HETATM   30  C2  UNL     1       7.502 -24.663 -14.441  1.00  0.00     0.255 C 
HETATM   31  C1  UNL     1       8.154 -24.622 -13.132  1.00  0.00     0.126 C 
HETATM   32  O1  UNL     1       7.515 -23.724 -15.229  1.00  0.00    -0.266 OA
ENDBRANCH  29  30
ENDBRANCH  28  29
BRANCH  28  33
HETATM   33  C20 UNL     1       4.658 -25.112 -14.139  1.00  0.00     0.011 C 
HETATM   34  C21 UNL     1       3.371 -25.380 -14.923  1.00  0.00     0.012 C 
HETATM   35  C22 UNL     1       4.366 -24.976 -12.650  1.00  0.00     0.012 C 
ENDBRANCH  28  33
ENDBRANCH  27  28
ENDBRANCH   1  26
BRANCH   9  36
HETATM   36  O5  UNL     1       1.194 -27.248  -9.747  1.00  0.00    -0.395 OA
ATOM     37  H5  UNL     1       1.985 -26.750  -9.914  1.00  0.00     0.210 HD
ENDBRANCH   9  36
TORSDOF 10
ENDMDL
