MODEL 1
REMARK VINA RESULT: -8.578186592      0.000      0.000
REMARK  13 active torsions:
REMARK  status: ('A' for Active; 'I' for Inactive)
REMARK    1  A    between atoms: C2_2  and  C3_3 
REMARK    2  A    between atoms: C6_6  and  O1_7 
REMARK    3  A    between atoms: C7_9  and  C8_10 
REMARK    4  A    between atoms: C8_10  and  C9_11 
REMARK    5  A    between atoms: C9_11  and  C10_12 
REMARK    6  A    between atoms: C11_13  and  C13_15 
REMARK    7  A    between atoms: C13_15  and  C14_16 
REMARK    8  A    between atoms: C14_16  and  C15_18 
REMARK    9  A    between atoms: C22_26  and  O4_27 
REMARK   10  A    between atoms: C23_29  and  O5_30 
REMARK   11  A    between atoms: O5_30  and  C24_31 
REMARK   12  A    between atoms: C26_34  and  O7_35 
REMARK   13  A    between atoms: C27_37  and  O8_38 
ROOT
HETATM    1  C3  UNL     1      -4.701 108.974 273.593  1.00  0.00    -0.013 C 
HETATM    2  C4  UNL     1      -4.561 108.629 272.197  1.00  0.00    -0.027 C 
HETATM    3  C5  UNL     1      -4.553 109.301 271.095  1.00  0.00     0.022 C 
HETATM    4  C6  UNL     1      -4.359 107.104 271.993  1.00  0.00     0.180 C 
HETATM    5  C7  UNL     1      -5.505 106.468 272.708  1.00  0.00     0.156 C 
HETATM    6  O3  UNL     1      -5.477 106.821 274.039  1.00  0.00    -0.364 OA
HETATM    7  C18 UNL     1      -5.810 108.182 274.257  1.00  0.00     0.121 C 
HETATM    8  C19 UNL     1      -5.576 108.245 275.779  1.00  0.00     0.026 C 
HETATM    9  C20 UNL     1      -4.221 107.650 276.108  1.00  0.00     0.014 C 
HETATM   10  C21 UNL     1      -6.596 107.281 276.346  1.00  0.00     0.042 C 
HETATM   11  C22 UNL     1      -7.738 108.073 276.874  1.00  0.00     0.150 C 
HETATM   12  C23 UNL     1      -8.097 109.286 276.102  1.00  0.00     0.192 C 
HETATM   13  C26 UNL     1      -8.122 109.228 274.652  1.00  0.00     0.182 C 
HETATM   14  C27 UNL     1      -7.180 108.439 273.861  1.00  0.00     0.189 C 
ENDROOT
BRANCH   1  15
HETATM   15  C2  UNL     1      -4.570 110.323 274.088  1.00  0.00     0.001 C 
HETATM   16  C1  UNL     1      -3.617 111.174 274.155  1.00  0.00     0.012 C 
ENDBRANCH   1  15
BRANCH  14  17
HETATM   17  O8  UNL     1      -7.205 109.007 272.560  1.00  0.00    -0.389 OA
ATOM     18  H8  UNL     1      -7.723 108.461 271.980  1.00  0.00     0.210 HD
ENDBRANCH  14  17
BRANCH   5  19
HETATM   19  C8  UNL     1      -5.330 104.969 272.688  1.00  0.00     0.039 C 
BRANCH  19  20
HETATM   20  C9  UNL     1      -4.641 104.531 273.957  1.00  0.00     0.030 C 
BRANCH  20  21
HETATM   21  C10 UNL     1      -3.722 103.391 273.713  1.00  0.00    -0.024 C 
HETATM   22  C11 UNL     1      -3.635 102.321 274.438  1.00  0.00    -0.080 C 
HETATM   23  C12 UNL     1      -2.643 101.247 274.054  1.00  0.00     0.043 C 
BRANCH  22  24
HETATM   24  C13 UNL     1      -4.439 102.045 275.643  1.00  0.00     0.116 C 
BRANCH  24  25
HETATM   25  C14 UNL     1      -5.869 101.803 275.273  1.00  0.00     0.152 C 
HETATM   26  O2  UNL     1      -6.133 101.278 274.141  1.00  0.00    -0.293 OA
BRANCH  25  27
HETATM   27  C15 UNL     1      -6.942 102.143 276.150  1.00  0.00     0.046 C 
HETATM   28  C16 UNL     1      -7.861 103.052 276.077  1.00  0.00    -0.027 C 
HETATM   29  C17 UNL     1      -8.105 104.058 275.040  1.00  0.00     0.036 C 
ENDBRANCH  25  27
ENDBRANCH  24  25
ENDBRANCH  22  24
ENDBRANCH  20  21
ENDBRANCH  19  20
ENDBRANCH   5  19
BRANCH  13  30
HETATM   30  O7  UNL     1      -8.134 110.570 274.177  1.00  0.00    -0.390 OA
ATOM     31  H7  UNL     1      -8.993 110.730 273.804  1.00  0.00     0.210 HD
ENDBRANCH  13  30
BRANCH   4  32
HETATM   32  O1  UNL     1      -3.184 106.843 272.717  1.00  0.00    -0.388 OA
ATOM     33  H1  UNL     1      -2.806 106.107 272.251  1.00  0.00     0.210 HD
ENDBRANCH   4  32
BRANCH  11  34
HETATM   34  O4  UNL     1      -7.364 108.509 278.171  1.00  0.00    -0.393 OA
ATOM     35  H4  UNL     1      -8.072 109.057 278.488  1.00  0.00     0.210 HD
ENDBRANCH  11  34
BRANCH  12  36
HETATM   36  O5  UNL     1      -9.388 109.735 276.555  1.00  0.00    -0.311 OA
BRANCH  36  37
HETATM   37  C24 UNL     1      -9.612 110.859 277.280  1.00  0.00     0.255 C 
HETATM   38  C25 UNL     1     -10.698 111.794 276.910  1.00  0.00     0.126 C 
HETATM   39  O6  UNL     1      -8.904 111.105 278.258  1.00  0.00    -0.266 OA
ENDBRANCH  36  37
ENDBRANCH  12  36
TORSDOF 13
ENDMDL
MODEL 2
REMARK VINA RESULT: -8.316077032      1.769      2.768
REMARK  13 active torsions:
REMARK  status: ('A' for Active; 'I' for Inactive)
REMARK    1  A    between atoms: C2_2  and  C3_3 
REMARK    2  A    between atoms: C6_6  and  O1_7 
REMARK    3  A    between atoms: C7_9  and  C8_10 
REMARK    4  A    between atoms: C8_10  and  C9_11 
REMARK    5  A    between atoms: C9_11  and  C10_12 
REMARK    6  A    between atoms: C11_13  and  C13_15 
REMARK    7  A    between atoms: C13_15  and  C14_16 
REMARK    8  A    between atoms: C14_16  and  C15_18 
REMARK    9  A    between atoms: C22_26  and  O4_27 
REMARK   10  A    between atoms: C23_29  and  O5_30 
REMARK   11  A    between atoms: O5_30  and  C24_31 
REMARK   12  A    between atoms: C26_34  and  O7_35 
REMARK   13  A    between atoms: C27_37  and  O8_38 
ROOT
HETATM    1  C3  UNL     1      -5.348 110.699 274.283  1.00  0.00    -0.013 C 
HETATM    2  C4  UNL     1      -5.371 111.193 272.926  1.00  0.00    -0.027 C 
HETATM    3  C5  UNL     1      -5.482 112.362 272.389  1.00  0.00     0.022 C 
HETATM    4  C6  UNL     1      -5.209 110.050 271.889  1.00  0.00     0.180 C 
HETATM    5  C7  UNL     1      -6.273 109.062 272.240  1.00  0.00     0.156 C 
HETATM    6  O3  UNL     1      -6.091 108.620 273.531  1.00  0.00    -0.364 OA
HETATM    7  C18 UNL     1      -6.383 109.612 274.501  1.00  0.00     0.121 C 
HETATM    8  C19 UNL     1      -5.976 108.835 275.769  1.00  0.00     0.026 C 
HETATM    9  C20 UNL     1      -4.599 108.233 275.573  1.00  0.00     0.014 C 
HETATM   10  C21 UNL     1      -6.935 107.664 275.802  1.00  0.00     0.042 C 
HETATM   11  C22 UNL     1      -8.002 107.968 276.793  1.00  0.00     0.150 C 
HETATM   12  C23 UNL     1      -8.434 109.383 276.866  1.00  0.00     0.192 C 
HETATM   13  C26 UNL     1      -8.625 110.136 275.640  1.00  0.00     0.182 C 
HETATM   14  C27 UNL     1      -7.786 109.970 274.454  1.00  0.00     0.189 C 
ENDROOT
BRANCH   1  15
HETATM   15  C2  UNL     1      -5.149 111.553 275.429  1.00  0.00     0.001 C 
HETATM   16  C1  UNL     1      -5.499 112.744 275.741  1.00  0.00     0.012 C 
ENDBRANCH   1  15
BRANCH  14  17
HETATM   17  O8  UNL     1      -7.953 111.161 273.699  1.00  0.00    -0.389 OA
ATOM     18  H8  UNL     1      -8.217 111.871 274.272  1.00  0.00     0.210 HD
ENDBRANCH  14  17
BRANCH   5  19
HETATM   19  C8  UNL     1      -6.116 107.837 271.372  1.00  0.00     0.039 C 
BRANCH  19  20
HETATM   20  C9  UNL     1      -5.807 106.645 272.243  1.00  0.00     0.030 C 
BRANCH  20  21
HETATM   21  C10 UNL     1      -4.521 106.009 271.861  1.00  0.00    -0.024 C 
HETATM   22  C11 UNL     1      -4.214 104.763 272.032  1.00  0.00    -0.080 C 
HETATM   23  C12 UNL     1      -2.856 104.268 271.587  1.00  0.00     0.043 C 
BRANCH  22  24
HETATM   24  C13 UNL     1      -5.093 103.748 272.643  1.00  0.00     0.116 C 
BRANCH  24  25
HETATM   25  C14 UNL     1      -4.741 103.551 274.083  1.00  0.00     0.152 C 
HETATM   26  O2  UNL     1      -4.557 104.575 274.820  1.00  0.00    -0.293 OA
BRANCH  25  27
HETATM   27  C15 UNL     1      -4.606 102.249 274.654  1.00  0.00     0.046 C 
HETATM   28  C16 UNL     1      -3.661 101.368 274.578  1.00  0.00    -0.027 C 
HETATM   29  C17 UNL     1      -2.386 101.419 273.858  1.00  0.00     0.036 C 
ENDBRANCH  25  27
ENDBRANCH  24  25
ENDBRANCH  22  24
ENDBRANCH  20  21
ENDBRANCH  19  20
ENDBRANCH   5  19
BRANCH  13  30
HETATM   30  O7  UNL     1      -8.676 111.514 275.995  1.00  0.00    -0.390 OA
ATOM     31  H7  UNL     1      -9.029 111.985 275.249  1.00  0.00     0.210 HD
ENDBRANCH  13  30
BRANCH   4  32
HETATM   32  O1  UNL     1      -3.963 109.496 272.223  1.00  0.00    -0.388 OA
ATOM     33  H1  UNL     1      -3.711 109.043 271.427  1.00  0.00     0.210 HD
ENDBRANCH   4  32
BRANCH  11  34
HETATM   34  O4  UNL     1      -7.479 107.632 278.067  1.00  0.00    -0.393 OA
ATOM     35  H4  UNL     1      -7.843 108.257 278.683  1.00  0.00     0.210 HD
ENDBRANCH  11  34
BRANCH  12  36
HETATM   36  O5  UNL     1      -9.661 109.435 277.618  1.00  0.00    -0.311 OA
BRANCH  36  37
HETATM   37  C24 UNL     1      -9.749 109.677 278.950  1.00  0.00     0.255 C 
HETATM   38  C25 UNL     1     -11.061 109.671 279.635  1.00  0.00     0.126 C 
HETATM   39  O6  UNL     1      -8.725 109.905 279.597  1.00  0.00    -0.266 OA
ENDBRANCH  36  37
ENDBRANCH  12  36
TORSDOF 13
ENDMDL
MODEL 3
REMARK VINA RESULT: -8.229724833      0.952      1.073
REMARK  13 active torsions:
REMARK  status: ('A' for Active; 'I' for Inactive)
REMARK    1  A    between atoms: C2_2  and  C3_3 
REMARK    2  A    between atoms: C6_6  and  O1_7 
REMARK    3  A    between atoms: C7_9  and  C8_10 
REMARK    4  A    between atoms: C8_10  and  C9_11 
REMARK    5  A    between atoms: C9_11  and  C10_12 
REMARK    6  A    between atoms: C11_13  and  C13_15 
REMARK    7  A    between atoms: C13_15  and  C14_16 
REMARK    8  A    between atoms: C14_16  and  C15_18 
REMARK    9  A    between atoms: C22_26  and  O4_27 
REMARK   10  A    between atoms: C23_29  and  O5_30 
REMARK   11  A    between atoms: O5_30  and  C24_31 
REMARK   12  A    between atoms: C26_34  and  O7_35 
REMARK   13  A    between atoms: C27_37  and  O8_38 
ROOT
HETATM    1  C3  UNL     1      -4.517 109.365 274.133  1.00  0.00    -0.013 C 
HETATM    2  C4  UNL     1      -4.193 109.525 272.735  1.00  0.00    -0.027 C 
HETATM    3  C5  UNL     1      -4.062 110.539 271.945  1.00  0.00     0.022 C 
HETATM    4  C6  UNL     1      -3.931 108.163 272.040  1.00  0.00     0.180 C 
HETATM    5  C7  UNL     1      -5.142 107.342 272.337  1.00  0.00     0.156 C 
HETATM    6  O3  UNL     1      -5.291 107.208 273.699  1.00  0.00    -0.364 OA
HETATM    7  C18 UNL     1      -5.682 108.415 274.333  1.00  0.00     0.121 C 
HETATM    8  C19 UNL     1      -5.643 107.939 275.799  1.00  0.00     0.026 C 
HETATM    9  C20 UNL     1      -4.327 107.237 276.068  1.00  0.00     0.014 C 
HETATM   10  C21 UNL     1      -6.703 106.859 275.860  1.00  0.00     0.042 C 
HETATM   11  C22 UNL     1      -7.922 107.442 276.482  1.00  0.00     0.150 C 
HETATM   12  C23 UNL     1      -8.209 108.856 276.141  1.00  0.00     0.192 C 
HETATM   13  C26 UNL     1      -8.050 109.307 274.771  1.00  0.00     0.182 C 
HETATM   14  C27 UNL     1      -6.996 108.823 273.880  1.00  0.00     0.189 C 
ENDROOT
BRANCH   1  15
HETATM   15  C2  UNL     1      -4.483 110.454 275.079  1.00  0.00     0.001 C 
HETATM   16  C1  UNL     1      -4.798 111.694 275.043  1.00  0.00     0.012 C 
ENDBRANCH   1  15
BRANCH  14  17
HETATM   17  O8  UNL     1      -6.871 109.809 272.867  1.00  0.00    -0.389 OA
ATOM     18  H8  UNL     1      -7.203 110.640 273.184  1.00  0.00     0.210 HD
ENDBRANCH  14  17
BRANCH   5  19
HETATM   19  C8  UNL     1      -4.929 105.941 271.818  1.00  0.00     0.039 C 
BRANCH  19  20
HETATM   20  C9  UNL     1      -5.306 104.949 272.891  1.00  0.00     0.030 C 
BRANCH  20  21
HETATM   21  C10 UNL     1      -4.377 103.792 272.917  1.00  0.00    -0.024 C 
HETATM   22  C11 UNL     1      -4.148 103.028 273.937  1.00  0.00    -0.080 C 
HETATM   23  C12 UNL     1      -3.169 101.885 273.800  1.00  0.00     0.043 C 
BRANCH  22  24
HETATM   24  C13 UNL     1      -4.773 103.176 275.265  1.00  0.00     0.116 C 
BRANCH  24  25
HETATM   25  C14 UNL     1      -6.085 102.457 275.308  1.00  0.00     0.152 C 
HETATM   26  O2  UNL     1      -6.097 101.212 275.580  1.00  0.00    -0.293 OA
BRANCH  25  27
HETATM   27  C15 UNL     1      -7.320 103.127 275.054  1.00  0.00     0.046 C 
HETATM   28  C16 UNL     1      -8.294 103.466 275.835  1.00  0.00    -0.027 C 
HETATM   29  C17 UNL     1      -8.452 103.266 277.279  1.00  0.00     0.036 C 
ENDBRANCH  25  27
ENDBRANCH  24  25
ENDBRANCH  22  24
ENDBRANCH  20  21
ENDBRANCH  19  20
ENDBRANCH   5  19
BRANCH  13  30
HETATM   30  O7  UNL     1      -8.034 110.731 274.795  1.00  0.00    -0.390 OA
ATOM     31  H7  UNL     1      -7.473 110.994 275.516  1.00  0.00     0.210 HD
ENDBRANCH  13  30
BRANCH   4  32
HETATM   32  O1  UNL     1      -2.850 107.640 272.770  1.00  0.00    -0.388 OA
ATOM     33  H1  UNL     1      -2.111 107.792 272.194  1.00  0.00     0.210 HD
ENDBRANCH   4  32
BRANCH  11  34
HETATM   34  O4  UNL     1      -7.725 107.391 277.885  1.00  0.00    -0.393 OA
ATOM     35  H4  UNL     1      -7.664 108.291 278.184  1.00  0.00     0.210 HD
ENDBRANCH  11  34
BRANCH  12  36
HETATM   36  O5  UNL     1      -9.558 109.146 276.554  1.00  0.00    -0.311 OA
BRANCH  36  37
HETATM   37  C24 UNL     1      -9.899 109.905 277.625  1.00  0.00     0.255 C 
HETATM   38  C25 UNL     1     -11.296 110.351 277.823  1.00  0.00     0.126 C 
HETATM   39  O6  UNL     1      -9.035 110.227 278.443  1.00  0.00    -0.266 OA
ENDBRANCH  36  37
ENDBRANCH  12  36
TORSDOF 13
ENDMDL
MODEL 4
REMARK VINA RESULT: -8.229528639      0.815      2.108
REMARK  13 active torsions:
REMARK  status: ('A' for Active; 'I' for Inactive)
REMARK    1  A    between atoms: C2_2  and  C3_3 
REMARK    2  A    between atoms: C6_6  and  O1_7 
REMARK    3  A    between atoms: C7_9  and  C8_10 
REMARK    4  A    between atoms: C8_10  and  C9_11 
REMARK    5  A    between atoms: C9_11  and  C10_12 
REMARK    6  A    between atoms: C11_13  and  C13_15 
REMARK    7  A    between atoms: C13_15  and  C14_16 
REMARK    8  A    between atoms: C14_16  and  C15_18 
REMARK    9  A    between atoms: C22_26  and  O4_27 
REMARK   10  A    between atoms: C23_29  and  O5_30 
REMARK   11  A    between atoms: O5_30  and  C24_31 
REMARK   12  A    between atoms: C26_34  and  O7_35 
REMARK   13  A    between atoms: C27_37  and  O8_38 
ROOT
HETATM    1  C3  UNL     1      -4.481 109.590 273.758  1.00  0.00    -0.013 C 
HETATM    2  C4  UNL     1      -4.207 109.375 272.356  1.00  0.00    -0.027 C 
HETATM    3  C5  UNL     1      -4.089 110.147 271.328  1.00  0.00     0.022 C 
HETATM    4  C6  UNL     1      -3.995 107.873 272.029  1.00  0.00     0.180 C 
HETATM    5  C7  UNL     1      -5.208 107.189 272.567  1.00  0.00     0.156 C 
HETATM    6  O3  UNL     1      -5.308 107.416 273.922  1.00  0.00    -0.364 OA
HETATM    7  C18 UNL     1      -5.653 108.755 274.235  1.00  0.00     0.121 C 
HETATM    8  C19 UNL     1      -5.567 108.672 275.771  1.00  0.00     0.026 C 
HETATM    9  C20 UNL     1      -4.254 108.029 276.171  1.00  0.00     0.014 C 
HETATM   10  C21 UNL     1      -6.643 107.674 276.144  1.00  0.00     0.042 C 
HETATM   11  C22 UNL     1      -7.826 108.430 276.632  1.00  0.00     0.150 C 
HETATM   12  C23 UNL     1      -8.102 109.715 275.947  1.00  0.00     0.192 C 
HETATM   13  C26 UNL     1      -7.987 109.793 274.503  1.00  0.00     0.182 C 
HETATM   14  C27 UNL     1      -6.976 109.068 273.734  1.00  0.00     0.189 C 
ENDROOT
BRANCH   1  15
HETATM   15  C2  UNL     1      -4.392 110.884 274.389  1.00  0.00     0.001 C 
HETATM   16  C1  UNL     1      -4.715 112.077 274.056  1.00  0.00     0.012 C 
ENDBRANCH   1  15
BRANCH  14  17
HETATM   17  O8  UNL     1      -6.873 109.755 272.497  1.00  0.00    -0.389 OA
ATOM     18  H8  UNL     1      -7.739 109.910 272.141  1.00  0.00     0.210 HD
ENDBRANCH  14  17
BRANCH   5  19
HETATM   19  C8  UNL     1      -5.041 105.697 272.423  1.00  0.00     0.039 C 
BRANCH  19  20
HETATM   20  C9  UNL     1      -5.292 105.035 273.755  1.00  0.00     0.030 C 
BRANCH  20  21
HETATM   21  C10 UNL     1      -6.733 104.747 273.959  1.00  0.00    -0.024 C 
HETATM   22  C11 UNL     1      -7.219 103.805 274.703  1.00  0.00    -0.080 C 
HETATM   23  C12 UNL     1      -8.718 103.641 274.806  1.00  0.00     0.043 C 
BRANCH  22  24
HETATM   24  C13 UNL     1      -6.418 102.844 275.485  1.00  0.00     0.116 C 
BRANCH  24  25
HETATM   25  C14 UNL     1      -5.735 101.871 274.575  1.00  0.00     0.152 C 
HETATM   26  O2  UNL     1      -6.315 101.526 273.493  1.00  0.00    -0.293 OA
BRANCH  25  27
HETATM   27  C15 UNL     1      -4.455 101.320 274.885  1.00  0.00     0.046 C 
HETATM   28  C16 UNL     1      -3.291 101.484 274.344  1.00  0.00    -0.027 C 
HETATM   29  C17 UNL     1      -2.896 102.313 273.201  1.00  0.00     0.036 C 
ENDBRANCH  25  27
ENDBRANCH  24  25
ENDBRANCH  22  24
ENDBRANCH  20  21
ENDBRANCH  19  20
ENDBRANCH   5  19
BRANCH  13  30
HETATM   30  O7  UNL     1      -7.945 111.174 274.157  1.00  0.00    -0.390 OA
ATOM     31  H7  UNL     1      -7.080 111.496 274.386  1.00  0.00     0.210 HD
ENDBRANCH  13  30
BRANCH   4  32
HETATM   32  O1  UNL     1      -2.898 107.528 272.835  1.00  0.00    -0.388 OA
ATOM     33  H1  UNL     1      -3.083 106.627 273.072  1.00  0.00     0.210 HD
ENDBRANCH   4  32
BRANCH  11  34
HETATM   34  O4  UNL     1      -7.578 108.737 277.994  1.00  0.00    -0.393 OA
ATOM     35  H4  UNL     1      -7.938 109.603 278.148  1.00  0.00     0.210 HD
ENDBRANCH  11  34
BRANCH  12  36
HETATM   36  O5  UNL     1      -9.429 110.138 276.314  1.00  0.00    -0.311 OA
BRANCH  36  37
HETATM   37  C24 UNL     1      -9.715 111.160 277.159  1.00  0.00     0.255 C 
HETATM   38  C25 UNL     1     -11.018 111.859 277.087  1.00  0.00     0.126 C 
HETATM   39  O6  UNL     1      -8.881 111.511 277.995  1.00  0.00    -0.266 OA
ENDBRANCH  36  37
ENDBRANCH  12  36
TORSDOF 13
ENDMDL
MODEL 5
REMARK VINA RESULT: -8.181929521      2.652      5.348
REMARK  13 active torsions:
REMARK  status: ('A' for Active; 'I' for Inactive)
REMARK    1  A    between atoms: C2_2  and  C3_3 
REMARK    2  A    between atoms: C6_6  and  O1_7 
REMARK    3  A    between atoms: C7_9  and  C8_10 
REMARK    4  A    between atoms: C8_10  and  C9_11 
REMARK    5  A    between atoms: C9_11  and  C10_12 
REMARK    6  A    between atoms: C11_13  and  C13_15 
REMARK    7  A    between atoms: C13_15  and  C14_16 
REMARK    8  A    between atoms: C14_16  and  C15_18 
REMARK    9  A    between atoms: C22_26  and  O4_27 
REMARK   10  A    between atoms: C23_29  and  O5_30 
REMARK   11  A    between atoms: O5_30  and  C24_31 
REMARK   12  A    between atoms: C26_34  and  O7_35 
REMARK   13  A    between atoms: C27_37  and  O8_38 
ROOT
HETATM    1  C3  UNL     1      -5.480 108.311 273.853  1.00  0.00    -0.013 C 
HETATM    2  C4  UNL     1      -5.386 107.081 274.605  1.00  0.00    -0.027 C 
HETATM    3  C5  UNL     1      -5.351 106.788 275.862  1.00  0.00     0.022 C 
HETATM    4  C6  UNL     1      -5.332 105.837 273.678  1.00  0.00     0.180 C 
HETATM    5  C7  UNL     1      -4.207 106.111 272.736  1.00  0.00     0.156 C 
HETATM    6  O3  UNL     1      -4.458 107.268 272.035  1.00  0.00    -0.364 OA
HETATM    7  C18 UNL     1      -4.361 108.433 272.837  1.00  0.00     0.121 C 
HETATM    8  C19 UNL     1      -4.797 109.481 271.794  1.00  0.00     0.026 C 
HETATM    9  C20 UNL     1      -6.079 109.026 271.126  1.00  0.00     0.014 C 
HETATM   10  C21 UNL     1      -3.727 109.399 270.726  1.00  0.00     0.042 C 
HETATM   11  C22 UNL     1      -2.792 110.539 270.919  1.00  0.00     0.150 C 
HETATM   12  C23 UNL     1      -2.520 110.923 272.324  1.00  0.00     0.192 C 
HETATM   13  C26 UNL     1      -2.299 109.889 273.317  1.00  0.00     0.182 C 
HETATM   14  C27 UNL     1      -3.005 108.608 273.317  1.00  0.00     0.189 C 
ENDROOT
BRANCH   1  15
HETATM   15  C2  UNL     1      -5.871 109.567 274.445  1.00  0.00     0.001 C 
HETATM   16  C1  UNL     1      -6.975 110.071 274.852  1.00  0.00     0.012 C 
ENDBRANCH   1  15
BRANCH  14  17
HETATM   17  O8  UNL     1      -2.896 108.112 274.642  1.00  0.00    -0.389 OA
ATOM     18  H8  UNL     1      -1.999 108.192 274.943  1.00  0.00     0.210 HD
ENDBRANCH  14  17
BRANCH   5  19
HETATM   19  C8  UNL     1      -4.154 105.017 271.698  1.00  0.00     0.039 C 
BRANCH  19  20
HETATM   20  C9  UNL     1      -4.821 103.779 272.243  1.00  0.00     0.030 C 
BRANCH  20  21
HETATM   21  C10 UNL     1      -3.826 102.746 272.627  1.00  0.00    -0.024 C 
HETATM   22  C11 UNL     1      -3.616 102.307 273.827  1.00  0.00    -0.080 C 
HETATM   23  C12 UNL     1      -2.561 101.248 274.053  1.00  0.00     0.043 C 
BRANCH  22  24
HETATM   24  C13 UNL     1      -4.333 102.760 275.034  1.00  0.00     0.116 C 
BRANCH  24  25
HETATM   25  C14 UNL     1      -5.689 102.131 275.103  1.00  0.00     0.152 C 
HETATM   26  O2  UNL     1      -5.779 100.884 275.352  1.00  0.00    -0.293 OA
BRANCH  25  27
HETATM   27  C15 UNL     1      -6.882 102.888 274.896  1.00  0.00     0.046 C 
HETATM   28  C16 UNL     1      -7.881 103.154 275.675  1.00  0.00    -0.027 C 
HETATM   29  C17 UNL     1      -8.120 102.751 277.064  1.00  0.00     0.036 C 
ENDBRANCH  25  27
ENDBRANCH  24  25
ENDBRANCH  22  24
ENDBRANCH  20  21
ENDBRANCH  19  20
ENDBRANCH   5  19
BRANCH  13  30
HETATM   30  O7  UNL     1      -2.425 110.499 274.598  1.00  0.00    -0.390 OA
ATOM     31  H7  UNL     1      -2.266 111.429 274.483  1.00  0.00     0.210 HD
ENDBRANCH  13  30
BRANCH   4  32
HETATM   32  O1  UNL     1      -6.539 105.923 272.965  1.00  0.00    -0.388 OA
ATOM     33  H1  UNL     1      -6.822 105.018 272.915  1.00  0.00     0.210 HD
ENDBRANCH   4  32
BRANCH  11  34
HETATM   34  O4  UNL     1      -3.391 111.664 270.296  1.00  0.00    -0.393 OA
ATOM     35  H4  UNL     1      -2.682 112.241 270.038  1.00  0.00     0.210 HD
ENDBRANCH  11  34
BRANCH  12  36
HETATM   36  O5  UNL     1      -1.379 111.801 272.331  1.00  0.00    -0.311 OA
BRANCH  36  37
HETATM   37  C24 UNL     1      -0.202 111.556 271.702  1.00  0.00     0.255 C 
HETATM   38  C25 UNL     1       0.239 112.398 270.568  1.00  0.00     0.126 C 
HETATM   39  O6  UNL     1       0.506 110.621 272.079  1.00  0.00    -0.266 OA
ENDBRANCH  36  37
ENDBRANCH  12  36
TORSDOF 13
ENDMDL
