MODEL 1
REMARK VINA RESULT: -7.778889540      0.000      0.000
REMARK  14 active torsions:
REMARK  status: ('A' for Active; 'I' for Inactive)
REMARK    1  A    between atoms: C4_5  and  O2_6 
REMARK    2  A    between atoms: C10_13  and  C11_14 
REMARK    3  A    between atoms: C11_14  and  O3_15 
REMARK    4  A    between atoms: C14_19  and  C15_20 
REMARK    5  A    between atoms: C15_20  and  O4_21 
REMARK    6  A    between atoms: C15_20  and  C16_23 
REMARK    7  A    between atoms: C16_23  and  C17_24 
REMARK    8  A    between atoms: C17_24  and  C19_26 
REMARK    9  A    between atoms: C19_26  and  C20_27 
REMARK   10  A    between atoms: C20_27  and  O5_28 
REMARK   11  A    between atoms: C20_27  and  C21_30 
REMARK   12  A    between atoms: C21_30  and  C22_31 
REMARK   13  A    between atoms: C22_31  and  O7_33 
REMARK   14  A    between atoms: C27_38  and  O8_39 
ROOT
HETATM    1  C1  UNL     1      -5.203 113.875 271.852  1.00  0.00     0.018 C 
HETATM    2  C2  UNL     1      -5.042 112.615 271.548  1.00  0.00    -0.041 A 
HETATM    3  C3  UNL     1      -4.583 112.026 270.150  1.00  0.00     0.174 A 
HETATM    4  O1  UNL     1      -3.374 112.235 269.693  1.00  0.00    -0.350 OA
HETATM    5  C4  UNL     1      -2.196 112.659 269.377  1.00  0.00     0.265 C 
HETATM    6  C5  UNL     1      -1.266 113.614 270.051  1.00  0.00     0.002 C 
HETATM    7  C6  UNL     1      -0.072 113.933 269.107  1.00  0.00     0.020 C 
HETATM    8  C7  UNL     1      -1.899 114.993 270.175  1.00  0.00     0.020 C 
HETATM    9  C8  UNL     1      -0.644 113.144 271.301  1.00  0.00     0.018 C 
HETATM   10  C9  UNL     1      -1.368 112.150 272.153  1.00  0.00     0.037 C 
HETATM   11  C10 UNL     1      -1.514 110.813 271.525  1.00  0.00    -0.056 C 
HETATM   12  C12 UNL     1      -2.596 110.066 271.429  1.00  0.00     0.009 C 
HETATM   13  C13 UNL     1      -3.975 110.240 271.869  1.00  0.00    -0.054 C 
HETATM   14  C14 UNL     1      -4.138 110.114 273.411  1.00  0.00     0.048 C 
HETATM   15  C24 UNL     1      -5.522 110.287 273.854  1.00  0.00    -0.005 C 
HETATM   16  C25 UNL     1      -5.481 111.279 275.039  1.00  0.00     0.011 C 
HETATM   17  C26 UNL     1      -6.589 110.643 272.885  1.00  0.00     0.038 C 
HETATM   18  C27 UNL     1      -6.301 110.556 271.439  1.00  0.00     0.138 C 
HETATM   19  C28 UNL     1      -4.880 111.195 271.265  1.00  0.00     0.065 A 
ENDROOT
BRANCH  14  20
HETATM   20  C15 UNL     1      -3.614 108.714 273.812  1.00  0.00     0.127 C 
BRANCH  20  21
HETATM   21  O4  UNL     1      -2.538 108.829 274.708  1.00  0.00    -0.395 OA
ATOM     22  H4  UNL     1      -2.735 108.384 275.524  1.00  0.00     0.210 HD
ENDBRANCH  20  21
BRANCH  20  23
HETATM   23  C16 UNL     1      -4.661 107.811 274.334  1.00  0.00     0.037 C 
BRANCH  23  24
HETATM   24  C17 UNL     1      -4.936 106.727 273.270  1.00  0.00    -0.014 C 
HETATM   25  C18 UNL     1      -6.382 106.573 272.949  1.00  0.00     0.010 C 
BRANCH  24  26
HETATM   26  C19 UNL     1      -4.324 105.432 273.677  1.00  0.00     0.036 C 
BRANCH  26  27
HETATM   27  C20 UNL     1      -3.346 104.901 272.675  1.00  0.00     0.127 C 
BRANCH  27  28
HETATM   28  O5  UNL     1      -3.271 105.603 271.492  1.00  0.00    -0.395 OA
ATOM     29  H5  UNL     1      -3.203 105.073 270.707  1.00  0.00     0.210 HD
ENDBRANCH  27  28
BRANCH  27  30
HETATM   30  C21 UNL     1      -3.704 103.440 272.422  1.00  0.00     0.142 C 
BRANCH  30  31
HETATM   31  C22 UNL     1      -2.449 102.690 272.181  1.00  0.00     0.260 C 
HETATM   32  O6  UNL     1      -1.824 102.865 271.096  1.00  0.00    -0.265 OA
BRANCH  31  33
HETATM   33  O7  UNL     1      -1.974 101.812 273.141  1.00  0.00    -0.326 OA
HETATM   34  C23 UNL     1      -2.809 101.344 274.175  1.00  0.00     0.213 C 
ENDBRANCH  31  33
ENDBRANCH  30  31
ENDBRANCH  27  30
ENDBRANCH  26  27
ENDBRANCH  24  26
ENDBRANCH  23  24
ENDBRANCH  20  23
ENDBRANCH  14  20
BRANCH  11  35
HETATM   35  C11 UNL     1      -0.203 110.275 270.970  1.00  0.00     0.198 C 
BRANCH  35  36
HETATM   36  O3  UNL     1       0.664 109.873 271.957  1.00  0.00    -0.397 OA
ATOM     37  H3  UNL     1       0.232 109.376 272.642  1.00  0.00     0.209 HD
ENDBRANCH  35  36
ENDBRANCH  11  35
BRANCH  18  38
HETATM   38  O8  UNL     1      -6.296 109.310 270.884  1.00  0.00    -0.394 OA
ATOM     39  H8  UNL     1      -6.623 109.234 269.995  1.00  0.00     0.210 HD
ENDBRANCH  18  38
BRANCH   5  40
HETATM   40  O2  UNL     1      -1.701 112.182 268.269  1.00  0.00    -0.370 OA
ATOM     41  H2  UNL     1      -1.481 111.257 268.280  1.00  0.00     0.212 HD
ENDBRANCH   5  40
TORSDOF 14
ENDMDL
MODEL 2
REMARK VINA RESULT: -7.756575930      2.514      4.874
REMARK  14 active torsions:
REMARK  status: ('A' for Active; 'I' for Inactive)
REMARK    1  A    between atoms: C4_5  and  O2_6 
REMARK    2  A    between atoms: C10_13  and  C11_14 
REMARK    3  A    between atoms: C11_14  and  O3_15 
REMARK    4  A    between atoms: C14_19  and  C15_20 
REMARK    5  A    between atoms: C15_20  and  O4_21 
REMARK    6  A    between atoms: C15_20  and  C16_23 
REMARK    7  A    between atoms: C16_23  and  C17_24 
REMARK    8  A    between atoms: C17_24  and  C19_26 
REMARK    9  A    between atoms: C19_26  and  C20_27 
REMARK   10  A    between atoms: C20_27  and  O5_28 
REMARK   11  A    between atoms: C20_27  and  C21_30 
REMARK   12  A    between atoms: C21_30  and  C22_31 
REMARK   13  A    between atoms: C22_31  and  O7_33 
REMARK   14  A    between atoms: C27_38  and  O8_39 
ROOT
HETATM    1  C1  UNL     1      -2.219 109.975 272.106  1.00  0.00     0.018 C 
HETATM    2  C2  UNL     1      -3.047 109.602 273.044  1.00  0.00    -0.041 A 
HETATM    3  C3  UNL     1      -3.493 110.449 274.308  1.00  0.00     0.174 A 
HETATM    4  O1  UNL     1      -4.217 111.531 274.174  1.00  0.00    -0.350 OA
HETATM    5  C4  UNL     1      -4.812 112.619 273.815  1.00  0.00     0.265 C 
HETATM    6  C5  UNL     1      -5.083 113.211 272.470  1.00  0.00     0.002 C 
HETATM    7  C6  UNL     1      -5.636 114.654 272.638  1.00  0.00     0.020 C 
HETATM    8  C7  UNL     1      -3.784 113.494 271.730  1.00  0.00     0.020 C 
HETATM    9  C8  UNL     1      -6.086 112.516 271.644  1.00  0.00     0.018 C 
HETATM   10  C9  UNL     1      -6.286 111.044 271.817  1.00  0.00     0.037 C 
HETATM   11  C10 UNL     1      -6.862 110.665 273.131  1.00  0.00    -0.056 C 
HETATM   12  C12 UNL     1      -6.458 109.726 273.964  1.00  0.00     0.009 C 
HETATM   13  C13 UNL     1      -5.368 108.759 273.928  1.00  0.00    -0.054 C 
HETATM   14  C14 UNL     1      -5.610 107.614 272.904  1.00  0.00     0.048 C 
HETATM   15  C24 UNL     1      -4.518 106.640 272.867  1.00  0.00    -0.005 C 
HETATM   16  C25 UNL     1      -4.174 106.423 271.376  1.00  0.00     0.011 C 
HETATM   17  C26 UNL     1      -3.293 106.845 273.682  1.00  0.00     0.038 C 
HETATM   18  C27 UNL     1      -3.295 107.887 274.728  1.00  0.00     0.138 C 
HETATM   19  C28 UNL     1      -3.976 109.133 274.063  1.00  0.00     0.065 A 
ENDROOT
BRANCH  14  20
HETATM   20  C15 UNL     1      -6.937 106.922 273.297  1.00  0.00     0.127 C 
BRANCH  20  21
HETATM   21  O4  UNL     1      -7.971 107.310 272.429  1.00  0.00    -0.395 OA
ATOM     22  H4  UNL     1      -8.160 108.236 272.528  1.00  0.00     0.210 HD
ENDBRANCH  20  21
BRANCH  20  23
HETATM   23  C16 UNL     1      -6.837 105.451 273.398  1.00  0.00     0.037 C 
BRANCH  23  24
HETATM   24  C17 UNL     1      -7.387 105.025 274.776  1.00  0.00    -0.014 C 
HETATM   25  C18 UNL     1      -7.133 106.028 275.845  1.00  0.00     0.010 C 
BRANCH  24  26
HETATM   26  C19 UNL     1      -6.867 103.680 275.150  1.00  0.00     0.036 C 
BRANCH  26  27
HETATM   27  C20 UNL     1      -5.817 103.171 274.212  1.00  0.00     0.127 C 
BRANCH  27  28
HETATM   28  O5  UNL     1      -6.102 101.970 273.600  1.00  0.00    -0.395 OA
ATOM     29  H5  UNL     1      -5.897 101.925 272.674  1.00  0.00     0.210 HD
ENDBRANCH  27  28
BRANCH  27  30
HETATM   30  C21 UNL     1      -4.510 103.090 274.996  1.00  0.00     0.142 C 
BRANCH  30  31
HETATM   31  C22 UNL     1      -3.476 102.504 274.112  1.00  0.00     0.260 C 
HETATM   32  O6  UNL     1      -3.289 101.253 274.124  1.00  0.00    -0.265 OA
BRANCH  31  33
HETATM   33  O7  UNL     1      -2.729 103.325 273.284  1.00  0.00    -0.326 OA
HETATM   34  C23 UNL     1      -2.602 103.048 271.908  1.00  0.00     0.213 C 
ENDBRANCH  31  33
ENDBRANCH  30  31
ENDBRANCH  27  30
ENDBRANCH  26  27
ENDBRANCH  24  26
ENDBRANCH  23  24
ENDBRANCH  20  23
ENDBRANCH  14  20
BRANCH  11  35
HETATM   35  C11 UNL     1      -8.097 111.479 273.491  1.00  0.00     0.198 C 
BRANCH  35  36
HETATM   36  O3  UNL     1      -9.051 110.734 274.140  1.00  0.00    -0.397 OA
ATOM     37  H3  UNL     1      -9.846 110.633 273.630  1.00  0.00     0.209 HD
ENDBRANCH  35  36
ENDBRANCH  11  35
BRANCH  18  38
HETATM   38  O8  UNL     1      -3.946 107.595 275.890  1.00  0.00    -0.394 OA
ATOM     39  H8  UNL     1      -4.732 108.094 276.080  1.00  0.00     0.210 HD
ENDBRANCH  18  38
BRANCH   5  40
HETATM   40  O2  UNL     1      -5.274 113.358 274.785  1.00  0.00    -0.370 OA
ATOM     41  H2  UNL     1      -4.704 114.061 275.075  1.00  0.00     0.212 HD
ENDBRANCH   5  40
TORSDOF 14
ENDMDL
MODEL 3
REMARK VINA RESULT: -7.709746130      3.732      6.742
REMARK  14 active torsions:
REMARK  status: ('A' for Active; 'I' for Inactive)
REMARK    1  A    between atoms: C4_5  and  O2_6 
REMARK    2  A    between atoms: C10_13  and  C11_14 
REMARK    3  A    between atoms: C11_14  and  O3_15 
REMARK    4  A    between atoms: C14_19  and  C15_20 
REMARK    5  A    between atoms: C15_20  and  O4_21 
REMARK    6  A    between atoms: C15_20  and  C16_23 
REMARK    7  A    between atoms: C16_23  and  C17_24 
REMARK    8  A    between atoms: C17_24  and  C19_26 
REMARK    9  A    between atoms: C19_26  and  C20_27 
REMARK   10  A    between atoms: C20_27  and  O5_28 
REMARK   11  A    between atoms: C20_27  and  C21_30 
REMARK   12  A    between atoms: C21_30  and  C22_31 
REMARK   13  A    between atoms: C22_31  and  O7_33 
REMARK   14  A    between atoms: C27_38  and  O8_39 
ROOT
HETATM    1  C1  UNL     1      -7.738 111.805 272.956  1.00  0.00     0.018 C 
HETATM    2  C2  UNL     1      -6.982 111.237 273.856  1.00  0.00    -0.041 A 
HETATM    3  C3  UNL     1      -6.698 111.759 275.325  1.00  0.00     0.174 A 
HETATM    4  O1  UNL     1      -7.649 111.795 276.225  1.00  0.00    -0.350 OA
HETATM    5  C4  UNL     1      -8.740 111.865 276.909  1.00  0.00     0.265 C 
HETATM    6  C5  UNL     1     -10.166 111.605 276.544  1.00  0.00     0.002 C 
HETATM    7  C6  UNL     1     -11.094 112.068 277.701  1.00  0.00     0.020 C 
HETATM    8  C7  UNL     1     -10.620 112.538 275.431  1.00  0.00     0.020 C 
HETATM    9  C8  UNL     1     -10.529 110.197 276.308  1.00  0.00     0.018 C 
HETATM   10  C9  UNL     1      -9.491 109.243 275.808  1.00  0.00     0.037 C 
HETATM   11  C10 UNL     1      -8.403 108.974 276.780  1.00  0.00    -0.056 C 
HETATM   12  C12 UNL     1      -7.100 108.985 276.578  1.00  0.00     0.009 C 
HETATM   13  C13 UNL     1      -6.272 109.244 275.407  1.00  0.00    -0.054 C 
HETATM   14  C14 UNL     1      -6.331 108.096 274.359  1.00  0.00     0.048 C 
HETATM   15  C24 UNL     1      -5.499 108.353 273.183  1.00  0.00    -0.005 C 
HETATM   16  C25 UNL     1      -6.378 108.049 271.949  1.00  0.00     0.011 C 
HETATM   17  C26 UNL     1      -4.779 109.644 273.032  1.00  0.00     0.038 C 
HETATM   18  C27 UNL     1      -4.689 110.553 274.191  1.00  0.00     0.138 C 
HETATM   19  C28 UNL     1      -6.125 110.559 274.820  1.00  0.00     0.065 A 
ENDROOT
BRANCH  14  20
HETATM   20  C15 UNL     1      -5.871 106.802 275.073  1.00  0.00     0.127 C 
BRANCH  20  21
HETATM   21  O4  UNL     1      -4.996 107.108 276.130  1.00  0.00    -0.395 OA
ATOM     22  H4  UNL     1      -4.891 106.358 276.703  1.00  0.00     0.210 HD
ENDBRANCH  20  21
BRANCH  20  23
HETATM   23  C16 UNL     1      -6.983 105.939 275.522  1.00  0.00     0.037 C 
BRANCH  23  24
HETATM   24  C17 UNL     1      -7.297 104.934 274.394  1.00  0.00    -0.014 C 
HETATM   25  C18 UNL     1      -8.102 103.769 274.853  1.00  0.00     0.010 C 
BRANCH  24  26
HETATM   26  C19 UNL     1      -6.042 104.500 273.719  1.00  0.00     0.036 C 
BRANCH  26  27
HETATM   27  C20 UNL     1      -5.466 103.243 274.295  1.00  0.00     0.127 C 
BRANCH  27  28
HETATM   28  O5  UNL     1      -4.546 103.423 275.305  1.00  0.00    -0.395 OA
ATOM     29  H5  UNL     1      -4.476 102.706 275.924  1.00  0.00     0.210 HD
ENDBRANCH  27  28
BRANCH  27  30
HETATM   30  C21 UNL     1      -4.862 102.451 273.139  1.00  0.00     0.142 C 
BRANCH  30  31
HETATM   31  C22 UNL     1      -3.401 102.349 273.361  1.00  0.00     0.260 C 
HETATM   32  O6  UNL     1      -2.931 101.315 273.917  1.00  0.00    -0.265 OA
BRANCH  31  33
HETATM   33  O7  UNL     1      -2.568 103.379 272.958  1.00  0.00    -0.326 OA
HETATM   34  C23 UNL     1      -2.751 104.019 271.717  1.00  0.00     0.213 C 
ENDBRANCH  31  33
ENDBRANCH  30  31
ENDBRANCH  27  30
ENDBRANCH  26  27
ENDBRANCH  24  26
ENDBRANCH  23  24
ENDBRANCH  20  23
ENDBRANCH  14  20
BRANCH  11  35
HETATM   35  C11 UNL     1      -8.925 108.612 278.164  1.00  0.00     0.198 C 
BRANCH  35  36
HETATM   36  O3  UNL     1      -8.357 109.370 279.158  1.00  0.00    -0.397 OA
ATOM     37  H3  UNL     1      -8.857 110.155 279.350  1.00  0.00     0.209 HD
ENDBRANCH  35  36
ENDBRANCH  11  35
BRANCH  18  38
HETATM   38  O8  UNL     1      -3.784 110.231 275.160  1.00  0.00    -0.394 OA
ATOM     39  H8  UNL     1      -3.020 110.791 275.238  1.00  0.00     0.210 HD
ENDBRANCH  18  38
BRANCH   5  40
HETATM   40  O2  UNL     1      -8.606 112.227 278.155  1.00  0.00    -0.370 OA
ATOM     41  H2  UNL     1      -8.679 113.159 278.323  1.00  0.00     0.212 HD
ENDBRANCH   5  40
TORSDOF 14
ENDMDL
MODEL 4
REMARK VINA RESULT: -7.656714706      2.038      8.034
REMARK  14 active torsions:
REMARK  status: ('A' for Active; 'I' for Inactive)
REMARK    1  A    between atoms: C4_5  and  O2_6 
REMARK    2  A    between atoms: C10_13  and  C11_14 
REMARK    3  A    between atoms: C11_14  and  O3_15 
REMARK    4  A    between atoms: C14_19  and  C15_20 
REMARK    5  A    between atoms: C15_20  and  O4_21 
REMARK    6  A    between atoms: C15_20  and  C16_23 
REMARK    7  A    between atoms: C16_23  and  C17_24 
REMARK    8  A    between atoms: C17_24  and  C19_26 
REMARK    9  A    between atoms: C19_26  and  C20_27 
REMARK   10  A    between atoms: C20_27  and  O5_28 
REMARK   11  A    between atoms: C20_27  and  C21_30 
REMARK   12  A    between atoms: C21_30  and  C22_31 
REMARK   13  A    between atoms: C22_31  and  O7_33 
REMARK   14  A    between atoms: C27_38  and  O8_39 
ROOT
HETATM    1  C1  UNL     1      -6.793 109.185 276.107  1.00  0.00     0.018 C 
HETATM    2  C2  UNL     1      -5.669 109.083 275.450  1.00  0.00    -0.041 A 
HETATM    3  C3  UNL     1      -4.557 107.969 275.639  1.00  0.00     0.174 A 
HETATM    4  O1  UNL     1      -4.792 106.720 275.325  1.00  0.00    -0.350 OA
HETATM    5  C4  UNL     1      -5.267 105.546 275.076  1.00  0.00     0.265 C 
HETATM    6  C5  UNL     1      -6.640 105.081 274.715  1.00  0.00     0.002 C 
HETATM    7  C6  UNL     1      -6.691 103.527 274.753  1.00  0.00     0.020 C 
HETATM    8  C7  UNL     1      -7.635 105.420 275.816  1.00  0.00     0.020 C 
HETATM    9  C8  UNL     1      -7.115 105.441 273.368  1.00  0.00     0.018 C 
HETATM   10  C9  UNL     1      -6.602 106.686 272.717  1.00  0.00     0.037 C 
HETATM   11  C10 UNL     1      -5.159 106.636 272.377  1.00  0.00    -0.056 C 
HETATM   12  C12 UNL     1      -4.227 107.538 272.617  1.00  0.00     0.009 C 
HETATM   13  C13 UNL     1      -4.242 108.844 273.262  1.00  0.00    -0.054 C 
HETATM   14  C14 UNL     1      -4.943 109.935 272.402  1.00  0.00     0.048 C 
HETATM   15  C24 UNL     1      -4.958 111.248 273.048  1.00  0.00    -0.005 C 
HETATM   16  C25 UNL     1      -6.405 111.778 272.929  1.00  0.00     0.011 C 
HETATM   17  C26 UNL     1      -4.428 111.422 274.424  1.00  0.00     0.038 C 
HETATM   18  C27 UNL     1      -3.643 110.329 275.032  1.00  0.00     0.138 C 
HETATM   19  C28 UNL     1      -4.430 109.018 274.687  1.00  0.00     0.065 A 
ENDROOT
BRANCH  14  20
HETATM   20  C15 UNL     1      -4.190 110.005 271.052  1.00  0.00     0.127 C 
BRANCH  20  21
HETATM   21  O4  UNL     1      -5.096 109.957 269.980  1.00  0.00    -0.395 OA
ATOM     22  H4  UNL     1      -5.691 109.223 270.078  1.00  0.00     0.210 HD
ENDBRANCH  20  21
BRANCH  20  23
HETATM   23  C16 UNL     1      -3.274 111.160 270.938  1.00  0.00     0.037 C 
BRANCH  23  24
HETATM   24  C17 UNL     1      -1.827 110.640 271.070  1.00  0.00    -0.014 C 
HETATM   25  C18 UNL     1      -1.019 111.400 272.062  1.00  0.00     0.010 C 
BRANCH  24  26
HETATM   26  C19 UNL     1      -1.164 110.604 269.736  1.00  0.00     0.036 C 
BRANCH  26  27
HETATM   27  C20 UNL     1      -1.851 111.454 268.712  1.00  0.00     0.127 C 
BRANCH  27  28
HETATM   28  O5  UNL     1      -1.841 110.956 267.427  1.00  0.00    -0.395 OA
ATOM     29  H5  UNL     1      -2.417 110.216 267.272  1.00  0.00     0.210 HD
ENDBRANCH  27  28
BRANCH  27  30
HETATM   30  C21 UNL     1      -1.210 112.837 268.768  1.00  0.00     0.142 C 
BRANCH  30  31
HETATM   31  C22 UNL     1      -0.831 113.228 267.390  1.00  0.00     0.260 C 
HETATM   32  O6  UNL     1       0.377 113.124 267.030  1.00  0.00    -0.265 OA
BRANCH  31  33
HETATM   33  O7  UNL     1      -1.795 113.698 266.515  1.00  0.00    -0.326 OA
HETATM   34  C23 UNL     1      -2.825 114.552 266.958  1.00  0.00     0.213 C 
ENDBRANCH  31  33
ENDBRANCH  30  31
ENDBRANCH  27  30
ENDBRANCH  26  27
ENDBRANCH  24  26
ENDBRANCH  23  24
ENDBRANCH  20  23
ENDBRANCH  14  20
BRANCH  11  35
HETATM   35  C11 UNL     1      -4.774 105.370 271.624  1.00  0.00     0.198 C 
BRANCH  35  36
HETATM   36  O3  UNL     1      -3.649 104.771 272.138  1.00  0.00    -0.397 OA
ATOM     37  H3  UNL     1      -3.828 103.914 272.507  1.00  0.00     0.209 HD
ENDBRANCH  35  36
ENDBRANCH  11  35
BRANCH  18  38
HETATM   38  O8  UNL     1      -2.351 110.191 274.616  1.00  0.00    -0.394 OA
ATOM     39  H8  UNL     1      -2.186 110.286 273.685  1.00  0.00     0.210 HD
ENDBRANCH  18  38
BRANCH   5  40
HETATM   40  O2  UNL     1      -4.412 104.563 275.144  1.00  0.00    -0.370 OA
ATOM     41  H2  UNL     1      -4.786 103.690 275.138  1.00  0.00     0.212 HD
ENDBRANCH   5  40
TORSDOF 14
ENDMDL
MODEL 5
REMARK VINA RESULT: -7.653766979      2.084      7.806
REMARK  14 active torsions:
REMARK  status: ('A' for Active; 'I' for Inactive)
REMARK    1  A    between atoms: C4_5  and  O2_6 
REMARK    2  A    between atoms: C10_13  and  C11_14 
REMARK    3  A    between atoms: C11_14  and  O3_15 
REMARK    4  A    between atoms: C14_19  and  C15_20 
REMARK    5  A    between atoms: C15_20  and  O4_21 
REMARK    6  A    between atoms: C15_20  and  C16_23 
REMARK    7  A    between atoms: C16_23  and  C17_24 
REMARK    8  A    between atoms: C17_24  and  C19_26 
REMARK    9  A    between atoms: C19_26  and  C20_27 
REMARK   10  A    between atoms: C20_27  and  O5_28 
REMARK   11  A    between atoms: C20_27  and  C21_30 
REMARK   12  A    between atoms: C21_30  and  C22_31 
REMARK   13  A    between atoms: C22_31  and  O7_33 
REMARK   14  A    between atoms: C27_38  and  O8_39 
ROOT
HETATM    1  C1  UNL     1      -6.859 109.126 276.163  1.00  0.00     0.018 C 
HETATM    2  C2  UNL     1      -5.736 109.038 275.502  1.00  0.00    -0.041 A 
HETATM    3  C3  UNL     1      -4.614 107.933 275.681  1.00  0.00     0.174 A 
HETATM    4  O1  UNL     1      -4.838 106.684 275.361  1.00  0.00    -0.350 OA
HETATM    5  C4  UNL     1      -5.303 105.507 275.106  1.00  0.00     0.265 C 
HETATM    6  C5  UNL     1      -6.673 105.032 274.747  1.00  0.00     0.002 C 
HETATM    7  C6  UNL     1      -6.711 103.477 274.776  1.00  0.00     0.020 C 
HETATM    8  C7  UNL     1      -7.667 105.355 275.852  1.00  0.00     0.020 C 
HETATM    9  C8  UNL     1      -7.156 105.396 273.403  1.00  0.00     0.018 C 
HETATM   10  C9  UNL     1      -6.656 106.649 272.758  1.00  0.00     0.037 C 
HETATM   11  C10 UNL     1      -5.213 106.614 272.413  1.00  0.00    -0.056 C 
HETATM   12  C12 UNL     1      -4.289 107.522 272.656  1.00  0.00     0.009 C 
HETATM   13  C13 UNL     1      -4.313 108.825 273.308  1.00  0.00    -0.054 C 
HETATM   14  C14 UNL     1      -5.027 109.914 272.457  1.00  0.00     0.048 C 
HETATM   15  C24 UNL     1      -5.052 111.224 273.110  1.00  0.00    -0.005 C 
HETATM   16  C25 UNL     1      -6.504 111.741 272.999  1.00  0.00     0.011 C 
HETATM   17  C26 UNL     1      -4.518 111.394 274.486  1.00  0.00     0.038 C 
HETATM   18  C27 UNL     1      -3.722 110.305 275.085  1.00  0.00     0.138 C 
HETATM   19  C28 UNL     1      -4.499 108.989 274.735  1.00  0.00     0.065 A 
ENDROOT
BRANCH  14  20
HETATM   20  C15 UNL     1      -4.278 109.999 271.105  1.00  0.00     0.127 C 
BRANCH  20  21
HETATM   21  O4  UNL     1      -5.192 110.039 270.038  1.00  0.00    -0.395 OA
ATOM     22  H4  UNL     1      -5.365 110.937 269.782  1.00  0.00     0.210 HD
ENDBRANCH  20  21
BRANCH  20  23
HETATM   23  C16 UNL     1      -3.306 111.110 271.029  1.00  0.00     0.037 C 
BRANCH  23  24
HETATM   24  C17 UNL     1      -1.887 110.517 271.162  1.00  0.00    -0.014 C 
HETATM   25  C18 UNL     1      -1.000 111.312 272.053  1.00  0.00     0.010 C 
BRANCH  24  26
HETATM   26  C19 UNL     1      -1.278 110.319 269.817  1.00  0.00     0.036 C 
BRANCH  26  27
HETATM   27  C20 UNL     1      -1.507 111.473 268.890  1.00  0.00     0.127 C 
BRANCH  27  28
HETATM   28  O5  UNL     1      -1.833 111.136 267.594  1.00  0.00    -0.395 OA
ATOM     29  H5  UNL     1      -2.287 111.809 267.100  1.00  0.00     0.210 HD
ENDBRANCH  27  28
BRANCH  27  30
HETATM   30  C21 UNL     1      -0.253 112.341 268.930  1.00  0.00     0.142 C 
BRANCH  30  31
HETATM   31  C22 UNL     1       0.323 112.387 267.566  1.00  0.00     0.260 C 
HETATM   32  O6  UNL     1       0.070 113.378 266.822  1.00  0.00    -0.265 OA
BRANCH  31  33
HETATM   33  O7  UNL     1       1.129 111.354 267.121  1.00  0.00    -0.326 OA
HETATM   34  C23 UNL     1       2.026 110.704 267.993  1.00  0.00     0.213 C 
ENDBRANCH  31  33
ENDBRANCH  30  31
ENDBRANCH  27  30
ENDBRANCH  26  27
ENDBRANCH  24  26
ENDBRANCH  23  24
ENDBRANCH  20  23
ENDBRANCH  14  20
BRANCH  11  35
HETATM   35  C11 UNL     1      -4.819 105.356 271.651  1.00  0.00     0.198 C 
BRANCH  35  36
HETATM   36  O3  UNL     1      -3.690 104.761 272.161  1.00  0.00    -0.397 OA
ATOM     37  H3  UNL     1      -3.060 105.393 272.486  1.00  0.00     0.209 HD
ENDBRANCH  35  36
ENDBRANCH  11  35
BRANCH  18  38
HETATM   38  O8  UNL     1      -2.430 110.181 274.665  1.00  0.00    -0.394 OA
ATOM     39  H8  UNL     1      -2.257 109.533 273.992  1.00  0.00     0.210 HD
ENDBRANCH  18  38
BRANCH   5  40
HETATM   40  O2  UNL     1      -4.439 104.532 275.166  1.00  0.00    -0.370 OA
ATOM     41  H2  UNL     1      -4.279 104.175 276.032  1.00  0.00     0.212 HD
ENDBRANCH   5  40
TORSDOF 14
ENDMDL
