MODEL 1
REMARK VINA RESULT: -9.062828464      0.000      0.000
REMARK  4 active torsions:
REMARK  status: ('A' for Active; 'I' for Inactive)
REMARK    1  A    between atoms: C4_9  and  C5_10 
REMARK    2  A    between atoms: C11_20  and  C12_21 
REMARK    3  A    between atoms: C12_21  and  O3_23 
REMARK    4  A    between atoms: O3_23  and  C13_24 
ROOT
HETATM    1  C1  UNL     1       7.873 -26.669 -10.475  1.00  0.00     0.064 C 
HETATM    2  C2  UNL     1       7.077 -27.921 -10.699  1.00  0.00     0.007 C 
HETATM    3  N1  UNL     1       7.374 -28.918  -9.994  1.00  0.00    -0.315 N 
ATOM      4  H1  UNL     1       8.127 -28.857  -9.308  1.00  0.00     0.170 HD
HETATM    5  C3  UNL     1       6.643 -30.148 -10.164  1.00  0.00     0.324 C 
HETATM    6  O1  UNL     1       6.912 -31.167  -9.479  1.00  0.00    -0.247 OA
HETATM    7  N2  UNL     1       5.610 -30.149 -11.146  1.00  0.00    -0.310 N 
ATOM      8  H2  UNL     1       5.241 -31.049 -11.455  1.00  0.00     0.170 HD
HETATM    9  C4  UNL     1       5.072 -28.983 -11.712  1.00  0.00     0.045 C 
HETATM   10  C11 UNL     1       6.000 -27.809 -11.718  1.00  0.00     0.181 C 
ENDROOT
BRANCH   9  11
HETATM   11  C5  UNL     1       3.707 -28.554 -11.371  1.00  0.00     0.013 A 
HETATM   12  C6  UNL     1       3.104 -27.659 -12.275  1.00  0.00     0.041 A 
HETATM   13  C7  UNL     1       1.789 -27.286 -12.103  1.00  0.00     0.058 A 
HETATM   14 CL1  UNL     1       1.074 -26.168 -13.264  1.00  0.00    -0.082 Cl
HETATM   15  C8  UNL     1       1.057 -27.770 -11.072  1.00  0.00     0.079 A 
HETATM   16 CL2  UNL     1      -0.600 -27.300 -10.860  1.00  0.00    -0.081 Cl
HETATM   17  C9  UNL     1       1.645 -28.649 -10.184  1.00  0.00     0.080 A 
HETATM   18 CL3  UNL     1       0.731 -29.291  -8.813  1.00  0.00    -0.081 Cl
HETATM   19  C10 UNL     1       2.958 -29.039 -10.331  1.00  0.00     0.069 A 
HETATM   20 CL4  UNL     1       3.646 -30.100  -9.170  1.00  0.00    -0.082 Cl
ENDBRANCH   9  11
BRANCH  10  21
HETATM   21  C12 UNL     1       6.698 -27.648 -13.043  1.00  0.00     0.275 C 
HETATM   22  O2  UNL     1       7.741 -28.210 -13.387  1.00  0.00    -0.264 OA
BRANCH  21  23
HETATM   23  O3  UNL     1       6.107 -26.795 -13.930  1.00  0.00    -0.310 OA
BRANCH  23  24
HETATM   24  C13 UNL     1       6.058 -25.414 -13.812  1.00  0.00     0.060 C 
HETATM   25  C14 UNL     1       4.721 -24.905 -13.338  1.00  0.00     0.045 C 
HETATM   26  C15 UNL     1       7.181 -24.861 -12.969  1.00  0.00     0.045 C 
HETATM   27  C16 UNL     1       6.240 -24.872 -15.219  1.00  0.00     0.045 C 
ENDBRANCH  23  24
ENDBRANCH  21  23
ENDBRANCH  10  21
TORSDOF 4
ENDMDL
MODEL 2
REMARK VINA RESULT: -8.986642810      3.625      6.511
REMARK  4 active torsions:
REMARK  status: ('A' for Active; 'I' for Inactive)
REMARK    1  A    between atoms: C4_9  and  C5_10 
REMARK    2  A    between atoms: C11_20  and  C12_21 
REMARK    3  A    between atoms: C12_21  and  O3_23 
REMARK    4  A    between atoms: O3_23  and  C13_24 
ROOT
HETATM    1  C1  UNL     1       0.570 -24.801 -12.259  1.00  0.00     0.064 C 
HETATM    2  C2  UNL     1       1.602 -25.198 -13.273  1.00  0.00     0.007 C 
HETATM    3  N1  UNL     1       1.889 -24.351 -14.156  1.00  0.00    -0.315 N 
ATOM      4  H1  UNL     1       1.428 -23.441 -14.165  1.00  0.00     0.170 HD
HETATM    5  C3  UNL     1       2.874 -24.677 -15.156  1.00  0.00     0.324 C 
HETATM    6  O1  UNL     1       3.185 -23.856 -16.056  1.00  0.00    -0.247 OA
HETATM    7  N2  UNL     1       3.467 -25.969 -15.076  1.00  0.00    -0.310 N 
ATOM      8  H2  UNL     1       3.979 -26.316 -15.887  1.00  0.00     0.170 HD
HETATM    9  C4  UNL     1       3.386 -26.793 -13.942  1.00  0.00     0.045 C 
HETATM   10  C11 UNL     1       2.186 -26.553 -13.081  1.00  0.00     0.181 C 
ENDROOT
BRANCH   9  11
HETATM   11  C5  UNL     1       4.575 -27.027 -13.108  1.00  0.00     0.013 A 
HETATM   12  C6  UNL     1       5.525 -25.988 -13.093  1.00  0.00     0.041 A 
HETATM   13  C7  UNL     1       6.617 -26.064 -12.256  1.00  0.00     0.058 A 
HETATM   14 CL1  UNL     1       7.777 -24.736 -12.266  1.00  0.00    -0.082 Cl
HETATM   15  C8  UNL     1       6.795 -27.129 -11.439  1.00  0.00     0.079 A 
HETATM   16 CL2  UNL     1       8.172 -27.220 -10.385  1.00  0.00    -0.081 Cl
HETATM   17  C9  UNL     1       5.865 -28.149 -11.452  1.00  0.00     0.080 A 
HETATM   18 CL3  UNL     1       6.070 -29.567 -10.414  1.00  0.00    -0.081 Cl
HETATM   19  C10 UNL     1       4.764 -28.100 -12.277  1.00  0.00     0.069 A 
HETATM   20 CL4  UNL     1       3.666 -29.419 -12.279  1.00  0.00    -0.082 Cl
ENDBRANCH   9  11
BRANCH  10  21
HETATM   21  C12 UNL     1       1.077 -27.528 -13.374  1.00  0.00     0.275 C 
HETATM   22  O2  UNL     1       0.318 -27.495 -14.347  1.00  0.00    -0.264 OA
BRANCH  21  23
HETATM   23  O3  UNL     1       0.909 -28.532 -12.464  1.00  0.00    -0.310 OA
BRANCH  23  24
HETATM   24  C13 UNL     1       0.098 -28.477 -11.341  1.00  0.00     0.060 C 
HETATM   25  C14 UNL     1       0.766 -27.826 -10.156  1.00  0.00     0.045 C 
HETATM   26  C15 UNL     1      -1.245 -27.847 -11.621  1.00  0.00     0.045 C 
HETATM   27  C16 UNL     1      -0.155 -29.920 -10.941  1.00  0.00     0.045 C 
ENDBRANCH  23  24
ENDBRANCH  21  23
ENDBRANCH  10  21
TORSDOF 4
ENDMDL
MODEL 3
REMARK VINA RESULT: -8.885550205      3.696      6.749
REMARK  4 active torsions:
REMARK  status: ('A' for Active; 'I' for Inactive)
REMARK    1  A    between atoms: C4_9  and  C5_10 
REMARK    2  A    between atoms: C11_20  and  C12_21 
REMARK    3  A    between atoms: C12_21  and  O3_23 
REMARK    4  A    between atoms: O3_23  and  C13_24 
ROOT
HETATM    1  C1  UNL     1       0.293 -24.778 -12.485  1.00  0.00     0.064 C 
HETATM    2  C2  UNL     1       1.418 -25.192 -13.387  1.00  0.00     0.007 C 
HETATM    3  N1  UNL     1       1.825 -24.341 -14.217  1.00  0.00    -0.315 N 
ATOM      4  H1  UNL     1       1.396 -23.417 -14.259  1.00  0.00     0.170 HD
HETATM    5  C3  UNL     1       2.904 -24.683 -15.109  1.00  0.00     0.324 C 
HETATM    6  O1  UNL     1       3.337 -23.859 -15.954  1.00  0.00    -0.247 OA
HETATM    7  N2  UNL     1       3.445 -25.995 -14.989  1.00  0.00    -0.310 N 
ATOM      8  H2  UNL     1       4.032 -26.346 -15.746  1.00  0.00     0.170 HD
HETATM    9  C4  UNL     1       3.215 -26.834 -13.887  1.00  0.00     0.045 C 
HETATM   10  C11 UNL     1       1.935 -26.568 -13.158  1.00  0.00     0.181 C 
ENDROOT
BRANCH   9  11
HETATM   11  C5  UNL     1       4.297 -27.118 -12.932  1.00  0.00     0.013 A 
HETATM   12  C6  UNL     1       4.208 -28.350 -12.256  1.00  0.00     0.041 A 
HETATM   13  C7  UNL     1       5.230 -28.758 -11.426  1.00  0.00     0.058 A 
HETATM   14 CL1  UNL     1       5.078 -30.311 -10.606  1.00  0.00    -0.082 Cl
HETATM   15  C8  UNL     1       6.330 -27.988 -11.247  1.00  0.00     0.079 A 
HETATM   16 CL2  UNL     1       7.615 -28.505 -10.202  1.00  0.00    -0.081 Cl
HETATM   17  C9  UNL     1       6.420 -26.780 -11.909  1.00  0.00     0.080 A 
HETATM   18 CL3  UNL     1       7.831 -25.736 -11.689  1.00  0.00    -0.081 Cl
HETATM   19  C10 UNL     1       5.414 -26.347 -12.745  1.00  0.00     0.069 A 
HETATM   20 CL4  UNL     1       5.565 -24.816 -13.505  1.00  0.00    -0.082 Cl
ENDBRANCH   9  11
BRANCH  10  21
HETATM   21  C12 UNL     1       0.836 -27.502 -13.588  1.00  0.00     0.275 C 
HETATM   22  O2  UNL     1       0.073 -27.335 -14.544  1.00  0.00    -0.264 OA
BRANCH  21  23
HETATM   23  O3  UNL     1       0.684 -28.632 -12.837  1.00  0.00    -0.310 OA
BRANCH  23  24
HETATM   24  C13 UNL     1       0.062 -28.701 -11.600  1.00  0.00     0.060 C 
HETATM   25  C14 UNL     1       0.954 -28.278 -10.461  1.00  0.00     0.045 C 
HETATM   26  C15 UNL     1      -1.253 -27.959 -11.565  1.00  0.00     0.045 C 
HETATM   27  C16 UNL     1      -0.243 -30.171 -11.371  1.00  0.00     0.045 C 
ENDBRANCH  23  24
ENDBRANCH  21  23
ENDBRANCH  10  21
TORSDOF 4
ENDMDL
MODEL 4
REMARK VINA RESULT: -8.787860146      3.151      5.190
REMARK  4 active torsions:
REMARK  status: ('A' for Active; 'I' for Inactive)
REMARK    1  A    between atoms: C4_9  and  C5_10 
REMARK    2  A    between atoms: C11_20  and  C12_21 
REMARK    3  A    between atoms: C12_21  and  O3_23 
REMARK    4  A    between atoms: O3_23  and  C13_24 
ROOT
HETATM    1  C1  UNL     1       0.724 -27.009 -14.805  1.00  0.00     0.064 C 
HETATM    2  C2  UNL     1       0.828 -26.897 -13.313  1.00  0.00     0.007 C 
HETATM    3  N1  UNL     1      -0.234 -27.038 -12.656  1.00  0.00    -0.315 N 
ATOM      4  H1  UNL     1      -1.116 -27.220 -13.136  1.00  0.00     0.170 HD
HETATM    5  C3  UNL     1      -0.195 -26.941 -11.218  1.00  0.00     0.324 C 
HETATM    6  O1  UNL     1      -1.236 -27.076 -10.527  1.00  0.00    -0.247 OA
HETATM    7  N2  UNL     1       1.075 -26.682 -10.627  1.00  0.00    -0.310 N 
ATOM      8  H2  UNL     1       1.100 -26.376  -9.654  1.00  0.00     0.170 HD
HETATM    9  C4  UNL     1       2.294 -26.824 -11.308  1.00  0.00     0.045 C 
HETATM   10  C11 UNL     1       2.201 -26.660 -12.793  1.00  0.00     0.181 C 
ENDROOT
BRANCH   9  11
HETATM   11  C5  UNL     1       3.209 -27.925 -10.972  1.00  0.00     0.013 A 
HETATM   12  C6  UNL     1       4.539 -27.769 -11.404  1.00  0.00     0.041 A 
HETATM   13  C7  UNL     1       5.496 -28.693 -11.042  1.00  0.00     0.058 A 
HETATM   14 CL1  UNL     1       7.150 -28.452 -11.600  1.00  0.00    -0.082 Cl
HETATM   15  C8  UNL     1       5.177 -29.758 -10.268  1.00  0.00     0.079 A 
HETATM   16 CL2  UNL     1       6.385 -30.918  -9.812  1.00  0.00    -0.081 Cl
HETATM   17  C9  UNL     1       3.873 -29.913  -9.842  1.00  0.00     0.080 A 
HETATM   18 CL3  UNL     1       3.411 -31.300  -8.847  1.00  0.00    -0.081 Cl
HETATM   19  C10 UNL     1       2.896 -29.006 -10.189  1.00  0.00     0.069 A 
HETATM   20 CL4  UNL     1       1.284 -29.277  -9.665  1.00  0.00    -0.082 Cl
ENDBRANCH   9  11
BRANCH  10  21
HETATM   21  C12 UNL     1       2.578 -25.270 -13.233  1.00  0.00     0.275 C 
HETATM   22  O2  UNL     1       1.795 -24.344 -13.463  1.00  0.00    -0.264 OA
BRANCH  21  23
HETATM   23  O3  UNL     1       3.913 -25.034 -13.388  1.00  0.00    -0.310 OA
BRANCH  23  24
HETATM   24  C13 UNL     1       4.648 -25.279 -14.538  1.00  0.00     0.060 C 
HETATM   25  C14 UNL     1       5.545 -26.485 -14.425  1.00  0.00     0.045 C 
HETATM   26  C15 UNL     1       3.787 -25.356 -15.775  1.00  0.00     0.045 C 
HETATM   27  C16 UNL     1       5.570 -24.083 -14.703  1.00  0.00     0.045 C 
ENDBRANCH  23  24
ENDBRANCH  21  23
ENDBRANCH  10  21
TORSDOF 4
ENDMDL
MODEL 5
REMARK VINA RESULT: -8.705674318      3.913      6.111
REMARK  4 active torsions:
REMARK  status: ('A' for Active; 'I' for Inactive)
REMARK    1  A    between atoms: C4_9  and  C5_10 
REMARK    2  A    between atoms: C11_20  and  C12_21 
REMARK    3  A    between atoms: C12_21  and  O3_23 
REMARK    4  A    between atoms: O3_23  and  C13_24 
ROOT
HETATM    1  C1  UNL     1       0.357 -28.560 -14.827  1.00  0.00     0.064 C 
HETATM    2  C2  UNL     1       0.727 -27.888 -13.537  1.00  0.00     0.007 C 
HETATM    3  N1  UNL     1       0.055 -28.198 -12.522  1.00  0.00    -0.315 N 
ATOM      4  H1  UNL     1      -0.703 -28.877 -12.593  1.00  0.00     0.170 HD
HETATM    5  C3  UNL     1       0.366 -27.585 -11.255  1.00  0.00     0.324 C 
HETATM    6  O1  UNL     1      -0.285 -27.869 -10.217  1.00  0.00    -0.247 OA
HETATM    7  N2  UNL     1       1.436 -26.645 -11.242  1.00  0.00    -0.310 N 
ATOM      8  H2  UNL     1       1.525 -26.028 -10.434  1.00  0.00     0.170 HD
HETATM    9  C4  UNL     1       2.374 -26.520 -12.278  1.00  0.00     0.045 C 
HETATM   10  C11 UNL     1       1.879 -26.952 -13.623  1.00  0.00     0.181 C 
ENDROOT
BRANCH   9  11
HETATM   11  C5  UNL     1       3.763 -26.961 -12.079  1.00  0.00     0.013 A 
HETATM   12  C6  UNL     1       4.758 -26.037 -12.453  1.00  0.00     0.041 A 
HETATM   13  C7  UNL     1       6.084 -26.312 -12.202  1.00  0.00     0.058 A 
HETATM   14 CL1  UNL     1       7.294 -25.123 -12.681  1.00  0.00    -0.082 Cl
HETATM   15  C8  UNL     1       6.454 -27.465 -11.596  1.00  0.00     0.079 A 
HETATM   16 CL2  UNL     1       8.126 -27.807 -11.279  1.00  0.00    -0.081 Cl
HETATM   17  C9  UNL     1       5.481 -28.373 -11.227  1.00  0.00     0.080 A 
HETATM   18 CL3  UNL     1       5.922 -29.899 -10.450  1.00  0.00    -0.081 Cl
HETATM   19  C10 UNL     1       4.147 -28.125 -11.465  1.00  0.00     0.069 A 
HETATM   20 CL4  UNL     1       2.988 -29.311 -11.024  1.00  0.00    -0.082 Cl
ENDBRANCH   9  11
BRANCH  10  21
HETATM   21  C12 UNL     1       1.407 -25.787 -14.451  1.00  0.00     0.275 C 
HETATM   22  O2  UNL     1       2.093 -24.825 -14.808  1.00  0.00    -0.264 OA
BRANCH  21  23
HETATM   23  O3  UNL     1       0.096 -25.814 -14.829  1.00  0.00    -0.310 OA
BRANCH  23  24
HETATM   24  C13 UNL     1      -0.887 -24.936 -14.399  1.00  0.00     0.060 C 
HETATM   25  C14 UNL     1      -0.664 -24.435 -12.995  1.00  0.00     0.045 C 
HETATM   26  C15 UNL     1      -1.106 -23.791 -15.357  1.00  0.00     0.045 C 
HETATM   27  C16 UNL     1      -2.174 -25.743 -14.358  1.00  0.00     0.045 C 
ENDBRANCH  23  24
ENDBRANCH  21  23
ENDBRANCH  10  21
TORSDOF 4
ENDMDL
