MODEL 1
REMARK VINA RESULT: -10.497709781      0.000      0.000
REMARK  3 active torsions:
REMARK  status: ('A' for Active; 'I' for Inactive)
REMARK    1  A    between atoms: C3_4  and  O2_5 
REMARK    2  A    between atoms: C6_10  and  O3_11 
REMARK    3  A    between atoms: O3_11  and  C7_12 
ROOT
HETATM    1  O1  UNL     1      -1.794 -29.012 -11.368  1.00  0.00    -0.289 OA
HETATM    2  C1  UNL     1      -1.283 -27.863 -11.331  1.00  0.00     0.199 C 
HETATM    3  C2  UNL     1       0.181 -27.864 -11.157  1.00  0.00     0.084 A 
HETATM    4  C3  UNL     1       0.599 -28.836 -10.269  1.00  0.00     0.104 A 
HETATM    5  C4  UNL     1       1.993 -28.950 -10.060  1.00  0.00     0.070 A 
HETATM    6 CL1  UNL     1       2.567 -30.187  -8.932  1.00  0.00    -0.081 Cl
HETATM    7  C5  UNL     1       2.863 -28.125 -10.719  1.00  0.00     0.066 A 
HETATM    8  C6  UNL     1       2.473 -27.153 -11.601  1.00  0.00     0.106 A 
HETATM    9  C17 UNL     1       1.086 -27.047 -11.803  1.00  0.00     0.118 A 
HETATM   10  O4  UNL     1       0.779 -26.036 -12.712  1.00  0.00    -0.347 OA
HETATM   11  C18 UNL     1      -0.502 -25.608 -13.070  1.00  0.00     0.179 C 
HETATM   12  C19 UNL     1      -1.486 -25.465 -11.988  1.00  0.00     0.072 C 
HETATM   13  C20 UNL     1      -2.137 -26.689 -11.458  1.00  0.00     0.246 C 
HETATM   14  F1  UNL     1      -3.192 -27.020 -12.307  1.00  0.00    -0.241 F 
ENDROOT
BRANCH   8  15
HETATM   15  O3  UNL     1       3.266 -26.314 -12.273  1.00  0.00    -0.337 OA
BRANCH  15  16
HETATM   16  C7  UNL     1       4.581 -26.240 -12.614  1.00  0.00     0.070 C 
HETATM   17  C8  UNL     1       4.890 -24.953 -13.321  1.00  0.00     0.043 C 
HETATM   18  C9  UNL     1       6.294 -24.917 -13.893  1.00  0.00    -0.010 C 
HETATM   19  C10 UNL     1       6.496 -26.037 -14.858  1.00  0.00     0.009 C 
HETATM   20  C14 UNL     1       7.243 -25.075 -12.720  1.00  0.00     0.030 C 
HETATM   21  C11 UNL     1       6.246 -27.354 -14.149  1.00  0.00    -0.010 C 
HETATM   22  C12 UNL     1       7.203 -27.530 -13.003  1.00  0.00     0.030 C 
HETATM   23  C16 UNL     1       4.848 -27.374 -13.619  1.00  0.00     0.043 C 
HETATM   24  C13 UNL     1       6.960 -26.380 -12.045  1.00  0.00     0.040 C 
HETATM   25 CL2  UNL     1       8.154 -26.566 -10.720  1.00  0.00    -0.119 Cl
HETATM   26  C15 UNL     1       5.558 -26.467 -11.487  1.00  0.00     0.064 C 
ENDBRANCH  15  16
ENDBRANCH   8  15
BRANCH   4  27
HETATM   27  O2  UNL     1      -0.242 -29.646  -9.612  1.00  0.00    -0.358 OA
ATOM     28  H2  UNL     1      -0.074 -29.976  -8.737  1.00  0.00     0.217 HD
ENDBRANCH   4  27
TORSDOF 3
ENDMDL
MODEL 2
REMARK VINA RESULT: -10.205944318      1.223      1.906
REMARK  3 active torsions:
REMARK  status: ('A' for Active; 'I' for Inactive)
REMARK    1  A    between atoms: C3_4  and  O2_5 
REMARK    2  A    between atoms: C6_10  and  O3_11 
REMARK    3  A    between atoms: O3_11  and  C7_12 
ROOT
HETATM    1  O1  UNL     1      -1.701 -28.638 -12.322  1.00  0.00    -0.289 OA
HETATM    2  C1  UNL     1      -1.137 -27.583 -11.933  1.00  0.00     0.199 C 
HETATM    3  C2  UNL     1       0.213 -27.794 -11.383  1.00  0.00     0.084 A 
HETATM    4  C3  UNL     1       0.292 -28.942 -10.618  1.00  0.00     0.104 A 
HETATM    5  C4  UNL     1       1.558 -29.261 -10.075  1.00  0.00     0.070 A 
HETATM    6 CL1  UNL     1       1.697 -30.727  -9.094  1.00  0.00    -0.081 Cl
HETATM    7  C5  UNL     1       2.636 -28.453 -10.311  1.00  0.00     0.066 A 
HETATM    8  C6  UNL     1       2.584 -27.309 -11.062  1.00  0.00     0.106 A 
HETATM    9  C17 UNL     1       1.322 -27.000 -11.598  1.00  0.00     0.118 A 
HETATM   10  O4  UNL     1       1.360 -25.824 -12.345  1.00  0.00    -0.347 OA
HETATM   11  C18 UNL     1       0.267 -25.188 -12.939  1.00  0.00     0.179 C 
HETATM   12  C19 UNL     1      -0.968 -25.103 -12.149  1.00  0.00     0.072 C 
HETATM   13  C20 UNL     1      -1.832 -26.307 -12.054  1.00  0.00     0.246 C 
HETATM   14  F1  UNL     1      -2.626 -26.361 -13.198  1.00  0.00    -0.241 F 
ENDROOT
BRANCH   8  15
HETATM   15  O3  UNL     1       3.595 -26.477 -11.327  1.00  0.00    -0.337 OA
BRANCH  15  16
HETATM   16  C7  UNL     1       4.696 -26.465 -12.126  1.00  0.00     0.070 C 
HETATM   17  C8  UNL     1       4.796 -27.726 -12.934  1.00  0.00     0.043 C 
HETATM   18  C9  UNL     1       6.108 -27.842 -13.685  1.00  0.00    -0.010 C 
HETATM   19  C10 UNL     1       7.260 -27.805 -12.738  1.00  0.00     0.009 C 
HETATM   20  C14 UNL     1       6.177 -26.649 -14.621  1.00  0.00     0.030 C 
HETATM   21  C11 UNL     1       7.213 -26.511 -11.949  1.00  0.00    -0.010 C 
HETATM   22  C12 UNL     1       7.310 -25.325 -12.869  1.00  0.00     0.030 C 
HETATM   23  C16 UNL     1       5.923 -26.434 -11.198  1.00  0.00     0.043 C 
HETATM   24  C13 UNL     1       6.121 -25.395 -13.807  1.00  0.00     0.040 C 
HETATM   25 CL2  UNL     1       6.289 -24.015 -14.938  1.00  0.00    -0.119 Cl
HETATM   26  C15 UNL     1       4.839 -25.257 -13.018  1.00  0.00     0.064 C 
ENDBRANCH  15  16
ENDBRANCH   8  15
BRANCH   4  27
HETATM   27  O2  UNL     1      -0.758 -29.738 -10.374  1.00  0.00    -0.358 OA
ATOM     28  H2  UNL     1      -1.114 -29.884  -9.505  1.00  0.00     0.217 HD
ENDBRANCH   4  27
TORSDOF 3
ENDMDL
MODEL 3
REMARK VINA RESULT: -10.056304351      3.404      6.885
REMARK  3 active torsions:
REMARK  status: ('A' for Active; 'I' for Inactive)
REMARK    1  A    between atoms: C3_4  and  O2_5 
REMARK    2  A    between atoms: C6_10  and  O3_11 
REMARK    3  A    between atoms: O3_11  and  C7_12 
ROOT
HETATM    1  O1  UNL     1       7.568 -25.942 -10.784  1.00  0.00    -0.289 OA
HETATM    2  C1  UNL     1       7.026 -26.171 -11.896  1.00  0.00     0.199 C 
HETATM    3  C2  UNL     1       6.086 -27.306 -11.882  1.00  0.00     0.084 A 
HETATM    4  C3  UNL     1       6.545 -28.354 -11.109  1.00  0.00     0.104 A 
HETATM    5  C4  UNL     1       5.698 -29.481 -10.994  1.00  0.00     0.070 A 
HETATM    6 CL1  UNL     1       6.253 -30.841 -10.007  1.00  0.00    -0.081 Cl
HETATM    7  C5  UNL     1       4.487 -29.504 -11.629  1.00  0.00     0.066 A 
HETATM    8  C6  UNL     1       4.010 -28.480 -12.403  1.00  0.00     0.106 A 
HETATM    9  C17 UNL     1       4.859 -27.365 -12.511  1.00  0.00     0.118 A 
HETATM   10  O4  UNL     1       4.297 -26.374 -13.315  1.00  0.00    -0.347 OA
HETATM   11  C18 UNL     1       4.909 -25.179 -13.700  1.00  0.00     0.179 C 
HETATM   12  C19 UNL     1       6.319 -25.249 -14.105  1.00  0.00     0.072 C 
HETATM   13  C20 UNL     1       7.356 -25.336 -13.045  1.00  0.00     0.246 C 
HETATM   14  F1  UNL     1       7.606 -24.047 -12.577  1.00  0.00    -0.241 F 
ENDROOT
BRANCH   8  15
HETATM   15  O3  UNL     1       2.843 -28.441 -13.051  1.00  0.00    -0.337 OA
BRANCH  15  16
HETATM   16  C7  UNL     1       1.536 -28.224 -12.742  1.00  0.00     0.070 C 
HETATM   17  C8  UNL     1       1.383 -27.736 -11.332  1.00  0.00     0.043 C 
HETATM   18  C9  UNL     1      -0.064 -27.674 -10.884  1.00  0.00    -0.010 C 
HETATM   19  C10 UNL     1      -0.702 -29.019 -10.980  1.00  0.00     0.009 C 
HETATM   20  C14 UNL     1      -0.765 -26.707 -11.819  1.00  0.00     0.030 C 
HETATM   21  C11 UNL     1      -0.612 -29.509 -12.413  1.00  0.00    -0.010 C 
HETATM   22  C12 UNL     1      -1.330 -28.569 -13.342  1.00  0.00     0.030 C 
HETATM   23  C16 UNL     1       0.825 -29.587 -12.821  1.00  0.00     0.043 C 
HETATM   24  C13 UNL     1      -0.648 -27.221 -13.219  1.00  0.00     0.040 C 
HETATM   25 CL2  UNL     1      -1.558 -26.097 -14.279  1.00  0.00    -0.119 Cl
HETATM   26  C15 UNL     1       0.784 -27.326 -13.693  1.00  0.00     0.064 C 
ENDBRANCH  15  16
ENDBRANCH   8  15
BRANCH   4  27
HETATM   27  O2  UNL     1       7.732 -28.346 -10.487  1.00  0.00    -0.358 OA
ATOM     28  H2  UNL     1       8.067 -29.083  -9.990  1.00  0.00     0.217 HD
ENDBRANCH   4  27
TORSDOF 3
ENDMDL
MODEL 4
REMARK VINA RESULT: -10.005776598      1.301      1.980
REMARK  3 active torsions:
REMARK  status: ('A' for Active; 'I' for Inactive)
REMARK    1  A    between atoms: C3_4  and  O2_5 
REMARK    2  A    between atoms: C6_10  and  O3_11 
REMARK    3  A    between atoms: O3_11  and  C7_12 
ROOT
HETATM    1  O1  UNL     1      -1.153 -30.333 -11.520  1.00  0.00    -0.289 OA
HETATM    2  C1  UNL     1      -0.870 -29.111 -11.415  1.00  0.00     0.199 C 
HETATM    3  C2  UNL     1       0.540 -28.849 -11.076  1.00  0.00     0.084 A 
HETATM    4  C3  UNL     1       1.031 -29.754 -10.155  1.00  0.00     0.104 A 
HETATM    5  C4  UNL     1       2.391 -29.618  -9.790  1.00  0.00     0.070 A 
HETATM    6 CL1  UNL     1       3.056 -30.763  -8.616  1.00  0.00    -0.081 Cl
HETATM    7  C5  UNL     1       3.159 -28.628 -10.338  1.00  0.00     0.066 A 
HETATM    8  C6  UNL     1       2.695 -27.718 -11.250  1.00  0.00     0.106 A 
HETATM    9  C17 UNL     1       1.343 -27.861 -11.607  1.00  0.00     0.118 A 
HETATM   10  O4  UNL     1       0.957 -26.896 -12.536  1.00  0.00    -0.347 OA
HETATM   11  C18 UNL     1      -0.334 -26.699 -13.033  1.00  0.00     0.179 C 
HETATM   12  C19 UNL     1      -1.441 -26.771 -12.069  1.00  0.00     0.072 C 
HETATM   13  C20 UNL     1      -1.909 -28.109 -11.627  1.00  0.00     0.246 C 
HETATM   14  F1  UNL     1      -2.784 -28.602 -12.594  1.00  0.00    -0.241 F 
ENDROOT
BRANCH   8  15
HETATM   15  O3  UNL     1       3.388 -26.728 -11.820  1.00  0.00    -0.337 OA
BRANCH  15  16
HETATM   16  C7  UNL     1       4.584 -26.581 -12.451  1.00  0.00     0.070 C 
HETATM   17  C8  UNL     1       4.888 -27.762 -13.324  1.00  0.00     0.043 C 
HETATM   18  C9  UNL     1       6.296 -27.732 -13.888  1.00  0.00    -0.010 C 
HETATM   19  C10 UNL     1       7.302 -27.699 -12.786  1.00  0.00     0.009 C 
HETATM   20  C14 UNL     1       6.403 -26.465 -14.716  1.00  0.00     0.030 C 
HETATM   21  C11 UNL     1       7.050 -26.479 -11.921  1.00  0.00    -0.010 C 
HETATM   22  C12 UNL     1       7.184 -25.218 -12.730  1.00  0.00     0.030 C 
HETATM   23  C16 UNL     1       5.667 -26.547 -11.357  1.00  0.00     0.043 C 
HETATM   24  C13 UNL     1       6.143 -25.288 -13.830  1.00  0.00     0.040 C 
HETATM   25 CL2  UNL     1       6.361 -23.812 -14.825  1.00  0.00    -0.119 Cl
HETATM   26  C15 UNL     1       4.758 -25.297 -13.224  1.00  0.00     0.064 C 
ENDBRANCH  15  16
ENDBRANCH   8  15
BRANCH   4  27
HETATM   27  O2  UNL     1       0.287 -30.724  -9.606  1.00  0.00    -0.358 OA
ATOM     28  H2  UNL     1       0.002 -31.496 -10.080  1.00  0.00     0.217 HD
ENDBRANCH   4  27
TORSDOF 3
ENDMDL
MODEL 5
REMARK VINA RESULT: -9.899218041      3.186      6.857
REMARK  3 active torsions:
REMARK  status: ('A' for Active; 'I' for Inactive)
REMARK    1  A    between atoms: C3_4  and  O2_5 
REMARK    2  A    between atoms: C6_10  and  O3_11 
REMARK    3  A    between atoms: O3_11  and  C7_12 
ROOT
HETATM    1  O1  UNL     1       7.529 -26.036 -10.770  1.00  0.00    -0.289 OA
HETATM    2  C1  UNL     1       6.992 -26.261 -11.885  1.00  0.00     0.199 C 
HETATM    3  C2  UNL     1       6.041 -27.387 -11.875  1.00  0.00     0.084 A 
HETATM    4  C3  UNL     1       6.486 -28.438 -11.098  1.00  0.00     0.104 A 
HETATM    5  C4  UNL     1       5.627 -29.557 -10.986  1.00  0.00     0.070 A 
HETATM    6 CL1  UNL     1       6.163 -30.921  -9.994  1.00  0.00    -0.081 Cl
HETATM    7  C5  UNL     1       4.420 -29.570 -11.629  1.00  0.00     0.066 A 
HETATM    8  C6  UNL     1       3.958 -28.543 -12.408  1.00  0.00     0.106 A 
HETATM    9  C17 UNL     1       4.818 -27.436 -12.512  1.00  0.00     0.118 A 
HETATM   10  O4  UNL     1       4.270 -26.441 -13.321  1.00  0.00    -0.347 OA
HETATM   11  C18 UNL     1       4.896 -25.252 -13.704  1.00  0.00     0.179 C 
HETATM   12  C19 UNL     1       6.308 -25.336 -14.100  1.00  0.00     0.072 C 
HETATM   13  C20 UNL     1       7.337 -25.431 -13.033  1.00  0.00     0.246 C 
HETATM   14  F1  UNL     1       7.596 -24.144 -12.566  1.00  0.00    -0.241 F 
ENDROOT
BRANCH   8  15
HETATM   15  O3  UNL     1       2.795 -28.493 -13.063  1.00  0.00    -0.337 OA
BRANCH  15  16
HETATM   16  C7  UNL     1       1.487 -28.275 -12.761  1.00  0.00     0.070 C 
HETATM   17  C8  UNL     1       0.851 -27.333 -13.741  1.00  0.00     0.043 C 
HETATM   18  C9  UNL     1      -0.545 -26.907 -13.328  1.00  0.00    -0.010 C 
HETATM   19  C10 UNL     1      -0.517 -26.239 -11.994  1.00  0.00     0.009 C 
HETATM   20  C14 UNL     1      -1.377 -28.173 -13.249  1.00  0.00     0.030 C 
HETATM   21  C11 UNL     1       0.070 -27.195 -10.973  1.00  0.00    -0.010 C 
HETATM   22  C12 UNL     1      -0.768 -28.439 -10.869  1.00  0.00     0.030 C 
HETATM   23  C16 UNL     1       1.454 -27.577 -11.390  1.00  0.00     0.043 C 
HETATM   24  C13 UNL     1      -0.764 -29.089 -12.239  1.00  0.00     0.040 C 
HETATM   25 CL2  UNL     1      -1.821 -30.532 -12.115  1.00  0.00    -0.119 Cl
HETATM   26  C15 UNL     1       0.642 -29.514 -12.600  1.00  0.00     0.064 C 
ENDBRANCH  15  16
ENDBRANCH   8  15
BRANCH   4  27
HETATM   27  O2  UNL     1       7.669 -28.441 -10.468  1.00  0.00    -0.358 OA
ATOM     28  H2  UNL     1       8.201 -27.663 -10.352  1.00  0.00     0.217 HD
ENDBRANCH   4  27
TORSDOF 3
ENDMDL
