MODEL 1
REMARK VINA RESULT: -8.057142336      0.000      0.000
REMARK  8 active torsions:
REMARK  status: ('A' for Active; 'I' for Inactive)
REMARK    1  A    between atoms: O1_3  and  C3_4 
REMARK    2  A    between atoms: C3_4  and  C4_6 
REMARK    3  A    between atoms: C6_8  and  N1_9 
REMARK    4  A    between atoms: N1_9  and  C7_12 
REMARK    5  A    between atoms: N2_19  and  C14_20 
REMARK    6  A    between atoms: C14_20  and  O3_21 
REMARK    7  A    between atoms: C14_20  and  N3_23 
REMARK    8  A    between atoms: C17_26  and  O4_27 
ROOT
HETATM    1  C1  UNL     1     -14.327 -40.047  -8.026  1.00  0.00     0.045 C 
HETATM    2  C2  UNL     1     -15.205 -39.269  -8.312  1.00  0.00     0.052 C 
HETATM    3  O1  UNL     1     -16.175 -38.392  -8.649  1.00  0.00    -0.226 OA
ENDROOT
BRANCH   3   4
HETATM    4  C3  UNL     1     -17.500 -38.726  -8.881  1.00  0.00     0.282 C 
HETATM    5  O2  UNL     1     -18.249 -38.585  -7.873  1.00  0.00    -0.263 OA
BRANCH   4   6
HETATM    6  C4  UNL     1     -18.087 -39.201 -10.114  1.00  0.00     0.072 C 
HETATM    7  C5  UNL     1     -18.784 -40.480 -10.095  1.00  0.00     0.055 C 
HETATM    8  C6  UNL     1     -20.241 -40.124  -9.771  1.00  0.00     0.188 C 
HETATM    9  C11 UNL     1     -20.298 -38.589  -9.780  1.00  0.00     0.040 C 
HETATM   10  C12 UNL     1     -19.203 -38.285 -10.656  1.00  0.00     0.026 C 
HETATM   11  C13 UNL     1     -18.496 -37.045 -10.765  1.00  0.00     0.132 C 
HETATM   12  N2  UNL     1     -17.219 -37.514 -11.373  1.00  0.00    -0.346 N 
HETATM   13  C20 UNL     1     -17.121 -38.945 -11.246  1.00  0.00     0.146 C 
BRANCH   8  14
HETATM   14  N1  UNL     1     -20.688 -40.708  -8.561  1.00  0.00    -0.067 N 
ATOM     15  H12 UNL     1     -20.948 -41.687  -8.681  1.00  0.00     0.278 HD
ATOM     16  H11 UNL     1     -19.927 -40.838  -7.894  1.00  0.00     0.278 HD
BRANCH  14  17
HETATM   17  C7  UNL     1     -21.765 -39.922  -8.010  1.00  0.00     0.186 C 
HETATM   18  C8  UNL     1     -23.129 -40.558  -8.064  1.00  0.00     0.033 C 
HETATM   19  C9  UNL     1     -22.941 -40.974  -6.607  1.00  0.00     0.004 C 
HETATM   20  C10 UNL     1     -21.851 -39.935  -6.502  1.00  0.00     0.033 C 
ENDBRANCH  14  17
ENDBRANCH   8  14
BRANCH  12  21
HETATM   21  C14 UNL     1     -16.337 -36.568 -11.952  1.00  0.00     0.217 C 
BRANCH  21  22
HETATM   22  O3  UNL     1     -16.563 -36.173 -13.173  1.00  0.00    -0.333 OA
ATOM     23  H3  UNL     1     -16.827 -35.272 -13.317  1.00  0.00     0.220 HD
ENDBRANCH  21  22
BRANCH  21  24
HETATM   24  N3  UNL     1     -15.210 -35.974 -11.369  1.00  0.00    -0.347 N 
HETATM   25  C15 UNL     1     -15.359 -34.726 -10.619  1.00  0.00     0.129 C 
HETATM   26  C16 UNL     1     -14.515 -33.697 -11.370  1.00  0.00     0.051 C 
HETATM   27  C17 UNL     1     -13.088 -34.125 -11.459  1.00  0.00     0.121 C 
HETATM   28  C18 UNL     1     -12.845 -35.521 -10.960  1.00  0.00     0.051 C 
HETATM   29  C19 UNL     1     -13.884 -36.521 -11.468  1.00  0.00     0.129 C 
BRANCH  27  30
HETATM   30  O4  UNL     1     -12.323 -33.274 -10.642  1.00  0.00    -0.395 OA
ATOM     31  H4  UNL     1     -12.838 -33.059  -9.873  1.00  0.00     0.210 HD
ENDBRANCH  27  30
ENDBRANCH  21  24
ENDBRANCH  12  21
ENDBRANCH   4   6
ENDBRANCH   3   4
TORSDOF 8
ENDMDL
MODEL 2
REMARK VINA RESULT: -7.991678409      2.148      7.887
REMARK  8 active torsions:
REMARK  status: ('A' for Active; 'I' for Inactive)
REMARK    1  A    between atoms: O1_3  and  C3_4 
REMARK    2  A    between atoms: C3_4  and  C4_6 
REMARK    3  A    between atoms: C6_8  and  N1_9 
REMARK    4  A    between atoms: N1_9  and  C7_12 
REMARK    5  A    between atoms: N2_19  and  C14_20 
REMARK    6  A    between atoms: C14_20  and  O3_21 
REMARK    7  A    between atoms: C14_20  and  N3_23 
REMARK    8  A    between atoms: C17_26  and  O4_27 
ROOT
HETATM    1  C1  UNL     1     -14.152 -38.640 -12.225  1.00  0.00     0.045 C 
HETATM    2  C2  UNL     1     -15.183 -38.989 -11.702  1.00  0.00     0.052 C 
HETATM    3  O1  UNL     1     -16.332 -39.399 -11.123  1.00  0.00    -0.226 OA
ENDROOT
BRANCH   3   4
HETATM    4  C3  UNL     1     -16.697 -39.135  -9.811  1.00  0.00     0.282 C 
HETATM    5  O2  UNL     1     -16.175 -39.917  -8.967  1.00  0.00    -0.263 OA
BRANCH   4   6
HETATM    6  C4  UNL     1     -17.580 -38.094  -9.333  1.00  0.00     0.072 C 
HETATM    7  C5  UNL     1     -17.109 -36.717  -9.386  1.00  0.00     0.055 C 
HETATM    8  C6  UNL     1     -17.568 -36.201 -10.757  1.00  0.00     0.188 C 
HETATM    9  C11 UNL     1     -18.435 -37.325 -11.347  1.00  0.00     0.040 C 
HETATM   10  C12 UNL     1     -18.884 -37.974 -10.148  1.00  0.00     0.026 C 
HETATM   11  C13 UNL     1     -19.398 -39.304 -10.020  1.00  0.00     0.132 C 
HETATM   12  N2  UNL     1     -19.156 -39.549  -8.570  1.00  0.00    -0.346 N 
HETATM   13  C20 UNL     1     -18.242 -38.561  -8.059  1.00  0.00     0.146 C 
BRANCH   8  14
HETATM   14  N1  UNL     1     -16.486 -35.819 -11.585  1.00  0.00    -0.067 N 
ATOM     15  H12 UNL     1     -16.064 -36.617 -12.060  1.00  0.00     0.278 HD
ATOM     16  H11 UNL     1     -16.796 -35.303 -12.409  1.00  0.00     0.278 HD
BRANCH  14  17
HETATM   17  C7  UNL     1     -15.520 -35.075 -10.811  1.00  0.00     0.186 C 
HETATM   18  C8  UNL     1     -14.189 -34.848 -11.475  1.00  0.00     0.033 C 
HETATM   19  C9  UNL     1     -14.672 -33.452 -11.859  1.00  0.00     0.004 C 
HETATM   20  C10 UNL     1     -15.736 -33.580 -10.797  1.00  0.00     0.033 C 
ENDBRANCH  14  17
ENDBRANCH   8  14
BRANCH  12  21
HETATM   21  C14 UNL     1     -19.805 -40.636  -7.932  1.00  0.00     0.217 C 
BRANCH  21  22
HETATM   22  O3  UNL     1     -19.123 -41.362  -7.093  1.00  0.00    -0.333 OA
ATOM     23  H3  UNL     1     -18.193 -41.483  -7.248  1.00  0.00     0.220 HD
ENDBRANCH  21  22
BRANCH  21  24
HETATM   24  N3  UNL     1     -21.134 -41.054  -8.085  1.00  0.00    -0.347 N 
HETATM   25  C15 UNL     1     -21.423 -42.276  -8.837  1.00  0.00     0.129 C 
HETATM   26  C16 UNL     1     -22.274 -41.830 -10.026  1.00  0.00     0.051 C 
HETATM   27  C17 UNL     1     -23.521 -41.145  -9.577  1.00  0.00     0.121 C 
HETATM   28  C18 UNL     1     -23.571 -40.895  -8.096  1.00  0.00     0.051 C 
HETATM   29  C19 UNL     1     -22.258 -40.339  -7.544  1.00  0.00     0.129 C 
BRANCH  27  30
HETATM   30  O4  UNL     1     -24.612 -41.980  -9.874  1.00  0.00    -0.395 OA
ATOM     31  H4  UNL     1     -25.371 -41.655  -9.404  1.00  0.00     0.210 HD
ENDBRANCH  27  30
ENDBRANCH  21  24
ENDBRANCH  12  21
ENDBRANCH   4   6
ENDBRANCH   3   4
TORSDOF 8
ENDMDL
MODEL 3
REMARK VINA RESULT: -7.896026593      2.204      7.893
REMARK  8 active torsions:
REMARK  status: ('A' for Active; 'I' for Inactive)
REMARK    1  A    between atoms: O1_3  and  C3_4 
REMARK    2  A    between atoms: C3_4  and  C4_6 
REMARK    3  A    between atoms: C6_8  and  N1_9 
REMARK    4  A    between atoms: N1_9  and  C7_12 
REMARK    5  A    between atoms: N2_19  and  C14_20 
REMARK    6  A    between atoms: C14_20  and  O3_21 
REMARK    7  A    between atoms: C14_20  and  N3_23 
REMARK    8  A    between atoms: C17_26  and  O4_27 
ROOT
HETATM    1  C1  UNL     1     -17.046 -42.747 -11.317  1.00  0.00     0.045 C 
HETATM    2  C2  UNL     1     -16.848 -41.772 -10.632  1.00  0.00     0.052 C 
HETATM    3  O1  UNL     1     -16.607 -40.691  -9.861  1.00  0.00    -0.226 OA
ENDROOT
BRANCH   3   4
HETATM    4  C3  UNL     1     -16.752 -39.375 -10.275  1.00  0.00     0.282 C 
HETATM    5  O2  UNL     1     -16.264 -39.140 -11.416  1.00  0.00    -0.263 OA
BRANCH   4   6
HETATM    6  C4  UNL     1     -17.382 -38.289  -9.557  1.00  0.00     0.072 C 
HETATM    7  C5  UNL     1     -16.724 -36.989  -9.563  1.00  0.00     0.055 C 
HETATM    8  C6  UNL     1     -17.312 -36.262 -10.780  1.00  0.00     0.188 C 
HETATM    9  C11 UNL     1     -18.420 -37.185 -11.311  1.00  0.00     0.040 C 
HETATM   10  C12 UNL     1     -18.766 -37.903 -10.118  1.00  0.00     0.026 C 
HETATM   11  C13 UNL     1     -19.447 -39.159 -10.026  1.00  0.00     0.132 C 
HETATM   12  N2  UNL     1     -19.017 -39.601  -8.669  1.00  0.00    -0.346 N 
HETATM   13  C20 UNL     1     -17.895 -38.808  -8.236  1.00  0.00     0.146 C 
BRANCH   8  14
HETATM   14  N1  UNL     1     -16.329 -35.932 -11.744  1.00  0.00    -0.067 N 
ATOM     15  H12 UNL     1     -15.990 -36.755 -12.244  1.00  0.00     0.278 HD
ATOM     16  H11 UNL     1     -16.725 -35.430 -12.539  1.00  0.00     0.278 HD
BRANCH  14  17
HETATM   17  C7  UNL     1     -15.258 -35.198 -11.116  1.00  0.00     0.186 C 
HETATM   18  C8  UNL     1     -14.149 -34.752 -12.031  1.00  0.00     0.033 C 
HETATM   19  C9  UNL     1     -14.808 -33.376 -12.081  1.00  0.00     0.004 C 
HETATM   20  C10 UNL     1     -15.566 -33.747 -10.831  1.00  0.00     0.033 C 
ENDBRANCH  14  17
ENDBRANCH   8  14
BRANCH  12  21
HETATM   21  C14 UNL     1     -19.712 -40.658  -8.031  1.00  0.00     0.217 C 
BRANCH  21  22
HETATM   22  O3  UNL     1     -19.045 -41.460  -7.250  1.00  0.00    -0.333 OA
ATOM     23  H3  UNL     1     -19.138 -41.359  -6.310  1.00  0.00     0.220 HD
ENDBRANCH  21  22
BRANCH  21  24
HETATM   24  N3  UNL     1     -21.074 -40.973  -8.127  1.00  0.00    -0.347 N 
HETATM   25  C15 UNL     1     -21.500 -42.071  -8.997  1.00  0.00     0.129 C 
HETATM   26  C16 UNL     1     -22.401 -41.428 -10.051  1.00  0.00     0.051 C 
HETATM   27  C17 UNL     1     -23.562 -40.732  -9.423  1.00  0.00     0.121 C 
HETATM   28  C18 UNL     1     -23.489 -40.669  -7.924  1.00  0.00     0.051 C 
HETATM   29  C19 UNL     1     -22.105 -40.267  -7.415  1.00  0.00     0.129 C 
BRANCH  27  30
HETATM   30  O4  UNL     1     -24.727 -41.456  -9.732  1.00  0.00    -0.395 OA
ATOM     31  H4  UNL     1     -25.308 -41.419  -8.980  1.00  0.00     0.210 HD
ENDBRANCH  27  30
ENDBRANCH  21  24
ENDBRANCH  12  21
ENDBRANCH   4   6
ENDBRANCH   3   4
TORSDOF 8
ENDMDL
MODEL 4
REMARK VINA RESULT: -7.885779768      2.016      2.754
REMARK  8 active torsions:
REMARK  status: ('A' for Active; 'I' for Inactive)
REMARK    1  A    between atoms: O1_3  and  C3_4 
REMARK    2  A    between atoms: C3_4  and  C4_6 
REMARK    3  A    between atoms: C6_8  and  N1_9 
REMARK    4  A    between atoms: N1_9  and  C7_12 
REMARK    5  A    between atoms: N2_19  and  C14_20 
REMARK    6  A    between atoms: C14_20  and  O3_21 
REMARK    7  A    between atoms: C14_20  and  N3_23 
REMARK    8  A    between atoms: C17_26  and  O4_27 
ROOT
HETATM    1  C1  UNL     1     -15.388 -41.898  -9.529  1.00  0.00     0.045 C 
HETATM    2  C2  UNL     1     -15.608 -40.712  -9.571  1.00  0.00     0.052 C 
HETATM    3  O1  UNL     1     -15.833 -39.381  -9.617  1.00  0.00    -0.226 OA
ENDROOT
BRANCH   3   4
HETATM    4  C3  UNL     1     -16.602 -38.740 -10.576  1.00  0.00     0.282 C 
HETATM    5  O2  UNL     1     -16.070 -38.706 -11.721  1.00  0.00    -0.263 OA
BRANCH   4   6
HETATM    6  C4  UNL     1     -17.902 -38.131 -10.401  1.00  0.00     0.072 C 
HETATM    7  C5  UNL     1     -19.076 -38.993 -10.448  1.00  0.00     0.055 C 
HETATM    8  C6  UNL     1     -19.301 -39.421  -8.992  1.00  0.00     0.188 C 
HETATM    9  C11 UNL     1     -18.286 -38.615  -8.167  1.00  0.00     0.040 C 
HETATM   10  C12 UNL     1     -18.093 -37.476  -9.018  1.00  0.00     0.026 C 
HETATM   11  C13 UNL     1     -16.994 -36.559  -9.007  1.00  0.00     0.132 C 
HETATM   12  N2  UNL     1     -17.090 -36.004 -10.387  1.00  0.00    -0.346 N 
HETATM   13  C20 UNL     1     -17.947 -36.842 -11.185  1.00  0.00     0.146 C 
BRANCH   8  14
HETATM   14  N1  UNL     1     -19.200 -40.822  -8.815  1.00  0.00    -0.067 N 
ATOM     15  H12 UNL     1     -18.297 -41.096  -8.427  1.00  0.00     0.278 HD
ATOM     16  H11 UNL     1     -19.794 -41.157  -8.056  1.00  0.00     0.278 HD
BRANCH  14  17
HETATM   17  C7  UNL     1     -19.482 -41.492 -10.062  1.00  0.00     0.186 C 
HETATM   18  C8  UNL     1     -18.896 -42.870 -10.208  1.00  0.00     0.033 C 
HETATM   19  C9  UNL     1     -20.256 -43.440  -9.814  1.00  0.00     0.004 C 
HETATM   20  C10 UNL     1     -20.861 -42.101 -10.156  1.00  0.00     0.033 C 
ENDBRANCH  14  17
ENDBRANCH   8  14
BRANCH  12  21
HETATM   21  C14 UNL     1     -16.384 -34.818 -10.709  1.00  0.00     0.217 C 
BRANCH  21  22
HETATM   22  O3  UNL     1     -17.000 -33.676 -10.593  1.00  0.00    -0.333 OA
ATOM     23  H3  UNL     1     -16.750 -32.965 -11.172  1.00  0.00     0.220 HD
ENDBRANCH  21  22
BRANCH  21  24
HETATM   24  N3  UNL     1     -15.060 -34.700 -11.152  1.00  0.00    -0.347 N 
HETATM   25  C15 UNL     1     -14.549 -35.635 -12.155  1.00  0.00     0.129 C 
HETATM   26  C16 UNL     1     -13.403 -36.379 -11.471  1.00  0.00     0.051 C 
HETATM   27  C17 UNL     1     -12.346 -35.436 -11.000  1.00  0.00     0.121 C 
HETATM   28  C18 UNL     1     -12.723 -33.989 -11.142  1.00  0.00     0.051 C 
HETATM   29  C19 UNL     1     -14.148 -33.699 -10.669  1.00  0.00     0.129 C 
BRANCH  27  30
HETATM   30  O4  UNL     1     -11.202 -35.627 -11.795  1.00  0.00    -0.395 OA
ATOM     31  H4  UNL     1     -10.472 -35.188 -11.374  1.00  0.00     0.210 HD
ENDBRANCH  27  30
ENDBRANCH  21  24
ENDBRANCH  12  21
ENDBRANCH   4   6
ENDBRANCH   3   4
TORSDOF 8
ENDMDL
MODEL 5
REMARK VINA RESULT: -7.873107978      1.660      2.731
REMARK  8 active torsions:
REMARK  status: ('A' for Active; 'I' for Inactive)
REMARK    1  A    between atoms: O1_3  and  C3_4 
REMARK    2  A    between atoms: C3_4  and  C4_6 
REMARK    3  A    between atoms: C6_8  and  N1_9 
REMARK    4  A    between atoms: N1_9  and  C7_12 
REMARK    5  A    between atoms: N2_19  and  C14_20 
REMARK    6  A    between atoms: C14_20  and  O3_21 
REMARK    7  A    between atoms: C14_20  and  N3_23 
REMARK    8  A    between atoms: C17_26  and  O4_27 
ROOT
HETATM    1  C1  UNL     1     -18.233 -33.306  -9.819  1.00  0.00     0.045 C 
HETATM    2  C2  UNL     1     -18.221 -34.510  -9.908  1.00  0.00     0.052 C 
HETATM    3  O1  UNL     1     -18.203 -35.855 -10.028  1.00  0.00    -0.226 OA
ENDROOT
BRANCH   3   4
HETATM    4  C3  UNL     1     -17.533 -36.718  -9.174  1.00  0.00     0.282 C 
HETATM    5  O2  UNL     1     -17.095 -36.165  -8.126  1.00  0.00    -0.263 OA
BRANCH   4   6
HETATM    6  C4  UNL     1     -17.295 -38.132  -9.358  1.00  0.00     0.072 C 
HETATM    7  C5  UNL     1     -17.875 -39.057  -8.394  1.00  0.00     0.055 C 
HETATM    8  C6  UNL     1     -19.249 -39.415  -8.977  1.00  0.00     0.188 C 
HETATM    9  C11 UNL     1     -19.288 -38.756 -10.364  1.00  0.00     0.040 C 
HETATM   10  C12 UNL     1     -17.888 -38.689 -10.669  1.00  0.00     0.026 C 
HETATM   11  C13 UNL     1     -17.247 -37.842 -11.629  1.00  0.00     0.132 C 
HETATM   12  N2  UNL     1     -15.855 -37.835 -11.096  1.00  0.00    -0.346 N 
HETATM   13  C20 UNL     1     -15.851 -38.339  -9.747  1.00  0.00     0.146 C 
BRANCH   8  14
HETATM   14  N1  UNL     1     -20.316 -39.031  -8.129  1.00  0.00    -0.067 N 
ATOM     15  H12 UNL     1     -20.043 -38.294  -7.478  1.00  0.00     0.278 HD
ATOM     16  H11 UNL     1     -21.042 -38.521  -8.633  1.00  0.00     0.278 HD
BRANCH  14  17
HETATM   17  C7  UNL     1     -20.840 -40.191  -7.449  1.00  0.00     0.186 C 
HETATM   18  C8  UNL     1     -22.093 -39.965  -6.647  1.00  0.00     0.033 C 
HETATM   19  C9  UNL     1     -22.890 -40.529  -7.820  1.00  0.00     0.004 C 
HETATM   20  C10 UNL     1     -21.611 -41.146  -8.329  1.00  0.00     0.033 C 
ENDBRANCH  14  17
ENDBRANCH   8  14
BRANCH  12  21
HETATM   21  C14 UNL     1     -14.799 -37.372 -11.920  1.00  0.00     0.217 C 
BRANCH  21  22
HETATM   22  O3  UNL     1     -14.264 -38.201 -12.772  1.00  0.00    -0.333 OA
ATOM     23  H3  UNL     1     -13.680 -38.875 -12.444  1.00  0.00     0.220 HD
ENDBRANCH  21  22
BRANCH  21  24
HETATM   24  N3  UNL     1     -14.227 -36.093 -11.948  1.00  0.00    -0.347 N 
HETATM   25  C15 UNL     1     -12.777 -35.955 -12.098  1.00  0.00     0.129 C 
HETATM   26  C16 UNL     1     -12.301 -35.260 -10.822  1.00  0.00     0.051 C 
HETATM   27  C17 UNL     1     -12.970 -33.939 -10.639  1.00  0.00     0.121 C 
HETATM   28  C18 UNL     1     -14.067 -33.676 -11.632  1.00  0.00     0.051 C 
HETATM   29  C19 UNL     1     -14.989 -34.880 -11.828  1.00  0.00     0.129 C 
BRANCH  27  30
HETATM   30  O4  UNL     1     -12.010 -32.930 -10.834  1.00  0.00    -0.395 OA
ATOM     31  H4  UNL     1     -11.972 -32.402 -10.045  1.00  0.00     0.210 HD
ENDBRANCH  27  30
ENDBRANCH  21  24
ENDBRANCH  12  21
ENDBRANCH   4   6
ENDBRANCH   3   4
TORSDOF 8
ENDMDL
