MODEL 1
REMARK VINA RESULT: -8.410147680      0.000      0.000
REMARK  5 active torsions:
REMARK  status: ('A' for Active; 'I' for Inactive)
REMARK       I    between atoms: N1_2  and  C2_4 
REMARK    1  A    between atoms: C2_4  and  C3_6 
REMARK    2  A    between atoms: C6_11  and  O2_12 
REMARK    3  A    between atoms: O2_12  and  C7_13 
REMARK    4  A    between atoms: C10_16  and  N3_17 
REMARK       I    between atoms: N3_17  and  C11_19 
REMARK    5  A    between atoms: C11_19  and  C12_21 
ROOT
HETATM    1  C7  UNL     1       0.986  34.410  25.062  1.00  0.00     0.119 A 
HETATM    2  C8  UNL     1      -0.214  34.357  24.419  1.00  0.00     0.048 A 
HETATM    3  C9  UNL     1      -0.527  35.341  23.571  1.00  0.00     0.040 A 
HETATM    4  C10 UNL     1       0.393  36.347  23.410  1.00  0.00     0.079 A 
HETATM    5  S1  UNL     1       1.659  35.878  24.446  1.00  0.00    -0.047 SA
ENDROOT
BRANCH   1   6
HETATM    6  O2  UNL     1       1.580  33.555  25.983  1.00  0.00    -0.300 OA
BRANCH   6   7
HETATM    7  C6  UNL     1       2.721  32.878  25.706  1.00  0.00     0.119 A 
HETATM    8  C5  UNL     1       2.698  31.608  25.185  1.00  0.00     0.057 A 
HETATM    9  C4  UNL     1       3.889  30.941  24.914  1.00  0.00     0.091 A 
HETATM   10  N2  UNL     1       5.053  31.528  25.159  1.00  0.00    -0.359 N 
HETATM   11  C3  UNL     1       5.152  32.793  25.678  1.00  0.00     0.142 A 
ATOM     12  H2  UNL     1       5.911  31.017  24.953  1.00  0.00     0.165 HD
HETATM   13  C19 UNL     1       3.978  33.444  25.943  1.00  0.00     0.182 A 
HETATM   14  F1  UNL     1       3.973  34.677  26.480  1.00  0.00    -0.201 F 
BRANCH  11  15
HETATM   15  C2  UNL     1       6.468  33.298  25.890  1.00  0.00     0.271 C 
HETATM   16  N1  UNL     1       6.795  34.590  26.307  1.00  0.00    -0.360 N 
HETATM   17  C1  UNL     1       8.221  34.973  26.486  1.00  0.00     0.149 C 
ATOM     18  H1  UNL     1       6.057  35.271  26.487  1.00  0.00     0.162 HD
HETATM   19  O1  UNL     1       7.463  32.513  25.688  1.00  0.00    -0.266 OA
ENDBRANCH  11  15
ENDBRANCH   6   7
ENDBRANCH   1   6
BRANCH   4  20
HETATM   20  N3  UNL     1       0.275  37.506  22.555  1.00  0.00    -0.321 N 
HETATM   21  C11 UNL     1      -0.031  38.747  23.151  1.00  0.00     0.226 C 
HETATM   22  O3  UNL     1      -0.191  38.817  24.391  1.00  0.00    -0.273 OA
ATOM     23  H3  UNL     1       0.408  37.428  21.547  1.00  0.00     0.169 HD
BRANCH  21  24
HETATM   24  C12 UNL     1      -0.158  39.965  22.282  1.00  0.00     0.078 C 
HETATM   25  C13 UNL     1       0.921  40.000  21.234  1.00  0.00     0.014 C 
HETATM   26  C14 UNL     1       2.239  40.485  21.770  1.00  0.00     0.001 C 
HETATM   27  C15 UNL     1       2.406  41.982  21.609  1.00  0.00     0.000 C 
HETATM   28  C16 UNL     1       1.627  42.740  22.668  1.00  0.00     0.000 C 
HETATM   29  C17 UNL     1       0.154  42.445  22.437  1.00  0.00     0.001 C 
HETATM   30  C18 UNL     1      -0.161  41.162  23.175  1.00  0.00     0.014 C 
ENDBRANCH  21  24
ENDBRANCH   4  20
TORSDOF 5
ENDMDL
MODEL 2
REMARK VINA RESULT: -7.957680309      3.557      8.447
REMARK  5 active torsions:
REMARK  status: ('A' for Active; 'I' for Inactive)
REMARK       I    between atoms: N1_2  and  C2_4 
REMARK    1  A    between atoms: C2_4  and  C3_6 
REMARK    2  A    between atoms: C6_11  and  O2_12 
REMARK    3  A    between atoms: O2_12  and  C7_13 
REMARK    4  A    between atoms: C10_16  and  N3_17 
REMARK       I    between atoms: N3_17  and  C11_19 
REMARK    5  A    between atoms: C11_19  and  C12_21 
ROOT
HETATM    1  C7  UNL     1       0.831  38.868  22.760  1.00  0.00     0.119 A 
HETATM    2  C8  UNL     1       0.192  38.892  23.962  1.00  0.00     0.048 A 
HETATM    3  C9  UNL     1       0.476  37.940  24.855  1.00  0.00     0.040 A 
HETATM    4  C10 UNL     1       1.402  36.994  24.490  1.00  0.00     0.079 A 
HETATM    5  S1  UNL     1       1.839  37.472  22.917  1.00  0.00    -0.047 SA
ENDROOT
BRANCH   1   6
HETATM    6  O2  UNL     1       0.748  39.703  21.651  1.00  0.00    -0.300 OA
BRANCH   6   7
HETATM    7  C6  UNL     1       1.401  39.433  20.495  1.00  0.00     0.119 A 
HETATM    8  C5  UNL     1       0.917  38.523  19.588  1.00  0.00     0.057 A 
HETATM    9  C4  UNL     1       1.614  38.269  18.410  1.00  0.00     0.091 A 
HETATM   10  N2  UNL     1       2.752  38.904  18.159  1.00  0.00    -0.359 N 
HETATM   11  C3  UNL     1       3.294  39.824  19.017  1.00  0.00     0.142 A 
ATOM     12  H2  UNL     1       3.244  38.698  17.289  1.00  0.00     0.165 HD
HETATM   13  C19 UNL     1       2.604  40.070  20.173  1.00  0.00     0.182 A 
HETATM   14  F1  UNL     1       3.072  40.935  21.091  1.00  0.00    -0.201 F 
BRANCH  11  15
HETATM   15  C2  UNL     1       4.522  40.429  18.618  1.00  0.00     0.271 C 
HETATM   16  N1  UNL     1       5.788  39.844  18.691  1.00  0.00    -0.360 N 
HETATM   17  C1  UNL     1       6.983  40.602  18.234  1.00  0.00     0.149 C 
ATOM     18  H1  UNL     1       5.893  38.898  19.058  1.00  0.00     0.162 HD
HETATM   19  O1  UNL     1       4.489  41.621  18.143  1.00  0.00    -0.266 OA
ENDBRANCH  11  15
ENDBRANCH   6   7
ENDBRANCH   1   6
BRANCH   4  20
HETATM   20  N3  UNL     1       1.864  35.878  25.282  1.00  0.00    -0.321 N 
HETATM   21  C11 UNL     1       1.310  34.606  25.033  1.00  0.00     0.226 C 
HETATM   22  O3  UNL     1       0.440  34.472  24.142  1.00  0.00    -0.273 OA
ATOM     23  H3  UNL     1       2.574  36.007  26.004  1.00  0.00     0.169 HD
BRANCH  21  24
HETATM   24  C12 UNL     1       1.775  33.431  25.844  1.00  0.00     0.078 C 
HETATM   25  C13 UNL     1       3.204  33.606  26.281  1.00  0.00     0.014 C 
HETATM   26  C14 UNL     1       4.191  33.283  25.195  1.00  0.00     0.001 C 
HETATM   27  C15 UNL     1       4.637  31.836  25.238  1.00  0.00     0.000 C 
HETATM   28  C16 UNL     1       3.586  30.919  24.639  1.00  0.00     0.000 C 
HETATM   29  C17 UNL     1       2.353  31.015  25.523  1.00  0.00     0.001 C 
HETATM   30  C18 UNL     1       1.547  32.198  25.032  1.00  0.00     0.014 C 
ENDBRANCH  21  24
ENDBRANCH   4  20
TORSDOF 5
ENDMDL
MODEL 3
REMARK VINA RESULT: -7.632903947      2.061      2.343
REMARK  5 active torsions:
REMARK  status: ('A' for Active; 'I' for Inactive)
REMARK       I    between atoms: N1_2  and  C2_4 
REMARK    1  A    between atoms: C2_4  and  C3_6 
REMARK    2  A    between atoms: C6_11  and  O2_12 
REMARK    3  A    between atoms: O2_12  and  C7_13 
REMARK    4  A    between atoms: C10_16  and  N3_17 
REMARK       I    between atoms: N3_17  and  C11_19 
REMARK    5  A    between atoms: C11_19  and  C12_21 
ROOT
HETATM    1  C7  UNL     1       3.017  34.292  25.472  1.00  0.00     0.119 A 
HETATM    2  C8  UNL     1       1.773  33.905  25.076  1.00  0.00     0.048 A 
HETATM    3  C9  UNL     1       0.967  34.818  24.525  1.00  0.00     0.040 A 
HETATM    4  C10 UNL     1       1.457  36.094  24.399  1.00  0.00     0.079 A 
HETATM    5  S1  UNL     1       3.023  35.969  25.053  1.00  0.00    -0.047 SA
ENDROOT
BRANCH   1   6
HETATM    6  O2  UNL     1       4.059  33.589  26.066  1.00  0.00    -0.300 OA
BRANCH   6   7
HETATM    7  C6  UNL     1       4.564  32.454  25.524  1.00  0.00     0.119 A 
HETATM    8  C5  UNL     1       3.755  31.512  24.938  1.00  0.00     0.057 A 
HETATM    9  C4  UNL     1       4.306  30.356  24.392  1.00  0.00     0.091 A 
HETATM   10  N2  UNL     1       5.618  30.159  24.436  1.00  0.00    -0.359 N 
HETATM   11  C3  UNL     1       6.485  31.055  25.004  1.00  0.00     0.142 A 
ATOM     12  H2  UNL     1       5.996  29.303  24.030  1.00  0.00     0.165 HD
HETATM   13  C19 UNL     1       5.937  32.189  25.539  1.00  0.00     0.182 A 
HETATM   14  F1  UNL     1       6.704  33.113  26.144  1.00  0.00    -0.201 F 
BRANCH  11  15
HETATM   15  C2  UNL     1       7.869  30.711  24.980  1.00  0.00     0.271 C 
HETATM   16  N1  UNL     1       8.754  30.940  23.926  1.00  0.00    -0.360 N 
HETATM   17  C1  UNL     1      10.177  30.525  24.048  1.00  0.00     0.149 C 
ATOM     18  H1  UNL     1       8.426  31.393  23.072  1.00  0.00     0.162 HD
HETATM   19  O1  UNL     1       8.372  30.138  26.012  1.00  0.00    -0.266 OA
ENDBRANCH  11  15
ENDBRANCH   6   7
ENDBRANCH   1   6
BRANCH   4  20
HETATM   20  N3  UNL     1       0.774  37.237  23.839  1.00  0.00    -0.321 N 
HETATM   21  C11 UNL     1       1.068  37.608  22.511  1.00  0.00     0.226 C 
HETATM   22  O3  UNL     1       1.904  36.948  21.853  1.00  0.00    -0.273 OA
ATOM     23  H3  UNL     1       0.096  37.763  24.391  1.00  0.00     0.169 HD
BRANCH  21  24
HETATM   24  C12 UNL     1       0.369  38.793  21.909  1.00  0.00     0.078 C 
HETATM   25  C13 UNL     1       1.248  39.489  20.906  1.00  0.00     0.014 C 
HETATM   26  C14 UNL     1       2.271  40.384  21.549  1.00  0.00     0.001 C 
HETATM   27  C15 UNL     1       1.773  41.806  21.701  1.00  0.00     0.000 C 
HETATM   28  C16 UNL     1       0.829  41.936  22.882  1.00  0.00     0.000 C 
HETATM   29  C17 UNL     1      -0.392  41.084  22.574  1.00  0.00     0.001 C 
HETATM   30  C18 UNL     1      -0.075  39.676  23.029  1.00  0.00     0.014 C 
ENDBRANCH  21  24
ENDBRANCH   4  20
TORSDOF 5
ENDMDL
MODEL 4
REMARK VINA RESULT: -7.598550234      1.150      1.292
REMARK  5 active torsions:
REMARK  status: ('A' for Active; 'I' for Inactive)
REMARK       I    between atoms: N1_2  and  C2_4 
REMARK    1  A    between atoms: C2_4  and  C3_6 
REMARK    2  A    between atoms: C6_11  and  O2_12 
REMARK    3  A    between atoms: O2_12  and  C7_13 
REMARK    4  A    between atoms: C10_16  and  N3_17 
REMARK       I    between atoms: N3_17  and  C11_19 
REMARK    5  A    between atoms: C11_19  and  C12_21 
ROOT
HETATM    1  C7  UNL     1       1.575  34.797  25.127  1.00  0.00     0.119 A 
HETATM    2  C8  UNL     1       0.447  34.589  24.393  1.00  0.00     0.048 A 
HETATM    3  C9  UNL     1       0.059  35.539  23.537  1.00  0.00     0.040 A 
HETATM    4  C10 UNL     1       0.833  36.669  23.461  1.00  0.00     0.079 A 
HETATM    5  S1  UNL     1       2.073  36.362  24.585  1.00  0.00    -0.047 SA
ENDROOT
BRANCH   1   6
HETATM    6  O2  UNL     1       2.217  34.014  26.079  1.00  0.00    -0.300 OA
BRANCH   6   7
HETATM    7  C6  UNL     1       3.530  33.692  25.981  1.00  0.00     0.119 A 
HETATM    8  C5  UNL     1       3.942  32.503  25.432  1.00  0.00     0.057 A 
HETATM    9  C4  UNL     1       5.299  32.203  25.349  1.00  0.00     0.091 A 
HETATM   10  N2  UNL     1       6.201  33.065  25.801  1.00  0.00    -0.359 N 
HETATM   11  C3  UNL     1       5.862  34.269  26.360  1.00  0.00     0.142 A 
ATOM     12  H2  UNL     1       7.189  32.820  25.730  1.00  0.00     0.165 HD
HETATM   13  C19 UNL     1       4.528  34.558  26.440  1.00  0.00     0.182 A 
HETATM   14  F1  UNL     1       4.096  35.703  26.999  1.00  0.00    -0.201 F 
BRANCH  11  15
HETATM   15  C2  UNL     1       6.937  35.095  26.804  1.00  0.00     0.271 C 
HETATM   16  N1  UNL     1       7.862  35.749  25.988  1.00  0.00    -0.360 N 
HETATM   17  C1  UNL     1       8.933  36.581  26.598  1.00  0.00     0.149 C 
ATOM     18  H1  UNL     1       7.803  35.656  24.973  1.00  0.00     0.162 HD
HETATM   19  O1  UNL     1       7.090  35.270  28.066  1.00  0.00    -0.266 OA
ENDBRANCH  11  15
ENDBRANCH   6   7
ENDBRANCH   1   6
BRANCH   4  20
HETATM   20  N3  UNL     1       0.612  37.820  22.615  1.00  0.00    -0.321 N 
HETATM   21  C11 UNL     1       0.070  38.984  23.199  1.00  0.00     0.226 C 
HETATM   22  O3  UNL     1      -0.205  38.995  24.420  1.00  0.00    -0.273 OA
ATOM     23  H3  UNL     1       0.842  37.791  21.622  1.00  0.00     0.169 HD
BRANCH  21  24
HETATM   24  C12 UNL     1      -0.168  40.192  22.339  1.00  0.00     0.078 C 
HETATM   25  C13 UNL     1       0.856  40.287  21.241  1.00  0.00     0.014 C 
HETATM   26  C14 UNL     1       2.169  40.846  21.713  1.00  0.00     0.001 C 
HETATM   27  C15 UNL     1       2.243  42.350  21.547  1.00  0.00     0.000 C 
HETATM   28  C16 UNL     1       1.475  43.064  22.644  1.00  0.00     0.000 C 
HETATM   29  C17 UNL     1       0.011  42.686  22.484  1.00  0.00     0.001 C 
HETATM   30  C18 UNL     1      -0.196  41.388  23.234  1.00  0.00     0.014 C 
ENDBRANCH  21  24
ENDBRANCH   4  20
TORSDOF 5
ENDMDL
MODEL 5
REMARK VINA RESULT: -7.514694233      5.777      8.658
REMARK  5 active torsions:
REMARK  status: ('A' for Active; 'I' for Inactive)
REMARK       I    between atoms: N1_2  and  C2_4 
REMARK    1  A    between atoms: C2_4  and  C3_6 
REMARK    2  A    between atoms: C6_11  and  O2_12 
REMARK    3  A    between atoms: O2_12  and  C7_13 
REMARK    4  A    between atoms: C10_16  and  N3_17 
REMARK       I    between atoms: N3_17  and  C11_19 
REMARK    5  A    between atoms: C11_19  and  C12_21 
ROOT
HETATM    1  C7  UNL     1       4.931  39.699  26.691  1.00  0.00     0.119 A 
HETATM    2  C8  UNL     1       5.624  39.115  25.674  1.00  0.00     0.048 A 
HETATM    3  C9  UNL     1       5.032  38.142  24.975  1.00  0.00     0.040 A 
HETATM    4  C10 UNL     1       3.754  37.796  25.339  1.00  0.00     0.079 A 
HETATM    5  S1  UNL     1       3.429  38.843  26.640  1.00  0.00    -0.047 SA
ENDROOT
BRANCH   1   6
HETATM    6  O2  UNL     1       5.270  40.713  27.579  1.00  0.00    -0.300 OA
BRANCH   6   7
HETATM    7  C6  UNL     1       4.335  41.406  28.273  1.00  0.00     0.119 A 
HETATM    8  C5  UNL     1       3.845  42.607  27.824  1.00  0.00     0.057 A 
HETATM    9  C4  UNL     1       2.886  43.293  28.563  1.00  0.00     0.091 A 
HETATM   10  N2  UNL     1       2.441  42.790  29.708  1.00  0.00    -0.359 N 
HETATM   11  C3  UNL     1       2.885  41.598  30.217  1.00  0.00     0.142 A 
ATOM     12  H2  UNL     1       1.740  43.314  30.231  1.00  0.00     0.165 HD
HETATM   13  C19 UNL     1       3.828  40.928  29.486  1.00  0.00     0.182 A 
HETATM   14  F1  UNL     1       4.345  39.764  29.918  1.00  0.00    -0.201 F 
BRANCH  11  15
HETATM   15  C2  UNL     1       2.319  41.180  31.458  1.00  0.00     0.271 C 
HETATM   16  N1  UNL     1       2.443  41.841  32.681  1.00  0.00    -0.360 N 
HETATM   17  C1  UNL     1       1.793  41.281  33.896  1.00  0.00     0.149 C 
ATOM     18  H1  UNL     1       2.978  42.708  32.741  1.00  0.00     0.162 HD
HETATM   19  O1  UNL     1       1.628  40.099  31.479  1.00  0.00    -0.266 OA
ENDBRANCH  11  15
ENDBRANCH   6   7
ENDBRANCH   1   6
BRANCH   4  20
HETATM   20  N3  UNL     1       2.922  36.781  24.735  1.00  0.00    -0.321 N 
HETATM   21  C11 UNL     1       2.861  35.513  25.351  1.00  0.00     0.226 C 
HETATM   22  O3  UNL     1       3.520  35.298  26.393  1.00  0.00    -0.273 OA
ATOM     23  H3  UNL     1       2.393  36.975  23.885  1.00  0.00     0.169 HD
BRANCH  21  24
HETATM   24  C12 UNL     1       2.003  34.443  24.741  1.00  0.00     0.078 C 
HETATM   25  C13 UNL     1       0.806  35.036  24.049  1.00  0.00     0.014 C 
HETATM   26  C14 UNL     1      -0.293  35.414  25.002  1.00  0.00     0.001 C 
HETATM   27  C15 UNL     1      -1.294  34.294  25.194  1.00  0.00     0.000 C 
HETATM   28  C16 UNL     1      -0.759  33.231  26.136  1.00  0.00     0.000 C 
HETATM   29  C17 UNL     1       0.457  32.611  25.466  1.00  0.00     0.001 C 
HETATM   30  C18 UNL     1       1.647  33.475  25.821  1.00  0.00     0.014 C 
ENDBRANCH  21  24
ENDBRANCH   4  20
TORSDOF 5
ENDMDL
