MODEL 1
REMARK VINA RESULT: -7.372486683      0.000      0.000
REMARK  7 active torsions:
REMARK  status: ('A' for Active; 'I' for Inactive)
REMARK    1  A    between atoms: C2_2  and  O1_3 
REMARK    2  A    between atoms: C2_2  and  C3_5 
REMARK    3  A    between atoms: C2_2  and  C11_25 
REMARK    4  A    between atoms: C3_5  and  O2_6 
REMARK    5  A    between atoms: O2_6  and  C4_7 
REMARK    6  A    between atoms: C5_11  and  C7_13 
REMARK    7  A    between atoms: C13_30  and  C14_31 
ROOT
HETATM    1  C1  UNL     1     -10.560   7.842  -1.232  1.00  0.00     0.057 C 
HETATM    2  C2  UNL     1     -11.425   6.716  -1.972  1.00  0.00     0.135 C 
ENDROOT
BRANCH   2   3
HETATM    3  O1  UNL     1     -11.801   7.358  -3.111  1.00  0.00    -0.380 OA
ATOM      4  H1  UNL     1     -12.617   7.764  -2.845  1.00  0.00     0.211 HD
ENDBRANCH   2   3
BRANCH   2   5
HETATM    5  C3  UNL     1     -12.489   6.329  -1.031  1.00  0.00     0.216 C 
BRANCH   5   6
HETATM    6  O2  UNL     1     -12.710   7.013   0.092  1.00  0.00    -0.351 OA
BRANCH   6   7
HETATM    7  C4  UNL     1     -13.836   7.756   0.284  1.00  0.00     0.397 C 
HETATM    8  N1  UNL     1     -14.161   8.483  -0.981  1.00  0.00    -0.017 N 
HETATM    9  C5  UNL     1     -15.574   8.549  -1.227  1.00  0.00     0.300 C 
ATOM     10  H12 UNL     1     -13.742   9.413  -0.988  1.00  0.00     0.282 HD
ATOM     11  H11 UNL     1     -13.668   8.076  -1.775  1.00  0.00     0.282 HD
HETATM   12  C6  UNL     1     -15.986   9.846  -1.926  1.00  0.00     0.067 C 
HETATM   13  C8  UNL     1     -16.344   8.466   0.047  1.00  0.00     0.263 C 
HETATM   14  O3  UNL     1     -17.415   7.822   0.067  1.00  0.00    -0.270 OA
HETATM   15  N2  UNL     1     -16.001   9.054   1.301  1.00  0.00    -0.353 N 
HETATM   16  C9  UNL     1     -14.749   9.754   1.535  1.00  0.00     0.206 C 
ATOM     17  H2  UNL     1     -16.666   8.979   2.070  1.00  0.00     0.162 HD
HETATM   18  C10 UNL     1     -13.576   8.821   1.309  1.00  0.00     0.309 C 
HETATM   19  F4  UNL     1     -13.289   8.232   2.513  1.00  0.00    -0.200 F 
HETATM   20  F5  UNL     1     -12.461   9.543   0.880  1.00  0.00    -0.200 F 
BRANCH   9  21
HETATM   21  C7  UNL     1     -16.073   7.421  -2.104  1.00  0.00     0.429 C 
HETATM   22  F1  UNL     1     -16.157   6.272  -1.348  1.00  0.00    -0.168 F 
HETATM   23  F2  UNL     1     -17.234   7.730  -2.763  1.00  0.00    -0.168 F 
HETATM   24  F3  UNL     1     -15.101   7.238  -3.104  1.00  0.00    -0.168 F 
ENDBRANCH   9  21
ENDBRANCH   6   7
ENDBRANCH   5   6
ENDBRANCH   2   5
BRANCH   2  25
HETATM   25  C11 UNL     1     -10.431   5.639  -2.213  1.00  0.00     0.135 A 
HETATM   26  N3  UNL     1      -9.540   5.221  -1.305  1.00  0.00    -0.321 N 
HETATM   27  C12 UNL     1      -8.775   4.274  -1.953  1.00  0.00     0.173 A 
ATOM     28  H3  UNL     1      -9.447   5.536  -0.339  1.00  0.00     0.169 HD
HETATM   29  S1  UNL     1      -7.471   3.211  -1.817  1.00  0.00    -0.048 SA
HETATM   30  N5  UNL     1      -9.169   4.107  -3.196  1.00  0.00    -0.217 N 
HETATM   31  C13 UNL     1      -7.477   2.558  -3.446  1.00  0.00     0.057 A 
HETATM   32  C21 UNL     1      -8.517   3.232  -3.973  1.00  0.00     0.158 A 
HETATM   33  N4  UNL     1      -8.940   3.020  -5.353  1.00  0.00    -0.079 NA
HETATM   34  N6  UNL     1     -10.213   4.974  -3.340  1.00  0.00    -0.276 N 
ATOM     35  H6  UNL     1     -10.753   5.094  -4.198  1.00  0.00     0.189 HD
BRANCH  31  36
HETATM   36  C14 UNL     1      -6.495   1.576  -3.889  1.00  0.00    -0.041 C 
HETATM   37  C15 UNL     1      -6.795   0.317  -3.863  1.00  0.00    -0.018 C 
HETATM   38  C16 UNL     1      -5.991  -0.901  -4.257  1.00  0.00     0.028 C 
HETATM   39  C17 UNL     1      -4.773  -0.495  -4.999  1.00  0.00     0.004 C 
HETATM   40  C18 UNL     1      -5.137   0.408  -6.136  1.00  0.00     0.001 C 
HETATM   41  C19 UNL     1      -4.961   1.875  -5.818  1.00  0.00     0.005 C 
HETATM   42  C20 UNL     1      -5.189   2.165  -4.354  1.00  0.00     0.040 C 
ENDBRANCH  31  36
ENDBRANCH   2  25
TORSDOF 7
ENDMDL
MODEL 2
REMARK VINA RESULT: -7.330332076      1.464      2.010
REMARK  7 active torsions:
REMARK  status: ('A' for Active; 'I' for Inactive)
REMARK    1  A    between atoms: C2_2  and  O1_3 
REMARK    2  A    between atoms: C2_2  and  C3_5 
REMARK    3  A    between atoms: C2_2  and  C11_25 
REMARK    4  A    between atoms: C3_5  and  O2_6 
REMARK    5  A    between atoms: O2_6  and  C4_7 
REMARK    6  A    between atoms: C5_11  and  C7_13 
REMARK    7  A    between atoms: C13_30  and  C14_31 
ROOT
HETATM    1  C1  UNL     1     -13.656   5.343  -4.145  1.00  0.00     0.057 C 
HETATM    2  C2  UNL     1     -13.140   5.346  -2.630  1.00  0.00     0.135 C 
ENDROOT
BRANCH   2   3
HETATM    3  O1  UNL     1     -13.980   4.448  -2.048  1.00  0.00    -0.380 OA
ATOM      4  H1  UNL     1     -14.163   4.864  -1.214  1.00  0.00     0.211 HD
ENDBRANCH   2   3
BRANCH   2   5
HETATM    5  C3  UNL     1     -13.220   6.742  -2.170  1.00  0.00     0.216 C 
BRANCH   5   6
HETATM    6  O2  UNL     1     -13.288   7.047  -0.873  1.00  0.00    -0.351 OA
BRANCH   6   7
HETATM    7  C4  UNL     1     -14.319   7.764  -0.345  1.00  0.00     0.397 C 
HETATM    8  N1  UNL     1     -14.961   8.565  -1.431  1.00  0.00    -0.017 N 
HETATM    9  C5  UNL     1     -16.389   8.631  -1.293  1.00  0.00     0.300 C 
ATOM     10  H12 UNL     1     -14.554   9.498  -1.489  1.00  0.00     0.282 HD
ATOM     11  H11 UNL     1     -14.697   8.214  -2.351  1.00  0.00     0.282 HD
HETATM   12  C6  UNL     1     -16.962   9.965  -1.775  1.00  0.00     0.067 C 
HETATM   13  C8  UNL     1     -16.797   8.461   0.131  1.00  0.00     0.263 C 
HETATM   14  O3  UNL     1     -17.829   7.805   0.392  1.00  0.00    -0.270 OA
HETATM   15  N2  UNL     1     -16.133   8.972   1.285  1.00  0.00    -0.353 N 
HETATM   16  C9  UNL     1     -14.859   9.670   1.225  1.00  0.00     0.206 C 
ATOM     17  H2  UNL     1     -16.572   8.842   2.196  1.00  0.00     0.162 HD
HETATM   18  C10 UNL     1     -13.792   8.766   0.641  1.00  0.00     0.309 C 
HETATM   19  F4  UNL     1     -13.203   8.106   1.687  1.00  0.00    -0.200 F 
HETATM   20  F5  UNL     1     -12.825   9.526  -0.020  1.00  0.00    -0.200 F 
BRANCH   9  21
HETATM   21  C7  UNL     1     -17.108   7.555  -2.077  1.00  0.00     0.429 C 
HETATM   22  F1  UNL     1     -17.135   6.399  -1.326  1.00  0.00    -0.168 F 
HETATM   23  F2  UNL     1     -18.343   7.950  -2.519  1.00  0.00    -0.168 F 
HETATM   24  F3  UNL     1     -16.339   7.328  -3.233  1.00  0.00    -0.168 F 
ENDBRANCH   9  21
ENDBRANCH   6   7
ENDBRANCH   5   6
ENDBRANCH   2   5
BRANCH   2  25
HETATM   25  C11 UNL     1     -11.748   4.845  -2.752  1.00  0.00     0.135 A 
HETATM   26  N3  UNL     1     -10.784   5.072  -1.849  1.00  0.00    -0.321 N 
HETATM   27  C12 UNL     1      -9.647   4.500  -2.378  1.00  0.00     0.173 A 
ATOM     28  H3  UNL     1     -10.874   5.563  -0.960  1.00  0.00     0.169 HD
HETATM   29  S1  UNL     1      -7.996   4.227  -2.154  1.00  0.00    -0.048 SA
HETATM   30  N5  UNL     1      -9.887   3.942  -3.545  1.00  0.00    -0.217 N 
HETATM   31  C13 UNL     1      -7.655   3.364  -3.643  1.00  0.00     0.057 A 
HETATM   32  C21 UNL     1      -8.879   3.356  -4.204  1.00  0.00     0.158 A 
HETATM   33  N4  UNL     1      -9.120   2.721  -5.496  1.00  0.00    -0.079 NA
HETATM   34  N6  UNL     1     -11.215   4.169  -3.762  1.00  0.00    -0.276 N 
ATOM     35  H6  UNL     1     -11.728   3.861  -4.588  1.00  0.00     0.189 HD
BRANCH  31  36
HETATM   36  C14 UNL     1      -6.314   2.901  -3.980  1.00  0.00    -0.041 C 
HETATM   37  C15 UNL     1      -5.627   3.534  -4.875  1.00  0.00    -0.018 C 
HETATM   38  C16 UNL     1      -4.236   3.287  -5.415  1.00  0.00     0.028 C 
HETATM   39  C17 UNL     1      -3.527   2.295  -4.571  1.00  0.00     0.004 C 
HETATM   40  C18 UNL     1      -3.575   2.710  -3.133  1.00  0.00     0.001 C 
HETATM   41  C19 UNL     1      -4.665   2.021  -2.346  1.00  0.00     0.005 C 
HETATM   42  C20 UNL     1      -5.859   1.690  -3.208  1.00  0.00     0.040 C 
ENDBRANCH  31  36
ENDBRANCH   2  25
TORSDOF 7
ENDMDL
MODEL 3
REMARK VINA RESULT: -7.282346978      3.807      9.785
REMARK  7 active torsions:
REMARK  status: ('A' for Active; 'I' for Inactive)
REMARK    1  A    between atoms: C2_2  and  O1_3 
REMARK    2  A    between atoms: C2_2  and  C3_5 
REMARK    3  A    between atoms: C2_2  and  C11_25 
REMARK    4  A    between atoms: C3_5  and  O2_6 
REMARK    5  A    between atoms: O2_6  and  C4_7 
REMARK    6  A    between atoms: C5_11  and  C7_13 
REMARK    7  A    between atoms: C13_30  and  C14_31 
ROOT
HETATM    1  C1  UNL     1     -10.884   9.816  -1.888  1.00  0.00     0.057 C 
HETATM    2  C2  UNL     1     -11.196   8.834  -0.663  1.00  0.00     0.135 C 
ENDROOT
BRANCH   2   3
HETATM    3  O1  UNL     1     -10.800   9.584   0.401  1.00  0.00    -0.380 OA
ATOM      4  H1  UNL     1      -9.863   9.428   0.411  1.00  0.00     0.211 HD
ENDBRANCH   2   3
BRANCH   2   5
HETATM    5  C3  UNL     1     -10.451   7.593  -0.930  1.00  0.00     0.216 C 
BRANCH   5   6
HETATM    6  O2  UNL     1     -11.058   6.405  -0.949  1.00  0.00    -0.351 OA
BRANCH   6   7
HETATM    7  C4  UNL     1     -10.724   5.429  -1.839  1.00  0.00     0.397 C 
HETATM    8  N1  UNL     1      -9.623   5.928  -2.717  1.00  0.00    -0.017 N 
HETATM    9  C5  UNL     1      -8.663   4.906  -3.026  1.00  0.00     0.300 C 
ATOM     10  H12 UNL     1      -9.995   6.352  -3.567  1.00  0.00     0.282 HD
ATOM     11  H11 UNL     1      -9.170   6.746  -2.310  1.00  0.00     0.282 HD
HETATM   12  C6  UNL     1      -8.073   5.062  -4.429  1.00  0.00     0.067 C 
HETATM   13  C8  UNL     1      -9.280   3.551  -2.952  1.00  0.00     0.263 C 
HETATM   14  O3  UNL     1      -8.611   2.604  -2.484  1.00  0.00    -0.270 OA
HETATM   15  N2  UNL     1     -10.594   3.179  -3.364  1.00  0.00    -0.353 N 
HETATM   16  C9  UNL     1     -11.581   4.137  -3.836  1.00  0.00     0.206 C 
ATOM     17  H2  UNL     1     -10.855   2.194  -3.326  1.00  0.00     0.162 HD
HETATM   18  C10 UNL     1     -11.882   5.155  -2.754  1.00  0.00     0.309 C 
HETATM   19  F4  UNL     1     -12.934   4.670  -2.022  1.00  0.00    -0.200 F 
HETATM   20  F5  UNL     1     -12.251   6.374  -3.328  1.00  0.00    -0.200 F 
BRANCH   9  21
HETATM   21  C7  UNL     1      -7.487   4.894  -2.074  1.00  0.00     0.429 C 
HETATM   22  F1  UNL     1      -7.874   4.294  -0.894  1.00  0.00    -0.168 F 
HETATM   23  F2  UNL     1      -6.359   4.345  -2.623  1.00  0.00    -0.168 F 
HETATM   24  F3  UNL     1      -7.173   6.241  -1.817  1.00  0.00    -0.168 F 
ENDBRANCH   9  21
ENDBRANCH   6   7
ENDBRANCH   5   6
ENDBRANCH   2   5
BRANCH   2  25
HETATM   25  C11 UNL     1     -12.669   8.665  -0.739  1.00  0.00     0.135 A 
HETATM   26  N3  UNL     1     -13.504   8.878   0.287  1.00  0.00    -0.321 N 
HETATM   27  C12 UNL     1     -14.755   8.540  -0.186  1.00  0.00     0.173 A 
ATOM     28  H3  UNL     1     -13.266   9.217   1.218  1.00  0.00     0.169 HD
HETATM   29  S1  UNL     1     -16.392   8.394   0.198  1.00  0.00    -0.048 SA
HETATM   30  N5  UNL     1     -14.705   8.143  -1.439  1.00  0.00    -0.217 N 
HETATM   31  C13 UNL     1     -16.984   7.797  -1.342  1.00  0.00     0.057 A 
HETATM   32  C21 UNL     1     -15.836   7.761  -2.045  1.00  0.00     0.158 A 
HETATM   33  N4  UNL     1     -15.809   7.325  -3.438  1.00  0.00    -0.079 NA
HETATM   34  N6  UNL     1     -13.383   8.230  -1.768  1.00  0.00    -0.276 N 
ATOM     35  H6  UNL     1     -12.997   7.994  -2.683  1.00  0.00     0.189 HD
BRANCH  31  36
HETATM   36  C14 UNL     1     -18.387   7.466  -1.556  1.00  0.00    -0.041 C 
HETATM   37  C15 UNL     1     -18.938   6.533  -0.848  1.00  0.00    -0.018 C 
HETATM   38  C16 UNL     1     -20.349   5.989  -0.851  1.00  0.00     0.028 C 
HETATM   39  C17 UNL     1     -21.237   6.869  -1.649  1.00  0.00     0.004 C 
HETATM   40  C18 UNL     1     -21.115   8.287  -1.182  1.00  0.00     0.001 C 
HETATM   41  C19 UNL     1     -20.179   9.118  -2.027  1.00  0.00     0.005 C 
HETATM   42  C20 UNL     1     -19.068   8.288  -2.621  1.00  0.00     0.040 C 
ENDBRANCH  31  36
ENDBRANCH   2  25
TORSDOF 7
ENDMDL
MODEL 4
REMARK VINA RESULT: -7.278458746      1.377      1.822
REMARK  7 active torsions:
REMARK  status: ('A' for Active; 'I' for Inactive)
REMARK    1  A    between atoms: C2_2  and  O1_3 
REMARK    2  A    between atoms: C2_2  and  C3_5 
REMARK    3  A    between atoms: C2_2  and  C11_25 
REMARK    4  A    between atoms: C3_5  and  O2_6 
REMARK    5  A    between atoms: O2_6  and  C4_7 
REMARK    6  A    between atoms: C5_11  and  C7_13 
REMARK    7  A    between atoms: C13_30  and  C14_31 
ROOT
HETATM    1  C1  UNL     1     -13.611   5.593  -3.754  1.00  0.00     0.057 C 
HETATM    2  C2  UNL     1     -12.815   5.476  -2.370  1.00  0.00     0.135 C 
ENDROOT
BRANCH   2   3
HETATM    3  O1  UNL     1     -13.548   4.540  -1.707  1.00  0.00    -0.380 OA
ATOM      4  H1  UNL     1     -13.366   3.757  -2.213  1.00  0.00     0.211 HD
ENDBRANCH   2   3
BRANCH   2   5
HETATM    5  C3  UNL     1     -12.777   6.833  -1.800  1.00  0.00     0.216 C 
BRANCH   5   6
HETATM    6  O2  UNL     1     -13.028   7.054  -0.508  1.00  0.00    -0.351 OA
BRANCH   6   7
HETATM    7  C4  UNL     1     -14.112   7.764  -0.088  1.00  0.00     0.397 C 
HETATM    8  N1  UNL     1     -14.648   8.560  -1.233  1.00  0.00    -0.017 N 
HETATM    9  C5  UNL     1     -16.083   8.616  -1.239  1.00  0.00     0.300 C 
ATOM     10  H12 UNL     1     -14.243   9.496  -1.251  1.00  0.00     0.282 HD
ATOM     11  H11 UNL     1     -14.290   8.210  -2.122  1.00  0.00     0.282 HD
HETATM   12  C6  UNL     1     -16.614   9.945  -1.778  1.00  0.00     0.067 C 
HETATM   13  C8  UNL     1     -16.631   8.442   0.136  1.00  0.00     0.263 C 
HETATM   14  O3  UNL     1     -17.679   7.779   0.293  1.00  0.00    -0.270 OA
HETATM   15  N2  UNL     1     -16.090   8.959   1.351  1.00  0.00    -0.353 N 
HETATM   16  C9  UNL     1     -14.821   9.667   1.419  1.00  0.00     0.206 C 
ATOM     17  H2  UNL     1     -16.617   8.826   2.213  1.00  0.00     0.162 HD
HETATM   18  C10 UNL     1     -13.695   8.770   0.945  1.00  0.00     0.309 C 
HETATM   19  F4  UNL     1     -13.208   8.114   2.046  1.00  0.00    -0.200 F 
HETATM   20  F5  UNL     1     -12.672   9.536   0.384  1.00  0.00    -0.200 F 
BRANCH   9  21
HETATM   21  C7  UNL     1     -16.712   7.534  -2.091  1.00  0.00     0.429 C 
HETATM   22  F1  UNL     1     -16.361   6.303  -1.579  1.00  0.00    -0.168 F 
HETATM   23  F2  UNL     1     -18.063   7.697  -2.250  1.00  0.00    -0.168 F 
HETATM   24  F3  UNL     1     -16.154   7.668  -3.375  1.00  0.00    -0.168 F 
ENDBRANCH   9  21
ENDBRANCH   6   7
ENDBRANCH   5   6
ENDBRANCH   2   5
BRANCH   2  25
HETATM   25  C11 UNL     1     -11.483   4.977  -2.793  1.00  0.00     0.135 A 
HETATM   26  N3  UNL     1     -11.148   4.708  -4.062  1.00  0.00    -0.321 N 
HETATM   27  C12 UNL     1      -9.865   4.208  -4.003  1.00  0.00     0.173 A 
ATOM     28  H3  UNL     1     -11.722   4.843  -4.894  1.00  0.00     0.169 HD
HETATM   29  S1  UNL     1      -8.579   3.573  -4.894  1.00  0.00    -0.048 SA
HETATM   30  N5  UNL     1      -9.419   4.172  -2.767  1.00  0.00    -0.217 N 
HETATM   31  C13 UNL     1      -7.458   3.266  -3.579  1.00  0.00     0.057 A 
HETATM   32  C21 UNL     1      -8.190   3.694  -2.533  1.00  0.00     0.158 A 
HETATM   33  N4  UNL     1      -7.668   3.651  -1.170  1.00  0.00    -0.079 NA
HETATM   34  N6  UNL     1     -10.452   4.661  -2.020  1.00  0.00    -0.276 N 
ATOM     35  H6  UNL     1     -10.433   4.769  -1.006  1.00  0.00     0.189 HD
BRANCH  31  36
HETATM   36  C14 UNL     1      -6.147   2.669  -3.803  1.00  0.00    -0.041 C 
HETATM   37  C15 UNL     1      -6.048   1.388  -3.959  1.00  0.00    -0.018 C 
HETATM   38  C16 UNL     1      -4.841   0.511  -4.204  1.00  0.00     0.028 C 
HETATM   39  C17 UNL     1      -3.660   1.343  -4.539  1.00  0.00     0.004 C 
HETATM   40  C18 UNL     1      -3.990   2.280  -5.660  1.00  0.00     0.001 C 
HETATM   41  C19 UNL     1      -4.351   3.670  -5.192  1.00  0.00     0.005 C 
HETATM   42  C20 UNL     1      -5.009   3.655  -3.834  1.00  0.00     0.040 C 
ENDBRANCH  31  36
ENDBRANCH   2  25
TORSDOF 7
ENDMDL
MODEL 5
REMARK VINA RESULT: -7.249092870      4.284      6.064
REMARK  7 active torsions:
REMARK  status: ('A' for Active; 'I' for Inactive)
REMARK    1  A    between atoms: C2_2  and  O1_3 
REMARK    2  A    between atoms: C2_2  and  C3_5 
REMARK    3  A    between atoms: C2_2  and  C11_25 
REMARK    4  A    between atoms: C3_5  and  O2_6 
REMARK    5  A    between atoms: O2_6  and  C4_7 
REMARK    6  A    between atoms: C5_11  and  C7_13 
REMARK    7  A    between atoms: C13_30  and  C14_31 
ROOT
HETATM    1  C1  UNL     1     -11.670   6.334  -3.815  1.00  0.00     0.057 C 
HETATM    2  C2  UNL     1     -11.651   6.325  -2.215  1.00  0.00     0.135 C 
ENDROOT
BRANCH   2   3
HETATM    3  O1  UNL     1     -11.398   5.015  -1.947  1.00  0.00    -0.380 OA
ATOM      4  H1  UNL     1     -11.802   4.909  -1.095  1.00  0.00     0.211 HD
ENDBRANCH   2   3
BRANCH   2   5
HETATM    5  C3  UNL     1     -12.951   6.863  -1.783  1.00  0.00     0.216 C 
BRANCH   5   6
HETATM    6  O2  UNL     1     -13.229   7.070  -0.495  1.00  0.00    -0.351 OA
BRANCH   6   7
HETATM    7  C4  UNL     1     -14.292   7.819  -0.089  1.00  0.00     0.397 C 
HETATM    8  N1  UNL     1     -14.800   8.612  -1.249  1.00  0.00    -0.017 N 
HETATM    9  C5  UNL     1     -16.232   8.712  -1.260  1.00  0.00     0.300 C 
ATOM     10  H12 UNL     1     -14.367   9.535  -1.281  1.00  0.00     0.282 HD
ATOM     11  H11 UNL     1     -14.451   8.238  -2.131  1.00  0.00     0.282 HD
HETATM   12  C6  UNL     1     -16.722  10.048  -1.821  1.00  0.00     0.067 C 
HETATM   13  C8  UNL     1     -16.789   8.577   0.117  1.00  0.00     0.263 C 
HETATM   14  O3  UNL     1     -17.857   7.949   0.281  1.00  0.00    -0.270 OA
HETATM   15  N2  UNL     1     -16.235   9.097   1.325  1.00  0.00    -0.353 N 
HETATM   16  C9  UNL     1     -14.946   9.766   1.385  1.00  0.00     0.206 C 
ATOM     17  H2  UNL     1     -16.769   8.994   2.187  1.00  0.00     0.162 HD
HETATM   18  C10 UNL     1     -13.846   8.829   0.929  1.00  0.00     0.309 C 
HETATM   19  F4  UNL     1     -13.383   8.176   2.042  1.00  0.00    -0.200 F 
HETATM   20  F5  UNL     1     -12.799   9.554   0.359  1.00  0.00    -0.200 F 
BRANCH   9  21
HETATM   21  C7  UNL     1     -16.892   7.636  -2.095  1.00  0.00     0.429 C 
HETATM   22  F1  UNL     1     -16.930   6.466  -1.367  1.00  0.00    -0.168 F 
HETATM   23  F2  UNL     1     -18.113   8.015  -2.588  1.00  0.00    -0.168 F 
HETATM   24  F3  UNL     1     -16.066   7.446  -3.218  1.00  0.00    -0.168 F 
ENDBRANCH   9  21
ENDBRANCH   6   7
ENDBRANCH   5   6
ENDBRANCH   2   5
BRANCH   2  25
HETATM   25  C11 UNL     1     -10.508   7.215  -1.891  1.00  0.00     0.135 A 
HETATM   26  N3  UNL     1      -9.428   7.367  -2.669  1.00  0.00    -0.321 N 
HETATM   27  C12 UNL     1      -8.592   8.214  -1.972  1.00  0.00     0.173 A 
ATOM     28  H3  UNL     1      -9.260   6.945  -3.582  1.00  0.00     0.169 HD
HETATM   29  S1  UNL     1      -7.096   8.995  -1.967  1.00  0.00    -0.048 SA
HETATM   30  N5  UNL     1      -9.122   8.576  -0.824  1.00  0.00    -0.217 N 
HETATM   31  C13 UNL     1      -7.210   9.798  -0.411  1.00  0.00     0.057 A 
HETATM   32  C21 UNL     1      -8.428   9.386  -0.015  1.00  0.00     0.158 A 
HETATM   33  N4  UNL     1      -8.998   9.811   1.260  1.00  0.00    -0.079 NA
HETATM   34  N6  UNL     1     -10.329   7.937  -0.792  1.00  0.00    -0.276 N 
ATOM     35  H6  UNL     1     -11.001   8.007  -0.028  1.00  0.00     0.189 HD
BRANCH  31  36
HETATM   36  C14 UNL     1      -6.126  10.619   0.117  1.00  0.00    -0.041 C 
HETATM   37  C15 UNL     1      -5.342  10.133   1.024  1.00  0.00    -0.018 C 
HETATM   38  C16 UNL     1      -4.157  10.743   1.739  1.00  0.00     0.028 C 
HETATM   39  C17 UNL     1      -3.750  12.005   1.076  1.00  0.00     0.004 C 
HETATM   40  C18 UNL     1      -3.546  11.777  -0.390  1.00  0.00     0.001 C 
HETATM   41  C19 UNL     1      -4.738  12.173  -1.231  1.00  0.00     0.005 C 
HETATM   42  C20 UNL     1      -6.037  11.998  -0.484  1.00  0.00     0.040 C 
ENDBRANCH  31  36
ENDBRANCH   2  25
TORSDOF 7
ENDMDL
