MODEL 1
REMARK VINA RESULT: -8.980973368      0.000      0.000
REMARK  8 active torsions:
REMARK  status: ('A' for Active; 'I' for Inactive)
REMARK    1  A    between atoms: O1_2  and  C2_3 
REMARK    2  A    between atoms: C7_14  and  C8_15 
REMARK    3  A    between atoms: C7_14  and  N6_28 
REMARK    4  A    between atoms: C8_15  and  O3_16 
REMARK    5  A    between atoms: O3_16  and  C9_17 
REMARK    6  A    between atoms: C11_22  and  O4_23 
REMARK    7  A    between atoms: C12_25  and  O5_26 
REMARK    8  A    between atoms: N6_28  and  N7_30 
ROOT
HETATM    1  C2  UNL     1     131.817   6.485  74.623  1.00  0.00     0.235 A 
HETATM    2  C3  UNL     1     130.865   7.488  74.291  1.00  0.00     0.089 A 
HETATM    3  N1  UNL     1     130.854   8.894  74.716  1.00  0.00    -0.102 NA
HETATM    4  C4  UNL     1     129.913   7.043  73.492  1.00  0.00     0.102 A 
HETATM    5  C5  UNL     1     130.191   5.652  73.194  1.00  0.00     0.254 A 
HETATM    6  O2  UNL     1     129.479   4.860  72.467  1.00  0.00    -0.268 OA
HETATM    7  N2  UNL     1     131.369   5.285  73.822  1.00  0.00    -0.245 N 
HETATM    8  C6  UNL     1     132.418   4.319  74.015  1.00  0.00     0.198 C 
HETATM    9  N3  UNL     1     132.255   2.930  73.985  1.00  0.00    -0.063 NA
HETATM   10  N4  UNL     1     133.531   4.973  74.211  1.00  0.00    -0.330 N 
ATOM     11  H4  UNL     1     134.449   4.562  74.375  1.00  0.00     0.165 HD
HETATM   12  C7  UNL     1     133.213   6.457  74.152  1.00  0.00     0.198 C 
ENDROOT
BRANCH  12  13
HETATM   13  C8  UNL     1     134.166   7.079  75.118  1.00  0.00     0.231 C 
BRANCH  13  14
HETATM   14  O3  UNL     1     134.716   6.110  75.984  1.00  0.00    -0.353 OA
BRANCH  14  15
HETATM   15  C9  UNL     1     136.077   6.370  76.087  1.00  0.00     0.352 C 
HETATM   16  N5  UNL     1     136.373   7.775  76.136  1.00  0.00    -0.044 N 
HETATM   17  C10 UNL     1     137.796   7.764  76.497  1.00  0.00     0.269 C 
ATOM     18  H52 UNL     1     136.143   8.297  75.291  1.00  0.00     0.280 HD
ATOM     19  H51 UNL     1     135.772   8.324  76.751  1.00  0.00     0.280 HD
HETATM   20  C11 UNL     1     137.807   6.762  77.634  1.00  0.00     0.176 C 
HETATM   21  C12 UNL     1     136.597   5.901  77.453  1.00  0.00     0.205 C 
BRANCH  20  22
HETATM   22  O4  UNL     1     137.746   7.455  78.842  1.00  0.00    -0.391 OA
ATOM     23  H4  UNL     1     136.939   7.223  79.287  1.00  0.00     0.210 HD
ENDBRANCH  20  22
BRANCH  21  24
HETATM   24  O5  UNL     1     135.594   6.133  78.363  1.00  0.00    -0.389 OA
ATOM     25  H5  UNL     1     136.013   6.354  79.186  1.00  0.00     0.210 HD
ENDBRANCH  21  24
ENDBRANCH  14  15
ENDBRANCH  13  14
ENDBRANCH  12  13
BRANCH  12  26
HETATM   26  N6  UNL     1     133.409   6.807  72.788  1.00  0.00    -0.307 N 
ATOM     27  H6  UNL     1     133.312   6.115  72.045  1.00  0.00     0.182 HD
BRANCH  26  28
HETATM   28  N7  UNL     1     133.733   8.104  72.508  1.00  0.00    -0.347 N 
ATOM     29  H72 UNL     1     134.141   8.350  71.606  1.00  0.00     0.176 HD
ATOM     30  H71 UNL     1     133.551   8.802  73.229  1.00  0.00     0.176 HD
ENDBRANCH  26  28
ENDBRANCH  12  26
BRANCH   1  31
HETATM   31  O1  UNL     1     131.648   5.987  75.938  1.00  0.00    -0.356 OA
HETATM   32  C1  UNL     1     130.394   5.971  76.430  1.00  0.00     0.205 C 
ENDBRANCH   1  31
TORSDOF 8
ENDMDL
MODEL 2
REMARK VINA RESULT: -8.954378791      3.846      4.798
REMARK  8 active torsions:
REMARK  status: ('A' for Active; 'I' for Inactive)
REMARK    1  A    between atoms: O1_2  and  C2_3 
REMARK    2  A    between atoms: C7_14  and  C8_15 
REMARK    3  A    between atoms: C7_14  and  N6_28 
REMARK    4  A    between atoms: C8_15  and  O3_16 
REMARK    5  A    between atoms: O3_16  and  C9_17 
REMARK    6  A    between atoms: C11_22  and  O4_23 
REMARK    7  A    between atoms: C12_25  and  O5_26 
REMARK    8  A    between atoms: N6_28  and  N7_30 
ROOT
HETATM    1  C2  UNL     1     129.886   7.354  73.015  1.00  0.00     0.235 A 
HETATM    2  C3  UNL     1     128.522   7.437  72.620  1.00  0.00     0.089 A 
HETATM    3  N1  UNL     1     127.958   8.165  71.476  1.00  0.00    -0.102 NA
HETATM    4  C4  UNL     1     127.720   6.746  73.409  1.00  0.00     0.102 A 
HETATM    5  C5  UNL     1     128.535   6.095  74.417  1.00  0.00     0.254 A 
HETATM    6  O2  UNL     1     128.118   5.350  75.384  1.00  0.00    -0.268 OA
HETATM    7  N2  UNL     1     129.865   6.399  74.183  1.00  0.00    -0.245 N 
HETATM    8  C6  UNL     1     131.255   6.173  74.481  1.00  0.00     0.198 C 
HETATM    9  N3  UNL     1     131.772   5.859  75.743  1.00  0.00    -0.063 NA
HETATM   10  N4  UNL     1     131.927   6.307  73.371  1.00  0.00    -0.330 N 
ATOM     11  H4  UNL     1     132.936   6.203  73.261  1.00  0.00     0.165 HD
HETATM   12  C7  UNL     1     130.938   6.644  72.268  1.00  0.00     0.198 C 
ENDROOT
BRANCH  12  13
HETATM   13  C8  UNL     1     131.702   7.535  71.345  1.00  0.00     0.231 C 
BRANCH  13  14
HETATM   14  O3  UNL     1     132.976   7.838  71.871  1.00  0.00    -0.353 OA
BRANCH  14  15
HETATM   15  C9  UNL     1     133.180   9.202  71.704  1.00  0.00     0.352 C 
HETATM   16  N5  UNL     1     131.957   9.927  71.504  1.00  0.00    -0.044 N 
HETATM   17  C10 UNL     1     132.417  11.317  71.616  1.00  0.00     0.269 C 
ATOM     18  H52 UNL     1     131.454   9.704  70.645  1.00  0.00     0.280 HD
ATOM     19  H51 UNL     1     131.193   9.671  72.129  1.00  0.00     0.280 HD
HETATM   20  C11 UNL     1     133.274  11.247  72.863  1.00  0.00     0.176 C 
HETATM   21  C12 UNL     1     133.690   9.818  73.013  1.00  0.00     0.205 C 
BRANCH  20  22
HETATM   22  O4  UNL     1     132.510  11.658  73.955  1.00  0.00    -0.391 OA
ATOM     23  H4  UNL     1     131.664  11.228  73.915  1.00  0.00     0.210 HD
ENDBRANCH  20  22
BRANCH  21  24
HETATM   24  O5  UNL     1     133.066   9.150  74.039  1.00  0.00    -0.389 OA
ATOM     25  H5  UNL     1     132.754   9.808  74.648  1.00  0.00     0.210 HD
ENDBRANCH  21  24
ENDBRANCH  14  15
ENDBRANCH  13  14
ENDBRANCH  12  13
BRANCH  12  26
HETATM   26  N6  UNL     1     130.565   5.381  71.729  1.00  0.00    -0.307 N 
ATOM     27  H6  UNL     1     129.685   4.936  71.987  1.00  0.00     0.182 HD
BRANCH  26  28
HETATM   28  N7  UNL     1     131.430   4.787  70.854  1.00  0.00    -0.347 N 
ATOM     29  H72 UNL     1     131.098   4.451  69.950  1.00  0.00     0.176 HD
ATOM     30  H71 UNL     1     132.404   4.697  71.141  1.00  0.00     0.176 HD
ENDBRANCH  26  28
ENDBRANCH  12  26
BRANCH   1  31
HETATM   31  O1  UNL     1     130.340   8.531  73.660  1.00  0.00    -0.356 OA
HETATM   32  C1  UNL     1     129.422   9.484  73.910  1.00  0.00     0.205 C 
ENDBRANCH   1  31
TORSDOF 8
ENDMDL
MODEL 3
REMARK VINA RESULT: -8.947211518      1.314      2.094
REMARK  8 active torsions:
REMARK  status: ('A' for Active; 'I' for Inactive)
REMARK    1  A    between atoms: O1_2  and  C2_3 
REMARK    2  A    between atoms: C7_14  and  C8_15 
REMARK    3  A    between atoms: C7_14  and  N6_28 
REMARK    4  A    between atoms: C8_15  and  O3_16 
REMARK    5  A    between atoms: O3_16  and  C9_17 
REMARK    6  A    between atoms: C11_22  and  O4_23 
REMARK    7  A    between atoms: C12_25  and  O5_26 
REMARK    8  A    between atoms: N6_28  and  N7_30 
ROOT
HETATM    1  C2  UNL     1     131.910   7.132  73.698  1.00  0.00     0.235 A 
HETATM    2  C3  UNL     1     131.829   7.490  72.324  1.00  0.00     0.089 A 
HETATM    3  N1  UNL     1     132.796   8.266  71.538  1.00  0.00    -0.102 NA
HETATM    4  C4  UNL     1     130.738   7.028  71.740  1.00  0.00     0.102 A 
HETATM    5  C5  UNL     1     129.993   6.266  72.723  1.00  0.00     0.254 A 
HETATM    6  O2  UNL     1     128.859   5.677  72.545  1.00  0.00    -0.268 OA
HETATM    7  N2  UNL     1     130.696   6.262  73.915  1.00  0.00    -0.245 N 
HETATM    8  C6  UNL     1     130.858   5.755  75.253  1.00  0.00     0.198 C 
HETATM    9  N3  UNL     1     129.816   5.398  76.115  1.00  0.00    -0.063 NA
HETATM   10  N4  UNL     1     132.138   5.685  75.499  1.00  0.00    -0.330 N 
ATOM     11  H4  UNL     1     132.567   5.360  76.366  1.00  0.00     0.165 HD
HETATM   12  C7  UNL     1     132.875   6.175  74.266  1.00  0.00     0.198 C 
ENDROOT
BRANCH  12  13
HETATM   13  C8  UNL     1     134.102   6.834  74.804  1.00  0.00     0.231 C 
BRANCH  13  14
HETATM   14  O3  UNL     1     134.570   6.169  75.958  1.00  0.00    -0.353 OA
BRANCH  14  15
HETATM   15  C9  UNL     1     135.945   6.360  76.018  1.00  0.00     0.352 C 
HETATM   16  N5  UNL     1     136.313   7.747  76.059  1.00  0.00    -0.044 N 
HETATM   17  C10 UNL     1     137.745   7.663  76.374  1.00  0.00     0.269 C 
ATOM     18  H52 UNL     1     136.083   8.283  75.222  1.00  0.00     0.280 HD
ATOM     19  H51 UNL     1     135.762   8.325  76.693  1.00  0.00     0.280 HD
HETATM   20  C11 UNL     1     137.741   6.659  77.509  1.00  0.00     0.176 C 
HETATM   21  C12 UNL     1     136.483   5.861  77.366  1.00  0.00     0.205 C 
BRANCH  20  22
HETATM   22  O4  UNL     1     137.754   7.350  78.719  1.00  0.00    -0.391 OA
ATOM     23  H4  UNL     1     138.246   8.155  78.605  1.00  0.00     0.210 HD
ENDBRANCH  20  22
BRANCH  21  24
HETATM   24  O5  UNL     1     135.523   6.141  78.308  1.00  0.00    -0.389 OA
ATOM     25  H5  UNL     1     135.739   6.988  78.680  1.00  0.00     0.210 HD
ENDBRANCH  21  24
ENDBRANCH  14  15
ENDBRANCH  13  14
ENDBRANCH  12  13
BRANCH  12  26
HETATM   26  N6  UNL     1     133.099   4.999  73.497  1.00  0.00    -0.307 N 
ATOM     27  H6  UNL     1     132.979   4.998  72.485  1.00  0.00     0.182 HD
BRANCH  26  28
HETATM   28  N7  UNL     1     133.483   3.871  74.166  1.00  0.00    -0.347 N 
ATOM     29  H72 UNL     1     134.435   3.781  74.521  1.00  0.00     0.176 HD
ATOM     30  H71 UNL     1     132.786   3.136  74.290  1.00  0.00     0.176 HD
ENDBRANCH  26  28
ENDBRANCH  12  26
BRANCH   1  31
HETATM   31  O1  UNL     1     131.603   8.212  74.562  1.00  0.00    -0.356 OA
HETATM   32  C1  UNL     1     131.607   9.447  74.024  1.00  0.00     0.205 C 
ENDBRANCH   1  31
TORSDOF 8
ENDMDL
MODEL 4
REMARK VINA RESULT: -8.718040755      4.256      5.925
REMARK  8 active torsions:
REMARK  status: ('A' for Active; 'I' for Inactive)
REMARK    1  A    between atoms: O1_2  and  C2_3 
REMARK    2  A    between atoms: C7_14  and  C8_15 
REMARK    3  A    between atoms: C7_14  and  N6_28 
REMARK    4  A    between atoms: C8_15  and  O3_16 
REMARK    5  A    between atoms: O3_16  and  C9_17 
REMARK    6  A    between atoms: C11_22  and  O4_23 
REMARK    7  A    between atoms: C12_25  and  O5_26 
REMARK    8  A    between atoms: N6_28  and  N7_30 
ROOT
HETATM    1  C2  UNL     1     130.972   8.206  73.492  1.00  0.00     0.235 A 
HETATM    2  C3  UNL     1     130.945   7.046  74.315  1.00  0.00     0.089 A 
HETATM    3  N1  UNL     1     131.980   6.580  75.246  1.00  0.00    -0.102 NA
HETATM    4  C4  UNL     1     129.825   6.358  74.190  1.00  0.00     0.102 A 
HETATM    5  C5  UNL     1     128.970   7.060  73.253  1.00  0.00     0.254 A 
HETATM    6  O2  UNL     1     127.801   6.693  72.849  1.00  0.00    -0.268 OA
HETATM    7  N2  UNL     1     129.609   8.217  72.842  1.00  0.00    -0.245 N 
HETATM    8  C6  UNL     1     129.561   9.474  72.142  1.00  0.00     0.198 C 
HETATM    9  N3  UNL     1     128.823   9.726  70.980  1.00  0.00    -0.063 NA
HETATM   10  N4  UNL     1     130.315  10.320  72.790  1.00  0.00    -0.330 N 
ATOM     11  H4  UNL     1     130.479  11.295  72.538  1.00  0.00     0.165 HD
HETATM   12  C7  UNL     1     130.906   9.593  73.985  1.00  0.00     0.198 C 
ENDROOT
BRANCH  12  13
HETATM   13  C8  UNL     1     132.252  10.212  74.168  1.00  0.00     0.231 C 
BRANCH  13  14
HETATM   14  O3  UNL     1     132.296  11.506  73.607  1.00  0.00    -0.353 OA
BRANCH  14  15
HETATM   15  C9  UNL     1     133.510  11.631  72.945  1.00  0.00     0.352 C 
HETATM   16  N5  UNL     1     134.020  10.373  72.475  1.00  0.00    -0.044 N 
HETATM   17  C10 UNL     1     135.131  10.807  71.618  1.00  0.00     0.269 C 
ATOM     18  H52 UNL     1     134.268   9.705  73.204  1.00  0.00     0.280 HD
ATOM     19  H51 UNL     1     133.333   9.768  72.024  1.00  0.00     0.280 HD
HETATM   20  C11 UNL     1     134.474  11.912  70.817  1.00  0.00     0.176 C 
HETATM   21  C12 UNL     1     133.312  12.392  71.627  1.00  0.00     0.205 C 
BRANCH  20  22
HETATM   22  O4  UNL     1     134.047  11.389  69.597  1.00  0.00    -0.391 OA
ATOM     23  H4  UNL     1     134.435  11.896  68.894  1.00  0.00     0.210 HD
ENDBRANCH  20  22
BRANCH  21  24
HETATM   24  O5  UNL     1     132.084  12.021  71.133  1.00  0.00    -0.389 OA
ATOM     25  H5  UNL     1     131.936  12.533  70.347  1.00  0.00     0.210 HD
ENDBRANCH  21  24
ENDBRANCH  14  15
ENDBRANCH  13  14
ENDBRANCH  12  13
BRANCH  12  26
HETATM   26  N6  UNL     1     129.977   9.828  75.036  1.00  0.00    -0.307 N 
ATOM     27  H6  UNL     1     129.024   9.468  74.991  1.00  0.00     0.182 HD
BRANCH  26  28
HETATM   28  N7  UNL     1     130.409  10.555  76.110  1.00  0.00    -0.347 N 
ATOM     29  H72 UNL     1     130.803  10.085  76.925  1.00  0.00     0.176 HD
ATOM     30  H71 UNL     1     130.319  11.569  76.060  1.00  0.00     0.176 HD
ENDBRANCH  26  28
ENDBRANCH  12  26
BRANCH   1  31
HETATM   31  O1  UNL     1     131.794   8.046  72.350  1.00  0.00    -0.356 OA
HETATM   32  C1  UNL     1     132.655   7.010  72.356  1.00  0.00     0.205 C 
ENDBRANCH   1  31
TORSDOF 8
ENDMDL
MODEL 5
REMARK VINA RESULT: -8.703846778      4.086      5.330
REMARK  8 active torsions:
REMARK  status: ('A' for Active; 'I' for Inactive)
REMARK    1  A    between atoms: O1_2  and  C2_3 
REMARK    2  A    between atoms: C7_14  and  C8_15 
REMARK    3  A    between atoms: C7_14  and  N6_28 
REMARK    4  A    between atoms: C8_15  and  O3_16 
REMARK    5  A    between atoms: O3_16  and  C9_17 
REMARK    6  A    between atoms: C11_22  and  O4_23 
REMARK    7  A    between atoms: C12_25  and  O5_26 
REMARK    8  A    between atoms: N6_28  and  N7_30 
ROOT
HETATM    1  C2  UNL     1     130.462   8.394  71.914  1.00  0.00     0.235 A 
HETATM    2  C3  UNL     1     129.058   8.463  71.697  1.00  0.00     0.089 A 
HETATM    3  N1  UNL     1     128.313   9.480  70.943  1.00  0.00    -0.102 NA
HETATM    4  C4  UNL     1     128.406   7.459  72.254  1.00  0.00     0.102 A 
HETATM    5  C5  UNL     1     129.379   6.589  72.885  1.00  0.00     0.254 A 
HETATM    6  O2  UNL     1     129.133   5.513  73.554  1.00  0.00    -0.268 OA
HETATM    7  N2  UNL     1     130.647   7.094  72.660  1.00  0.00    -0.245 N 
HETATM    8  C6  UNL     1     132.075   6.929  72.733  1.00  0.00     0.198 C 
HETATM    9  N3  UNL     1     132.760   6.252  73.749  1.00  0.00    -0.063 NA
HETATM   10  N4  UNL     1     132.598   7.512  71.690  1.00  0.00    -0.330 N 
ATOM     11  H4  UNL     1     133.591   7.561  71.462  1.00  0.00     0.165 HD
HETATM   12  C7  UNL     1     131.463   8.105  70.873  1.00  0.00     0.198 C 
ENDROOT
BRANCH  12  13
HETATM   13  C8  UNL     1     132.047   9.338  70.267  1.00  0.00     0.231 C 
BRANCH  13  14
HETATM   14  O3  UNL     1     133.373   9.541  70.707  1.00  0.00    -0.353 OA
BRANCH  14  15
HETATM   15  C9  UNL     1     133.497  10.883  71.045  1.00  0.00     0.352 C 
HETATM   16  N5  UNL     1     132.234  11.505  71.325  1.00  0.00    -0.044 N 
HETATM   17  C10 UNL     1     132.658  12.793  71.888  1.00  0.00     0.269 C 
ATOM     18  H52 UNL     1     131.594  11.567  70.533  1.00  0.00     0.280 HD
ATOM     19  H51 UNL     1     131.602  10.961  71.913  1.00  0.00     0.280 HD
HETATM   20  C11 UNL     1     133.725  12.352  72.869  1.00  0.00     0.176 C 
HETATM   21  C12 UNL     1     134.210  11.018  72.397  1.00  0.00     0.205 C 
BRANCH  20  22
HETATM   22  O4  UNL     1     133.154  12.251  74.137  1.00  0.00    -0.391 OA
ATOM     23  H4  UNL     1     133.536  11.506  74.586  1.00  0.00     0.210 HD
ENDBRANCH  20  22
BRANCH  21  24
HETATM   24  O5  UNL     1     133.802   9.958  73.171  1.00  0.00    -0.389 OA
ATOM     25  H5  UNL     1     134.559   9.671  73.667  1.00  0.00     0.210 HD
ENDBRANCH  21  24
ENDBRANCH  14  15
ENDBRANCH  13  14
ENDBRANCH  12  13
BRANCH  12  26
HETATM   26  N6  UNL     1     131.115   7.077  69.953  1.00  0.00    -0.307 N 
ATOM     27  H6  UNL     1     130.869   6.141  70.274  1.00  0.00     0.182 HD
BRANCH  26  28
HETATM   28  N7  UNL     1     131.123   7.391  68.623  1.00  0.00    -0.347 N 
ATOM     29  H72 UNL     1     131.198   8.363  68.323  1.00  0.00     0.176 HD
ATOM     30  H71 UNL     1     131.051   6.622  67.957  1.00  0.00     0.176 HD
ENDBRANCH  26  28
ENDBRANCH  12  26
BRANCH   1  31
HETATM   31  O1  UNL     1     130.909   9.313  72.895  1.00  0.00    -0.356 OA
HETATM   32  C1  UNL     1     129.963   9.992  73.573  1.00  0.00     0.205 C 
ENDBRANCH   1  31
TORSDOF 8
ENDMDL
