MODEL 1
REMARK VINA RESULT: -8.239202444      0.000      0.000
REMARK  5 active torsions:
REMARK  status: ('A' for Active; 'I' for Inactive)
REMARK    1  A    between atoms: N1_6  and  C6_7 
REMARK    2  A    between atoms: C6_7  and  C7_8 
REMARK    3  A    between atoms: C6_7  and  C10_14 
REMARK    4  A    between atoms: C7_8  and  C8_9 
REMARK    5  A    between atoms: C8_9  and  N2_10 
ROOT
HETATM    1  C1  UNL     1      39.676 -13.366  45.311  1.00  0.00     0.012 C 
HETATM    2  C2  UNL     1      39.900 -14.147  44.411  1.00  0.00    -0.112 C 
HETATM    3  C3  UNL     1      40.173 -15.083  43.352  1.00  0.00     0.070 C 
HETATM    4  C4  UNL     1      39.459 -16.380  43.636  1.00  0.00     0.061 C 
HETATM    5  C5  UNL     1      39.736 -17.461  42.630  1.00  0.00     0.065 C 
HETATM    6  N1  UNL     1      40.991 -17.501  42.048  1.00  0.00    -0.363 N 
HETATM    7  C20 UNL     1      41.685 -16.243  41.920  1.00  0.00     0.129 C 
HETATM    8  C21 UNL     1      41.640 -15.434  43.217  1.00  0.00     0.038 C 
ENDROOT
BRANCH   6   9
HETATM    9  C6  UNL     1      41.823 -18.633  42.082  1.00  0.00     0.017 C 
BRANCH   9  10
HETATM   10  C7  UNL     1      43.143 -18.579  41.444  1.00  0.00     0.026 C 
BRANCH  10  11
HETATM   11  C8  UNL     1      43.358 -18.869  40.023  1.00  0.00     0.261 C 
BRANCH  11  12
HETATM   12  N2  UNL     1      42.199 -19.720  39.635  1.00  0.00    -0.076 N 
HETATM   13  C9  UNL     1      42.729 -20.996  39.197  1.00  0.00     0.267 C 
ATOM     14  H22 UNL     1      41.505 -19.810  40.377  1.00  0.00     0.276 HD
ATOM     15  H21 UNL     1      41.595 -19.279  38.941  1.00  0.00     0.276 HD
ENDBRANCH  11  12
ENDBRANCH  10  11
ENDBRANCH   9  10
BRANCH   9  16
HETATM   16  C10 UNL     1      41.739 -19.470  43.361  1.00  0.00     0.003 C 
HETATM   17  C11 UNL     1      40.375 -19.988  43.626  1.00  0.00     0.020 C 
HETATM   18  C12 UNL     1      40.382 -20.895  44.843  1.00  0.00    -0.013 C 
HETATM   19  C13 UNL     1      41.276 -22.082  44.677  1.00  0.00     0.009 C 
HETATM   20  C17 UNL     1      40.842 -20.058  46.009  1.00  0.00     0.009 C 
HETATM   21  C14 UNL     1      42.677 -21.568  44.385  1.00  0.00    -0.013 C 
HETATM   22  C15 UNL     1      43.149 -20.838  45.598  1.00  0.00     0.009 C 
HETATM   23  C19 UNL     1      42.597 -20.745  43.144  1.00  0.00     0.020 C 
HETATM   24  C16 UNL     1      42.263 -19.629  45.776  1.00  0.00    -0.013 C 
HETATM   25  C18 UNL     1      42.415 -18.810  44.513  1.00  0.00     0.020 C 
ENDBRANCH   9  16
ENDBRANCH   6   9
TORSDOF 5
ENDMDL
MODEL 2
REMARK VINA RESULT: -8.165258163      2.415      5.347
REMARK  5 active torsions:
REMARK  status: ('A' for Active; 'I' for Inactive)
REMARK    1  A    between atoms: N1_6  and  C6_7 
REMARK    2  A    between atoms: C6_7  and  C7_8 
REMARK    3  A    between atoms: C6_7  and  C10_14 
REMARK    4  A    between atoms: C7_8  and  C8_9 
REMARK    5  A    between atoms: C8_9  and  N2_10 
ROOT
HETATM    1  C1  UNL     1      43.627 -21.427  35.589  1.00  0.00     0.012 C 
HETATM    2  C2  UNL     1      43.404 -21.521  36.777  1.00  0.00    -0.112 C 
HETATM    3  C3  UNL     1      43.140 -21.619  38.188  1.00  0.00     0.070 C 
HETATM    4  C4  UNL     1      41.741 -21.134  38.468  1.00  0.00     0.061 C 
HETATM    5  C5  UNL     1      41.381 -21.119  39.927  1.00  0.00     0.065 C 
HETATM    6  N1  UNL     1      42.383 -20.839  40.841  1.00  0.00    -0.363 N 
HETATM    7  C20 UNL     1      43.724 -21.208  40.462  1.00  0.00     0.129 C 
HETATM    8  C21 UNL     1      44.057 -20.764  39.038  1.00  0.00     0.038 C 
ENDROOT
BRANCH   6   9
HETATM    9  C6  UNL     1      42.300 -19.800  41.784  1.00  0.00     0.017 C 
BRANCH   9  10
HETATM   10  C7  UNL     1      41.545 -18.586  41.455  1.00  0.00     0.026 C 
BRANCH  10  11
HETATM   11  C8  UNL     1      42.184 -17.322  41.076  1.00  0.00     0.261 C 
BRANCH  11  12
HETATM   12  N2  UNL     1      42.518 -17.491  39.635  1.00  0.00    -0.076 N 
HETATM   13  C9  UNL     1      43.888 -17.052  39.456  1.00  0.00     0.267 C 
ATOM     14  H22 UNL     1      42.356 -18.439  39.296  1.00  0.00     0.276 HD
ATOM     15  H21 UNL     1      41.863 -17.014  39.015  1.00  0.00     0.276 HD
ENDBRANCH  11  12
ENDBRANCH  10  11
ENDBRANCH   9  10
BRANCH   9  16
HETATM   16  C10 UNL     1      42.237 -20.245  43.246  1.00  0.00     0.003 C 
HETATM   17  C11 UNL     1      43.554 -20.191  43.927  1.00  0.00     0.020 C 
HETATM   18  C12 UNL     1      43.404 -20.539  45.396  1.00  0.00    -0.013 C 
HETATM   19  C13 UNL     1      42.496 -19.600  46.125  1.00  0.00     0.009 C 
HETATM   20  C17 UNL     1      42.858 -21.942  45.459  1.00  0.00     0.009 C 
HETATM   21  C14 UNL     1      41.144 -19.630  45.428  1.00  0.00    -0.013 C 
HETATM   22  C15 UNL     1      40.580 -21.000  45.602  1.00  0.00     0.009 C 
HETATM   23  C19 UNL     1      41.367 -19.214  44.013  1.00  0.00     0.020 C 
HETATM   24  C16 UNL     1      41.480 -21.961  44.863  1.00  0.00    -0.013 C 
HETATM   25  C18 UNL     1      41.473 -21.513  43.418  1.00  0.00     0.020 C 
ENDBRANCH   9  16
ENDBRANCH   6   9
TORSDOF 5
ENDMDL
MODEL 3
REMARK VINA RESULT: -8.132700877      2.410      5.101
REMARK  5 active torsions:
REMARK  status: ('A' for Active; 'I' for Inactive)
REMARK    1  A    between atoms: N1_6  and  C6_7 
REMARK    2  A    between atoms: C6_7  and  C7_8 
REMARK    3  A    between atoms: C6_7  and  C10_14 
REMARK    4  A    between atoms: C7_8  and  C8_9 
REMARK    5  A    between atoms: C8_9  and  N2_10 
ROOT
HETATM    1  C1  UNL     1      43.626 -21.437  35.666  1.00  0.00     0.012 C 
HETATM    2  C2  UNL     1      43.398 -21.521  36.854  1.00  0.00    -0.112 C 
HETATM    3  C3  UNL     1      43.128 -21.607  38.265  1.00  0.00     0.070 C 
HETATM    4  C4  UNL     1      41.721 -21.137  38.532  1.00  0.00     0.061 C 
HETATM    5  C5  UNL     1      41.352 -21.110  39.989  1.00  0.00     0.065 C 
HETATM    6  N1  UNL     1      42.346 -20.807  40.904  1.00  0.00    -0.363 N 
HETATM    7  C20 UNL     1      43.694 -21.164  40.537  1.00  0.00     0.129 C 
HETATM    8  C21 UNL     1      44.029 -20.731  39.109  1.00  0.00     0.038 C 
ENDROOT
BRANCH   6   9
HETATM    9  C6  UNL     1      42.245 -19.758  41.835  1.00  0.00     0.017 C 
BRANCH   9  10
HETATM   10  C7  UNL     1      41.551 -18.522  41.457  1.00  0.00     0.026 C 
BRANCH  10  11
HETATM   11  C8  UNL     1      42.254 -17.287  41.096  1.00  0.00     0.261 C 
BRANCH  11  12
HETATM   12  N2  UNL     1      42.537 -17.430  39.641  1.00  0.00    -0.076 N 
HETATM   13  C9  UNL     1      43.912 -17.027  39.427  1.00  0.00     0.267 C 
ATOM     14  H22 UNL     1      42.335 -18.365  39.286  1.00  0.00     0.276 HD
ATOM     15  H21 UNL     1      41.876 -16.920  39.055  1.00  0.00     0.276 HD
ENDBRANCH  11  12
ENDBRANCH  10  11
ENDBRANCH   9  10
BRANCH   9  16
HETATM   16  C10 UNL     1      42.084 -20.190  43.294  1.00  0.00     0.003 C 
HETATM   17  C11 UNL     1      41.576 -21.577  43.436  1.00  0.00     0.020 C 
HETATM   18  C12 UNL     1      41.542 -21.980  44.899  1.00  0.00    -0.013 C 
HETATM   19  C13 UNL     1      42.891 -21.940  45.544  1.00  0.00     0.009 C 
HETATM   20  C17 UNL     1      40.607 -21.024  45.594  1.00  0.00     0.009 C 
HETATM   21  C14 UNL     1      43.435 -20.527  45.390  1.00  0.00    -0.013 C 
HETATM   22  C15 UNL     1      42.552 -19.619  46.179  1.00  0.00     0.009 C 
HETATM   23  C19 UNL     1      43.499 -20.234  43.930  1.00  0.00     0.020 C 
HETATM   24  C16 UNL     1      41.186 -19.639  45.536  1.00  0.00    -0.013 C 
HETATM   25  C18 UNL     1      41.386 -19.160  44.114  1.00  0.00     0.020 C 
ENDBRANCH   9  16
ENDBRANCH   6   9
TORSDOF 5
ENDMDL
MODEL 4
REMARK VINA RESULT: -8.061979383      1.028      1.092
REMARK  5 active torsions:
REMARK  status: ('A' for Active; 'I' for Inactive)
REMARK    1  A    between atoms: N1_6  and  C6_7 
REMARK    2  A    between atoms: C6_7  and  C7_8 
REMARK    3  A    between atoms: C6_7  and  C10_14 
REMARK    4  A    between atoms: C7_8  and  C8_9 
REMARK    5  A    between atoms: C8_9  and  N2_10 
ROOT
HETATM    1  C1  UNL     1      40.285 -13.542  44.962  1.00  0.00     0.012 C 
HETATM    2  C2  UNL     1      40.263 -14.427  44.133  1.00  0.00    -0.112 C 
HETATM    3  C3  UNL     1      40.244 -15.485  43.158  1.00  0.00     0.070 C 
HETATM    4  C4  UNL     1      39.357 -16.600  43.649  1.00  0.00     0.061 C 
HETATM    5  C5  UNL     1      39.322 -17.797  42.742  1.00  0.00     0.065 C 
HETATM    6  N1  UNL     1      40.474 -18.116  42.043  1.00  0.00    -0.363 N 
HETATM    7  C20 UNL     1      41.354 -17.022  41.712  1.00  0.00     0.129 C 
HETATM    8  C21 UNL     1      41.602 -16.109  42.913  1.00  0.00     0.038 C 
ENDROOT
BRANCH   6   9
HETATM    9  C6  UNL     1      41.098 -19.374  42.113  1.00  0.00     0.017 C 
BRANCH   9  10
HETATM   10  C7  UNL     1      42.153 -19.711  41.152  1.00  0.00     0.026 C 
BRANCH  10  11
HETATM   11  C8  UNL     1      41.889 -20.376  39.872  1.00  0.00     0.261 C 
BRANCH  11  12
HETATM   12  N2  UNL     1      40.535 -20.974  40.035  1.00  0.00    -0.076 N 
HETATM   13  C9  UNL     1      39.810 -20.744  38.801  1.00  0.00     0.267 C 
ATOM     14  H22 UNL     1      40.563 -21.958  40.303  1.00  0.00     0.276 HD
ATOM     15  H21 UNL     1      40.041 -20.626  40.857  1.00  0.00     0.276 HD
ENDBRANCH  11  12
ENDBRANCH  10  11
ENDBRANCH   9  10
BRANCH   9  16
HETATM   16  C10 UNL     1      41.282 -19.936  43.525  1.00  0.00     0.003 C 
HETATM   17  C11 UNL     1      40.015 -20.415  44.129  1.00  0.00     0.020 C 
HETATM   18  C12 UNL     1      40.282 -21.056  45.478  1.00  0.00    -0.013 C 
HETATM   19  C13 UNL     1      41.197 -22.235  45.389  1.00  0.00     0.009 C 
HETATM   20  C17 UNL     1      40.891 -19.992  46.355  1.00  0.00     0.009 C 
HETATM   21  C14 UNL     1      42.497 -21.765  44.754  1.00  0.00    -0.013 C 
HETATM   22  C15 UNL     1      43.131 -20.796  45.695  1.00  0.00     0.009 C 
HETATM   23  C19 UNL     1      42.158 -21.211  43.411  1.00  0.00     0.020 C 
HETATM   24  C16 UNL     1      42.224 -19.593  45.790  1.00  0.00    -0.013 C 
HETATM   25  C18 UNL     1      42.110 -19.043  44.384  1.00  0.00     0.020 C 
ENDBRANCH   9  16
ENDBRANCH   6   9
TORSDOF 5
ENDMDL
MODEL 5
REMARK VINA RESULT: -7.751942691      0.272      1.516
REMARK  5 active torsions:
REMARK  status: ('A' for Active; 'I' for Inactive)
REMARK    1  A    between atoms: N1_6  and  C6_7 
REMARK    2  A    between atoms: C6_7  and  C7_8 
REMARK    3  A    between atoms: C6_7  and  C10_14 
REMARK    4  A    between atoms: C7_8  and  C8_9 
REMARK    5  A    between atoms: C8_9  and  N2_10 
ROOT
HETATM    1  C1  UNL     1      39.662 -13.583  45.090  1.00  0.00     0.012 C 
HETATM    2  C2  UNL     1      39.915 -14.370  44.203  1.00  0.00    -0.112 C 
HETATM    3  C3  UNL     1      40.222 -15.311  43.158  1.00  0.00     0.070 C 
HETATM    4  C4  UNL     1      39.563 -16.631  43.467  1.00  0.00     0.061 C 
HETATM    5  C5  UNL     1      39.880 -17.717  42.477  1.00  0.00     0.065 C 
HETATM    6  N1  UNL     1      41.133 -17.714  41.889  1.00  0.00    -0.363 N 
HETATM    7  C20 UNL     1      41.774 -16.431  41.738  1.00  0.00     0.129 C 
HETATM    8  C21 UNL     1      41.701 -15.604  43.021  1.00  0.00     0.038 C 
ENDROOT
BRANCH   6   9
HETATM    9  C6  UNL     1      42.012 -18.811  41.938  1.00  0.00     0.017 C 
BRANCH   9  10
HETATM   10  C7  UNL     1      43.294 -18.741  41.229  1.00  0.00     0.026 C 
BRANCH  10  11
HETATM   11  C8  UNL     1      43.454 -19.126  39.823  1.00  0.00     0.261 C 
BRANCH  11  12
HETATM   12  N2  UNL     1      42.293 -20.016  39.545  1.00  0.00    -0.076 N 
HETATM   13  C9  UNL     1      42.793 -21.160  38.810  1.00  0.00     0.267 C 
ATOM     14  H22 UNL     1      41.780 -20.277  40.387  1.00  0.00     0.276 HD
ATOM     15  H21 UNL     1      41.530 -19.538  39.067  1.00  0.00     0.276 HD
ENDBRANCH  11  12
ENDBRANCH  10  11
ENDBRANCH   9  10
BRANCH   9  16
HETATM   16  C10 UNL     1      42.026 -19.580  43.261  1.00  0.00     0.003 C 
HETATM   17  C11 UNL     1      42.358 -18.725  44.426  1.00  0.00     0.020 C 
HETATM   18  C12 UNL     1      42.249 -19.520  45.714  1.00  0.00    -0.013 C 
HETATM   19  C13 UNL     1      40.875 -20.064  45.947  1.00  0.00     0.009 C 
HETATM   20  C17 UNL     1      43.243 -20.649  45.615  1.00  0.00     0.009 C 
HETATM   21  C14 UNL     1      40.512 -20.930  44.750  1.00  0.00    -0.013 C 
HETATM   22  C15 UNL     1      41.443 -22.097  44.742  1.00  0.00     0.009 C 
HETATM   23  C19 UNL     1      40.578 -20.062  43.539  1.00  0.00     0.020 C 
HETATM   24  C16 UNL     1      42.835 -21.567  44.498  1.00  0.00    -0.013 C 
HETATM   25  C18 UNL     1      42.785 -20.859  43.162  1.00  0.00     0.020 C 
ENDBRANCH   9  16
ENDBRANCH   6   9
TORSDOF 5
ENDMDL
