MODEL 1
REMARK VINA RESULT: -8.110633569      0.000      0.000
REMARK  8 active torsions:
REMARK  status: ('A' for Active; 'I' for Inactive)
REMARK    1  A    between atoms: C2_2  and  C3_3 
REMARK    2  A    between atoms: C3_3  and  C4_4 
REMARK    3  A    between atoms: C4_4  and  N1_5 
REMARK    4  A    between atoms: N1_5  and  C5_6 
REMARK       I    between atoms: N1_5  and  C8_10 
REMARK    5  A    between atoms: C5_6  and  C6_7 
REMARK    6  A    between atoms: C8_10  and  C9_12 
REMARK    7  A    between atoms: C9_12  and  O2_13 
REMARK    8  A    between atoms: C20_25  and  C21_26 
ROOT
HETATM    1  C6  UNL     1      -4.195   0.792  13.074  1.00  0.00     0.143 C 
HETATM    2  C7  UNL     1      -4.575   0.598  11.712  1.00  0.00     0.060 C 
HETATM    3  N2  UNL     1      -4.871   0.415  10.617  1.00  0.00    -0.197 NA
ENDROOT
BRANCH   1   4
HETATM    4  C5  UNL     1      -4.774   1.943  13.786  1.00  0.00     0.140 C 
BRANCH   4   5
HETATM    5  N1  UNL     1      -3.945   2.762  14.591  1.00  0.00    -0.349 N 
HETATM    6  C8  UNL     1      -2.928   3.663  14.264  1.00  0.00     0.255 C 
HETATM    7  O1  UNL     1      -2.277   4.119  15.291  1.00  0.00    -0.270 OA
BRANCH   5   8
HETATM    8  C4  UNL     1      -4.167   2.567  16.060  1.00  0.00     0.126 C 
BRANCH   8   9
HETATM    9  C3  UNL     1      -5.569   2.959  16.419  1.00  0.00     0.020 C 
BRANCH   9  10
HETATM   10  C2  UNL     1      -6.045   2.124  17.569  1.00  0.00    -0.003 C 
HETATM   11  C1  UNL     1      -7.050   1.085  17.168  1.00  0.00     0.005 C 
ENDBRANCH   9  10
ENDBRANCH   8   9
ENDBRANCH   5   8
BRANCH   6  12
HETATM   12  C9  UNL     1      -2.484   4.181  12.957  1.00  0.00     0.146 C 
HETATM   13  C10 UNL     1      -1.183   4.977  13.266  1.00  0.00     0.049 C 
HETATM   14  C11 UNL     1      -0.573   5.462  11.988  1.00  0.00     0.004 C 
HETATM   15  C12 UNL     1      -1.595   5.811  10.932  1.00  0.00     0.010 C 
HETATM   16  C13 UNL     1      -2.848   6.295  11.600  1.00  0.00    -0.029 C 
HETATM   17  C14 UNL     1      -2.478   7.437  12.469  1.00  0.00     0.016 C 
HETATM   18  C15 UNL     1      -3.870   6.796  10.583  1.00  0.00    -0.001 C 
HETATM   19  C30 UNL     1      -3.480   5.109  12.289  1.00  0.00     0.004 C 
HETATM   20  C16 UNL     1      -3.384   7.979   9.785  1.00  0.00     0.006 C 
HETATM   21  C27 UNL     1      -5.105   7.256  11.315  1.00  0.00    -0.005 C 
HETATM   22  C17 UNL     1      -4.229   9.197   9.855  1.00  0.00     0.010 C 
HETATM   23  C18 UNL     1      -5.716   8.968   9.674  1.00  0.00    -0.036 C 
HETATM   24  C19 UNL     1      -6.408  10.110  10.384  1.00  0.00     0.016 C 
HETATM   25  C20 UNL     1      -6.099   8.757   8.263  1.00  0.00    -0.003 C 
HETATM   26  C26 UNL     1      -6.185   7.705  10.410  1.00  0.00    -0.002 C 
HETATM   27  C24 UNL     1      -7.288   7.791   8.363  1.00  0.00     0.006 C 
HETATM   28  C25 UNL     1      -6.644   6.790   9.342  1.00  0.00     0.006 C 
HETATM   29  C28 UNL     1      -5.624   6.355  12.369  1.00  0.00     0.006 C 
HETATM   30  C29 UNL     1      -4.581   5.597  13.164  1.00  0.00     0.014 C 
HETATM   31  C31 UNL     1      -4.203   4.254  11.236  1.00  0.00     0.020 C 
BRANCH  12  32
HETATM   32  O2  UNL     1      -2.026   3.218  12.078  1.00  0.00    -0.379 OA
ATOM     33  H2  UNL     1      -1.379   3.524  11.455  1.00  0.00     0.211 HD
ENDBRANCH  12  32
BRANCH  25  34
HETATM   34  C21 UNL     1      -6.385   9.921   7.404  1.00  0.00    -0.018 C 
HETATM   35  C22 UNL     1      -5.293   9.898   6.302  1.00  0.00     0.010 C 
HETATM   36  C23 UNL     1      -7.677   9.874   6.632  1.00  0.00     0.010 C 
ENDBRANCH  25  34
ENDBRANCH   6  12
ENDBRANCH   4   5
ENDBRANCH   1   4
TORSDOF 8
ENDMDL
MODEL 2
REMARK VINA RESULT: -8.057836478      1.306      1.443
REMARK  8 active torsions:
REMARK  status: ('A' for Active; 'I' for Inactive)
REMARK    1  A    between atoms: C2_2  and  C3_3 
REMARK    2  A    between atoms: C3_3  and  C4_4 
REMARK    3  A    between atoms: C4_4  and  N1_5 
REMARK    4  A    between atoms: N1_5  and  C5_6 
REMARK       I    between atoms: N1_5  and  C8_10 
REMARK    5  A    between atoms: C5_6  and  C6_7 
REMARK    6  A    between atoms: C8_10  and  C9_12 
REMARK    7  A    between atoms: C9_12  and  O2_13 
REMARK    8  A    between atoms: C20_25  and  C21_26 
ROOT
HETATM    1  C6  UNL     1      -4.278   1.233  13.274  1.00  0.00     0.143 C 
HETATM    2  C7  UNL     1      -4.381   0.347  14.388  1.00  0.00     0.060 C 
HETATM    3  N2  UNL     1      -4.443  -0.384  15.273  1.00  0.00    -0.197 NA
ENDROOT
BRANCH   1   4
HETATM    4  C5  UNL     1      -4.858   2.578  13.417  1.00  0.00     0.140 C 
BRANCH   4   5
HETATM    5  N1  UNL     1      -4.120   3.598  14.065  1.00  0.00    -0.349 N 
HETATM    6  C8  UNL     1      -3.206   4.538  13.579  1.00  0.00     0.255 C 
HETATM    7  O1  UNL     1      -2.605   5.218  14.506  1.00  0.00    -0.270 OA
BRANCH   5   8
HETATM    8  C4  UNL     1      -4.314   3.618  15.550  1.00  0.00     0.126 C 
BRANCH   8   9
HETATM    9  C3  UNL     1      -5.772   3.490  15.874  1.00  0.00     0.020 C 
BRANCH   9  10
HETATM   10  C2  UNL     1      -5.948   2.567  17.042  1.00  0.00    -0.003 C 
HETATM   11  C1  UNL     1      -7.049   1.568  16.845  1.00  0.00     0.005 C 
ENDBRANCH   9  10
ENDBRANCH   8   9
ENDBRANCH   5   8
BRANCH   6  12
HETATM   12  C9  UNL     1      -2.824   4.883  12.197  1.00  0.00     0.146 C 
HETATM   13  C10 UNL     1      -1.498   5.685  12.340  1.00  0.00     0.049 C 
HETATM   14  C11 UNL     1      -0.950   5.999  10.982  1.00  0.00     0.004 C 
HETATM   15  C12 UNL     1      -2.022   6.235   9.944  1.00  0.00     0.010 C 
HETATM   16  C13 UNL     1      -3.232   6.822  10.610  1.00  0.00    -0.029 C 
HETATM   17  C14 UNL     1      -2.801   8.054  11.313  1.00  0.00     0.016 C 
HETATM   18  C15 UNL     1      -4.299   7.216   9.592  1.00  0.00    -0.001 C 
HETATM   19  C30 UNL     1      -3.842   5.742  11.471  1.00  0.00     0.004 C 
HETATM   20  C16 UNL     1      -3.839   8.282   8.632  1.00  0.00     0.006 C 
HETATM   21  C27 UNL     1      -5.487   7.785  10.324  1.00  0.00    -0.005 C 
HETATM   22  C17 UNL     1      -4.663   9.516   8.594  1.00  0.00     0.010 C 
HETATM   23  C18 UNL     1      -6.161   9.295   8.517  1.00  0.00    -0.036 C 
HETATM   24  C19 UNL     1      -6.799  10.529   9.116  1.00  0.00     0.016 C 
HETATM   25  C20 UNL     1      -6.620   8.922   7.164  1.00  0.00    -0.003 C 
HETATM   26  C26 UNL     1      -6.608   8.141   9.426  1.00  0.00    -0.002 C 
HETATM   27  C24 UNL     1      -7.815   7.999   7.443  1.00  0.00     0.006 C 
HETATM   28  C25 UNL     1      -7.133   7.112   8.503  1.00  0.00     0.006 C 
HETATM   29  C28 UNL     1      -5.962   7.031  11.506  1.00  0.00     0.006 C 
HETATM   30  C29 UNL     1      -4.888   6.354  12.334  1.00  0.00     0.014 C 
HETATM   31  C31 UNL     1      -4.630   4.779  10.568  1.00  0.00     0.020 C 
BRANCH  12  32
HETATM   32  O2  UNL     1      -2.426   3.811  11.421  1.00  0.00    -0.379 OA
ATOM     33  H2  UNL     1      -2.146   4.038  10.542  1.00  0.00     0.211 HD
ENDBRANCH  12  32
BRANCH  25  34
HETATM   34  C21 UNL     1      -6.936   9.977   6.185  1.00  0.00    -0.018 C 
HETATM   35  C22 UNL     1      -6.170   9.582   4.894  1.00  0.00     0.010 C 
HETATM   36  C23 UNL     1      -8.372  10.063   5.740  1.00  0.00     0.010 C 
ENDBRANCH  25  34
ENDBRANCH   6  12
ENDBRANCH   4   5
ENDBRANCH   1   4
TORSDOF 8
ENDMDL
MODEL 3
REMARK VINA RESULT: -8.018796998      1.815      2.381
REMARK  8 active torsions:
REMARK  status: ('A' for Active; 'I' for Inactive)
REMARK    1  A    between atoms: C2_2  and  C3_3 
REMARK    2  A    between atoms: C3_3  and  C4_4 
REMARK    3  A    between atoms: C4_4  and  N1_5 
REMARK    4  A    between atoms: N1_5  and  C5_6 
REMARK       I    between atoms: N1_5  and  C8_10 
REMARK    5  A    between atoms: C5_6  and  C6_7 
REMARK    6  A    between atoms: C8_10  and  C9_12 
REMARK    7  A    between atoms: C9_12  and  O2_13 
REMARK    8  A    between atoms: C20_25  and  C21_26 
ROOT
HETATM    1  C6  UNL     1      -3.824   1.218  12.916  1.00  0.00     0.143 C 
HETATM    2  C7  UNL     1      -4.234   0.460  14.053  1.00  0.00     0.060 C 
HETATM    3  N2  UNL     1      -4.545  -0.171  14.963  1.00  0.00    -0.197 NA
ENDROOT
BRANCH   1   4
HETATM    4  C5  UNL     1      -4.210   2.638  12.869  1.00  0.00     0.140 C 
BRANCH   4   5
HETATM    5  N1  UNL     1      -3.246   3.639  13.142  1.00  0.00    -0.349 N 
HETATM    6  C8  UNL     1      -2.534   4.498  12.300  1.00  0.00     0.255 C 
HETATM    7  O1  UNL     1      -1.610   5.182  12.904  1.00  0.00    -0.270 OA
BRANCH   5   8
HETATM    8  C4  UNL     1      -2.889   3.738  14.593  1.00  0.00     0.126 C 
BRANCH   8   9
HETATM    9  C3  UNL     1      -4.132   3.901  15.413  1.00  0.00     0.020 C 
BRANCH   9  10
HETATM   10  C2  UNL     1      -4.736   5.248  15.148  1.00  0.00    -0.003 C 
HETATM   11  C1  UNL     1      -6.178   5.179  14.741  1.00  0.00     0.005 C 
ENDBRANCH   9  10
ENDBRANCH   8   9
ENDBRANCH   5   8
BRANCH   6  12
HETATM   12  C9  UNL     1      -2.665   4.758  10.854  1.00  0.00     0.146 C 
HETATM   13  C10 UNL     1      -1.306   5.393  10.440  1.00  0.00     0.049 C 
HETATM   14  C11 UNL     1      -1.278   5.600   8.957  1.00  0.00     0.004 C 
HETATM   15  C12 UNL     1      -2.629   5.941   8.375  1.00  0.00     0.010 C 
HETATM   16  C13 UNL     1      -3.431   6.690   9.399  1.00  0.00    -0.029 C 
HETATM   17  C14 UNL     1      -2.641   7.877   9.803  1.00  0.00     0.016 C 
HETATM   18  C15 UNL     1      -4.755   7.187   8.823  1.00  0.00    -0.001 C 
HETATM   19  C30 UNL     1      -3.784   5.717  10.498  1.00  0.00     0.004 C 
HETATM   20  C16 UNL     1      -4.580   8.163   7.687  1.00  0.00     0.006 C 
HETATM   21  C27 UNL     1      -5.514   7.919   9.899  1.00  0.00    -0.005 C 
HETATM   22  C17 UNL     1      -5.223   9.488   7.870  1.00  0.00     0.010 C 
HETATM   23  C18 UNL     1      -6.654   9.453   8.369  1.00  0.00    -0.036 C 
HETATM   24  C19 UNL     1      -6.887  10.772   9.072  1.00  0.00     0.016 C 
HETATM   25  C20 UNL     1      -7.624   9.104   7.312  1.00  0.00    -0.003 C 
HETATM   26  C26 UNL     1      -6.845   8.388   9.457  1.00  0.00    -0.002 C 
HETATM   27  C24 UNL     1      -8.718   8.345   8.076  1.00  0.00     0.006 C 
HETATM   28  C25 UNL     1      -7.785   7.408   8.870  1.00  0.00     0.006 C 
HETATM   29  C28 UNL     1      -5.587   7.260  11.223  1.00  0.00     0.006 C 
HETATM   30  C29 UNL     1      -4.359   6.477  11.641  1.00  0.00     0.014 C 
HETATM   31  C31 UNL     1      -4.950   4.837  10.021  1.00  0.00     0.020 C 
BRANCH  12  32
HETATM   32  O2  UNL     1      -2.703   3.625  10.064  1.00  0.00    -0.379 OA
ATOM     33  H2  UNL     1      -2.512   2.815  10.521  1.00  0.00     0.211 HD
ENDBRANCH  12  32
BRANCH  25  34
HETATM   34  C21 UNL     1      -8.171  10.165   6.446  1.00  0.00    -0.018 C 
HETATM   35  C22 UNL     1      -7.555   9.911   5.045  1.00  0.00     0.010 C 
HETATM   36  C23 UNL     1      -9.657  10.122   6.201  1.00  0.00     0.010 C 
ENDBRANCH  25  34
ENDBRANCH   6  12
ENDBRANCH   4   5
ENDBRANCH   1   4
TORSDOF 8
ENDMDL
MODEL 4
REMARK VINA RESULT: -7.536391965      2.553      3.835
REMARK  8 active torsions:
REMARK  status: ('A' for Active; 'I' for Inactive)
REMARK    1  A    between atoms: C2_2  and  C3_3 
REMARK    2  A    between atoms: C3_3  and  C4_4 
REMARK    3  A    between atoms: C4_4  and  N1_5 
REMARK    4  A    between atoms: N1_5  and  C5_6 
REMARK       I    between atoms: N1_5  and  C8_10 
REMARK    5  A    between atoms: C5_6  and  C6_7 
REMARK    6  A    between atoms: C8_10  and  C9_12 
REMARK    7  A    between atoms: C9_12  and  O2_13 
REMARK    8  A    between atoms: C20_25  and  C21_26 
ROOT
HETATM    1  C6  UNL     1      -4.234   1.149  13.598  1.00  0.00     0.143 C 
HETATM    2  C7  UNL     1      -4.848   1.609  12.395  1.00  0.00     0.060 C 
HETATM    3  N2  UNL     1      -5.349   1.953  11.420  1.00  0.00    -0.197 NA
ENDROOT
BRANCH   1   4
HETATM    4  C5  UNL     1      -3.967   2.142  14.651  1.00  0.00     0.140 C 
BRANCH   4   5
HETATM    5  N1  UNL     1      -4.704   3.352  14.681  1.00  0.00    -0.349 N 
HETATM    6  C8  UNL     1      -4.313   4.684  14.518  1.00  0.00     0.255 C 
HETATM    7  O1  UNL     1      -5.252   5.544  14.772  1.00  0.00    -0.270 OA
BRANCH   5   8
HETATM    8  C4  UNL     1      -6.151   3.155  15.014  1.00  0.00     0.126 C 
BRANCH   8   9
HETATM    9  C3  UNL     1      -6.318   3.020  16.498  1.00  0.00     0.020 C 
BRANCH   9  10
HETATM   10  C2  UNL     1      -7.019   1.733  16.810  1.00  0.00    -0.003 C 
HETATM   11  C1  UNL     1      -6.101   0.674  17.345  1.00  0.00     0.005 C 
ENDBRANCH   9  10
ENDBRANCH   8   9
ENDBRANCH   5   8
BRANCH   6  12
HETATM   12  C9  UNL     1      -3.023   5.265  14.102  1.00  0.00     0.146 C 
HETATM   13  C10 UNL     1      -3.026   6.704  14.695  1.00  0.00     0.049 C 
HETATM   14  C11 UNL     1      -1.707   7.360  14.430  1.00  0.00     0.004 C 
HETATM   15  C12 UNL     1      -1.084   6.943  13.118  1.00  0.00     0.010 C 
HETATM   16  C13 UNL     1      -2.173   6.625  12.135  1.00  0.00    -0.029 C 
HETATM   17  C14 UNL     1      -3.041   7.821  12.028  1.00  0.00     0.016 C 
HETATM   18  C15 UNL     1      -1.610   6.333  10.747  1.00  0.00    -0.001 C 
HETATM   19  C30 UNL     1      -2.843   5.353  12.599  1.00  0.00     0.004 C 
HETATM   20  C16 UNL     1      -0.882   7.506  10.142  1.00  0.00     0.006 C 
HETATM   21  C27 UNL     1      -2.748   6.011   9.814  1.00  0.00    -0.005 C 
HETATM   22  C17 UNL     1      -1.389   7.972   8.827  1.00  0.00     0.010 C 
HETATM   23  C18 UNL     1      -1.648   6.882   7.807  1.00  0.00    -0.036 C 
HETATM   24  C19 UNL     1      -2.698   7.428   6.864  1.00  0.00     0.016 C 
HETATM   25  C20 UNL     1      -0.412   6.378   7.175  1.00  0.00    -0.003 C 
HETATM   26  C26 UNL     1      -2.301   5.650   8.451  1.00  0.00    -0.002 C 
HETATM   27  C24 UNL     1      -0.735   4.902   6.901  1.00  0.00     0.006 C 
HETATM   28  C25 UNL     1      -1.307   4.567   8.293  1.00  0.00     0.006 C 
HETATM   29  C28 UNL     1      -3.768   5.062  10.315  1.00  0.00     0.006 C 
HETATM   30  C29 UNL     1      -4.078   5.145  11.796  1.00  0.00     0.014 C 
HETATM   31  C31 UNL     1      -1.953   4.160  12.216  1.00  0.00     0.020 C 
BRANCH  12  32
HETATM   32  O2  UNL     1      -1.914   4.708  14.710  1.00  0.00    -0.379 OA
ATOM     33  H2  UNL     1      -1.761   4.998  15.600  1.00  0.00     0.211 HD
ENDBRANCH  12  32
BRANCH  25  34
HETATM   34  C21 UNL     1       0.134   7.067   5.992  1.00  0.00    -0.018 C 
HETATM   35  C22 UNL     1       1.526   7.596   6.430  1.00  0.00     0.010 C 
HETATM   36  C23 UNL     1       0.437   6.199   4.798  1.00  0.00     0.010 C 
ENDBRANCH  25  34
ENDBRANCH   6  12
ENDBRANCH   4   5
ENDBRANCH   1   4
TORSDOF 8
ENDMDL
MODEL 5
REMARK VINA RESULT: -7.415326288      2.581      7.969
REMARK  8 active torsions:
REMARK  status: ('A' for Active; 'I' for Inactive)
REMARK    1  A    between atoms: C2_2  and  C3_3 
REMARK    2  A    between atoms: C3_3  and  C4_4 
REMARK    3  A    between atoms: C4_4  and  N1_5 
REMARK    4  A    between atoms: N1_5  and  C5_6 
REMARK       I    between atoms: N1_5  and  C8_10 
REMARK    5  A    between atoms: C5_6  and  C6_7 
REMARK    6  A    between atoms: C8_10  and  C9_12 
REMARK    7  A    between atoms: C9_12  and  O2_13 
REMARK    8  A    between atoms: C20_25  and  C21_26 
ROOT
HETATM    1  C6  UNL     1      -5.960   6.887   9.406  1.00  0.00     0.143 C 
HETATM    2  C7  UNL     1      -6.806   6.469   8.335  1.00  0.00     0.060 C 
HETATM    3  N2  UNL     1      -7.508   6.125   7.492  1.00  0.00    -0.197 NA
ENDROOT
BRANCH   1   4
HETATM    4  C5  UNL     1      -4.820   7.756   9.074  1.00  0.00     0.140 C 
BRANCH   4   5
HETATM    5  N1  UNL     1      -3.543   7.187   8.847  1.00  0.00    -0.349 N 
HETATM    6  C8  UNL     1      -2.467   6.944   9.706  1.00  0.00     0.255 C 
HETATM    7  O1  UNL     1      -1.389   6.549   9.102  1.00  0.00    -0.270 OA
BRANCH   5   8
HETATM    8  C4  UNL     1      -3.291   6.850   7.410  1.00  0.00     0.126 C 
BRANCH   8   9
HETATM    9  C3  UNL     1      -3.600   8.036   6.547  1.00  0.00     0.020 C 
BRANCH   9  10
HETATM   10  C2  UNL     1      -4.522   7.626   5.439  1.00  0.00    -0.003 C 
HETATM   11  C1  UNL     1      -5.631   8.606   5.198  1.00  0.00     0.005 C 
ENDBRANCH   9  10
ENDBRANCH   8   9
ENDBRANCH   5   8
BRANCH   6  12
HETATM   12  C9  UNL     1      -2.362   7.055  11.173  1.00  0.00     0.146 C 
HETATM   13  C10 UNL     1      -0.838   6.947  11.471  1.00  0.00     0.049 C 
HETATM   14  C11 UNL     1      -0.595   7.159  12.933  1.00  0.00     0.004 C 
HETATM   15  C12 UNL     1      -1.709   6.633  13.808  1.00  0.00     0.010 C 
HETATM   16  C13 UNL     1      -2.343   5.449  13.138  1.00  0.00    -0.029 C 
HETATM   17  C14 UNL     1      -1.273   4.458  12.877  1.00  0.00     0.016 C 
HETATM   18  C15 UNL     1      -3.383   4.785  14.037  1.00  0.00    -0.001 C 
HETATM   19  C30 UNL     1      -3.089   5.960  11.929  1.00  0.00     0.004 C 
HETATM   20  C16 UNL     1      -2.800   4.234  15.313  1.00  0.00     0.006 C 
HETATM   21  C27 UNL     1      -3.988   3.616  13.305  1.00  0.00    -0.005 C 
HETATM   22  C17 UNL     1      -3.021   2.786  15.551  1.00  0.00     0.010 C 
HETATM   23  C18 UNL     1      -4.437   2.297  15.319  1.00  0.00    -0.036 C 
HETATM   24  C19 UNL     1      -4.325   0.826  14.983  1.00  0.00     0.016 C 
HETATM   25  C20 UNL     1      -5.352   2.639  16.426  1.00  0.00    -0.003 C 
HETATM   26  C26 UNL     1      -5.058   2.940  14.071  1.00  0.00    -0.002 C 
HETATM   27  C24 UNL     1      -6.699   2.841  15.717  1.00  0.00     0.006 C 
HETATM   28  C25 UNL     1      -6.186   3.748  14.581  1.00  0.00     0.006 C 
HETATM   29  C28 UNL     1      -4.397   3.851  11.902  1.00  0.00     0.006 C 
HETATM   30  C29 UNL     1      -3.518   4.796  11.107  1.00  0.00     0.014 C 
HETATM   31  C31 UNL     1      -4.414   6.585  12.395  1.00  0.00     0.020 C 
BRANCH  12  32
HETATM   32  O2  UNL     1      -2.664   8.303  11.682  1.00  0.00    -0.379 OA
ATOM     33  H2  UNL     1      -2.350   8.460  12.564  1.00  0.00     0.211 HD
ENDBRANCH  12  32
BRANCH  25  34
HETATM   34  C21 UNL     1      -5.455   1.741  17.591  1.00  0.00    -0.018 C 
HETATM   35  C22 UNL     1      -6.169   2.573  18.690  1.00  0.00     0.010 C 
HETATM   36  C23 UNL     1      -6.338   0.533  17.423  1.00  0.00     0.010 C 
ENDBRANCH  25  34
ENDBRANCH   6  12
ENDBRANCH   4   5
ENDBRANCH   1   4
TORSDOF 8
ENDMDL
