MODEL 1
REMARK VINA RESULT: -5.919548427      0.000      0.000
REMARK  10 active torsions:
REMARK  status: ('A' for Active; 'I' for Inactive)
REMARK    1  A    between atoms: O1_2  and  C2_3 
REMARK    2  A    between atoms: C2_3  and  C3_4 
REMARK    3  A    between atoms: C3_4  and  C4_5 
REMARK    4  A    between atoms: C4_5  and  C5_6 
REMARK    5  A    between atoms: C6_7  and  C8_9 
REMARK    6  A    between atoms: C8_9  and  O2_10 
REMARK    7  A    between atoms: O2_10  and  C9_11 
REMARK    8  A    between atoms: C14_17  and  C15_18 
REMARK    9  A    between atoms: C18_25  and  N3_26 
REMARK   10  A    between atoms: C19_31  and  N5_32 
ROOT
HETATM    1  C15 UNL     1       3.020 -13.300   0.432  1.00  0.00     0.079 C 
HETATM    2  N1  UNL     1       4.026 -13.612   1.224  1.00  0.00    -0.349 N 
ATOM      3  H1  UNL     1       4.922 -13.654   0.738  1.00  0.00     0.166 HD
HETATM    4  C16 UNL     1       4.125 -13.905   2.623  1.00  0.00     0.101 A 
HETATM    5  C17 UNL     1       3.291 -13.632   3.695  1.00  0.00     0.058 A 
HETATM    6  N2  UNL     1       3.758 -14.103   4.891  1.00  0.00    -0.193 N 
ATOM      7  H2  UNL     1       3.194 -13.935   5.724  1.00  0.00     0.184 HD
HETATM    8  C18 UNL     1       4.905 -14.767   5.037  1.00  0.00     0.677 A 
HETATM    9  N4  UNL     1       5.712 -15.028   3.971  1.00  0.00    -0.175 N 
ATOM     10  H4  UNL     1       6.591 -15.535   4.077  1.00  0.00     0.186 HD
HETATM   11  C19 UNL     1       5.301 -14.590   2.793  1.00  0.00     0.143 A 
HETATM   12  C20 UNL     1       2.023 -13.007   4.081  1.00  0.00     0.075 C 
HETATM   13  C21 UNL     1       0.971 -12.832   3.083  1.00  0.00     0.102 C 
HETATM   14  N6  UNL     1       1.044 -13.631   1.876  1.00  0.00    -0.276 NA
HETATM   15  C22 UNL     1      -0.148 -14.359   1.595  1.00  0.00     0.118 C 
HETATM   16  C23 UNL     1       1.636 -12.916   0.805  1.00  0.00     0.109 C 
HETATM   17 CL2  UNL     1       0.548 -12.509  -0.490  1.00  0.00    -0.068 Cl
ENDROOT
BRANCH   1  18
HETATM   18  C14 UNL     1       3.430 -13.106  -0.930  1.00  0.00     0.028 A 
HETATM   19  C9  UNL     1       4.480 -12.273  -1.355  1.00  0.00     0.081 A 
HETATM   20  C10 UNL     1       5.010 -12.333  -2.615  1.00  0.00     0.039 A 
HETATM   21  C11 UNL     1       4.519 -13.231  -3.557  1.00  0.00     0.026 A 
HETATM   22  C12 UNL     1       3.499 -14.057  -3.187  1.00  0.00     0.035 A 
HETATM   23 CL1  UNL     1       2.905 -15.189  -4.402  1.00  0.00    -0.084 Cl
HETATM   24  C13 UNL     1       2.970 -14.004  -1.923  1.00  0.00     0.040 A 
BRANCH  19  25
HETATM   25  O2  UNL     1       4.941 -11.390  -0.445  1.00  0.00    -0.346 OA
BRANCH  25  26
HETATM   26  C8  UNL     1       6.138 -10.767  -0.237  1.00  0.00     0.209 C 
BRANCH  26  27
HETATM   27  C6  UNL     1       6.499 -10.407   1.148  1.00  0.00    -0.064 C 
HETATM   28  C5  UNL     1       7.696  -9.990   1.502  1.00  0.00    -0.022 C 
HETATM   29  C7  UNL     1       5.444 -10.522   2.194  1.00  0.00     0.045 C 
BRANCH  28  30
HETATM   30  C4  UNL     1       8.095  -9.618   2.865  1.00  0.00     0.029 C 
BRANCH  30  31
HETATM   31  C3  UNL     1       9.087  -8.487   2.947  1.00  0.00     0.030 C 
BRANCH  31  32
HETATM   32  C2  UNL     1       8.509  -7.457   3.886  1.00  0.00     0.167 C 
BRANCH  32  33
HETATM   33  O1  UNL     1       8.417  -6.184   3.271  1.00  0.00    -0.396 OA
HETATM   34  C1  UNL     1       7.079  -5.929   2.957  1.00  0.00     0.201 C 
ENDBRANCH  32  33
ENDBRANCH  31  32
ENDBRANCH  30  31
ENDBRANCH  28  30
ENDBRANCH  26  27
ENDBRANCH  25  26
ENDBRANCH  19  25
ENDBRANCH   1  18
BRANCH  11  35
HETATM   35  N5  UNL     1       6.063 -14.917   1.723  1.00  0.00    -0.383 N 
ATOM     36  H52 UNL     1       5.588 -14.975   0.822  1.00  0.00     0.157 HD
ATOM     37  H51 UNL     1       7.071 -15.037   1.826  1.00  0.00     0.157 HD
ENDBRANCH  11  35
BRANCH   8  38
HETATM   38  N3  UNL     1       5.300 -15.202   6.192  1.00  0.00    -0.234 N 
ATOM     39  H32 UNL     1       4.579 -15.548   6.826  1.00  0.00     0.174 HD
ATOM     40  H31 UNL     1       6.284 -15.195   6.462  1.00  0.00     0.174 HD
ENDBRANCH   8  38
TORSDOF 10
ENDMDL
MODEL 2
REMARK VINA RESULT: -5.775709521      1.465      1.975
REMARK  10 active torsions:
REMARK  status: ('A' for Active; 'I' for Inactive)
REMARK    1  A    between atoms: O1_2  and  C2_3 
REMARK    2  A    between atoms: C2_3  and  C3_4 
REMARK    3  A    between atoms: C3_4  and  C4_5 
REMARK    4  A    between atoms: C4_5  and  C5_6 
REMARK    5  A    between atoms: C6_7  and  C8_9 
REMARK    6  A    between atoms: C8_9  and  O2_10 
REMARK    7  A    between atoms: O2_10  and  C9_11 
REMARK    8  A    between atoms: C14_17  and  C15_18 
REMARK    9  A    between atoms: C18_25  and  N3_26 
REMARK   10  A    between atoms: C19_31  and  N5_32 
ROOT
HETATM    1  C15 UNL     1       3.138 -12.708   1.031  1.00  0.00     0.079 C 
HETATM    2  N1  UNL     1       3.692 -13.158   2.138  1.00  0.00    -0.349 N 
ATOM      3  H1  UNL     1       4.707 -13.241   2.076  1.00  0.00     0.166 HD
HETATM    4  C16 UNL     1       3.167 -13.557   3.410  1.00  0.00     0.101 A 
HETATM    5  C17 UNL     1       1.967 -13.292   4.050  1.00  0.00     0.058 A 
HETATM    6  N2  UNL     1       1.854 -13.885   5.277  1.00  0.00    -0.193 N 
ATOM      7  H2  UNL     1       0.996 -13.730   5.805  1.00  0.00     0.184 HD
HETATM    8  C18 UNL     1       2.796 -14.651   5.828  1.00  0.00     0.677 A 
HETATM    9  N4  UNL     1       3.970 -14.902   5.184  1.00  0.00    -0.175 N 
ATOM     10  H4  UNL     1       4.694 -15.488   5.600  1.00  0.00     0.186 HD
HETATM   11  C19 UNL     1       4.124 -14.349   3.992  1.00  0.00     0.143 A 
HETATM   12  C20 UNL     1       0.687 -12.592   3.924  1.00  0.00     0.075 C 
HETATM   13  C21 UNL     1       0.173 -12.259   2.598  1.00  0.00     0.102 C 
HETATM   14  N6  UNL     1       0.721 -12.973   1.462  1.00  0.00    -0.276 NA
HETATM   15  C22 UNL     1      -0.267 -13.577   0.631  1.00  0.00     0.118 C 
HETATM   16  C23 UNL     1       1.747 -12.236   0.819  1.00  0.00     0.109 C 
HETATM   17 CL2  UNL     1       1.339 -11.649  -0.766  1.00  0.00    -0.068 Cl
ENDROOT
BRANCH   1  18
HETATM   18  C14 UNL     1       4.101 -12.453  -0.003  1.00  0.00     0.028 A 
HETATM   19  C9  UNL     1       5.132 -11.499   0.061  1.00  0.00     0.081 A 
HETATM   20  C10 UNL     1       6.182 -11.483  -0.817  1.00  0.00     0.039 A 
HETATM   21  C11 UNL     1       6.275 -12.421  -1.840  1.00  0.00     0.026 A 
HETATM   22  C12 UNL     1       5.294 -13.363  -1.940  1.00  0.00     0.035 A 
HETATM   23 CL1  UNL     1       5.446 -14.543  -3.242  1.00  0.00    -0.084 Cl
HETATM   24  C13 UNL     1       4.245 -13.386  -1.058  1.00  0.00     0.040 A 
BRANCH  19  25
HETATM   25  O2  UNL     1       5.029 -10.580   1.042  1.00  0.00    -0.346 OA
BRANCH  25  26
HETATM   26  C8  UNL     1       5.728 -10.319   2.187  1.00  0.00     0.209 C 
BRANCH  26  27
HETATM   27  C6  UNL     1       6.981  -9.548   2.071  1.00  0.00    -0.064 C 
HETATM   28  C5  UNL     1       7.018  -8.254   1.834  1.00  0.00    -0.022 C 
HETATM   29  C7  UNL     1       8.267 -10.282   2.237  1.00  0.00     0.045 C 
BRANCH  28  30
HETATM   30  C4  UNL     1       8.240  -7.449   1.716  1.00  0.00     0.029 C 
BRANCH  30  31
HETATM   31  C3  UNL     1       8.082  -6.000   2.099  1.00  0.00     0.030 C 
BRANCH  31  32
HETATM   32  C2  UNL     1       6.912  -5.916   3.048  1.00  0.00     0.167 C 
BRANCH  32  33
HETATM   33  O1  UNL     1       5.908  -5.043   2.562  1.00  0.00    -0.396 OA
HETATM   34  C1  UNL     1       6.512  -4.035   1.806  1.00  0.00     0.201 C 
ENDBRANCH  32  33
ENDBRANCH  31  32
ENDBRANCH  30  31
ENDBRANCH  28  30
ENDBRANCH  26  27
ENDBRANCH  25  26
ENDBRANCH  19  25
ENDBRANCH   1  18
BRANCH  11  35
HETATM   35  N5  UNL     1       5.256 -14.662   3.319  1.00  0.00    -0.383 N 
ATOM     36  H52 UNL     1       5.401 -14.194   2.424  1.00  0.00     0.157 HD
ATOM     37  H51 UNL     1       5.943 -15.293   3.731  1.00  0.00     0.157 HD
ENDBRANCH  11  35
BRANCH   8  38
HETATM   38  N3  UNL     1       2.637 -15.199   6.991  1.00  0.00    -0.234 N 
ATOM     39  H32 UNL     1       1.681 -15.410   7.276  1.00  0.00     0.174 HD
ATOM     40  H31 UNL     1       3.429 -15.405   7.602  1.00  0.00     0.174 HD
ENDBRANCH   8  38
TORSDOF 10
ENDMDL
MODEL 3
REMARK VINA RESULT: -5.656564273      1.361      1.745
REMARK  10 active torsions:
REMARK  status: ('A' for Active; 'I' for Inactive)
REMARK    1  A    between atoms: O1_2  and  C2_3 
REMARK    2  A    between atoms: C2_3  and  C3_4 
REMARK    3  A    between atoms: C3_4  and  C4_5 
REMARK    4  A    between atoms: C4_5  and  C5_6 
REMARK    5  A    between atoms: C6_7  and  C8_9 
REMARK    6  A    between atoms: C8_9  and  O2_10 
REMARK    7  A    between atoms: O2_10  and  C9_11 
REMARK    8  A    between atoms: C14_17  and  C15_18 
REMARK    9  A    between atoms: C18_25  and  N3_26 
REMARK   10  A    between atoms: C19_31  and  N5_32 
ROOT
HETATM    1  C15 UNL     1       3.183 -12.882   0.938  1.00  0.00     0.079 C 
HETATM    2  N1  UNL     1       3.778 -13.318   2.029  1.00  0.00    -0.349 N 
ATOM      3  H1  UNL     1       4.785 -13.438   1.918  1.00  0.00     0.166 HD
HETATM    4  C16 UNL     1       3.307 -13.658   3.339  1.00  0.00     0.101 A 
HETATM    5  C17 UNL     1       2.152 -13.331   4.030  1.00  0.00     0.058 A 
HETATM    6  N2  UNL     1       2.083 -13.880   5.281  1.00  0.00    -0.193 N 
ATOM      7  H2  UNL     1       1.258 -13.679   5.846  1.00  0.00     0.184 HD
HETATM    8  C18 UNL     1       3.025 -14.662   5.808  1.00  0.00     0.677 A 
HETATM    9  N4  UNL     1       4.154 -14.975   5.113  1.00  0.00    -0.175 N 
ATOM     10  H4  UNL     1       4.879 -15.573   5.511  1.00  0.00     0.186 HD
HETATM   11  C19 UNL     1       4.266 -14.465   3.897  1.00  0.00     0.143 A 
HETATM   12  C20 UNL     1       0.891 -12.590   3.947  1.00  0.00     0.075 C 
HETATM   13  C21 UNL     1       0.321 -12.279   2.638  1.00  0.00     0.102 C 
HETATM   14  N6  UNL     1       0.784 -13.048   1.500  1.00  0.00    -0.276 NA
HETATM   15  C22 UNL     1      -0.266 -13.641   0.740  1.00  0.00     0.118 C 
HETATM   16  C23 UNL     1       1.800 -12.368   0.782  1.00  0.00     0.109 C 
HETATM   17 CL2  UNL     1       1.330 -11.816  -0.799  1.00  0.00    -0.068 Cl
ENDROOT
BRANCH   1  18
HETATM   18  C14 UNL     1       4.099 -12.694  -0.152  1.00  0.00     0.028 A 
HETATM   19  C9  UNL     1       5.105 -11.714  -0.210  1.00  0.00     0.081 A 
HETATM   20  C10 UNL     1       6.121 -11.748  -1.127  1.00  0.00     0.039 A 
HETATM   21  C11 UNL     1       6.201 -12.768  -2.069  1.00  0.00     0.026 A 
HETATM   22  C12 UNL     1       5.243 -13.739  -2.050  1.00  0.00     0.035 A 
HETATM   23 CL1  UNL     1       5.377 -15.021  -3.252  1.00  0.00    -0.084 Cl
HETATM   24  C13 UNL     1       4.228 -13.711  -1.128  1.00  0.00     0.040 A 
BRANCH  19  25
HETATM   25  O2  UNL     1       5.014 -10.716   0.693  1.00  0.00    -0.346 OA
BRANCH  25  26
HETATM   26  C8  UNL     1       5.737 -10.353   1.795  1.00  0.00     0.209 C 
BRANCH  26  27
HETATM   27  C6  UNL     1       7.137  -9.931   1.594  1.00  0.00    -0.064 C 
HETATM   28  C5  UNL     1       7.517  -9.105   0.642  1.00  0.00    -0.022 C 
HETATM   29  C7  UNL     1       8.166 -10.469   2.527  1.00  0.00     0.045 C 
BRANCH  28  30
HETATM   30  C4  UNL     1       8.895  -8.657   0.410  1.00  0.00     0.029 C 
BRANCH  30  31
HETATM   31  C3  UNL     1       9.130  -7.187   0.643  1.00  0.00     0.030 C 
BRANCH  31  32
HETATM   32  C2  UNL     1       9.648  -7.038   2.052  1.00  0.00     0.167 C 
BRANCH  32  33
HETATM   33  O1  UNL     1       8.632  -6.601   2.938  1.00  0.00    -0.396 OA
HETATM   34  C1  UNL     1       8.827  -7.206   4.183  1.00  0.00     0.201 C 
ENDBRANCH  32  33
ENDBRANCH  31  32
ENDBRANCH  30  31
ENDBRANCH  28  30
ENDBRANCH  26  27
ENDBRANCH  25  26
ENDBRANCH  19  25
ENDBRANCH   1  18
BRANCH  11  35
HETATM   35  N5  UNL     1       5.349 -14.839   3.178  1.00  0.00    -0.383 N 
ATOM     36  H52 UNL     1       5.665 -14.192   2.455  1.00  0.00     0.157 HD
ATOM     37  H51 UNL     1       5.846 -15.701   3.404  1.00  0.00     0.157 HD
ENDBRANCH  11  35
BRANCH   8  38
HETATM   38  N3  UNL     1       2.909 -15.168   6.995  1.00  0.00    -0.234 N 
ATOM     39  H32 UNL     1       2.310 -15.989   7.090  1.00  0.00     0.174 HD
ATOM     40  H31 UNL     1       3.385 -14.763   7.801  1.00  0.00     0.174 HD
ENDBRANCH   8  38
TORSDOF 10
ENDMDL
MODEL 4
REMARK VINA RESULT: -5.543220463      1.431      1.754
REMARK  10 active torsions:
REMARK  status: ('A' for Active; 'I' for Inactive)
REMARK    1  A    between atoms: O1_2  and  C2_3 
REMARK    2  A    between atoms: C2_3  and  C3_4 
REMARK    3  A    between atoms: C3_4  and  C4_5 
REMARK    4  A    between atoms: C4_5  and  C5_6 
REMARK    5  A    between atoms: C6_7  and  C8_9 
REMARK    6  A    between atoms: C8_9  and  O2_10 
REMARK    7  A    between atoms: O2_10  and  C9_11 
REMARK    8  A    between atoms: C14_17  and  C15_18 
REMARK    9  A    between atoms: C18_25  and  N3_26 
REMARK   10  A    between atoms: C19_31  and  N5_32 
ROOT
HETATM    1  C15 UNL     1       3.181 -12.905   0.859  1.00  0.00     0.079 C 
HETATM    2  N1  UNL     1       3.769 -13.344   1.952  1.00  0.00    -0.349 N 
ATOM      3  H1  UNL     1       4.777 -13.465   1.847  1.00  0.00     0.166 HD
HETATM    4  C16 UNL     1       3.291 -13.686   3.259  1.00  0.00     0.101 A 
HETATM    5  C17 UNL     1       2.132 -13.359   3.944  1.00  0.00     0.058 A 
HETATM    6  N2  UNL     1       2.055 -13.911   5.193  1.00  0.00    -0.193 N 
ATOM      7  H2  UNL     1       1.228 -13.710   5.755  1.00  0.00     0.184 HD
HETATM    8  C18 UNL     1       2.995 -14.695   5.724  1.00  0.00     0.677 A 
HETATM    9  N4  UNL     1       4.127 -15.007   5.035  1.00  0.00    -0.175 N 
ATOM     10  H4  UNL     1       4.849 -15.607   5.435  1.00  0.00     0.186 HD
HETATM   11  C19 UNL     1       4.246 -14.495   3.821  1.00  0.00     0.143 A 
HETATM   12  C20 UNL     1       0.872 -12.617   3.855  1.00  0.00     0.075 C 
HETATM   13  C21 UNL     1       0.310 -12.303   2.544  1.00  0.00     0.102 C 
HETATM   14  N6  UNL     1       0.779 -13.070   1.407  1.00  0.00    -0.276 NA
HETATM   15  C22 UNL     1      -0.267 -13.661   0.640  1.00  0.00     0.118 C 
HETATM   16  C23 UNL     1       1.799 -12.390   0.695  1.00  0.00     0.109 C 
HETATM   17 CL2  UNL     1       1.339 -11.834  -0.887  1.00  0.00    -0.068 Cl
ENDROOT
BRANCH   1  18
HETATM   18  C14 UNL     1       4.104 -12.716  -0.225  1.00  0.00     0.028 A 
HETATM   19  C9  UNL     1       5.103 -11.729  -0.282  1.00  0.00     0.081 A 
HETATM   20  C10 UNL     1       6.125 -11.760  -1.191  1.00  0.00     0.039 A 
HETATM   21  C11 UNL     1       6.220 -12.785  -2.128  1.00  0.00     0.026 A 
HETATM   22  C12 UNL     1       5.269 -13.762  -2.110  1.00  0.00     0.035 A 
HETATM   23 CL1  UNL     1       5.422 -15.051  -3.304  1.00  0.00    -0.084 Cl
HETATM   24  C13 UNL     1       4.247 -13.738  -1.195  1.00  0.00     0.040 A 
BRANCH  19  25
HETATM   25  O2  UNL     1       4.997 -10.727   0.615  1.00  0.00    -0.346 OA
BRANCH  25  26
HETATM   26  C8  UNL     1       5.580 -10.457   1.821  1.00  0.00     0.209 C 
BRANCH  26  27
HETATM   27  C6  UNL     1       6.893  -9.782   1.818  1.00  0.00    -0.064 C 
HETATM   28  C5  UNL     1       7.663  -9.687   2.882  1.00  0.00    -0.022 C 
HETATM   29  C7  UNL     1       7.365  -9.186   0.538  1.00  0.00     0.045 C 
BRANCH  28  30
HETATM   30  C4  UNL     1       8.975  -9.031   2.922  1.00  0.00     0.029 C 
BRANCH  30  31
HETATM   31  C3  UNL     1       9.051  -7.823   3.820  1.00  0.00     0.030 C 
BRANCH  31  32
HETATM   32  C2  UNL     1      10.077  -6.892   3.224  1.00  0.00     0.167 C 
BRANCH  32  33
HETATM   33  O1  UNL     1      10.158  -7.036   1.817  1.00  0.00    -0.396 OA
HETATM   34  C1  UNL     1      10.601  -5.831   1.264  1.00  0.00     0.201 C 
ENDBRANCH  32  33
ENDBRANCH  31  32
ENDBRANCH  30  31
ENDBRANCH  28  30
ENDBRANCH  26  27
ENDBRANCH  25  26
ENDBRANCH  19  25
ENDBRANCH   1  18
BRANCH  11  35
HETATM   35  N5  UNL     1       5.333 -14.868   3.107  1.00  0.00    -0.383 N 
ATOM     36  H52 UNL     1       5.275 -14.761   2.094  1.00  0.00     0.157 HD
ATOM     37  H51 UNL     1       6.179 -15.184   3.583  1.00  0.00     0.157 HD
ENDBRANCH  11  35
BRANCH   8  38
HETATM   38  N3  UNL     1       2.871 -15.203   6.909  1.00  0.00    -0.234 N 
ATOM     39  H32 UNL     1       1.928 -15.452   7.209  1.00  0.00     0.174 HD
ATOM     40  H31 UNL     1       3.675 -15.341   7.522  1.00  0.00     0.174 HD
ENDBRANCH   8  38
TORSDOF 10
ENDMDL
MODEL 5
REMARK VINA RESULT: -5.515274875      1.788      3.227
REMARK  10 active torsions:
REMARK  status: ('A' for Active; 'I' for Inactive)
REMARK    1  A    between atoms: O1_2  and  C2_3 
REMARK    2  A    between atoms: C2_3  and  C3_4 
REMARK    3  A    between atoms: C3_4  and  C4_5 
REMARK    4  A    between atoms: C4_5  and  C5_6 
REMARK    5  A    between atoms: C6_7  and  C8_9 
REMARK    6  A    between atoms: C8_9  and  O2_10 
REMARK    7  A    between atoms: O2_10  and  C9_11 
REMARK    8  A    between atoms: C14_17  and  C15_18 
REMARK    9  A    between atoms: C18_25  and  N3_26 
REMARK   10  A    between atoms: C19_31  and  N5_32 
ROOT
HETATM    1  C15 UNL     1       3.190 -13.567   0.194  1.00  0.00     0.079 C 
HETATM    2  N1  UNL     1       2.112 -13.177   0.841  1.00  0.00    -0.349 N 
ATOM      3  H1  UNL     1       1.401 -12.770   0.232  1.00  0.00     0.166 HD
HETATM    4  C16 UNL     1       1.727 -13.203   2.221  1.00  0.00     0.101 A 
HETATM    5  C17 UNL     1       2.178 -13.944   3.302  1.00  0.00     0.058 A 
HETATM    6  N2  UNL     1       1.538 -13.653   4.475  1.00  0.00    -0.193 N 
ATOM      7  H2  UNL     1       1.819 -14.163   5.312  1.00  0.00     0.184 HD
HETATM    8  C18 UNL     1       0.569 -12.744   4.594  1.00  0.00     0.677 A 
HETATM    9  N4  UNL     1       0.140 -12.024   3.521  1.00  0.00    -0.175 N 
ATOM     10  H4  UNL     1      -0.601 -11.327   3.605  1.00  0.00     0.186 HD
HETATM   11  C19 UNL     1       0.730 -12.272   2.363  1.00  0.00     0.143 A 
HETATM   12  C20 UNL     1       3.132 -14.974   3.716  1.00  0.00     0.075 C 
HETATM   13  C21 UNL     1       4.338 -15.203   2.924  1.00  0.00     0.102 C 
HETATM   14  N6  UNL     1       4.755 -14.157   2.011  1.00  0.00    -0.276 NA
HETATM   15  C22 UNL     1       6.111 -13.752   2.180  1.00  0.00     0.118 C 
HETATM   16  C23 UNL     1       4.312 -14.404   0.687  1.00  0.00     0.109 C 
HETATM   17 CL2  UNL     1       5.575 -14.788  -0.445  1.00  0.00    -0.068 Cl
ENDROOT
BRANCH   1  18
HETATM   18  C14 UNL     1       3.108 -13.313  -1.217  1.00  0.00     0.028 A 
HETATM   19  C9  UNL     1       3.976 -12.482  -1.947  1.00  0.00     0.081 A 
HETATM   20  C10 UNL     1       4.033 -12.488  -3.314  1.00  0.00     0.039 A 
HETATM   21  C11 UNL     1       3.212 -13.326  -4.061  1.00  0.00     0.026 A 
HETATM   22  C12 UNL     1       2.352 -14.148  -3.393  1.00  0.00     0.035 A 
HETATM   23 CL1  UNL     1       1.330 -15.203  -4.369  1.00  0.00    -0.084 Cl
HETATM   24  C13 UNL     1       2.298 -14.149  -2.023  1.00  0.00     0.040 A 
BRANCH  19  25
HETATM   25  O2  UNL     1       4.758 -11.658  -1.220  1.00  0.00    -0.346 OA
BRANCH  25  26
HETATM   26  C8  UNL     1       6.104 -11.432  -1.146  1.00  0.00     0.209 C 
BRANCH  26  27
HETATM   27  C6  UNL     1       6.594 -10.514  -0.099  1.00  0.00    -0.064 C 
HETATM   28  C5  UNL     1       7.732  -9.859  -0.182  1.00  0.00    -0.022 C 
HETATM   29  C7  UNL     1       5.745 -10.322   1.110  1.00  0.00     0.045 C 
BRANCH  28  30
HETATM   30  C4  UNL     1       8.254  -8.935   0.831  1.00  0.00     0.029 C 
BRANCH  30  31
HETATM   31  C3  UNL     1       8.328  -7.494   0.395  1.00  0.00     0.030 C 
BRANCH  31  32
HETATM   32  C2  UNL     1       8.041  -6.647   1.610  1.00  0.00     0.167 C 
BRANCH  32  33
HETATM   33  O1  UNL     1       7.588  -7.433   2.698  1.00  0.00    -0.396 OA
HETATM   34  C1  UNL     1       8.080  -6.886   3.887  1.00  0.00     0.201 C 
ENDBRANCH  32  33
ENDBRANCH  31  32
ENDBRANCH  30  31
ENDBRANCH  28  30
ENDBRANCH  26  27
ENDBRANCH  25  26
ENDBRANCH  19  25
ENDBRANCH   1  18
BRANCH  11  35
HETATM   35  N5  UNL     1       0.358 -11.502   1.314  1.00  0.00    -0.383 N 
ATOM     36  H52 UNL     1      -0.226 -10.692   1.525  1.00  0.00     0.157 HD
ATOM     37  H51 UNL     1       0.703 -11.706   0.376  1.00  0.00     0.157 HD
ENDBRANCH  11  35
BRANCH   8  38
HETATM   38  N3  UNL     1       0.000 -12.497   5.731  1.00  0.00    -0.234 N 
ATOM     39  H32 UNL     1      -0.552 -13.248   6.145  1.00  0.00     0.174 HD
ATOM     40  H31 UNL     1       0.091 -11.591   6.193  1.00  0.00     0.174 HD
ENDBRANCH   8  38
TORSDOF 10
ENDMDL
