MODEL 1
REMARK VINA RESULT: -6.792197992      0.000      0.000
REMARK  12 active torsions:
REMARK  status: ('A' for Active; 'I' for Inactive)
REMARK    1  A    between atoms: C9_11  and  O1_12 
REMARK    2  A    between atoms: N1_14  and  C10_15 
REMARK    3  A    between atoms: C10_15  and  C11_16 
REMARK    4  A    between atoms: C10_15  and  C16_27 
REMARK    5  A    between atoms: C11_16  and  C12_17 
REMARK    6  A    between atoms: C12_17  and  C13_18 
REMARK    7  A    between atoms: C13_18  and  C14_19 
REMARK    8  A    between atoms: C14_19  and  C15_20 
REMARK    9  A    between atoms: C15_20  and  O2_21 
REMARK   10  A    between atoms: N2_23  and  O3_25 
REMARK       I    between atoms: C16_27  and  N3_29 
REMARK   11  A    between atoms: C19_32  and  C20_33 
REMARK   12  A    between atoms: C20_33  and  O5_34 
ROOT
HETATM    1  C10 UNL     1       5.689 -12.340   1.288  1.00  0.00     0.184 C 
ENDROOT
BRANCH   1   2
HETATM    2  N1  UNL     1       5.293 -12.432  -0.097  1.00  0.00    -0.313 N 
HETATM    3  C6  UNL     1       4.121 -12.953  -0.557  1.00  0.00     0.050 A 
HETATM    4  C5  UNL     1       3.025 -13.504   0.061  1.00  0.00     0.056 A 
HETATM    5  C7  UNL     1       4.079 -12.898  -1.939  1.00  0.00     0.003 A 
HETATM    6  C4  UNL     1       1.925 -13.982  -0.669  1.00  0.00     0.058 A 
HETATM    7  C3  UNL     1       1.927 -13.905  -2.040  1.00  0.00     0.062 A 
HETATM    8 CL2  UNL     1       0.587 -14.661   0.226  1.00  0.00    -0.082 Cl
HETATM    9  C2  UNL     1       3.006 -13.362  -2.683  1.00  0.00    -0.026 A 
HETATM   10 CL1  UNL     1       0.544 -14.505  -2.959  1.00  0.00    -0.082 Cl
HETATM   11  C1  UNL     1       3.030 -13.268  -4.170  1.00  0.00     0.051 C 
HETATM   12  C8  UNL     1       5.250 -12.329  -2.347  1.00  0.00     0.070 A 
HETATM   13  C9  UNL     1       5.978 -12.052  -1.222  1.00  0.00     0.144 A 
BRANCH  13  14
HETATM   14  O1  UNL     1       7.253 -11.460  -1.188  1.00  0.00    -0.346 OA
ATOM     15  H1  UNL     1       7.434 -10.528  -1.164  1.00  0.00     0.219 HD
ENDBRANCH  13  14
ENDBRANCH   1   2
BRANCH   1  16
HETATM   16  C11 UNL     1       5.097 -11.130   1.970  1.00  0.00     0.035 C 
BRANCH  16  17
HETATM   17  C12 UNL     1       5.886  -9.873   1.797  1.00  0.00     0.003 C 
BRANCH  17  18
HETATM   18  C13 UNL     1       7.176  -9.810   2.549  1.00  0.00     0.008 C 
BRANCH  18  19
HETATM   19  C14 UNL     1       8.279  -9.678   1.484  1.00  0.00     0.086 C 
BRANCH  19  20
HETATM   20  C15 UNL     1       8.418  -8.307   1.003  1.00  0.00     0.135 C 
HETATM   21  N2  UNL     1       8.646  -8.079  -0.239  1.00  0.00    -0.251 N 
ATOM     22  H2  UNL     1       8.741  -7.118  -0.565  1.00  0.00     0.196 HD
BRANCH  20  23
HETATM   23  O2  UNL     1       8.308  -7.234   1.863  1.00  0.00    -0.348 OA
ATOM     24  H2  UNL     1       7.941  -7.336   2.734  1.00  0.00     0.219 HD
ENDBRANCH  20  23
BRANCH  21  25
HETATM   25  O3  UNL     1       8.763  -9.114  -1.135  1.00  0.00    -0.288 OA
ATOM     26  H3  UNL     1       8.004  -9.444  -1.601  1.00  0.00     0.244 HD
ENDBRANCH  21  25
ENDBRANCH  19  20
ENDBRANCH  18  19
ENDBRANCH  17  18
ENDBRANCH  16  17
ENDBRANCH   1  16
BRANCH   1  27
HETATM   27  C16 UNL     1       5.480 -13.555   2.095  1.00  0.00     0.243 C 
HETATM   28  O4  UNL     1       6.405 -14.460   2.031  1.00  0.00    -0.271 OA
HETATM   29  N3  UNL     1       4.417 -13.882   2.933  1.00  0.00    -0.350 N 
HETATM   30  C17 UNL     1       4.411 -15.188   3.620  1.00  0.00     0.126 C 
HETATM   31  C22 UNL     1       3.281 -13.063   3.233  1.00  0.00     0.126 C 
HETATM   32  C18 UNL     1       4.497 -14.942   5.084  1.00  0.00     0.027 C 
HETATM   33  C19 UNL     1       3.469 -13.963   5.591  1.00  0.00     0.012 C 
HETATM   34  C21 UNL     1       3.292 -12.773   4.723  1.00  0.00     0.027 C 
BRANCH  33  35
HETATM   35  C20 UNL     1       2.131 -14.653   5.829  1.00  0.00     0.168 C 
BRANCH  35  36
HETATM   36  O5  UNL     1       1.107 -13.721   5.989  1.00  0.00    -0.400 OA
ATOM     37  H5  UNL     1       0.323 -14.131   6.339  1.00  0.00     0.209 HD
ENDBRANCH  35  36
ENDBRANCH  33  35
ENDBRANCH   1  27
TORSDOF 12
ENDMDL
MODEL 2
REMARK VINA RESULT: -6.721329179      2.722      5.863
REMARK  12 active torsions:
REMARK  status: ('A' for Active; 'I' for Inactive)
REMARK    1  A    between atoms: C9_11  and  O1_12 
REMARK    2  A    between atoms: N1_14  and  C10_15 
REMARK    3  A    between atoms: C10_15  and  C11_16 
REMARK    4  A    between atoms: C10_15  and  C16_27 
REMARK    5  A    between atoms: C11_16  and  C12_17 
REMARK    6  A    between atoms: C12_17  and  C13_18 
REMARK    7  A    between atoms: C13_18  and  C14_19 
REMARK    8  A    between atoms: C14_19  and  C15_20 
REMARK    9  A    between atoms: C15_20  and  O2_21 
REMARK   10  A    between atoms: N2_23  and  O3_25 
REMARK       I    between atoms: C16_27  and  N3_29 
REMARK   11  A    between atoms: C19_32  and  C20_33 
REMARK   12  A    between atoms: C20_33  and  O5_34 
ROOT
HETATM    1  C10 UNL     1       4.703 -12.150   0.878  1.00  0.00     0.184 C 
ENDROOT
BRANCH   1   2
HETATM    2  N1  UNL     1       3.396 -12.422   1.427  1.00  0.00    -0.313 N 
HETATM    3  C6  UNL     1       3.144 -13.061   2.605  1.00  0.00     0.050 A 
HETATM    4  C5  UNL     1       3.951 -13.603   3.576  1.00  0.00     0.056 A 
HETATM    5  C7  UNL     1       1.781 -13.165   2.815  1.00  0.00     0.003 A 
HETATM    6  C4  UNL     1       3.419 -14.226   4.717  1.00  0.00     0.058 A 
HETATM    7  C3  UNL     1       2.058 -14.305   4.883  1.00  0.00     0.062 A 
HETATM    8 CL2  UNL     1       4.541 -14.878   5.886  1.00  0.00    -0.082 Cl
HETATM    9  C2  UNL     1       1.231 -13.774   3.931  1.00  0.00    -0.026 A 
HETATM   10 CL1  UNL     1       1.389 -15.086   6.318  1.00  0.00    -0.082 Cl
HETATM   11  C1  UNL     1      -0.249 -13.848   4.091  1.00  0.00     0.051 C 
HETATM   12  C8  UNL     1       1.171 -12.577   1.744  1.00  0.00     0.070 A 
HETATM   13  C9  UNL     1       2.161 -12.131   0.911  1.00  0.00     0.144 A 
BRANCH  13  14
HETATM   14  O1  UNL     1       1.971 -11.464  -0.312  1.00  0.00    -0.346 OA
ATOM     15  H1  UNL     1       1.904 -10.524  -0.430  1.00  0.00     0.219 HD
ENDBRANCH  13  14
ENDBRANCH   1   2
BRANCH   1  16
HETATM   16  C11 UNL     1       5.667 -11.646   1.925  1.00  0.00     0.035 C 
BRANCH  16  17
HETATM   17  C12 UNL     1       6.348 -10.363   1.574  1.00  0.00     0.003 C 
BRANCH  17  18
HETATM   18  C13 UNL     1       7.482  -9.969   2.463  1.00  0.00     0.008 C 
BRANCH  18  19
HETATM   19  C14 UNL     1       8.615  -9.518   1.524  1.00  0.00     0.086 C 
BRANCH  19  20
HETATM   20  C15 UNL     1       8.343  -8.219   0.916  1.00  0.00     0.135 C 
HETATM   21  N2  UNL     1       8.412  -8.075  -0.357  1.00  0.00    -0.251 N 
ATOM     22  H2  UNL     1       8.220  -7.164  -0.771  1.00  0.00     0.196 HD
BRANCH  20  23
HETATM   23  O2  UNL     1       8.009  -7.126   1.689  1.00  0.00    -0.348 OA
ATOM     24  H2  UNL     1       8.396  -6.273   1.529  1.00  0.00     0.219 HD
ENDBRANCH  20  23
BRANCH  21  25
HETATM   25  O3  UNL     1       8.741  -9.134  -1.169  1.00  0.00    -0.288 OA
ATOM     26  H3  UNL     1       8.098  -9.517  -1.754  1.00  0.00     0.244 HD
ENDBRANCH  21  25
ENDBRANCH  19  20
ENDBRANCH  18  19
ENDBRANCH  17  18
ENDBRANCH  16  17
ENDBRANCH   1  16
BRANCH   1  27
HETATM   27  C16 UNL     1       5.304 -13.239   0.088  1.00  0.00     0.243 C 
HETATM   28  O4  UNL     1       5.486 -14.367   0.700  1.00  0.00    -0.271 OA
HETATM   29  N3  UNL     1       5.714 -13.237  -1.243  1.00  0.00    -0.350 N 
HETATM   30  C17 UNL     1       6.328 -14.452  -1.814  1.00  0.00     0.126 C 
HETATM   31  C22 UNL     1       5.597 -12.154  -2.173  1.00  0.00     0.126 C 
HETATM   32  C18 UNL     1       5.432 -14.966  -2.882  1.00  0.00     0.027 C 
HETATM   33  C19 UNL     1       5.047 -13.921  -3.899  1.00  0.00     0.012 C 
HETATM   34  C21 UNL     1       4.697 -12.606  -3.308  1.00  0.00     0.027 C 
BRANCH  33  35
HETATM   35  C20 UNL     1       6.139 -13.758  -4.951  1.00  0.00     0.168 C 
BRANCH  35  36
HETATM   36  O5  UNL     1       5.719 -12.924  -5.986  1.00  0.00    -0.400 OA
ATOM     37  H5  UNL     1       6.059 -13.219  -6.823  1.00  0.00     0.209 HD
ENDBRANCH  35  36
ENDBRANCH  33  35
ENDBRANCH   1  27
TORSDOF 12
ENDMDL
MODEL 3
REMARK VINA RESULT: -6.584611363      2.151      5.520
REMARK  12 active torsions:
REMARK  status: ('A' for Active; 'I' for Inactive)
REMARK    1  A    between atoms: C9_11  and  O1_12 
REMARK    2  A    between atoms: N1_14  and  C10_15 
REMARK    3  A    between atoms: C10_15  and  C11_16 
REMARK    4  A    between atoms: C10_15  and  C16_27 
REMARK    5  A    between atoms: C11_16  and  C12_17 
REMARK    6  A    between atoms: C12_17  and  C13_18 
REMARK    7  A    between atoms: C13_18  and  C14_19 
REMARK    8  A    between atoms: C14_19  and  C15_20 
REMARK    9  A    between atoms: C15_20  and  O2_21 
REMARK   10  A    between atoms: N2_23  and  O3_25 
REMARK       I    between atoms: C16_27  and  N3_29 
REMARK   11  A    between atoms: C19_32  and  C20_33 
REMARK   12  A    between atoms: C20_33  and  O5_34 
ROOT
HETATM    1  C10 UNL     1       5.240 -12.284  -0.108  1.00  0.00     0.184 C 
ENDROOT
BRANCH   1   2
HETATM    2  N1  UNL     1       4.793 -12.995   1.066  1.00  0.00    -0.313 N 
HETATM    3  C6  UNL     1       3.551 -12.914   1.622  1.00  0.00     0.050 A 
HETATM    4  C5  UNL     1       2.414 -12.216   1.295  1.00  0.00     0.056 A 
HETATM    5  C7  UNL     1       3.474 -13.714   2.748  1.00  0.00     0.003 A 
HETATM    6  C4  UNL     1       1.240 -12.312   2.060  1.00  0.00     0.058 A 
HETATM    7  C3  UNL     1       1.210 -13.121   3.170  1.00  0.00     0.062 A 
HETATM    8 CL2  UNL     1      -0.145 -11.379   1.548  1.00  0.00    -0.082 Cl
HETATM    9  C2  UNL     1       2.329 -13.827   3.519  1.00  0.00    -0.026 A 
HETATM   10 CL1  UNL     1      -0.265 -13.243   4.132  1.00  0.00    -0.082 Cl
HETATM   11  C1  UNL     1       2.319 -14.711   4.719  1.00  0.00     0.051 C 
HETATM   12  C8  UNL     1       4.695 -14.306   2.896  1.00  0.00     0.070 A 
HETATM   13  C9  UNL     1       5.486 -13.861   1.871  1.00  0.00     0.144 A 
BRANCH  13  14
HETATM   14  O1  UNL     1       6.826 -14.223   1.646  1.00  0.00    -0.346 OA
ATOM     15  H1  UNL     1       7.142 -15.097   1.451  1.00  0.00     0.219 HD
ENDBRANCH  13  14
ENDBRANCH   1   2
BRANCH   1  16
HETATM   16  C11 UNL     1       6.357 -11.317   0.202  1.00  0.00     0.035 C 
BRANCH  16  17
HETATM   17  C12 UNL     1       6.002 -10.258   1.195  1.00  0.00     0.003 C 
BRANCH  17  18
HETATM   18  C13 UNL     1       7.065  -9.922   2.189  1.00  0.00     0.008 C 
BRANCH  18  19
HETATM   19  C14 UNL     1       8.358  -9.732   1.376  1.00  0.00     0.086 C 
BRANCH  19  20
HETATM   20  C15 UNL     1       8.540  -8.349   0.947  1.00  0.00     0.135 C 
HETATM   21  N2  UNL     1       8.760  -8.080  -0.288  1.00  0.00    -0.251 N 
ATOM     22  H2  UNL     1       8.886  -7.110  -0.577  1.00  0.00     0.196 HD
BRANCH  20  23
HETATM   23  O2  UNL     1       8.480  -7.307   1.851  1.00  0.00    -0.348 OA
ATOM     24  H2  UNL     1       9.259  -6.822   2.096  1.00  0.00     0.219 HD
ENDBRANCH  20  23
BRANCH  21  25
HETATM   25  O3  UNL     1       8.829  -9.082  -1.226  1.00  0.00    -0.288 OA
ATOM     26  H3  UNL     1       8.262  -9.076  -1.987  1.00  0.00     0.244 HD
ENDBRANCH  21  25
ENDBRANCH  19  20
ENDBRANCH  18  19
ENDBRANCH  17  18
ENDBRANCH  16  17
ENDBRANCH   1  16
BRANCH   1  27
HETATM   27  C16 UNL     1       5.576 -13.121  -1.273  1.00  0.00     0.243 C 
HETATM   28  O4  UNL     1       6.618 -13.883  -1.160  1.00  0.00    -0.271 OA
HETATM   29  N3  UNL     1       4.928 -13.219  -2.502  1.00  0.00    -0.350 N 
HETATM   30  C17 UNL     1       5.475 -14.111  -3.542  1.00  0.00     0.126 C 
HETATM   31  C22 UNL     1       3.732 -12.535  -2.895  1.00  0.00     0.126 C 
HETATM   32  C18 UNL     1       4.487 -15.192  -3.793  1.00  0.00     0.027 C 
HETATM   33  C19 UNL     1       3.096 -14.683  -4.074  1.00  0.00     0.012 C 
HETATM   34  C21 UNL     1       2.667 -13.578  -3.180  1.00  0.00     0.027 C 
BRANCH  33  35
HETATM   35  C20 UNL     1       2.953 -14.270  -5.535  1.00  0.00     0.168 C 
BRANCH  35  36
HETATM   36  O5  UNL     1       1.864 -13.419  -5.713  1.00  0.00    -0.400 OA
ATOM     37  H5  UNL     1       1.637 -13.341  -6.633  1.00  0.00     0.209 HD
ENDBRANCH  35  36
ENDBRANCH  33  35
ENDBRANCH   1  27
TORSDOF 12
ENDMDL
MODEL 4
REMARK VINA RESULT: -6.494000777      2.853      6.463
REMARK  12 active torsions:
REMARK  status: ('A' for Active; 'I' for Inactive)
REMARK    1  A    between atoms: C9_11  and  O1_12 
REMARK    2  A    between atoms: N1_14  and  C10_15 
REMARK    3  A    between atoms: C10_15  and  C11_16 
REMARK    4  A    between atoms: C10_15  and  C16_27 
REMARK    5  A    between atoms: C11_16  and  C12_17 
REMARK    6  A    between atoms: C12_17  and  C13_18 
REMARK    7  A    between atoms: C13_18  and  C14_19 
REMARK    8  A    between atoms: C14_19  and  C15_20 
REMARK    9  A    between atoms: C15_20  and  O2_21 
REMARK   10  A    between atoms: N2_23  and  O3_25 
REMARK       I    between atoms: C16_27  and  N3_29 
REMARK   11  A    between atoms: C19_32  and  C20_33 
REMARK   12  A    between atoms: C20_33  and  O5_34 
ROOT
HETATM    1  C10 UNL     1       5.883 -12.153  -0.144  1.00  0.00     0.184 C 
ENDROOT
BRANCH   1   2
HETATM    2  N1  UNL     1       4.547 -12.165   0.402  1.00  0.00    -0.313 N 
HETATM    3  C6  UNL     1       4.150 -12.830   1.523  1.00  0.00     0.050 A 
HETATM    4  C5  UNL     1       4.807 -13.626   2.430  1.00  0.00     0.056 A 
HETATM    5  C7  UNL     1       2.799 -12.637   1.747  1.00  0.00     0.003 A 
HETATM    6  C4  UNL     1       4.142 -14.208   3.522  1.00  0.00     0.058 A 
HETATM    7  C3  UNL     1       2.799 -13.987   3.704  1.00  0.00     0.062 A 
HETATM    8 CL2  UNL     1       5.080 -15.201   4.612  1.00  0.00    -0.082 Cl
HETATM    9  C2  UNL     1       2.120 -13.199   2.815  1.00  0.00    -0.026 A 
HETATM   10 CL1  UNL     1       1.963 -14.717   5.077  1.00  0.00    -0.082 Cl
HETATM   11  C1  UNL     1       0.662 -12.945   2.993  1.00  0.00     0.051 C 
HETATM   12  C8  UNL     1       2.344 -11.833   0.742  1.00  0.00     0.070 A 
HETATM   13  C9  UNL     1       3.413 -11.554  -0.067  1.00  0.00     0.144 A 
BRANCH  13  14
HETATM   14  O1  UNL     1       3.386 -10.756  -1.225  1.00  0.00    -0.346 OA
ATOM     15  H1  UNL     1       4.135 -10.332  -1.627  1.00  0.00     0.219 HD
ENDBRANCH  13  14
ENDBRANCH   1   2
BRANCH   1  16
HETATM   16  C11 UNL     1       5.965 -12.878  -1.465  1.00  0.00     0.035 C 
BRANCH  16  17
HETATM   17  C12 UNL     1       6.167 -14.354  -1.350  1.00  0.00     0.003 C 
BRANCH  17  18
HETATM   18  C13 UNL     1       4.924 -15.165  -1.177  1.00  0.00     0.008 C 
BRANCH  18  19
HETATM   19  C14 UNL     1       4.091 -14.935  -2.450  1.00  0.00     0.086 C 
BRANCH  19  20
HETATM   20  C15 UNL     1       2.789 -14.343  -2.156  1.00  0.00     0.135 C 
HETATM   21  N2  UNL     1       2.421 -13.266  -2.750  1.00  0.00    -0.251 N 
ATOM     22  H2  UNL     1       1.510 -12.861  -2.538  1.00  0.00     0.196 HD
BRANCH  20  23
HETATM   23  O2  UNL     1       1.931 -14.921  -1.243  1.00  0.00    -0.348 OA
ATOM     24  H2  UNL     1       1.051 -15.179  -1.489  1.00  0.00     0.219 HD
ENDBRANCH  20  23
BRANCH  21  25
HETATM   25  O3  UNL     1       3.240 -12.653  -3.668  1.00  0.00    -0.288 OA
ATOM     26  H3  UNL     1       3.210 -11.712  -3.795  1.00  0.00     0.244 HD
ENDBRANCH  21  25
ENDBRANCH  19  20
ENDBRANCH  18  19
ENDBRANCH  17  18
ENDBRANCH  16  17
ENDBRANCH   1  16
BRANCH   1  27
HETATM   27  C16 UNL     1       6.528 -10.830  -0.228  1.00  0.00     0.243 C 
HETATM   28  O4  UNL     1       6.228 -10.103  -1.258  1.00  0.00    -0.271 OA
HETATM   29  N3  UNL     1       7.428 -10.233   0.651  1.00  0.00    -0.350 N 
HETATM   30  C17 UNL     1       7.972  -8.898   0.336  1.00  0.00     0.126 C 
HETATM   31  C22 UNL     1       7.904 -10.777   1.888  1.00  0.00     0.126 C 
HETATM   32  C18 UNL     1       7.499  -7.947   1.374  1.00  0.00     0.027 C 
HETATM   33  C19 UNL     1       7.763  -8.414   2.784  1.00  0.00     0.012 C 
HETATM   34  C21 UNL     1       7.466  -9.851   3.007  1.00  0.00     0.027 C 
BRANCH  33  35
HETATM   35  C20 UNL     1       9.193  -8.094   3.204  1.00  0.00     0.168 C 
BRANCH  35  36
HETATM   36  O5  UNL     1       9.573  -6.826   2.768  1.00  0.00    -0.400 OA
ATOM     37  H5  UNL     1      10.484  -6.816   2.497  1.00  0.00     0.209 HD
ENDBRANCH  35  36
ENDBRANCH  33  35
ENDBRANCH   1  27
TORSDOF 12
ENDMDL
MODEL 5
REMARK VINA RESULT: -6.312096820      2.551      6.325
REMARK  12 active torsions:
REMARK  status: ('A' for Active; 'I' for Inactive)
REMARK    1  A    between atoms: C9_11  and  O1_12 
REMARK    2  A    between atoms: N1_14  and  C10_15 
REMARK    3  A    between atoms: C10_15  and  C11_16 
REMARK    4  A    between atoms: C10_15  and  C16_27 
REMARK    5  A    between atoms: C11_16  and  C12_17 
REMARK    6  A    between atoms: C12_17  and  C13_18 
REMARK    7  A    between atoms: C13_18  and  C14_19 
REMARK    8  A    between atoms: C14_19  and  C15_20 
REMARK    9  A    between atoms: C15_20  and  O2_21 
REMARK   10  A    between atoms: N2_23  and  O3_25 
REMARK       I    between atoms: C16_27  and  N3_29 
REMARK   11  A    between atoms: C19_32  and  C20_33 
REMARK   12  A    between atoms: C20_33  and  O5_34 
ROOT
HETATM    1  C10 UNL     1       5.833 -11.060   0.630  1.00  0.00     0.184 C 
ENDROOT
BRANCH   1   2
HETATM    2  N1  UNL     1       5.246 -12.136   1.392  1.00  0.00    -0.313 N 
HETATM    3  C6  UNL     1       3.916 -12.429   1.462  1.00  0.00     0.050 A 
HETATM    4  C5  UNL     1       2.796 -11.875   0.892  1.00  0.00     0.056 A 
HETATM    5  C7  UNL     1       3.705 -13.512   2.296  1.00  0.00     0.003 A 
HETATM    6  C4  UNL     1       1.510 -12.381   1.142  1.00  0.00     0.058 A 
HETATM    7  C3  UNL     1       1.349 -13.460   1.976  1.00  0.00     0.062 A 
HETATM    8 CL2  UNL     1       0.160 -11.596   0.361  1.00  0.00    -0.082 Cl
HETATM    9  C2  UNL     1       2.447 -14.031   2.558  1.00  0.00    -0.026 A 
HETATM   10 CL1  UNL     1      -0.267 -14.098   2.291  1.00  0.00    -0.082 Cl
HETATM   11  C1  UNL     1       2.296 -15.203   3.467  1.00  0.00     0.051 C 
HETATM   12  C8  UNL     1       4.929 -13.902   2.755  1.00  0.00     0.070 A 
HETATM   13  C9  UNL     1       5.855 -13.059   2.201  1.00  0.00     0.144 A 
BRANCH  13  14
HETATM   14  O1  UNL     1       7.245 -13.108   2.410  1.00  0.00    -0.346 OA
ATOM     15  H1  UNL     1       7.912 -13.037   1.738  1.00  0.00     0.219 HD
ENDBRANCH  13  14
ENDBRANCH   1   2
BRANCH   1  16
HETATM   16  C11 UNL     1       5.053 -10.760  -0.627  1.00  0.00     0.035 C 
BRANCH  16  17
HETATM   17  C12 UNL     1       5.510 -11.514  -1.833  1.00  0.00     0.003 C 
BRANCH  17  18
HETATM   18  C13 UNL     1       4.514 -12.461  -2.420  1.00  0.00     0.008 C 
BRANCH  18  19
HETATM   19  C14 UNL     1       5.196 -13.841  -2.423  1.00  0.00     0.086 C 
BRANCH  19  20
HETATM   20  C15 UNL     1       4.754 -14.675  -1.310  1.00  0.00     0.135 C 
HETATM   21  N2  UNL     1       5.614 -15.196  -0.513  1.00  0.00    -0.251 N 
ATOM     22  H2  UNL     1       5.295 -15.778   0.262  1.00  0.00     0.196 HD
BRANCH  20  23
HETATM   23  O2  UNL     1       3.414 -14.921  -1.089  1.00  0.00    -0.348 OA
ATOM     24  H2  UNL     1       2.760 -14.711  -1.746  1.00  0.00     0.219 HD
ENDBRANCH  20  23
BRANCH  21  25
HETATM   25  O3  UNL     1       6.960 -14.981  -0.690  1.00  0.00    -0.288 OA
ATOM     26  H3  UNL     1       7.602 -15.516  -0.239  1.00  0.00     0.244 HD
ENDBRANCH  21  25
ENDBRANCH  19  20
ENDBRANCH  18  19
ENDBRANCH  17  18
ENDBRANCH  16  17
ENDBRANCH   1  16
BRANCH   1  27
HETATM   27  C16 UNL     1       6.116  -9.824   1.382  1.00  0.00     0.243 C 
HETATM   28  O4  UNL     1       5.184  -9.402   2.177  1.00  0.00    -0.271 OA
HETATM   29  N3  UNL     1       7.258  -9.026   1.365  1.00  0.00    -0.350 N 
HETATM   30  C17 UNL     1       7.299  -7.802   2.187  1.00  0.00     0.126 C 
HETATM   31  C22 UNL     1       8.459  -9.267   0.622  1.00  0.00     0.126 C 
HETATM   32  C18 UNL     1       8.355  -7.971   3.219  1.00  0.00     0.027 C 
HETATM   33  C19 UNL     1       9.688  -8.389   2.652  1.00  0.00     0.012 C 
HETATM   34  C21 UNL     1       9.595  -9.443   1.611  1.00  0.00     0.027 C 
BRANCH  33  35
HETATM   35  C20 UNL     1      10.457  -7.184   2.123  1.00  0.00     0.168 C 
BRANCH  35  36
HETATM   36  O5  UNL     1      10.570  -6.193   3.097  1.00  0.00    -0.400 OA
ATOM     37  H5  UNL     1       9.969  -5.477   2.928  1.00  0.00     0.209 HD
ENDBRANCH  35  36
ENDBRANCH  33  35
ENDBRANCH   1  27
TORSDOF 12
ENDMDL
