MODEL 1
REMARK VINA RESULT: -8.550060339      0.000      0.000
REMARK  9 active torsions:
REMARK  status: ('A' for Active; 'I' for Inactive)
REMARK    1  A    between atoms: O1_2  and  C2_3 
REMARK    2  A    between atoms: C4_5  and  C5_6 
REMARK    3  A    between atoms: C12_13  and  O2_14 
REMARK    4  A    between atoms: C14_16  and  N1_17 
REMARK    5  A    between atoms: C16_22  and  N3_23 
REMARK    6  A    between atoms: N3_23  and  C17_25 
REMARK    7  A    between atoms: C17_25  and  C18_26 
REMARK    8  A    between atoms: C18_26  and  C19_27 
REMARK    9  A    between atoms: C19_27  and  N4_28 
ROOT
HETATM    1  N1  UNL     1     -28.095   2.280 -12.984  1.00  0.00    -0.336 N 
ATOM      2  H1  UNL     1     -29.045   2.224 -13.351  1.00  0.00     0.168 HD
HETATM    3  C15 UNL     1     -27.458   3.305 -13.348  1.00  0.00     0.144 A 
HETATM    4  N2  UNL     1     -28.135   4.167 -14.166  1.00  0.00    -0.175 N 
ATOM      5  H2  UNL     1     -29.093   3.937 -14.431  1.00  0.00     0.186 HD
HETATM    6  C16 UNL     1     -27.596   5.297 -14.634  1.00  0.00     0.679 A 
HETATM    7  N5  UNL     1     -26.317   5.639 -14.302  1.00  0.00    -0.200 N 
ATOM      8  H5  UNL     1     -25.900   6.500 -14.656  1.00  0.00     0.183 HD
HETATM    9  C26 UNL     1     -25.626   4.827 -13.507  1.00  0.00     0.133 A 
HETATM   10  C27 UNL     1     -26.177   3.650 -13.016  1.00  0.00     0.094 A 
HETATM   11 CL1  UNL     1     -25.223   2.616 -11.975  1.00  0.00    -0.079 Cl
ENDROOT
BRANCH   1  12
HETATM   12  C14 UNL     1     -27.732   1.208 -12.166  1.00  0.00     0.101 A 
HETATM   13  C2  UNL     1     -28.152   1.148 -10.832  1.00  0.00     0.098 A 
HETATM   14  C3  UNL     1     -27.820   0.135  -9.980  1.00  0.00     0.046 A 
HETATM   15  C4  UNL     1     -27.027  -0.907 -10.424  1.00  0.00    -0.049 A 
HETATM   16  C11 UNL     1     -26.601  -0.868 -11.734  1.00  0.00     0.046 A 
HETATM   17  C12 UNL     1     -26.935   0.154 -12.595  1.00  0.00     0.098 A 
BRANCH  13  18
HETATM   18  O1  UNL     1     -28.945   2.190 -10.394  1.00  0.00    -0.354 OA
HETATM   19  C1  UNL     1     -28.422   3.297  -9.683  1.00  0.00     0.210 C 
ENDBRANCH  13  18
BRANCH  15  20
HETATM   20  C5  UNL     1     -26.624  -2.042  -9.555  1.00  0.00     0.019 C 
HETATM   21  C6  UNL     1     -25.388  -1.660  -8.816  1.00  0.00     0.009 C 
HETATM   22  C7  UNL     1     -25.161  -2.388  -7.536  1.00  0.00     0.001 C 
HETATM   23  C8  UNL     1     -26.402  -2.530  -6.684  1.00  0.00     0.000 C 
HETATM   24  C9  UNL     1     -27.425  -3.281  -7.547  1.00  0.00     0.001 C 
HETATM   25  C10 UNL     1     -27.805  -2.333  -8.656  1.00  0.00     0.009 C 
ENDBRANCH  15  20
BRANCH  17  26
HETATM   26  O2  UNL     1     -26.494   0.168 -13.909  1.00  0.00    -0.354 OA
HETATM   27  C13 UNL     1     -25.288  -0.443 -14.319  1.00  0.00     0.210 C 
ENDBRANCH  17  26
ENDBRANCH   1  12
BRANCH   6  28
HETATM   28  N3  UNL     1     -28.204   6.111 -15.392  1.00  0.00    -0.226 N 
ATOM     29  H3  UNL     1     -29.160   5.838 -15.623  1.00  0.00     0.177 HD
BRANCH  28  30
HETATM   30  C17 UNL     1     -27.786   7.331 -15.971  1.00  0.00     0.139 C 
BRANCH  30  31
HETATM   31  C18 UNL     1     -27.929   8.515 -15.020  1.00  0.00     0.040 C 
BRANCH  31  32
HETATM   32  C19 UNL     1     -26.606   9.260 -15.082  1.00  0.00     0.129 C 
BRANCH  32  33
HETATM   33  N4  UNL     1     -26.811  10.580 -15.561  1.00  0.00    -0.369 N 
HETATM   34  C20 UNL     1     -26.618  10.719 -16.942  1.00  0.00     0.094 C 
HETATM   35  C21 UNL     1     -25.443  11.610 -17.246  1.00  0.00     0.156 C 
HETATM   36  C22 UNL     1     -24.115  10.893 -17.114  1.00  0.00     0.045 C 
HETATM   37  O3  UNL     1     -25.415  12.736 -16.462  1.00  0.00    -0.371 OA
HETATM   38  C23 UNL     1     -25.343  12.440 -15.102  1.00  0.00     0.156 C 
HETATM   39  C24 UNL     1     -25.364  13.785 -14.364  1.00  0.00     0.045 C 
HETATM   40  C25 UNL     1     -26.546  11.632 -14.682  1.00  0.00     0.094 C 
ENDBRANCH  32  33
ENDBRANCH  31  32
ENDBRANCH  30  31
ENDBRANCH  28  30
ENDBRANCH   6  28
TORSDOF 9
ENDMDL
MODEL 2
REMARK VINA RESULT: -8.486440799      1.200      1.861
REMARK  9 active torsions:
REMARK  status: ('A' for Active; 'I' for Inactive)
REMARK    1  A    between atoms: O1_2  and  C2_3 
REMARK    2  A    between atoms: C4_5  and  C5_6 
REMARK    3  A    between atoms: C12_13  and  O2_14 
REMARK    4  A    between atoms: C14_16  and  N1_17 
REMARK    5  A    between atoms: C16_22  and  N3_23 
REMARK    6  A    between atoms: N3_23  and  C17_25 
REMARK    7  A    between atoms: C17_25  and  C18_26 
REMARK    8  A    between atoms: C18_26  and  C19_27 
REMARK    9  A    between atoms: C19_27  and  N4_28 
ROOT
HETATM    1  N1  UNL     1     -28.176   1.588 -12.652  1.00  0.00    -0.336 N 
ATOM      2  H1  UNL     1     -29.098   1.331 -13.004  1.00  0.00     0.168 HD
HETATM    3  C15 UNL     1     -27.751   2.697 -13.073  1.00  0.00     0.144 A 
HETATM    4  N2  UNL     1     -28.584   3.370 -13.923  1.00  0.00    -0.175 N 
ATOM      5  H2  UNL     1     -29.481   2.946 -14.165  1.00  0.00     0.186 HD
HETATM    6  C16 UNL     1     -28.276   4.559 -14.451  1.00  0.00     0.679 A 
HETATM    7  N5  UNL     1     -27.087   5.158 -14.153  1.00  0.00    -0.200 N 
ATOM      8  H5  UNL     1     -26.846   6.065 -14.553  1.00  0.00     0.183 HD
HETATM    9  C26 UNL     1     -26.249   4.535 -13.329  1.00  0.00     0.133 A 
HETATM   10  C27 UNL     1     -26.560   3.300 -12.775  1.00  0.00     0.094 A 
HETATM   11 CL1  UNL     1     -25.420   2.522 -11.698  1.00  0.00    -0.079 Cl
ENDROOT
BRANCH   1  12
HETATM   12  C14 UNL     1     -27.609   0.648 -11.789  1.00  0.00     0.101 A 
HETATM   13  C2  UNL     1     -27.919   0.648 -10.424  1.00  0.00     0.098 A 
HETATM   14  C3  UNL     1     -27.389  -0.234  -9.528  1.00  0.00     0.046 A 
HETATM   15  C4  UNL     1     -26.493  -1.196  -9.957  1.00  0.00    -0.049 A 
HETATM   16  C11 UNL     1     -26.173  -1.214 -11.297  1.00  0.00     0.046 A 
HETATM   17  C12 UNL     1     -26.707  -0.324 -12.202  1.00  0.00     0.098 A 
BRANCH  13  18
HETATM   18  O1  UNL     1     -28.814   1.610 -10.001  1.00  0.00    -0.354 OA
HETATM   19  C1  UNL     1     -28.403   2.882  -9.536  1.00  0.00     0.210 C 
ENDBRANCH  13  18
BRANCH  15  20
HETATM   20  C5  UNL     1     -25.874  -2.189  -9.041  1.00  0.00     0.019 C 
HETATM   21  C6  UNL     1     -24.782  -1.518  -8.280  1.00  0.00     0.009 C 
HETATM   22  C7  UNL     1     -24.440  -2.143  -6.972  1.00  0.00     0.001 C 
HETATM   23  C8  UNL     1     -25.646  -2.541  -6.150  1.00  0.00     0.000 C 
HETATM   24  C9  UNL     1     -26.444  -3.525  -7.016  1.00  0.00     0.001 C 
HETATM   25  C10 UNL     1     -26.989  -2.716  -8.166  1.00  0.00     0.009 C 
ENDBRANCH  15  20
BRANCH  17  26
HETATM   26  O2  UNL     1     -26.368  -0.365 -13.545  1.00  0.00    -0.354 OA
HETATM   27  C13 UNL     1     -25.066  -0.085 -14.016  1.00  0.00     0.210 C 
ENDBRANCH  17  26
ENDBRANCH   1  12
BRANCH   6  28
HETATM   28  N3  UNL     1     -29.034   5.201 -15.240  1.00  0.00    -0.226 N 
ATOM     29  H3  UNL     1     -29.923   5.487 -14.830  1.00  0.00     0.177 HD
BRANCH  28  30
HETATM   30  C17 UNL     1     -28.857   5.589 -16.588  1.00  0.00     0.139 C 
BRANCH  30  31
HETATM   31  C18 UNL     1     -28.875   7.103 -16.772  1.00  0.00     0.040 C 
BRANCH  31  32
HETATM   32  C19 UNL     1     -27.470   7.486 -17.206  1.00  0.00     0.129 C 
BRANCH  32  33
HETATM   33  N4  UNL     1     -26.861   8.307 -16.222  1.00  0.00    -0.369 N 
HETATM   34  C20 UNL     1     -27.676   8.560 -15.110  1.00  0.00     0.094 C 
HETATM   35  C21 UNL     1     -28.030  10.020 -15.010  1.00  0.00     0.156 C 
HETATM   36  C22 UNL     1     -29.152  10.416 -15.947  1.00  0.00     0.045 C 
HETATM   37  O3  UNL     1     -26.955  10.842 -15.238  1.00  0.00    -0.371 OA
HETATM   38  C23 UNL     1     -26.398  10.659 -16.502  1.00  0.00     0.156 C 
HETATM   39  C24 UNL     1     -25.195  11.607 -16.587  1.00  0.00     0.045 C 
HETATM   40  C25 UNL     1     -25.914   9.238 -16.654  1.00  0.00     0.094 C 
ENDBRANCH  32  33
ENDBRANCH  31  32
ENDBRANCH  30  31
ENDBRANCH  28  30
ENDBRANCH   6  28
TORSDOF 9
ENDMDL
MODEL 3
REMARK VINA RESULT: -8.416413151      1.290      2.661
REMARK  9 active torsions:
REMARK  status: ('A' for Active; 'I' for Inactive)
REMARK    1  A    between atoms: O1_2  and  C2_3 
REMARK    2  A    between atoms: C4_5  and  C5_6 
REMARK    3  A    between atoms: C12_13  and  O2_14 
REMARK    4  A    between atoms: C14_16  and  N1_17 
REMARK    5  A    between atoms: C16_22  and  N3_23 
REMARK    6  A    between atoms: N3_23  and  C17_25 
REMARK    7  A    between atoms: C17_25  and  C18_26 
REMARK    8  A    between atoms: C18_26  and  C19_27 
REMARK    9  A    between atoms: C19_27  and  N4_28 
ROOT
HETATM    1  N1  UNL     1     -28.235   1.806 -12.725  1.00  0.00    -0.336 N 
ATOM      2  H1  UNL     1     -29.160   1.559 -13.079  1.00  0.00     0.168 HD
HETATM    3  C15 UNL     1     -27.794   2.907 -13.151  1.00  0.00     0.144 A 
HETATM    4  N2  UNL     1     -28.616   3.586 -14.008  1.00  0.00    -0.175 N 
ATOM      5  H2  UNL     1     -29.516   3.172 -14.250  1.00  0.00     0.186 HD
HETATM    6  C16 UNL     1     -28.290   4.767 -14.542  1.00  0.00     0.679 A 
HETATM    7  N5  UNL     1     -27.094   5.352 -14.243  1.00  0.00    -0.200 N 
ATOM      8  H5  UNL     1     -26.839   6.253 -14.648  1.00  0.00     0.183 HD
HETATM    9  C26 UNL     1     -26.267   4.723 -13.412  1.00  0.00     0.133 A 
HETATM   10  C27 UNL     1     -26.596   3.496 -12.852  1.00  0.00     0.094 A 
HETATM   11 CL1  UNL     1     -25.471   2.709 -11.766  1.00  0.00    -0.079 Cl
ENDROOT
BRANCH   1  12
HETATM   12  C14 UNL     1     -27.684   0.863 -11.854  1.00  0.00     0.101 A 
HETATM   13  C2  UNL     1     -26.795  -0.111 -12.322  1.00  0.00     0.098 A 
HETATM   14  C3  UNL     1     -26.234  -1.067 -11.525  1.00  0.00     0.046 A 
HETATM   15  C4  UNL     1     -26.537  -1.104 -10.177  1.00  0.00    -0.049 A 
HETATM   16  C11 UNL     1     -27.411  -0.154  -9.695  1.00  0.00     0.046 A 
HETATM   17  C12 UNL     1     -27.978   0.810 -10.497  1.00  0.00     0.098 A 
BRANCH  13  18
HETATM   18  O1  UNL     1     -26.495  -0.069 -13.668  1.00  0.00    -0.354 OA
HETATM   19  C1  UNL     1     -25.165  -0.082 -14.154  1.00  0.00     0.210 C 
ENDBRANCH  13  18
BRANCH  15  20
HETATM   20  C5  UNL     1     -25.966  -2.114  -9.249  1.00  0.00     0.019 C 
HETATM   21  C6  UNL     1     -24.870  -1.476  -8.466  1.00  0.00     0.009 C 
HETATM   22  C7  UNL     1     -24.574  -2.110  -7.151  1.00  0.00     0.001 C 
HETATM   23  C8  UNL     1     -25.808  -2.472  -6.354  1.00  0.00     0.000 C 
HETATM   24  C9  UNL     1     -26.616  -3.433  -7.237  1.00  0.00     0.001 C 
HETATM   25  C10 UNL     1     -27.113  -2.609  -8.397  1.00  0.00     0.009 C 
ENDBRANCH  15  20
BRANCH  17  26
HETATM   26  O2  UNL     1     -28.854   1.756  -9.987  1.00  0.00    -0.354 OA
HETATM   27  C13 UNL     1     -28.439   3.043  -9.581  1.00  0.00     0.210 C 
ENDBRANCH  17  26
ENDBRANCH   1  12
BRANCH   6  28
HETATM   28  N3  UNL     1     -29.036   5.415 -15.337  1.00  0.00    -0.226 N 
ATOM     29  H3  UNL     1     -29.769   5.957 -14.880  1.00  0.00     0.177 HD
BRANCH  28  30
HETATM   30  C17 UNL     1     -29.026   5.515 -16.747  1.00  0.00     0.139 C 
BRANCH  30  31
HETATM   31  C18 UNL     1     -29.570   6.849 -17.247  1.00  0.00     0.040 C 
BRANCH  31  32
HETATM   32  C19 UNL     1     -29.327   7.845 -16.125  1.00  0.00     0.129 C 
BRANCH  32  33
HETATM   33  N4  UNL     1     -28.619   8.972 -16.616  1.00  0.00    -0.369 N 
HETATM   34  C20 UNL     1     -27.836   8.701 -17.747  1.00  0.00     0.094 C 
HETATM   35  C21 UNL     1     -26.369   8.868 -17.450  1.00  0.00     0.156 C 
HETATM   36  C22 UNL     1     -25.777   7.673 -16.732  1.00  0.00     0.045 C 
HETATM   37  O3  UNL     1     -26.101   9.998 -16.720  1.00  0.00    -0.371 OA
HETATM   38  C23 UNL     1     -26.753  10.008 -15.489  1.00  0.00     0.156 C 
HETATM   39  C24 UNL     1     -26.392  11.339 -14.817  1.00  0.00     0.045 C 
HETATM   40  C25 UNL     1     -28.247   9.951 -15.694  1.00  0.00     0.094 C 
ENDBRANCH  32  33
ENDBRANCH  31  32
ENDBRANCH  30  31
ENDBRANCH  28  30
ENDBRANCH   6  28
TORSDOF 9
ENDMDL
MODEL 4
REMARK VINA RESULT: -8.382153628      1.566      3.104
REMARK  9 active torsions:
REMARK  status: ('A' for Active; 'I' for Inactive)
REMARK    1  A    between atoms: O1_2  and  C2_3 
REMARK    2  A    between atoms: C4_5  and  C5_6 
REMARK    3  A    between atoms: C12_13  and  O2_14 
REMARK    4  A    between atoms: C14_16  and  N1_17 
REMARK    5  A    between atoms: C16_22  and  N3_23 
REMARK    6  A    between atoms: N3_23  and  C17_25 
REMARK    7  A    between atoms: C17_25  and  C18_26 
REMARK    8  A    between atoms: C18_26  and  C19_27 
REMARK    9  A    between atoms: C19_27  and  N4_28 
ROOT
HETATM    1  N1  UNL     1     -27.965   1.474 -11.707  1.00  0.00    -0.336 N 
ATOM      2  H1  UNL     1     -28.975   1.343 -11.764  1.00  0.00     0.168 HD
HETATM    3  C15 UNL     1     -27.533   2.467 -12.351  1.00  0.00     0.144 A 
HETATM    4  N2  UNL     1     -28.477   3.201 -13.015  1.00  0.00    -0.175 N 
ATOM      5  H2  UNL     1     -29.453   2.910 -12.954  1.00  0.00     0.186 HD
HETATM    6  C16 UNL     1     -28.177   4.284 -13.739  1.00  0.00     0.679 A 
HETATM    7  N5  UNL     1     -26.883   4.705 -13.845  1.00  0.00    -0.200 N 
ATOM      8  H5  UNL     1     -26.647   5.530 -14.397  1.00  0.00     0.183 HD
HETATM    9  C26 UNL     1     -25.936   4.017 -13.214  1.00  0.00     0.133 A 
HETATM   10  C27 UNL     1     -26.237   2.891 -12.459  1.00  0.00     0.094 A 
HETATM   11 CL1  UNL     1     -24.952   2.021 -11.649  1.00  0.00    -0.079 Cl
ENDROOT
BRANCH   1  12
HETATM   12  C14 UNL     1     -27.306   0.520 -10.928  1.00  0.00     0.101 A 
HETATM   13  C2  UNL     1     -26.720  -0.607 -11.517  1.00  0.00     0.098 A 
HETATM   14  C3  UNL     1     -26.075  -1.580 -10.810  1.00  0.00     0.046 A 
HETATM   15  C4  UNL     1     -25.975  -1.481  -9.435  1.00  0.00    -0.049 A 
HETATM   16  C11 UNL     1     -26.545  -0.380  -8.834  1.00  0.00     0.046 A 
HETATM   17  C12 UNL     1     -27.196   0.603  -9.546  1.00  0.00     0.098 A 
BRANCH  13  18
HETATM   18  O1  UNL     1     -26.822  -0.701 -12.890  1.00  0.00    -0.354 OA
HETATM   19  C1  UNL     1     -25.692  -0.839 -13.731  1.00  0.00     0.210 C 
ENDBRANCH  13  18
BRANCH  15  20
HETATM   20  C5  UNL     1     -25.289  -2.500  -8.600  1.00  0.00     0.019 C 
HETATM   21  C6  UNL     1     -24.124  -1.859  -7.926  1.00  0.00     0.009 C 
HETATM   22  C7  UNL     1     -23.675  -2.516  -6.667  1.00  0.00     0.001 C 
HETATM   23  C8  UNL     1     -24.808  -2.920  -5.749  1.00  0.00     0.000 C 
HETATM   24  C9  UNL     1     -25.692  -3.876  -6.561  1.00  0.00     0.001 C 
HETATM   25  C10 UNL     1     -26.327  -3.035  -7.640  1.00  0.00     0.009 C 
ENDBRANCH  15  20
BRANCH  17  26
HETATM   26  O2  UNL     1     -27.761   1.701  -8.916  1.00  0.00    -0.354 OA
HETATM   27  C13 UNL     1     -28.308   1.641  -7.615  1.00  0.00     0.210 C 
ENDBRANCH  17  26
ENDBRANCH   1  12
BRANCH   6  28
HETATM   28  N3  UNL     1     -29.035   4.980 -14.360  1.00  0.00    -0.226 N 
ATOM     29  H3  UNL     1     -29.668   5.505 -13.757  1.00  0.00     0.177 HD
BRANCH  28  30
HETATM   30  C17 UNL     1     -29.264   5.155 -15.745  1.00  0.00     0.139 C 
BRANCH  30  31
HETATM   31  C18 UNL     1     -29.186   6.616 -16.176  1.00  0.00     0.040 C 
BRANCH  31  32
HETATM   32  C19 UNL     1     -27.737   6.859 -16.562  1.00  0.00     0.129 C 
BRANCH  32  33
HETATM   33  N4  UNL     1     -27.176   7.873 -15.743  1.00  0.00    -0.369 N 
HETATM   34  C20 UNL     1     -28.089   8.449 -14.849  1.00  0.00     0.094 C 
HETATM   35  C21 UNL     1     -28.325   9.902 -15.166  1.00  0.00     0.156 C 
HETATM   36  C22 UNL     1     -29.294  10.101 -16.313  1.00  0.00     0.045 C 
HETATM   37  O3  UNL     1     -27.164  10.578 -15.449  1.00  0.00    -0.371 OA
HETATM   38  C23 UNL     1     -26.484  10.044 -16.541  1.00  0.00     0.156 C 
HETATM   39  C24 UNL     1     -25.202  10.871 -16.700  1.00  0.00     0.045 C 
HETATM   40  C25 UNL     1     -26.110   8.608 -16.266  1.00  0.00     0.094 C 
ENDBRANCH  32  33
ENDBRANCH  31  32
ENDBRANCH  30  31
ENDBRANCH  28  30
ENDBRANCH   6  28
TORSDOF 9
ENDMDL
MODEL 5
REMARK VINA RESULT: -8.346074611      3.064     10.577
REMARK  9 active torsions:
REMARK  status: ('A' for Active; 'I' for Inactive)
REMARK    1  A    between atoms: O1_2  and  C2_3 
REMARK    2  A    between atoms: C4_5  and  C5_6 
REMARK    3  A    between atoms: C12_13  and  O2_14 
REMARK    4  A    between atoms: C14_16  and  N1_17 
REMARK    5  A    between atoms: C16_22  and  N3_23 
REMARK    6  A    between atoms: N3_23  and  C17_25 
REMARK    7  A    between atoms: C17_25  and  C18_26 
REMARK    8  A    between atoms: C18_26  and  C19_27 
REMARK    9  A    between atoms: C19_27  and  N4_28 
ROOT
HETATM    1  N1  UNL     1     -28.127   5.257 -14.272  1.00  0.00    -0.336 N 
ATOM      2  H1  UNL     1     -29.133   5.085 -14.287  1.00  0.00     0.168 HD
HETATM    3  C15 UNL     1     -27.446   4.305 -13.804  1.00  0.00     0.144 A 
HETATM    4  N2  UNL     1     -28.155   3.209 -13.399  1.00  0.00    -0.175 N 
ATOM      5  H2  UNL     1     -29.171   3.223 -13.492  1.00  0.00     0.186 HD
HETATM    6  C16 UNL     1     -27.575   2.120 -12.884  1.00  0.00     0.679 A 
HETATM    7  N5  UNL     1     -26.219   2.063 -12.742  1.00  0.00    -0.200 N 
ATOM      8  H5  UNL     1     -25.771   1.235 -12.350  1.00  0.00     0.183 HD
HETATM    9  C26 UNL     1     -25.494   3.110 -13.126  1.00  0.00     0.133 A 
HETATM   10  C27 UNL     1     -26.087   4.246 -13.662  1.00  0.00     0.094 A 
HETATM   11 CL1  UNL     1     -25.086   5.597 -14.149  1.00  0.00    -0.079 Cl
ENDROOT
BRANCH   1  12
HETATM   12  C14 UNL     1     -27.751   6.505 -14.773  1.00  0.00     0.101 A 
HETATM   13  C2  UNL     1     -27.683   6.733 -16.152  1.00  0.00     0.098 A 
HETATM   14  C3  UNL     1     -27.309   7.925 -16.704  1.00  0.00     0.046 A 
HETATM   15  C4  UNL     1     -26.973   8.987 -15.886  1.00  0.00    -0.049 A 
HETATM   16  C11 UNL     1     -27.033   8.784 -14.524  1.00  0.00     0.046 A 
HETATM   17  C12 UNL     1     -27.409   7.583 -13.966  1.00  0.00     0.098 A 
BRANCH  13  18
HETATM   18  O1  UNL     1     -28.019   5.669 -16.965  1.00  0.00    -0.354 OA
HETATM   19  C1  UNL     1     -29.177   5.670 -17.781  1.00  0.00     0.210 C 
ENDBRANCH  13  18
BRANCH  15  20
HETATM   20  C5  UNL     1     -26.557  10.312 -16.413  1.00  0.00     0.019 C 
HETATM   21  C6  UNL     1     -26.626  11.308 -15.306  1.00  0.00     0.009 C 
HETATM   22  C7  UNL     1     -25.748  12.500 -15.466  1.00  0.00     0.001 C 
HETATM   23  C8  UNL     1     -24.353  12.172 -15.950  1.00  0.00     0.000 C 
HETATM   24  C9  UNL     1     -24.528  11.458 -17.297  1.00  0.00     0.001 C 
HETATM   25  C10 UNL     1     -25.167  10.129 -16.980  1.00  0.00     0.009 C 
ENDBRANCH  15  20
BRANCH  17  26
HETATM   26  O2  UNL     1     -27.462   7.406 -12.592  1.00  0.00    -0.354 OA
HETATM   27  C13 UNL     1     -26.331   7.058 -11.821  1.00  0.00     0.210 C 
ENDBRANCH  17  26
ENDBRANCH   1  12
BRANCH   6  28
HETATM   28  N3  UNL     1     -28.212   1.092 -12.503  1.00  0.00    -0.226 N 
ATOM     29  H3  UNL     1     -29.225   1.209 -12.478  1.00  0.00     0.177 HD
BRANCH  28  30
HETATM   30  C17 UNL     1     -27.760  -0.188 -12.106  1.00  0.00     0.139 C 
BRANCH  30  31
HETATM   31  C18 UNL     1     -27.677  -1.170 -13.270  1.00  0.00     0.040 C 
BRANCH  31  32
HETATM   32  C19 UNL     1     -26.201  -1.284 -13.615  1.00  0.00     0.129 C 
BRANCH  32  33
HETATM   33  N4  UNL     1     -25.924  -0.577 -14.814  1.00  0.00    -0.369 N 
HETATM   34  C20 UNL     1     -26.852  -0.811 -15.838  1.00  0.00     0.094 C 
HETATM   35  C21 UNL     1     -26.215  -1.514 -17.007  1.00  0.00     0.156 C 
HETATM   36  C22 UNL     1     -26.060  -3.004 -16.781  1.00  0.00     0.045 C 
HETATM   37  O3  UNL     1     -24.990  -0.990 -17.336  1.00  0.00    -0.371 OA
HETATM   38  C23 UNL     1     -24.076  -1.063 -16.288  1.00  0.00     0.156 C 
HETATM   39  C24 UNL     1     -22.784  -0.405 -16.791  1.00  0.00     0.045 C 
HETATM   40  C25 UNL     1     -24.588  -0.289 -15.098  1.00  0.00     0.094 C 
ENDBRANCH  32  33
ENDBRANCH  31  32
ENDBRANCH  30  31
ENDBRANCH  28  30
ENDBRANCH   6  28
TORSDOF 9
ENDMDL
