MODEL 1
REMARK VINA RESULT: -6.382096464      0.000      0.000
REMARK  6 active torsions:
REMARK  status: ('A' for Active; 'I' for Inactive)
REMARK    1  A    between atoms: C2_2  and  C4_4 
REMARK    2  A    between atoms: N1_10  and  O1_11 
REMARK    3  A    between atoms: C8_13  and  N2_14 
REMARK       I    between atoms: N2_14  and  C9_16 
REMARK    4  A    between atoms: C9_16  and  C10_18 
REMARK    5  A    between atoms: C10_18  and  C11_19 
REMARK    6  A    between atoms: C11_19  and  C12_20 
ROOT
HETATM    1  C4  UNL     1      18.387 -38.383  -8.517  1.00  0.00     0.006 A 
HETATM    2  C5  UNL     1      18.552 -39.782  -8.323  1.00  0.00     0.085 A 
HETATM    3 CL1  UNL     1      17.232 -40.984  -8.322  1.00  0.00    -0.076 Cl
HETATM    4  S1  UNL     1      20.179 -40.032  -8.077  1.00  0.00    -0.061 SA
HETATM    5  C6  UNL     1      20.705 -38.420  -8.201  1.00  0.00     0.152 A 
HETATM    6  C7  UNL     1      19.577 -37.691  -8.436  1.00  0.00     0.120 A 
HETATM    7  N1  UNL     1      19.808 -36.254  -8.505  1.00  0.00    -0.049 N 
HETATM    8  C8  UNL     1      20.998 -35.541  -8.388  1.00  0.00     0.721 A 
HETATM    9  N3  UNL     1      22.192 -36.097  -8.179  1.00  0.00    -0.110 N 
ATOM     10  H3  UNL     1      23.018 -35.504  -8.102  1.00  0.00     0.197 HD
HETATM   11  S2  UNL     1      22.348 -37.760  -8.040  1.00  0.00     0.285 S 
HETATM   12  O3  UNL     1      22.912 -38.206  -6.712  1.00  0.00    -0.199 OA
HETATM   13  O4  UNL     1      23.232 -38.313  -9.138  1.00  0.00    -0.199 OA
ENDROOT
BRANCH   8  14
HETATM   14  N2  UNL     1      21.128 -34.128  -8.477  1.00  0.00    -0.157 N 
HETATM   15  C9  UNL     1      20.603 -33.047  -7.811  1.00  0.00     0.235 C 
HETATM   16  O2  UNL     1      19.787 -33.066  -6.884  1.00  0.00    -0.273 OA
ATOM     17  H2  UNL     1      21.770 -33.848  -9.219  1.00  0.00     0.187 HD
BRANCH  15  18
HETATM   18  C10 UNL     1      21.028 -31.630  -8.208  1.00  0.00     0.105 C 
BRANCH  18  19
HETATM   19  C11 UNL     1      20.671 -31.457  -9.658  1.00  0.00     0.024 C 
BRANCH  19  20
HETATM   20  C12 UNL     1      20.827 -30.019 -10.098  1.00  0.00     0.115 C 
HETATM   21 CL2  UNL     1      19.940 -29.805 -11.605  1.00  0.00    -0.130 Cl
ENDBRANCH  19  20
ENDBRANCH  18  19
ENDBRANCH  15  18
ENDBRANCH   8  14
BRANCH   7  22
HETATM   22  O1  UNL     1      18.683 -35.481  -8.472  1.00  0.00    -0.269 OA
ATOM     23  H1  UNL     1      18.315 -35.337  -7.608  1.00  0.00     0.245 HD
ENDBRANCH   7  22
BRANCH   1  24
HETATM   24  C2  UNL     1      16.978 -37.986  -8.787  1.00  0.00     0.015 C 
HETATM   25  C1  UNL     1      16.553 -37.172  -9.925  1.00  0.00     0.015 C 
HETATM   26  C3  UNL     1      16.363 -37.455  -7.467  1.00  0.00     0.015 C 
ENDBRANCH   1  24
TORSDOF 6
ENDMDL
MODEL 2
REMARK VINA RESULT: -6.351340390      2.079      2.413
REMARK  6 active torsions:
REMARK  status: ('A' for Active; 'I' for Inactive)
REMARK    1  A    between atoms: C2_2  and  C4_4 
REMARK    2  A    between atoms: N1_10  and  O1_11 
REMARK    3  A    between atoms: C8_13  and  N2_14 
REMARK       I    between atoms: N2_14  and  C9_16 
REMARK    4  A    between atoms: C9_16  and  C10_18 
REMARK    5  A    between atoms: C10_18  and  C11_19 
REMARK    6  A    between atoms: C11_19  and  C12_20 
ROOT
HETATM    1  C4  UNL     1      18.849 -38.167 -10.897  1.00  0.00     0.006 A 
HETATM    2  C5  UNL     1      18.687 -39.542 -10.578  1.00  0.00     0.085 A 
HETATM    3 CL1  UNL     1      18.026 -40.784 -11.678  1.00  0.00    -0.076 Cl
HETATM    4  S1  UNL     1      19.202 -39.722  -9.006  1.00  0.00    -0.061 SA
HETATM    5  C6  UNL     1      19.628 -38.106  -8.693  1.00  0.00     0.152 A 
HETATM    6  C7  UNL     1      19.353 -37.432  -9.845  1.00  0.00     0.120 A 
HETATM    7  N1  UNL     1      19.587 -35.997  -9.757  1.00  0.00    -0.049 N 
HETATM    8  C8  UNL     1      20.061 -35.238  -8.690  1.00  0.00     0.721 A 
HETATM    9  N3  UNL     1      20.397 -35.740  -7.501  1.00  0.00    -0.110 N 
ATOM     10  H3  UNL     1      20.735 -35.117  -6.768  1.00  0.00     0.197 HD
HETATM   11  S2  UNL     1      20.268 -37.383  -7.199  1.00  0.00     0.285 S 
HETATM   12  O3  UNL     1      19.328 -37.719  -6.067  1.00  0.00    -0.199 OA
HETATM   13  O4  UNL     1      21.622 -37.981  -6.881  1.00  0.00    -0.199 OA
ENDROOT
BRANCH   8  14
HETATM   14  N2  UNL     1      20.265 -33.832  -8.701  1.00  0.00    -0.157 N 
HETATM   15  C9  UNL     1      21.273 -32.980  -8.321  1.00  0.00     0.235 C 
HETATM   16  O2  UNL     1      22.354 -33.285  -7.807  1.00  0.00    -0.273 OA
ATOM     17  H2  UNL     1      19.463 -33.331  -9.086  1.00  0.00     0.187 HD
BRANCH  15  18
HETATM   18  C10 UNL     1      21.112 -31.470  -8.527  1.00  0.00     0.105 C 
BRANCH  18  19
HETATM   19  C11 UNL     1      20.462 -31.279  -9.868  1.00  0.00     0.024 C 
BRANCH  19  20
HETATM   20  C12 UNL     1      20.705 -29.887 -10.407  1.00  0.00     0.115 C 
HETATM   21 CL2  UNL     1      19.799 -29.713 -11.908  1.00  0.00    -0.130 Cl
ENDBRANCH  19  20
ENDBRANCH  18  19
ENDBRANCH  15  18
ENDBRANCH   8  14
BRANCH   7  22
HETATM   22  O1  UNL     1      19.078 -35.260 -10.789  1.00  0.00    -0.269 OA
ATOM     23  H1  UNL     1      19.634 -34.552 -11.095  1.00  0.00     0.245 HD
ENDBRANCH   7  22
BRANCH   1  24
HETATM   24  C2  UNL     1      18.461 -37.834 -12.296  1.00  0.00     0.015 C 
HETATM   25  C1  UNL     1      19.348 -37.203 -13.271  1.00  0.00     0.015 C 
HETATM   26  C3  UNL     1      17.082 -37.127 -12.262  1.00  0.00     0.015 C 
ENDBRANCH   1  24
TORSDOF 6
ENDMDL
MODEL 3
REMARK VINA RESULT: -6.318270941      2.612      3.156
REMARK  6 active torsions:
REMARK  status: ('A' for Active; 'I' for Inactive)
REMARK    1  A    between atoms: C2_2  and  C4_4 
REMARK    2  A    between atoms: N1_10  and  O1_11 
REMARK    3  A    between atoms: C8_13  and  N2_14 
REMARK       I    between atoms: N2_14  and  C9_16 
REMARK    4  A    between atoms: C9_16  and  C10_18 
REMARK    5  A    between atoms: C10_18  and  C11_19 
REMARK    6  A    between atoms: C11_19  and  C12_20 
ROOT
HETATM    1  C4  UNL     1      17.521 -37.337 -10.356  1.00  0.00     0.006 A 
HETATM    2  C5  UNL     1      16.896 -38.559  -9.987  1.00  0.00     0.085 A 
HETATM    3 CL1  UNL     1      16.206 -39.748 -11.127  1.00  0.00    -0.076 Cl
HETATM    4  S1  UNL     1      16.922 -38.616  -8.324  1.00  0.00    -0.061 SA
HETATM    5  C6  UNL     1      17.701 -37.133  -8.033  1.00  0.00     0.152 A 
HETATM    6  C7  UNL     1      17.932 -36.600  -9.266  1.00  0.00     0.120 A 
HETATM    7  N1  UNL     1      18.539 -35.276  -9.230  1.00  0.00    -0.049 N 
HETATM    8  C8  UNL     1      18.926 -34.506  -8.136  1.00  0.00     0.721 A 
HETATM    9  N3  UNL     1      18.790 -34.884  -6.864  1.00  0.00    -0.110 N 
ATOM     10  H3  UNL     1      19.097 -34.261  -6.118  1.00  0.00     0.197 HD
HETATM   11  S2  UNL     1      18.122 -36.373  -6.481  1.00  0.00     0.285 S 
HETATM   12  O3  UNL     1      16.870 -36.276  -5.643  1.00  0.00    -0.199 OA
HETATM   13  O4  UNL     1      19.120 -37.238  -5.741  1.00  0.00    -0.199 OA
ENDROOT
BRANCH   8  14
HETATM   14  N2  UNL     1      19.521 -33.217  -8.200  1.00  0.00    -0.157 N 
HETATM   15  C9  UNL     1      20.795 -32.715  -8.093  1.00  0.00     0.235 C 
HETATM   16  O2  UNL     1      21.832 -33.349  -7.871  1.00  0.00    -0.273 OA
ATOM     17  H2  UNL     1      18.832 -32.484  -8.368  1.00  0.00     0.187 HD
BRANCH  15  18
HETATM   18  C10 UNL     1      21.036 -31.210  -8.252  1.00  0.00     0.105 C 
BRANCH  18  19
HETATM   19  C11 UNL     1      21.352 -30.970  -9.701  1.00  0.00     0.024 C 
BRANCH  19  20
HETATM   20  C12 UNL     1      20.675 -29.719 -10.215  1.00  0.00     0.115 C 
HETATM   21 CL2  UNL     1      19.789 -30.135 -11.680  1.00  0.00    -0.130 Cl
ENDBRANCH  19  20
ENDBRANCH  18  19
ENDBRANCH  15  18
ENDBRANCH   8  14
BRANCH   7  22
HETATM   22  O1  UNL     1      18.543 -34.604 -10.420  1.00  0.00    -0.269 OA
ATOM     23  H1  UNL     1      19.379 -34.229 -10.670  1.00  0.00     0.245 HD
ENDBRANCH   7  22
BRANCH   1  24
HETATM   24  C2  UNL     1      17.612 -37.140 -11.829  1.00  0.00     0.015 C 
HETATM   25  C1  UNL     1      18.855 -36.866 -12.550  1.00  0.00     0.015 C 
HETATM   26  C3  UNL     1      16.494 -36.155 -12.257  1.00  0.00     0.015 C 
ENDBRANCH   1  24
TORSDOF 6
ENDMDL
MODEL 4
REMARK VINA RESULT: -6.136877828      3.619      4.597
REMARK  6 active torsions:
REMARK  status: ('A' for Active; 'I' for Inactive)
REMARK    1  A    between atoms: C2_2  and  C4_4 
REMARK    2  A    between atoms: N1_10  and  O1_11 
REMARK    3  A    between atoms: C8_13  and  N2_14 
REMARK       I    between atoms: N2_14  and  C9_16 
REMARK    4  A    between atoms: C9_16  and  C10_18 
REMARK    5  A    between atoms: C10_18  and  C11_19 
REMARK    6  A    between atoms: C11_19  and  C12_20 
ROOT
HETATM    1  C4  UNL     1      16.976 -35.943  -8.104  1.00  0.00     0.006 A 
HETATM    2  C5  UNL     1      16.365 -37.222  -8.218  1.00  0.00     0.085 A 
HETATM    3 CL1  UNL     1      15.820 -38.229  -6.847  1.00  0.00    -0.076 Cl
HETATM    4  S1  UNL     1      16.302 -37.567  -9.844  1.00  0.00    -0.061 SA
HETATM    5  C6  UNL     1      17.031 -36.148 -10.433  1.00  0.00     0.152 A 
HETATM    6  C7  UNL     1      17.323 -35.409  -9.326  1.00  0.00     0.120 A 
HETATM    7  N1  UNL     1      18.027 -34.167  -9.617  1.00  0.00    -0.049 N 
HETATM    8  C8  UNL     1      18.415 -33.633 -10.843  1.00  0.00     0.721 A 
HETATM    9  N3  UNL     1      18.190 -34.215 -12.022  1.00  0.00    -0.110 N 
ATOM     10  H3  UNL     1      18.509 -33.760 -12.877  1.00  0.00     0.197 HD
HETATM   11  S2  UNL     1      17.390 -35.685 -12.112  1.00  0.00     0.285 S 
HETATM   12  O3  UNL     1      18.210 -36.783 -12.744  1.00  0.00    -0.199 OA
HETATM   13  O4  UNL     1      16.100 -35.550 -12.893  1.00  0.00    -0.199 OA
ENDROOT
BRANCH   8  14
HETATM   14  N2  UNL     1      19.098 -32.401 -11.030  1.00  0.00    -0.157 N 
HETATM   15  C9  UNL     1      19.031 -31.365 -11.930  1.00  0.00     0.235 C 
HETATM   16  O2  UNL     1      18.282 -31.272 -12.908  1.00  0.00    -0.273 OA
ATOM     17  H2  UNL     1      19.814 -32.248 -10.320  1.00  0.00     0.187 HD
BRANCH  15  18
HETATM   18  C10 UNL     1      19.959 -30.156 -11.769  1.00  0.00     0.105 C 
BRANCH  18  19
HETATM   19  C11 UNL     1      20.131 -29.932 -10.293  1.00  0.00     0.024 C 
BRANCH  19  20
HETATM   20  C12 UNL     1      21.431 -30.518  -9.792  1.00  0.00     0.115 C 
HETATM   21 CL2  UNL     1      21.120 -31.308  -8.248  1.00  0.00    -0.130 Cl
ENDBRANCH  19  20
ENDBRANCH  18  19
ENDBRANCH  15  18
ENDBRANCH   8  14
BRANCH   7  22
HETATM   22  O1  UNL     1      18.567 -33.535  -8.532  1.00  0.00    -0.269 OA
ATOM     23  H1  UNL     1      18.083 -32.778  -8.223  1.00  0.00     0.245 HD
ENDBRANCH   7  22
BRANCH   1  24
HETATM   24  C2  UNL     1      17.082 -35.462  -6.699  1.00  0.00     0.015 C 
HETATM   25  C1  UNL     1      16.867 -34.077  -6.282  1.00  0.00     0.015 C 
HETATM   26  C3  UNL     1      18.391 -36.027  -6.090  1.00  0.00     0.015 C 
ENDBRANCH   1  24
TORSDOF 6
ENDMDL
MODEL 5
REMARK VINA RESULT: -6.075310768      2.370      3.301
REMARK  6 active torsions:
REMARK  status: ('A' for Active; 'I' for Inactive)
REMARK    1  A    between atoms: C2_2  and  C4_4 
REMARK    2  A    between atoms: N1_10  and  O1_11 
REMARK    3  A    between atoms: C8_13  and  N2_14 
REMARK       I    between atoms: N2_14  and  C9_16 
REMARK    4  A    between atoms: C9_16  and  C10_18 
REMARK    5  A    between atoms: C10_18  and  C11_19 
REMARK    6  A    between atoms: C11_19  and  C12_20 
ROOT
HETATM    1  C4  UNL     1      19.982 -37.956  -8.839  1.00  0.00     0.006 A 
HETATM    2  C5  UNL     1      19.455 -39.184  -8.355  1.00  0.00     0.085 A 
HETATM    3 CL1  UNL     1      19.622 -40.767  -9.165  1.00  0.00    -0.076 Cl
HETATM    4  S1  UNL     1      18.655 -38.826  -6.940  1.00  0.00    -0.061 SA
HETATM    5  C6  UNL     1      18.942 -37.150  -6.905  1.00  0.00     0.152 A 
HETATM    6  C7  UNL     1      19.673 -36.887  -8.025  1.00  0.00     0.120 A 
HETATM    7  N1  UNL     1      19.966 -35.473  -8.217  1.00  0.00    -0.049 N 
HETATM    8  C8  UNL     1      19.629 -34.380  -7.422  1.00  0.00     0.721 A 
HETATM    9  N3  UNL     1      18.937 -34.462  -6.285  1.00  0.00    -0.110 N 
ATOM     10  H3  UNL     1      18.727 -33.614  -5.760  1.00  0.00     0.197 HD
HETATM   11  S2  UNL     1      18.407 -35.945  -5.711  1.00  0.00     0.285 S 
HETATM   12  O3  UNL     1      16.907 -36.042  -5.577  1.00  0.00    -0.199 OA
HETATM   13  O4  UNL     1      19.023 -36.253  -4.362  1.00  0.00    -0.199 OA
ENDROOT
BRANCH   8  14
HETATM   14  N2  UNL     1      19.968 -33.027  -7.689  1.00  0.00    -0.157 N 
HETATM   15  C9  UNL     1      21.085 -32.360  -8.131  1.00  0.00     0.235 C 
HETATM   16  O2  UNL     1      22.184 -32.849  -8.412  1.00  0.00    -0.273 OA
ATOM     17  H2  UNL     1      19.189 -32.393  -7.509  1.00  0.00     0.187 HD
BRANCH  15  18
HETATM   18  C10 UNL     1      21.040 -30.840  -8.319  1.00  0.00     0.105 C 
BRANCH  18  19
HETATM   19  C11 UNL     1      21.164 -30.579  -9.794  1.00  0.00     0.024 C 
BRANCH  19  20
HETATM   20  C12 UNL     1      20.038 -31.227 -10.567  1.00  0.00     0.115 C 
HETATM   21 CL2  UNL     1      19.621 -30.175 -11.918  1.00  0.00    -0.130 Cl
ENDBRANCH  19  20
ENDBRANCH  18  19
ENDBRANCH  15  18
ENDBRANCH   8  14
BRANCH   7  22
HETATM   22  O1  UNL     1      20.460 -35.142  -9.448  1.00  0.00    -0.269 OA
ATOM     23  H1  UNL     1      20.029 -34.409  -9.872  1.00  0.00     0.245 HD
ENDBRANCH   7  22
BRANCH   1  24
HETATM   24  C2  UNL     1      20.766 -38.103 -10.096  1.00  0.00     0.015 C 
HETATM   25  C1  UNL     1      22.137 -37.628 -10.275  1.00  0.00     0.015 C 
HETATM   26  C3  UNL     1      19.868 -37.663 -11.281  1.00  0.00     0.015 C 
ENDBRANCH   1  24
TORSDOF 6
ENDMDL
