MODEL 1
REMARK VINA RESULT: -9.288525748      0.000      0.000
REMARK  7 active torsions:
REMARK  status: ('A' for Active; 'I' for Inactive)
REMARK    1  A    between atoms: C2_2  and  C3_3 
REMARK    2  A    between atoms: C3_3  and  C4_4 
REMARK    3  A    between atoms: C9_10  and  O1_11 
REMARK    4  A    between atoms: N1_15  and  C11_16 
REMARK    5  A    between atoms: C14_19  and  O3_20 
REMARK    6  A    between atoms: C15_22  and  O4_23 
REMARK    7  A    between atoms: N2_28  and  C18_29 
ROOT
HETATM    1  C4  UNL     1      24.013 -21.880  -8.378  1.00  0.00     0.001 A 
HETATM    2  C5  UNL     1      24.719 -22.594  -7.432  1.00  0.00     0.045 A 
HETATM    3 CL1  UNL     1      26.367 -22.102  -7.012  1.00  0.00    -0.084 Cl
HETATM    4  C6  UNL     1      24.189 -23.694  -6.786  1.00  0.00     0.055 A 
HETATM    5  C7  UNL     1      22.910 -24.118  -7.077  1.00  0.00     0.059 A 
HETATM    6  C8  UNL     1      22.180 -23.419  -8.022  1.00  0.00     0.093 A 
HETATM    7  C9  UNL     1      22.740 -22.302  -8.667  1.00  0.00     0.091 A 
HETATM    8  C10 UNL     1      20.900 -23.838  -8.312  1.00  0.00     0.271 A 
HETATM    9  O2  UNL     1      20.259 -23.186  -9.174  1.00  0.00    -0.266 OA
HETATM   10  N1  UNL     1      20.381 -24.907  -7.683  1.00  0.00    -0.229 N 
HETATM   11  C17 UNL     1      21.128 -25.546  -6.779  1.00  0.00     0.337 A 
HETATM   12  O5  UNL     1      20.601 -26.555  -6.205  1.00  0.00    -0.246 OA
HETATM   13  N2  UNL     1      22.379 -25.180  -6.459  1.00  0.00    -0.298 N 
ENDROOT
BRANCH  10  14
HETATM   14  C11 UNL     1      19.060 -25.290  -8.023  1.00  0.00     0.050 A 
HETATM   15  C12 UNL     1      18.867 -26.316  -8.915  1.00  0.00     0.033 A 
HETATM   16  C13 UNL     1      17.584 -26.733  -9.285  1.00  0.00     0.041 A 
HETATM   17  C14 UNL     1      16.475 -26.105  -8.745  1.00  0.00     0.098 A 
HETATM   18  C15 UNL     1      16.664 -25.076  -7.851  1.00  0.00     0.101 A 
HETATM   19  C16 UNL     1      17.937 -24.684  -7.503  1.00  0.00     0.069 A 
BRANCH  17  20
HETATM   20  O3  UNL     1      15.207 -26.531  -9.123  1.00  0.00    -0.358 OA
ATOM     21  H3  UNL     1      14.482 -25.918  -9.078  1.00  0.00     0.217 HD
ENDBRANCH  17  20
BRANCH  18  22
HETATM   22  O4  UNL     1      15.559 -24.454  -7.318  1.00  0.00    -0.358 OA
ATOM     23  H4  UNL     1      15.668 -23.601  -6.913  1.00  0.00     0.217 HD
ENDBRANCH  18  22
ENDBRANCH  10  14
BRANCH  13  24
HETATM   24  C18 UNL     1      23.114 -25.923  -5.487  1.00  0.00     0.129 C 
HETATM   25  C19 UNL     1      23.698 -27.204  -6.098  1.00  0.00     0.027 C 
ENDBRANCH  13  24
BRANCH   7  26
HETATM   26  O1  UNL     1      21.930 -21.692  -9.579  1.00  0.00    -0.359 OA
ATOM     27  H1  UNL     1      21.141 -21.216  -9.348  1.00  0.00     0.217 HD
ENDBRANCH   7  26
BRANCH   1  28
HETATM   28  C3  UNL     1      24.569 -20.705  -9.073  1.00  0.00     0.069 C 
BRANCH  28  29
HETATM   29  C2  UNL     1      24.501 -19.470  -8.278  1.00  0.00    -0.032 C 
HETATM   30  C1  UNL     1      23.356 -18.840  -8.130  1.00  0.00     0.007 C 
ENDBRANCH  28  29
ENDBRANCH   1  28
TORSDOF 7
ENDMDL
MODEL 2
REMARK VINA RESULT: -8.727566176      0.584      1.324
REMARK  7 active torsions:
REMARK  status: ('A' for Active; 'I' for Inactive)
REMARK    1  A    between atoms: C2_2  and  C3_3 
REMARK    2  A    between atoms: C3_3  and  C4_4 
REMARK    3  A    between atoms: C9_10  and  O1_11 
REMARK    4  A    between atoms: N1_15  and  C11_16 
REMARK    5  A    between atoms: C14_19  and  O3_20 
REMARK    6  A    between atoms: C15_22  and  O4_23 
REMARK    7  A    between atoms: N2_28  and  C18_29 
ROOT
HETATM    1  C4  UNL     1      24.023 -21.774  -8.415  1.00  0.00     0.001 A 
HETATM    2  C5  UNL     1      24.741 -22.463  -7.459  1.00  0.00     0.045 A 
HETATM    3 CL1  UNL     1      26.356 -21.904  -7.003  1.00  0.00    -0.084 Cl
HETATM    4  C6  UNL     1      24.245 -23.589  -6.829  1.00  0.00     0.055 A 
HETATM    5  C7  UNL     1      22.991 -24.065  -7.148  1.00  0.00     0.059 A 
HETATM    6  C8  UNL     1      22.251 -23.392  -8.103  1.00  0.00     0.093 A 
HETATM    7  C9  UNL     1      22.775 -22.248  -8.731  1.00  0.00     0.091 A 
HETATM    8  C10 UNL     1      20.996 -23.864  -8.421  1.00  0.00     0.271 A 
HETATM    9  O2  UNL     1      20.345 -23.235  -9.292  1.00  0.00    -0.266 OA
HETATM   10  N1  UNL     1      20.511 -24.958  -7.808  1.00  0.00    -0.229 N 
HETATM   11  C17 UNL     1      21.267 -25.570  -6.893  1.00  0.00     0.337 A 
HETATM   12  O5  UNL     1      20.773 -26.604  -6.335  1.00  0.00    -0.246 OA
HETATM   13  N2  UNL     1      22.495 -25.153  -6.546  1.00  0.00    -0.298 N 
ENDROOT
BRANCH  10  14
HETATM   14  C11 UNL     1      19.216 -25.395  -8.177  1.00  0.00     0.050 A 
HETATM   15  C12 UNL     1      18.119 -24.810  -7.595  1.00  0.00     0.033 A 
HETATM   16  C13 UNL     1      16.817 -25.205  -7.923  1.00  0.00     0.041 A 
HETATM   17  C14 UNL     1      16.618 -26.207  -8.856  1.00  0.00     0.098 A 
HETATM   18  C15 UNL     1      17.715 -26.797  -9.442  1.00  0.00     0.101 A 
HETATM   19  C16 UNL     1      18.986 -26.391  -9.102  1.00  0.00     0.069 A 
BRANCH  17  20
HETATM   20  O3  UNL     1      15.318 -26.588  -9.172  1.00  0.00    -0.358 OA
ATOM     21  H3  UNL     1      15.049 -26.598 -10.083  1.00  0.00     0.217 HD
ENDBRANCH  17  20
BRANCH  18  22
HETATM   22  O4  UNL     1      17.512 -27.793 -10.369  1.00  0.00    -0.358 OA
ATOM     23  H4  UNL     1      18.208 -28.422 -10.521  1.00  0.00     0.217 HD
ENDBRANCH  18  22
ENDBRANCH  10  14
BRANCH  13  24
HETATM   24  C18 UNL     1      23.242 -25.869  -5.564  1.00  0.00     0.129 C 
HETATM   25  C19 UNL     1      23.744 -27.208  -6.120  1.00  0.00     0.027 C 
ENDBRANCH  13  24
BRANCH   7  26
HETATM   26  O1  UNL     1      21.957 -21.668  -9.656  1.00  0.00    -0.359 OA
ATOM     27  H1  UNL     1      21.082 -21.356  -9.462  1.00  0.00     0.217 HD
ENDBRANCH   7  26
BRANCH   1  28
HETATM   28  C3  UNL     1      24.542 -20.572  -9.093  1.00  0.00     0.069 C 
BRANCH  28  29
HETATM   29  C2  UNL     1      24.410 -19.347  -8.290  1.00  0.00    -0.032 C 
HETATM   30  C1  UNL     1      23.250 -18.735  -8.200  1.00  0.00     0.007 C 
ENDBRANCH  28  29
ENDBRANCH   1  28
TORSDOF 7
ENDMDL
MODEL 3
REMARK VINA RESULT: -8.410924254      1.168      1.480
REMARK  7 active torsions:
REMARK  status: ('A' for Active; 'I' for Inactive)
REMARK    1  A    between atoms: C2_2  and  C3_3 
REMARK    2  A    between atoms: C3_3  and  C4_4 
REMARK    3  A    between atoms: C9_10  and  O1_11 
REMARK    4  A    between atoms: N1_15  and  C11_16 
REMARK    5  A    between atoms: C14_19  and  O3_20 
REMARK    6  A    between atoms: C15_22  and  O4_23 
REMARK    7  A    between atoms: N2_28  and  C18_29 
ROOT
HETATM    1  C4  UNL     1      22.972 -21.816  -8.586  1.00  0.00     0.001 A 
HETATM    2  C5  UNL     1      23.792 -22.487  -7.702  1.00  0.00     0.045 A 
HETATM    3 CL1  UNL     1      25.285 -21.723  -7.137  1.00  0.00    -0.084 Cl
HETATM    4  C6  UNL     1      23.493 -23.750  -7.228  1.00  0.00     0.055 A 
HETATM    5  C7  UNL     1      22.342 -24.389  -7.637  1.00  0.00     0.059 A 
HETATM    6  C8  UNL     1      21.503 -23.737  -8.523  1.00  0.00     0.093 A 
HETATM    7  C9  UNL     1      21.827 -22.452  -8.993  1.00  0.00     0.091 A 
HETATM    8  C10 UNL     1      20.350 -24.372  -8.930  1.00  0.00     0.271 A 
HETATM    9  O2  UNL     1      19.606 -23.758  -9.735  1.00  0.00    -0.266 OA
HETATM   10  N1  UNL     1      20.056 -25.600  -8.469  1.00  0.00    -0.229 N 
HETATM   11  C17 UNL     1      20.900 -26.184  -7.615  1.00  0.00     0.337 A 
HETATM   12  O5  UNL     1      20.588 -27.348  -7.200  1.00  0.00    -0.246 OA
HETATM   13  N2  UNL     1      22.036 -25.611  -7.186  1.00  0.00    -0.298 N 
ENDROOT
BRANCH  10  14
HETATM   14  C11 UNL     1      18.857 -26.201  -8.923  1.00  0.00     0.050 A 
HETATM   15  C12 UNL     1      18.897 -27.048 -10.003  1.00  0.00     0.033 A 
HETATM   16  C13 UNL     1      17.742 -27.668 -10.492  1.00  0.00     0.041 A 
HETATM   17  C14 UNL     1      16.524 -27.429  -9.880  1.00  0.00     0.098 A 
HETATM   18  C15 UNL     1      16.479 -26.580  -8.798  1.00  0.00     0.101 A 
HETATM   19  C16 UNL     1      17.630 -25.983  -8.335  1.00  0.00     0.069 A 
BRANCH  17  20
HETATM   20  O3  UNL     1      15.384 -28.052 -10.378  1.00  0.00    -0.358 OA
ATOM     21  H3  UNL     1      14.549 -27.890  -9.956  1.00  0.00     0.217 HD
ENDBRANCH  17  20
BRANCH  18  22
HETATM   22  O4  UNL     1      15.265 -26.347  -8.193  1.00  0.00    -0.358 OA
ATOM     23  H4  UNL     1      14.921 -27.000  -7.596  1.00  0.00     0.217 HD
ENDBRANCH  18  22
ENDBRANCH  10  14
BRANCH  13  24
HETATM   24  C18 UNL     1      22.889 -26.307  -6.278  1.00  0.00     0.129 C 
HETATM   25  C19 UNL     1      22.361 -26.209  -4.840  1.00  0.00     0.027 C 
ENDBRANCH  13  24
BRANCH   7  26
HETATM   26  O1  UNL     1      20.927 -21.908  -9.862  1.00  0.00    -0.359 OA
ATOM     27  H1  UNL     1      20.490 -21.078  -9.715  1.00  0.00     0.217 HD
ENDBRANCH   7  26
BRANCH   1  28
HETATM   28  C3  UNL     1      23.282 -20.469  -9.098  1.00  0.00     0.069 C 
BRANCH  28  29
HETATM   29  C2  UNL     1      24.055 -20.483 -10.350  1.00  0.00    -0.032 C 
HETATM   30  C1  UNL     1      25.105 -19.704 -10.489  1.00  0.00     0.007 C 
ENDBRANCH  28  29
ENDBRANCH   1  28
TORSDOF 7
ENDMDL
MODEL 4
REMARK VINA RESULT: -8.365782307      1.371      1.990
REMARK  7 active torsions:
REMARK  status: ('A' for Active; 'I' for Inactive)
REMARK    1  A    between atoms: C2_2  and  C3_3 
REMARK    2  A    between atoms: C3_3  and  C4_4 
REMARK    3  A    between atoms: C9_10  and  O1_11 
REMARK    4  A    between atoms: N1_15  and  C11_16 
REMARK    5  A    between atoms: C14_19  and  O3_20 
REMARK    6  A    between atoms: C15_22  and  O4_23 
REMARK    7  A    between atoms: N2_28  and  C18_29 
ROOT
HETATM    1  C4  UNL     1      22.845 -22.411  -8.543  1.00  0.00     0.001 A 
HETATM    2  C5  UNL     1      23.567 -23.121  -7.605  1.00  0.00     0.045 A 
HETATM    3 CL1  UNL     1      25.142 -22.518  -7.070  1.00  0.00    -0.084 Cl
HETATM    4  C6  UNL     1      23.106 -24.302  -7.056  1.00  0.00     0.055 A 
HETATM    5  C7  UNL     1      21.885 -24.815  -7.439  1.00  0.00     0.059 A 
HETATM    6  C8  UNL     1      21.141 -24.122  -8.377  1.00  0.00     0.093 A 
HETATM    7  C9  UNL     1      21.629 -22.921  -8.923  1.00  0.00     0.091 A 
HETATM    8  C10 UNL     1      19.919 -24.630  -8.759  1.00  0.00     0.271 A 
HETATM    9  O2  UNL     1      19.265 -23.981  -9.612  1.00  0.00    -0.266 OA
HETATM   10  N1  UNL     1      19.469 -25.778  -8.224  1.00  0.00    -0.229 N 
HETATM   11  C17 UNL     1      20.226 -26.407  -7.322  1.00  0.00     0.337 A 
HETATM   12  O5  UNL     1      19.765 -27.492  -6.838  1.00  0.00    -0.246 OA
HETATM   13  N2  UNL     1      21.423 -25.956  -6.915  1.00  0.00    -0.298 N 
ENDROOT
BRANCH  10  14
HETATM   14  C11 UNL     1      18.205 -26.250  -8.656  1.00  0.00     0.050 A 
HETATM   15  C12 UNL     1      17.065 -25.658  -8.171  1.00  0.00     0.033 A 
HETATM   16  C13 UNL     1      15.792 -26.087  -8.565  1.00  0.00     0.041 A 
HETATM   17  C14 UNL     1      15.668 -27.130  -9.465  1.00  0.00     0.098 A 
HETATM   18  C15 UNL     1      16.808 -27.727  -9.954  1.00  0.00     0.101 A 
HETATM   19  C16 UNL     1      18.049 -27.287  -9.551  1.00  0.00     0.069 A 
BRANCH  17  20
HETATM   20  O3  UNL     1      14.396 -27.544  -9.847  1.00  0.00    -0.358 OA
ATOM     21  H3  UNL     1      13.743 -26.889 -10.063  1.00  0.00     0.217 HD
ENDBRANCH  17  20
BRANCH  18  22
HETATM   22  O4  UNL     1      16.678 -28.764 -10.849  1.00  0.00    -0.358 OA
ATOM     23  H4  UNL     1      17.359 -29.426 -10.880  1.00  0.00     0.217 HD
ENDBRANCH  18  22
ENDBRANCH  10  14
BRANCH  13  24
HETATM   24  C18 UNL     1      22.175 -26.694  -5.952  1.00  0.00     0.129 C 
HETATM   25  C19 UNL     1      21.900 -26.186  -4.531  1.00  0.00     0.027 C 
ENDBRANCH  13  24
BRANCH   7  26
HETATM   26  O1  UNL     1      20.812 -22.325  -9.838  1.00  0.00    -0.359 OA
ATOM     27  H1  UNL     1      20.773 -22.579 -10.753  1.00  0.00     0.217 HD
ENDBRANCH   7  26
BRANCH   1  28
HETATM   28  C3  UNL     1      23.327 -21.150  -9.136  1.00  0.00     0.069 C 
BRANCH  28  29
HETATM   29  C2  UNL     1      23.022 -19.966  -8.317  1.00  0.00    -0.032 C 
HETATM   30  C1  UNL     1      23.909 -19.004  -8.189  1.00  0.00     0.007 C 
ENDBRANCH  28  29
ENDBRANCH   1  28
TORSDOF 7
ENDMDL
MODEL 5
REMARK VINA RESULT: -8.321462684      2.650      6.897
REMARK  7 active torsions:
REMARK  status: ('A' for Active; 'I' for Inactive)
REMARK    1  A    between atoms: C2_2  and  C3_3 
REMARK    2  A    between atoms: C3_3  and  C4_4 
REMARK    3  A    between atoms: C9_10  and  O1_11 
REMARK    4  A    between atoms: N1_15  and  C11_16 
REMARK    5  A    between atoms: C14_19  and  O3_20 
REMARK    6  A    between atoms: C15_22  and  O4_23 
REMARK    7  A    between atoms: N2_28  and  C18_29 
ROOT
HETATM    1  C4  UNL     1      18.951 -26.419  -8.823  1.00  0.00     0.001 A 
HETATM    2  C5  UNL     1      19.657 -27.326  -8.060  1.00  0.00     0.045 A 
HETATM    3 CL1  UNL     1      19.009 -28.953  -7.809  1.00  0.00    -0.084 Cl
HETATM    4  C6  UNL     1      20.870 -27.016  -7.474  1.00  0.00     0.055 A 
HETATM    5  C7  UNL     1      21.419 -25.763  -7.639  1.00  0.00     0.059 A 
HETATM    6  C8  UNL     1      20.731 -24.835  -8.400  1.00  0.00     0.093 A 
HETATM    7  C9  UNL     1      19.498 -25.171  -8.988  1.00  0.00     0.091 A 
HETATM    8  C10 UNL     1      21.279 -23.582  -8.570  1.00  0.00     0.271 A 
HETATM    9  O2  UNL     1      20.634 -22.758  -9.265  1.00  0.00    -0.266 OA
HETATM   10  N1  UNL     1      22.459 -23.279  -8.002  1.00  0.00    -0.229 N 
HETATM   11  C17 UNL     1      23.082 -24.212  -7.278  1.00  0.00     0.337 A 
HETATM   12  O5  UNL     1      24.198 -23.887  -6.755  1.00  0.00    -0.246 OA
HETATM   13  N2  UNL     1      22.593 -25.446  -7.081  1.00  0.00    -0.298 N 
ENDROOT
BRANCH  10  14
HETATM   14  C11 UNL     1      22.972 -21.975  -8.212  1.00  0.00     0.050 A 
HETATM   15  C12 UNL     1      22.888 -21.050  -7.202  1.00  0.00     0.033 A 
HETATM   16  C13 UNL     1      23.379 -19.748  -7.358  1.00  0.00     0.041 A 
HETATM   17  C14 UNL     1      23.966 -19.375  -8.554  1.00  0.00     0.098 A 
HETATM   18  C15 UNL     1      24.051 -20.300  -9.570  1.00  0.00     0.101 A 
HETATM   19  C16 UNL     1      23.561 -21.574  -9.392  1.00  0.00     0.069 A 
BRANCH  17  20
HETATM   20  O3  UNL     1      24.448 -18.078  -8.694  1.00  0.00    -0.358 OA
ATOM     21  H3  UNL     1      24.628 -17.744  -9.565  1.00  0.00     0.217 HD
ENDBRANCH  17  20
BRANCH  18  22
HETATM   22  O4  UNL     1      24.635 -19.923 -10.757  1.00  0.00    -0.358 OA
ATOM     23  H4  UNL     1      24.213 -20.172 -11.571  1.00  0.00     0.217 HD
ENDBRANCH  18  22
ENDBRANCH  10  14
BRANCH  13  24
HETATM   24  C18 UNL     1      23.318 -26.383  -6.285  1.00  0.00     0.129 C 
HETATM   25  C19 UNL     1      22.966 -26.233  -4.799  1.00  0.00     0.027 C 
ENDBRANCH  13  24
BRANCH   7  26
HETATM   26  O1  UNL     1      18.911 -24.178  -9.715  1.00  0.00    -0.359 OA
ATOM     27  H1  UNL     1      19.212 -23.905 -10.573  1.00  0.00     0.217 HD
ENDBRANCH   7  26
BRANCH   1  28
HETATM   28  C3  UNL     1      17.657 -26.739  -9.452  1.00  0.00     0.069 C 
BRANCH  28  29
HETATM   29  C2  UNL     1      16.500 -26.407  -8.607  1.00  0.00    -0.032 C 
HETATM   30  C1  UNL     1      15.292 -26.793  -8.957  1.00  0.00     0.007 C 
ENDBRANCH  28  29
ENDBRANCH   1  28
TORSDOF 7
ENDMDL
