MODEL 1
REMARK VINA RESULT: -7.061242861      0.000      0.000
REMARK  13 active torsions:
REMARK  status: ('A' for Active; 'I' for Inactive)
REMARK    1  A    between atoms: N1_1  and  C1_5 
REMARK    2  A    between atoms: C1_5  and  C2_6 
REMARK    3  A    between atoms: C2_6  and  C3_7 
REMARK    4  A    between atoms: C3_7  and  N2_8 
REMARK    5  A    between atoms: N2_8  and  C4_10 
REMARK    6  A    between atoms: C7_15  and  N4_16 
REMARK    7  A    between atoms: N4_16  and  C8_18 
REMARK    8  A    between atoms: C8_18  and  C9_19 
REMARK    9  A    between atoms: C9_19  and  C10_20 
REMARK   10  A    between atoms: C10_20  and  C11_21 
REMARK   11  A    between atoms: C11_21  and  N5_22 
REMARK   12  A    between atoms: N5_22  and  C12_25 
REMARK   13  A    between atoms: C12_25  and  C13_26 
ROOT
HETATM    1  C4  UNL     1      21.092   4.658  33.761  1.00  0.00     0.118 A 
HETATM    2  C5  UNL     1      21.165   3.316  34.027  1.00  0.00     0.066 A 
HETATM    3  C6  UNL     1      22.318   2.789  34.630  1.00  0.00     0.110 A 
HETATM    4  N3  UNL     1      23.317   3.632  34.926  1.00  0.00    -0.202 N 
ATOM      5  H3  UNL     1      24.157   3.254  35.363  1.00  0.00     0.183 HD
HETATM    6  C7  UNL     1      23.265   4.949  34.674  1.00  0.00     0.679 A 
HETATM    7  N6  UNL     1      22.147   5.439  34.093  1.00  0.00    -0.177 N 
ATOM      8  H6  UNL     1      22.096   6.439  33.896  1.00  0.00     0.185 HD
ENDROOT
BRANCH   6   9
HETATM    9  N4  UNL     1      24.226   5.758  34.960  1.00  0.00    -0.226 N 
ATOM     10  H4  UNL     1      24.424   5.986  35.935  1.00  0.00     0.177 HD
BRANCH   9  11
HETATM   11  C8  UNL     1      25.030   6.348  33.906  1.00  0.00     0.138 C 
BRANCH  11  12
HETATM   12  C9  UNL     1      25.189   7.828  34.066  1.00  0.00     0.022 C 
BRANCH  12  13
HETATM   13  C10 UNL     1      24.132   8.458  34.921  1.00  0.00     0.029 C 
BRANCH  13  14
HETATM   14  C11 UNL     1      24.024   9.942  34.770  1.00  0.00     0.232 C 
BRANCH  14  15
HETATM   15  N5  UNL     1      24.880  10.479  33.737  1.00  0.00    -0.075 N 
ATOM     16  H52 UNL     1      25.560   9.796  33.404  1.00  0.00     0.277 HD
ATOM     17  H51 UNL     1      24.380  10.627  32.860  1.00  0.00     0.277 HD
BRANCH  15  18
HETATM   18  C12 UNL     1      25.506  11.684  34.217  1.00  0.00     0.237 C 
BRANCH  18  19
HETATM   19  C13 UNL     1      26.075  12.551  33.147  1.00  0.00     0.011 A 
HETATM   20  C14 UNL     1      27.521  12.835  33.028  1.00  0.00     0.007 A 
HETATM   21  C15 UNL     1      26.576  13.922  33.514  1.00  0.00     0.007 A 
ENDBRANCH  18  19
ENDBRANCH  15  18
ENDBRANCH  14  15
ENDBRANCH  13  14
ENDBRANCH  12  13
ENDBRANCH  11  12
ENDBRANCH   9  11
ENDBRANCH   6   9
BRANCH   1  22
HETATM   22  N2  UNL     1      20.085   5.215  33.218  1.00  0.00    -0.376 N 
ATOM     23  H2  UNL     1      19.605   5.954  33.733  1.00  0.00     0.161 HD
BRANCH  22  24
HETATM   24  C3  UNL     1      19.587   4.857  31.918  1.00  0.00     0.123 C 
BRANCH  24  25
HETATM   25  C2  UNL     1      20.619   5.324  30.890  1.00  0.00     0.047 C 
BRANCH  25  26
HETATM   26  C1  UNL     1      21.265   4.155  30.195  1.00  0.00     0.231 C 
BRANCH  26  27
HETATM   27  N1  UNL     1      20.522   3.708  29.048  1.00  0.00    -0.079 N 
ATOM     28  H13 UNL     1      19.659   3.243  29.331  1.00  0.00     0.274 HD
ATOM     29  H12 UNL     1      20.126   4.499  28.540  1.00  0.00     0.274 HD
ATOM     30  H11 UNL     1      21.071   3.113  28.428  1.00  0.00     0.274 HD
ENDBRANCH  26  27
ENDBRANCH  25  26
ENDBRANCH  24  25
ENDBRANCH  22  24
ENDBRANCH   1  22
TORSDOF 13
ENDMDL
MODEL 2
REMARK VINA RESULT: -6.877391635      1.638      7.609
REMARK  13 active torsions:
REMARK  status: ('A' for Active; 'I' for Inactive)
REMARK    1  A    between atoms: N1_1  and  C1_5 
REMARK    2  A    between atoms: C1_5  and  C2_6 
REMARK    3  A    between atoms: C2_6  and  C3_7 
REMARK    4  A    between atoms: C3_7  and  N2_8 
REMARK    5  A    between atoms: N2_8  and  C4_10 
REMARK    6  A    between atoms: C7_15  and  N4_16 
REMARK    7  A    between atoms: N4_16  and  C8_18 
REMARK    8  A    between atoms: C8_18  and  C9_19 
REMARK    9  A    between atoms: C9_19  and  C10_20 
REMARK   10  A    between atoms: C10_20  and  C11_21 
REMARK   11  A    between atoms: C11_21  and  N5_22 
REMARK   12  A    between atoms: N5_22  and  C12_25 
REMARK   13  A    between atoms: C12_25  and  C13_26 
ROOT
HETATM    1  C4  UNL     1      24.879   8.176  34.029  1.00  0.00     0.118 A 
HETATM    2  C5  UNL     1      24.686   7.566  35.241  1.00  0.00     0.066 A 
HETATM    3  C6  UNL     1      24.496   6.176  35.298  1.00  0.00     0.110 A 
HETATM    4  N3  UNL     1      24.512   5.490  34.147  1.00  0.00    -0.202 N 
ATOM      5  H3  UNL     1      24.374   4.480  34.183  1.00  0.00     0.183 HD
HETATM    6  C7  UNL     1      24.700   6.068  32.950  1.00  0.00     0.679 A 
HETATM    7  N6  UNL     1      24.881   7.407  32.914  1.00  0.00    -0.177 N 
ATOM      8  H6  UNL     1      25.024   7.857  32.010  1.00  0.00     0.185 HD
ENDROOT
BRANCH   6   9
HETATM    9  N4  UNL     1      24.716   5.405  31.845  1.00  0.00    -0.226 N 
ATOM     10  H4  UNL     1      25.488   5.531  31.189  1.00  0.00     0.177 HD
BRANCH   9  11
HETATM   11  C8  UNL     1      23.644   4.482  31.526  1.00  0.00     0.138 C 
BRANCH  11  12
HETATM   12  C9  UNL     1      22.370   5.183  31.168  1.00  0.00     0.022 C 
BRANCH  12  13
HETATM   13  C10 UNL     1      21.345   4.287  30.542  1.00  0.00     0.029 C 
BRANCH  13  14
HETATM   14  C11 UNL     1      19.935   4.600  30.933  1.00  0.00     0.232 C 
BRANCH  14  15
HETATM   15  N5  UNL     1      19.363   3.639  31.847  1.00  0.00    -0.075 N 
ATOM     16  H52 UNL     1      18.590   3.120  31.430  1.00  0.00     0.277 HD
ATOM     17  H51 UNL     1      19.989   2.852  32.021  1.00  0.00     0.277 HD
BRANCH  15  18
HETATM   18  C12 UNL     1      18.978   4.309  33.062  1.00  0.00     0.237 C 
BRANCH  18  19
HETATM   19  C13 UNL     1      19.768   3.911  34.262  1.00  0.00     0.011 A 
HETATM   20  C14 UNL     1      21.169   4.331  34.476  1.00  0.00     0.007 A 
HETATM   21  C15 UNL     1      20.861   2.889  34.106  1.00  0.00     0.007 A 
ENDBRANCH  18  19
ENDBRANCH  15  18
ENDBRANCH  14  15
ENDBRANCH  13  14
ENDBRANCH  12  13
ENDBRANCH  11  12
ENDBRANCH   9  11
ENDBRANCH   6   9
BRANCH   1  22
HETATM   22  N2  UNL     1      25.058   9.427  33.890  1.00  0.00    -0.376 N 
ATOM     23  H2  UNL     1      25.897   9.744  33.403  1.00  0.00     0.161 HD
BRANCH  22  24
HETATM   24  C3  UNL     1      24.142  10.419  34.384  1.00  0.00     0.123 C 
BRANCH  24  25
HETATM   25  C2  UNL     1      24.943  11.700  34.624  1.00  0.00     0.047 C 
BRANCH  25  26
HETATM   26  C1  UNL     1      26.161  11.757  33.742  1.00  0.00     0.231 C 
BRANCH  26  27
HETATM   27  N1  UNL     1      26.258  12.986  33.002  1.00  0.00    -0.079 N 
ATOM     28  H13 UNL     1      26.755  12.844  32.123  1.00  0.00     0.274 HD
ATOM     29  H12 UNL     1      25.347  13.263  32.635  1.00  0.00     0.274 HD
ATOM     30  H11 UNL     1      26.679  13.741  33.542  1.00  0.00     0.274 HD
ENDBRANCH  26  27
ENDBRANCH  25  26
ENDBRANCH  24  25
ENDBRANCH  22  24
ENDBRANCH   1  22
TORSDOF 13
ENDMDL
MODEL 3
REMARK VINA RESULT: -6.834144892      3.146      7.318
REMARK  13 active torsions:
REMARK  status: ('A' for Active; 'I' for Inactive)
REMARK    1  A    between atoms: N1_1  and  C1_5 
REMARK    2  A    between atoms: C1_5  and  C2_6 
REMARK    3  A    between atoms: C2_6  and  C3_7 
REMARK    4  A    between atoms: C3_7  and  N2_8 
REMARK    5  A    between atoms: N2_8  and  C4_10 
REMARK    6  A    between atoms: C7_15  and  N4_16 
REMARK    7  A    between atoms: N4_16  and  C8_18 
REMARK    8  A    between atoms: C8_18  and  C9_19 
REMARK    9  A    between atoms: C9_19  and  C10_20 
REMARK   10  A    between atoms: C10_20  and  C11_21 
REMARK   11  A    between atoms: C11_21  and  N5_22 
REMARK   12  A    between atoms: N5_22  and  C12_25 
REMARK   13  A    between atoms: C12_25  and  C13_26 
ROOT
HETATM    1  C4  UNL     1      24.440   5.780  31.730  1.00  0.00     0.118 A 
HETATM    2  C5  UNL     1      24.732   4.442  31.713  1.00  0.00     0.066 A 
HETATM    3  C6  UNL     1      23.790   3.531  31.210  1.00  0.00     0.110 A 
HETATM    4  N3  UNL     1      22.624   4.014  30.760  1.00  0.00    -0.202 N 
ATOM      5  H3  UNL     1      21.935   3.357  30.394  1.00  0.00     0.183 HD
HETATM    6  C7  UNL     1      22.318   5.321  30.767  1.00  0.00     0.679 A 
HETATM    7  N6  UNL     1      23.238   6.183  31.255  1.00  0.00    -0.177 N 
ATOM      8  H6  UNL     1      23.017   7.179  31.267  1.00  0.00     0.185 HD
ENDROOT
BRANCH   6   9
HETATM    9  N4  UNL     1      21.196   5.783  30.333  1.00  0.00    -0.226 N 
ATOM     10  H4  UNL     1      21.183   6.637  29.774  1.00  0.00     0.177 HD
BRANCH   9  11
HETATM   11  C8  UNL     1      19.954   5.099  30.633  1.00  0.00     0.138 C 
BRANCH  11  12
HETATM   12  C9  UNL     1      19.073   5.885  31.554  1.00  0.00     0.022 C 
BRANCH  12  13
HETATM   13  C10 UNL     1      17.737   5.252  31.796  1.00  0.00     0.029 C 
BRANCH  13  14
HETATM   14  C11 UNL     1      17.688   4.361  32.996  1.00  0.00     0.232 C 
BRANCH  14  15
HETATM   15  N5  UNL     1      18.685   4.680  33.992  1.00  0.00    -0.075 N 
ATOM     16  H52 UNL     1      19.310   5.427  33.687  1.00  0.00     0.277 HD
ATOM     17  H51 UNL     1      18.284   5.149  34.804  1.00  0.00     0.277 HD
BRANCH  15  18
HETATM   18  C12 UNL     1      19.400   3.483  34.350  1.00  0.00     0.237 C 
BRANCH  18  19
HETATM   19  C13 UNL     1      20.781   3.400  33.797  1.00  0.00     0.011 A 
HETATM   20  C14 UNL     1      21.919   2.842  34.558  1.00  0.00     0.007 A 
HETATM   21  C15 UNL     1      21.831   4.341  34.321  1.00  0.00     0.007 A 
ENDBRANCH  18  19
ENDBRANCH  15  18
ENDBRANCH  14  15
ENDBRANCH  13  14
ENDBRANCH  12  13
ENDBRANCH  11  12
ENDBRANCH   9  11
ENDBRANCH   6   9
BRANCH   1  22
HETATM   22  N2  UNL     1      25.238   6.670  32.168  1.00  0.00    -0.376 N 
ATOM     23  H2  UNL     1      26.089   6.858  31.638  1.00  0.00     0.161 HD
BRANCH  22  24
HETATM   24  C3  UNL     1      25.003   7.423  33.369  1.00  0.00     0.123 C 
BRANCH  24  25
HETATM   25  C2  UNL     1      25.745   6.714  34.504  1.00  0.00     0.047 C 
BRANCH  25  26
HETATM   26  C1  UNL     1      24.784   6.143  35.512  1.00  0.00     0.231 C 
BRANCH  26  27
HETATM   27  N1  UNL     1      24.789   6.861  36.757  1.00  0.00    -0.079 N 
ATOM     28  H13 UNL     1      25.219   6.306  37.497  1.00  0.00     0.274 HD
ATOM     29  H12 UNL     1      25.449   7.638  36.727  1.00  0.00     0.274 HD
ATOM     30  H11 UNL     1      23.861   7.181  37.034  1.00  0.00     0.274 HD
ENDBRANCH  26  27
ENDBRANCH  25  26
ENDBRANCH  24  25
ENDBRANCH  22  24
ENDBRANCH   1  22
TORSDOF 13
ENDMDL
MODEL 4
REMARK VINA RESULT: -6.794796985      1.629      7.161
REMARK  13 active torsions:
REMARK  status: ('A' for Active; 'I' for Inactive)
REMARK    1  A    between atoms: N1_1  and  C1_5 
REMARK    2  A    between atoms: C1_5  and  C2_6 
REMARK    3  A    between atoms: C2_6  and  C3_7 
REMARK    4  A    between atoms: C3_7  and  N2_8 
REMARK    5  A    between atoms: N2_8  and  C4_10 
REMARK    6  A    between atoms: C7_15  and  N4_16 
REMARK    7  A    between atoms: N4_16  and  C8_18 
REMARK    8  A    between atoms: C8_18  and  C9_19 
REMARK    9  A    between atoms: C9_19  and  C10_20 
REMARK   10  A    between atoms: C10_20  and  C11_21 
REMARK   11  A    between atoms: C11_21  and  N5_22 
REMARK   12  A    between atoms: N5_22  and  C12_25 
REMARK   13  A    between atoms: C12_25  and  C13_26 
ROOT
HETATM    1  C4  UNL     1      24.805   7.339  33.523  1.00  0.00     0.118 A 
HETATM    2  C5  UNL     1      25.246   6.760  32.362  1.00  0.00     0.066 A 
HETATM    3  C6  UNL     1      24.890   5.434  32.068  1.00  0.00     0.110 A 
HETATM    4  N3  UNL     1      24.122   4.778  32.948  1.00  0.00    -0.202 N 
ATOM      5  H3  UNL     1      23.860   3.814  32.739  1.00  0.00     0.183 HD
HETATM    6  C7  UNL     1      23.680   5.326  34.090  1.00  0.00     0.679 A 
HETATM    7  N6  UNL     1      24.033   6.604  34.357  1.00  0.00    -0.177 N 
ATOM      8  H6  UNL     1      23.703   7.031  35.222  1.00  0.00     0.185 HD
ENDROOT
BRANCH   6   9
HETATM    9  N4  UNL     1      22.940   4.693  34.934  1.00  0.00    -0.226 N 
ATOM     10  H4  UNL     1      23.353   4.320  35.790  1.00  0.00     0.177 HD
BRANCH   9  11
HETATM   11  C8  UNL     1      21.525   4.506  34.677  1.00  0.00     0.138 C 
BRANCH  11  12
HETATM   12  C9  UNL     1      21.208   3.126  34.192  1.00  0.00     0.022 C 
BRANCH  12  13
HETATM   13  C10 UNL     1      19.783   2.952  33.762  1.00  0.00     0.029 C 
BRANCH  13  14
HETATM   14  C11 UNL     1      18.982   4.215  33.766  1.00  0.00     0.232 C 
BRANCH  14  15
HETATM   15  N5  UNL     1      18.530   4.615  32.453  1.00  0.00    -0.075 N 
ATOM     16  H52 UNL     1      18.684   3.887  31.753  1.00  0.00     0.277 HD
ATOM     17  H51 UNL     1      17.513   4.662  32.392  1.00  0.00     0.277 HD
BRANCH  15  18
HETATM   18  C12 UNL     1      19.158   5.859  32.092  1.00  0.00     0.237 C 
BRANCH  18  19
HETATM   19  C13 UNL     1      19.918   5.818  30.811  1.00  0.00     0.011 A 
HETATM   20  C14 UNL     1      20.137   4.572  30.047  1.00  0.00     0.007 A 
HETATM   21  C15 UNL     1      21.293   5.207  30.802  1.00  0.00     0.007 A 
ENDBRANCH  18  19
ENDBRANCH  15  18
ENDBRANCH  14  15
ENDBRANCH  13  14
ENDBRANCH  12  13
ENDBRANCH  11  12
ENDBRANCH   9  11
ENDBRANCH   6   9
BRANCH   1  22
HETATM   22  N2  UNL     1      25.083   8.533  33.864  1.00  0.00    -0.376 N 
ATOM     23  H2  UNL     1      25.934   8.956  33.494  1.00  0.00     0.161 HD
BRANCH  22  24
HETATM   24  C3  UNL     1      24.260   9.318  34.743  1.00  0.00     0.123 C 
BRANCH  24  25
HETATM   25  C2  UNL     1      24.160  10.722  34.142  1.00  0.00     0.047 C 
BRANCH  25  26
HETATM   26  C1  UNL     1      25.470  11.456  34.249  1.00  0.00     0.231 C 
BRANCH  26  27
HETATM   27  N1  UNL     1      25.898  12.019  32.997  1.00  0.00    -0.079 N 
ATOM     28  H13 UNL     1      26.509  12.822  33.148  1.00  0.00     0.274 HD
ATOM     29  H12 UNL     1      26.554  11.398  32.523  1.00  0.00     0.274 HD
ATOM     30  H11 UNL     1      25.119  12.263  32.385  1.00  0.00     0.274 HD
ENDBRANCH  26  27
ENDBRANCH  25  26
ENDBRANCH  24  25
ENDBRANCH  22  24
ENDBRANCH   1  22
TORSDOF 13
ENDMDL
MODEL 5
REMARK VINA RESULT: -6.764736451      3.013      5.833
REMARK  13 active torsions:
REMARK  status: ('A' for Active; 'I' for Inactive)
REMARK    1  A    between atoms: N1_1  and  C1_5 
REMARK    2  A    between atoms: C1_5  and  C2_6 
REMARK    3  A    between atoms: C2_6  and  C3_7 
REMARK    4  A    between atoms: C3_7  and  N2_8 
REMARK    5  A    between atoms: N2_8  and  C4_10 
REMARK    6  A    between atoms: C7_15  and  N4_16 
REMARK    7  A    between atoms: N4_16  and  C8_18 
REMARK    8  A    between atoms: C8_18  and  C9_19 
REMARK    9  A    between atoms: C9_19  and  C10_20 
REMARK   10  A    between atoms: C10_20  and  C11_21 
REMARK   11  A    between atoms: C11_21  and  N5_22 
REMARK   12  A    between atoms: N5_22  and  C12_25 
REMARK   13  A    between atoms: C12_25  and  C13_26 
ROOT
HETATM    1  C4  UNL     1      22.375   4.571  30.634  1.00  0.00     0.118 A 
HETATM    2  C5  UNL     1      23.113   3.420  30.706  1.00  0.00     0.066 A 
HETATM    3  C6  UNL     1      24.410   3.458  31.242  1.00  0.00     0.110 A 
HETATM    4  N3  UNL     1      24.882   4.637  31.668  1.00  0.00    -0.202 N 
ATOM      5  H3  UNL     1      25.823   4.671  32.059  1.00  0.00     0.183 HD
HETATM    6  C7  UNL     1      24.175   5.777  31.607  1.00  0.00     0.679 A 
HETATM    7  N6  UNL     1      22.928   5.721  31.087  1.00  0.00    -0.177 N 
ATOM      8  H6  UNL     1      22.381   6.580  31.034  1.00  0.00     0.185 HD
ENDROOT
BRANCH   6   9
HETATM    9  N4  UNL     1      24.630   6.910  32.018  1.00  0.00    -0.226 N 
ATOM     10  H4  UNL     1      24.467   7.752  31.466  1.00  0.00     0.177 HD
BRANCH   9  11
HETATM   11  C8  UNL     1      25.373   6.996  33.261  1.00  0.00     0.138 C 
BRANCH  11  12
HETATM   12  C9  UNL     1      24.485   7.205  34.447  1.00  0.00     0.022 C 
BRANCH  12  13
HETATM   13  C10 UNL     1      24.306   5.978  35.289  1.00  0.00     0.029 C 
BRANCH  13  14
HETATM   14  C11 UNL     1      23.135   5.132  34.902  1.00  0.00     0.232 C 
BRANCH  14  15
HETATM   15  N5  UNL     1      23.454   3.728  34.776  1.00  0.00    -0.075 N 
ATOM     16  H52 UNL     1      24.173   3.557  34.072  1.00  0.00     0.277 HD
ATOM     17  H51 UNL     1      23.960   3.373  35.588  1.00  0.00     0.277 HD
BRANCH  15  18
HETATM   18  C12 UNL     1      22.247   2.987  34.517  1.00  0.00     0.237 C 
BRANCH  18  19
HETATM   19  C13 UNL     1      21.113   3.813  34.015  1.00  0.00     0.011 A 
HETATM   20  C14 UNL     1      19.776   3.808  34.644  1.00  0.00     0.007 A 
HETATM   21  C15 UNL     1      19.979   3.130  33.299  1.00  0.00     0.007 A 
ENDBRANCH  18  19
ENDBRANCH  15  18
ENDBRANCH  14  15
ENDBRANCH  13  14
ENDBRANCH  12  13
ENDBRANCH  11  12
ENDBRANCH   9  11
ENDBRANCH   6   9
BRANCH   1  22
HETATM   22  N2  UNL     1      21.194   4.623  30.162  1.00  0.00    -0.376 N 
ATOM     23  H2  UNL     1      20.851   3.822  29.631  1.00  0.00     0.161 HD
BRANCH  22  24
HETATM   24  C3  UNL     1      20.318   5.748  30.338  1.00  0.00     0.123 C 
BRANCH  24  25
HETATM   25  C2  UNL     1      18.884   5.214  30.344  1.00  0.00     0.047 C 
BRANCH  25  26
HETATM   26  C1  UNL     1      18.127   5.696  31.552  1.00  0.00     0.231 C 
BRANCH  26  27
HETATM   27  N1  UNL     1      18.934   6.491  32.436  1.00  0.00    -0.079 N 
ATOM     28  H13 UNL     1      19.898   6.156  32.451  1.00  0.00     0.274 HD
ATOM     29  H12 UNL     1      19.088   7.423  32.051  1.00  0.00     0.274 HD
ATOM     30  H11 UNL     1      18.553   6.545  33.381  1.00  0.00     0.274 HD
ENDBRANCH  26  27
ENDBRANCH  25  26
ENDBRANCH  24  25
ENDBRANCH  22  24
ENDBRANCH   1  22
TORSDOF 13
ENDMDL
