MODEL 1
REMARK VINA RESULT: -8.911887557      0.000      0.000
REMARK  6 active torsions:
REMARK  status: ('A' for Active; 'I' for Inactive)
REMARK    1  A    between atoms: C4_4  and  C5_5 
REMARK    2  A    between atoms: C5_5  and  C6_6 
REMARK    3  A    between atoms: C11_15  and  C22_28 
REMARK    4  A    between atoms: C18_22  and  C19_23 
REMARK    5  A    between atoms: C19_23  and  C20_24 
REMARK    6  A    between atoms: C20_24  and  O1_25 
ROOT
HETATM    1  C1  UNL     1       4.569  31.153  22.908  1.00  0.00     0.015 C 
HETATM    2  C2  UNL     1       4.220  31.521  24.280  1.00  0.00    -0.039 C 
HETATM    3  C3  UNL     1       4.027  30.096  24.902  1.00  0.00     0.015 C 
HETATM    4  C4  UNL     1       2.925  32.204  24.533  1.00  0.00     0.000 C 
HETATM    5  C10 UNL     1       3.209  33.142  25.722  1.00  0.00     0.016 C 
HETATM    6  C11 UNL     1       4.605  33.627  25.438  1.00  0.00    -0.030 C 
HETATM    7  C12 UNL     1       4.564  34.348  24.145  1.00  0.00     0.011 C 
HETATM    8  C13 UNL     1       5.969  34.605  23.988  1.00  0.00     0.012 C 
HETATM    9  C14 UNL     1       6.980  34.467  25.123  1.00  0.00    -0.015 C 
HETATM   10  C15 UNL     1       7.646  33.288  24.698  1.00  0.00     0.012 C 
HETATM   11  C16 UNL     1       6.544  32.224  24.474  1.00  0.00     0.007 C 
HETATM   12  C17 UNL     1       5.267  32.287  25.092  1.00  0.00     0.003 C 
HETATM   13  C18 UNL     1       7.125  35.843  25.445  1.00  0.00    -0.002 C 
HETATM   14  C21 UNL     1       5.706  35.919  26.021  1.00  0.00     0.012 C 
HETATM   15  C22 UNL     1       5.266  34.471  26.411  1.00  0.00     0.019 C 
HETATM   16  C23 UNL     1       6.643  34.028  26.509  1.00  0.00     0.046 C 
HETATM   17  C24 UNL     1       7.056  34.761  27.719  1.00  0.00     0.034 C 
HETATM   18 CL1  UNL     1       7.245  32.488  27.072  1.00  0.00    -0.118 Cl
ENDROOT
BRANCH   4  19
HETATM   19  C5  UNL     1       1.800  31.298  24.974  1.00  0.00     0.064 C 
BRANCH  19  20
HETATM   20  C6  UNL     1       0.507  32.037  25.068  1.00  0.00     0.025 A 
HETATM   21  C7  UNL     1      -0.366  31.936  26.118  1.00  0.00     0.112 A 
HETATM   22  N1  UNL     1      -1.527  32.654  26.118  1.00  0.00    -0.372 N 
HETATM   23  C8  UNL     1      -1.861  33.473  25.111  1.00  0.00     0.104 A 
ATOM     24  H1  UNL     1      -2.162  32.563  26.911  1.00  0.00     0.164 HD
HETATM   25  C9  UNL     1      -0.999  33.582  24.059  1.00  0.00     0.105 A 
HETATM   26  N2  UNL     1       0.141  32.880  24.056  1.00  0.00    -0.367 N 
ATOM     27  H2  UNL     1       0.768  32.979  23.258  1.00  0.00     0.165 HD
ENDBRANCH  19  20
ENDBRANCH   4  19
BRANCH  13  28
HETATM   28  C19 UNL     1       8.266  36.531  25.916  1.00  0.00     0.031 C 
BRANCH  28  29
HETATM   29  C20 UNL     1       8.349  37.939  25.279  1.00  0.00     0.164 C 
BRANCH  29  30
HETATM   30  O1  UNL     1       8.092  37.875  23.928  1.00  0.00    -0.401 OA
ATOM     31  H1  UNL     1       8.880  37.644  23.449  1.00  0.00     0.209 HD
ENDBRANCH  29  30
ENDBRANCH  28  29
ENDBRANCH  13  28
TORSDOF 6
ENDMDL
MODEL 2
REMARK VINA RESULT: -8.855423336      2.883      3.925
REMARK  6 active torsions:
REMARK  status: ('A' for Active; 'I' for Inactive)
REMARK    1  A    between atoms: C4_4  and  C5_5 
REMARK    2  A    between atoms: C5_5  and  C6_6 
REMARK    3  A    between atoms: C11_15  and  C22_28 
REMARK    4  A    between atoms: C18_22  and  C19_23 
REMARK    5  A    between atoms: C19_23  and  C20_24 
REMARK    6  A    between atoms: C20_24  and  O1_25 
ROOT
HETATM    1  C1  UNL     1       2.339  30.549  24.829  1.00  0.00     0.015 C 
HETATM    2  C2  UNL     1       3.046  31.824  24.937  1.00  0.00    -0.039 C 
HETATM    3  C3  UNL     1       2.503  32.318  26.321  1.00  0.00     0.015 C 
HETATM    4  C4  UNL     1       2.696  32.921  23.999  1.00  0.00     0.000 C 
HETATM    5  C10 UNL     1       4.019  33.678  23.777  1.00  0.00     0.016 C 
HETATM    6  C11 UNL     1       5.037  32.569  23.751  1.00  0.00    -0.030 C 
HETATM    7  C12 UNL     1       4.692  31.685  22.614  1.00  0.00     0.011 C 
HETATM    8  C13 UNL     1       5.663  30.650  22.834  1.00  0.00     0.012 C 
HETATM    9  C14 UNL     1       6.866  30.809  23.759  1.00  0.00    -0.015 C 
HETATM   10  C15 UNL     1       6.449  29.970  24.826  1.00  0.00     0.012 C 
HETATM   11  C16 UNL     1       5.045  30.467  25.246  1.00  0.00     0.007 C 
HETATM   12  C17 UNL     1       4.575  31.781  24.983  1.00  0.00     0.003 C 
HETATM   13  C18 UNL     1       7.862  31.044  22.774  1.00  0.00    -0.002 C 
HETATM   14  C21 UNL     1       7.284  32.423  22.434  1.00  0.00     0.012 C 
HETATM   15  C22 UNL     1       6.441  32.908  23.657  1.00  0.00     0.019 C 
HETATM   16  C23 UNL     1       7.162  32.032  24.561  1.00  0.00     0.046 C 
HETATM   17  C24 UNL     1       8.473  32.705  24.567  1.00  0.00     0.034 C 
HETATM   18 CL1  UNL     1       7.047  31.945  26.301  1.00  0.00    -0.118 Cl
ENDROOT
BRANCH   4  19
HETATM   19  C5  UNL     1       1.719  33.937  24.540  1.00  0.00     0.064 C 
BRANCH  19  20
HETATM   20  C6  UNL     1       0.729  34.352  23.503  1.00  0.00     0.025 A 
HETATM   21  C7  UNL     1      -0.412  33.657  23.202  1.00  0.00     0.112 A 
HETATM   22  N1  UNL     1      -1.261  34.116  22.237  1.00  0.00    -0.372 N 
HETATM   23  C8  UNL     1      -1.025  35.245  21.553  1.00  0.00     0.104 A 
ATOM     24  H1  UNL     1      -2.105  33.582  22.029  1.00  0.00     0.164 HD
HETATM   25  C9  UNL     1       0.109  35.945  21.845  1.00  0.00     0.105 A 
HETATM   26  N2  UNL     1       0.945  35.499  22.791  1.00  0.00    -0.367 N 
ATOM     27  H2  UNL     1       1.785  36.041  22.990  1.00  0.00     0.165 HD
ENDBRANCH  19  20
ENDBRANCH   4  19
BRANCH  13  28
HETATM   28  C19 UNL     1       9.227  30.679  22.785  1.00  0.00     0.031 C 
BRANCH  28  29
HETATM   29  C20 UNL     1      10.040  31.606  21.849  1.00  0.00     0.164 C 
BRANCH  29  30
HETATM   30  O1  UNL     1      11.009  30.890  21.181  1.00  0.00    -0.401 OA
ATOM     31  H1  UNL     1      11.847  30.973  21.621  1.00  0.00     0.209 HD
ENDBRANCH  29  30
ENDBRANCH  28  29
ENDBRANCH  13  28
TORSDOF 6
ENDMDL
MODEL 3
REMARK VINA RESULT: -8.830937016      3.909      6.236
REMARK  6 active torsions:
REMARK  status: ('A' for Active; 'I' for Inactive)
REMARK    1  A    between atoms: C4_4  and  C5_5 
REMARK    2  A    between atoms: C5_5  and  C6_6 
REMARK    3  A    between atoms: C11_15  and  C22_28 
REMARK    4  A    between atoms: C18_22  and  C19_23 
REMARK    5  A    between atoms: C19_23  and  C20_24 
REMARK    6  A    between atoms: C20_24  and  O1_25 
ROOT
HETATM    1  C1  UNL     1       4.567  30.422  24.777  1.00  0.00     0.015 C 
HETATM    2  C2  UNL     1       5.210  31.433  23.939  1.00  0.00    -0.039 C 
HETATM    3  C3  UNL     1       4.750  30.944  22.524  1.00  0.00     0.015 C 
HETATM    4  C4  UNL     1       6.693  31.454  23.850  1.00  0.00     0.000 C 
HETATM    5  C10 UNL     1       7.049  32.943  23.680  1.00  0.00     0.016 C 
HETATM    6  C11 UNL     1       6.049  33.629  24.571  1.00  0.00    -0.030 C 
HETATM    7  C12 UNL     1       6.286  33.144  25.950  1.00  0.00     0.011 C 
HETATM    8  C13 UNL     1       5.182  33.787  26.606  1.00  0.00     0.012 C 
HETATM    9  C14 UNL     1       4.375  34.920  25.977  1.00  0.00    -0.015 C 
HETATM   10  C15 UNL     1       3.171  34.221  25.701  1.00  0.00     0.012 C 
HETATM   11  C16 UNL     1       3.573  32.972  24.879  1.00  0.00     0.007 C 
HETATM   12  C17 UNL     1       4.779  32.888  24.133  1.00  0.00     0.003 C 
HETATM   13  C18 UNL     1       4.964  36.009  26.672  1.00  0.00    -0.002 C 
HETATM   14  C21 UNL     1       6.293  35.844  25.927  1.00  0.00     0.012 C 
HETATM   15  C22 UNL     1       6.008  35.076  24.596  1.00  0.00     0.019 C 
HETATM   16  C23 UNL     1       4.613  35.472  24.611  1.00  0.00     0.046 C 
HETATM   17  C24 UNL     1       4.760  36.911  24.329  1.00  0.00     0.034 C 
HETATM   18 CL1  UNL     1       3.404  35.215  23.378  1.00  0.00    -0.118 Cl
ENDROOT
BRANCH   4  19
HETATM   19  C5  UNL     1       7.271  30.746  22.648  1.00  0.00     0.064 C 
BRANCH  19  20
HETATM   20  C6  UNL     1       8.763  30.780  22.656  1.00  0.00     0.025 A 
HETATM   21  C7  UNL     1       9.543  30.213  23.628  1.00  0.00     0.112 A 
HETATM   22  N1  UNL     1      10.903  30.294  23.550  1.00  0.00    -0.372 N 
HETATM   23  C8  UNL     1      11.527  30.917  22.540  1.00  0.00     0.104 A 
ATOM     24  H1  UNL     1      11.465  29.864  24.286  1.00  0.00     0.164 HD
HETATM   25  C9  UNL     1      10.759  31.486  21.566  1.00  0.00     0.105 A 
HETATM   26  N2  UNL     1       9.425  31.409  21.638  1.00  0.00    -0.367 N 
ATOM     27  H2  UNL     1       8.874  31.842  20.897  1.00  0.00     0.165 HD
ENDBRANCH  19  20
ENDBRANCH   4  19
BRANCH  13  28
HETATM   28  C19 UNL     1       4.372  37.225  27.085  1.00  0.00     0.031 C 
BRANCH  28  29
HETATM   29  C20 UNL     1       4.428  37.355  28.627  1.00  0.00     0.164 C 
BRANCH  29  30
HETATM   30  O1  UNL     1       4.883  36.187  29.196  1.00  0.00    -0.401 OA
ATOM     31  H1  UNL     1       5.732  36.321  29.600  1.00  0.00     0.209 HD
ENDBRANCH  29  30
ENDBRANCH  28  29
ENDBRANCH  13  28
TORSDOF 6
ENDMDL
MODEL 4
REMARK VINA RESULT: -8.817380644      0.987      1.048
REMARK  6 active torsions:
REMARK  status: ('A' for Active; 'I' for Inactive)
REMARK    1  A    between atoms: C4_4  and  C5_5 
REMARK    2  A    between atoms: C5_5  and  C6_6 
REMARK    3  A    between atoms: C11_15  and  C22_28 
REMARK    4  A    between atoms: C18_22  and  C19_23 
REMARK    5  A    between atoms: C19_23  and  C20_24 
REMARK    6  A    between atoms: C20_24  and  O1_25 
ROOT
HETATM    1  C1  UNL     1       4.332  30.912  23.007  1.00  0.00     0.015 C 
HETATM    2  C2  UNL     1       4.101  31.285  24.402  1.00  0.00    -0.039 C 
HETATM    3  C3  UNL     1       4.188  29.874  25.078  1.00  0.00     0.015 C 
HETATM    4  C4  UNL     1       2.762  31.794  24.797  1.00  0.00     0.000 C 
HETATM    5  C10 UNL     1       3.050  32.811  25.919  1.00  0.00     0.016 C 
HETATM    6  C11 UNL     1       4.320  33.471  25.452  1.00  0.00    -0.030 C 
HETATM    7  C12 UNL     1       4.023  34.125  24.156  1.00  0.00     0.011 C 
HETATM    8  C13 UNL     1       5.348  34.565  23.820  1.00  0.00     0.012 C 
HETATM    9  C14 UNL     1       6.497  34.615  24.824  1.00  0.00    -0.015 C 
HETATM   10  C15 UNL     1       7.268  33.522  24.348  1.00  0.00     0.012 C 
HETATM   11  C16 UNL     1       6.308  32.309  24.289  1.00  0.00     0.007 C 
HETATM   12  C17 UNL     1       5.119  32.221  25.059  1.00  0.00     0.003 C 
HETATM   13  C18 UNL     1       6.484  36.010  25.091  1.00  0.00    -0.002 C 
HETATM   14  C21 UNL     1       5.148  35.914  25.838  1.00  0.00     0.012 C 
HETATM   15  C22 UNL     1       4.967  34.437  26.315  1.00  0.00     0.019 C 
HETATM   16  C23 UNL     1       6.395  34.192  26.251  1.00  0.00     0.046 C 
HETATM   17  C24 UNL     1       6.841  35.024  27.382  1.00  0.00     0.034 C 
HETATM   18 CL1  UNL     1       7.271  32.774  26.772  1.00  0.00    -0.118 Cl
ENDROOT
BRANCH   4  19
HETATM   19  C5  UNL     1       1.838  30.761  25.396  1.00  0.00     0.064 C 
BRANCH  19  20
HETATM   20  C6  UNL     1       0.619  31.391  25.982  1.00  0.00     0.025 A 
HETATM   21  C7  UNL     1       0.298  31.362  27.314  1.00  0.00     0.112 A 
HETATM   22  N1  UNL     1      -0.840  31.970  27.759  1.00  0.00    -0.372 N 
HETATM   23  C8  UNL     1      -1.679  32.611  26.933  1.00  0.00     0.104 A 
ATOM     24  H1  UNL     1      -1.059  31.936  28.755  1.00  0.00     0.164 HD
HETATM   25  C9  UNL     1      -1.369  32.647  25.605  1.00  0.00     0.105 A 
HETATM   26  N2  UNL     1      -0.254  32.052  25.164  1.00  0.00    -0.367 N 
ATOM     27  H2  UNL     1      -0.046  32.093  24.167  1.00  0.00     0.165 HD
ENDBRANCH  19  20
ENDBRANCH   4  19
BRANCH  13  28
HETATM   28  C19 UNL     1       7.564  36.867  25.401  1.00  0.00     0.031 C 
BRANCH  28  29
HETATM   29  C20 UNL     1       7.255  38.312  24.941  1.00  0.00     0.164 C 
BRANCH  29  30
HETATM   30  O1  UNL     1       6.825  39.077  26.002  1.00  0.00    -0.401 OA
ATOM     31  H1  UNL     1       6.473  39.905  25.697  1.00  0.00     0.209 HD
ENDBRANCH  29  30
ENDBRANCH  28  29
ENDBRANCH  13  28
TORSDOF 6
ENDMDL
MODEL 5
REMARK VINA RESULT: -8.404017097      2.758      3.883
REMARK  6 active torsions:
REMARK  status: ('A' for Active; 'I' for Inactive)
REMARK    1  A    between atoms: C4_4  and  C5_5 
REMARK    2  A    between atoms: C5_5  and  C6_6 
REMARK    3  A    between atoms: C11_15  and  C22_28 
REMARK    4  A    between atoms: C18_22  and  C19_23 
REMARK    5  A    between atoms: C19_23  and  C20_24 
REMARK    6  A    between atoms: C20_24  and  O1_25 
ROOT
HETATM    1  C1  UNL     1       2.642  30.522  24.702  1.00  0.00     0.015 C 
HETATM    2  C2  UNL     1       3.194  31.853  24.951  1.00  0.00    -0.039 C 
HETATM    3  C3  UNL     1       2.520  32.173  26.328  1.00  0.00     0.015 C 
HETATM    4  C4  UNL     1       2.779  32.978  24.074  1.00  0.00     0.000 C 
HETATM    5  C10 UNL     1       4.020  33.888  23.997  1.00  0.00     0.016 C 
HETATM    6  C11 UNL     1       5.155  32.900  23.957  1.00  0.00    -0.030 C 
HETATM    7  C12 UNL     1       4.978  32.078  22.738  1.00  0.00     0.011 C 
HETATM    8  C13 UNL     1       6.044  31.139  22.945  1.00  0.00     0.012 C 
HETATM    9  C14 UNL     1       7.166  31.350  23.958  1.00  0.00    -0.015 C 
HETATM   10  C15 UNL     1       6.785  30.389  24.930  1.00  0.00     0.012 C 
HETATM   11  C16 UNL     1       5.311  30.697  25.291  1.00  0.00     0.007 C 
HETATM   12  C17 UNL     1       4.714  31.970  25.095  1.00  0.00     0.003 C 
HETATM   13  C18 UNL     1       8.184  31.769  23.062  1.00  0.00    -0.002 C 
HETATM   14  C21 UNL     1       7.477  33.101  22.786  1.00  0.00     0.012 C 
HETATM   15  C22 UNL     1       6.516  33.394  23.983  1.00  0.00     0.019 C 
HETATM   16  C23 UNL     1       7.276  32.530  24.866  1.00  0.00     0.046 C 
HETATM   17  C24 UNL     1       8.501  33.337  25.008  1.00  0.00     0.034 C 
HETATM   18 CL1  UNL     1       7.070  32.292  26.583  1.00  0.00    -0.118 Cl
ENDROOT
BRANCH   4  19
HETATM   19  C5  UNL     1       1.664  33.837  24.623  1.00  0.00     0.064 C 
BRANCH  19  20
HETATM   20  C6  UNL     1       0.870  34.468  23.529  1.00  0.00     0.025 A 
HETATM   21  C7  UNL     1       1.183  35.664  22.938  1.00  0.00     0.112 A 
HETATM   22  N1  UNL     1       0.397  36.163  21.940  1.00  0.00    -0.372 N 
HETATM   23  C8  UNL     1      -0.695  35.521  21.500  1.00  0.00     0.104 A 
ATOM     24  H1  UNL     1       0.648  37.056  21.515  1.00  0.00     0.164 HD
HETATM   25  C9  UNL     1      -1.016  34.329  22.081  1.00  0.00     0.105 A 
HETATM   26  N2  UNL     1      -0.248  33.836  23.059  1.00  0.00    -0.367 N 
ATOM     27  H2  UNL     1      -0.509  32.943  23.476  1.00  0.00     0.165 HD
ENDBRANCH  19  20
ENDBRANCH   4  19
BRANCH  13  28
HETATM   28  C19 UNL     1       9.579  31.554  23.136  1.00  0.00     0.031 C 
BRANCH  28  29
HETATM   29  C20 UNL     1       9.895  30.039  23.079  1.00  0.00     0.164 C 
BRANCH  29  30
HETATM   30  O1  UNL     1       9.675  29.546  21.812  1.00  0.00    -0.401 OA
ATOM     31  H1  UNL     1      10.059  28.682  21.720  1.00  0.00     0.209 HD
ENDBRANCH  29  30
ENDBRANCH  28  29
ENDBRANCH  13  28
TORSDOF 6
ENDMDL
