MODEL 1
REMARK VINA RESULT: -9.426777811      0.000      0.000
REMARK  6 active torsions:
REMARK  status: ('A' for Active; 'I' for Inactive)
REMARK    1  A    between atoms: C3_3  and  C4_4 
REMARK    2  A    between atoms: C7_9  and  O2_10 
REMARK    3  A    between atoms: O2_10  and  C8_11 
REMARK    4  A    between atoms: C13_17  and  N2_18 
REMARK       I    between atoms: N2_18  and  C14_20 
REMARK       I    between atoms: C14_20  and  N3_22 
REMARK    5  A    between atoms: N3_22  and  C15_23 
REMARK    6  A    between atoms: N3_22  and  C22_30 
ROOT
HETATM    1  C1  UNL     1      67.596  35.824  23.783  1.00  0.00     0.052 C 
HETATM    2  C2  UNL     1      68.533  36.749  24.469  1.00  0.00    -0.017 A 
HETATM    3  C3  UNL     1      68.540  38.101  24.207  1.00  0.00     0.037 A 
HETATM    4  C5  UNL     1      69.438  38.941  24.875  1.00  0.00     0.020 A 
HETATM    5  C6  UNL     1      70.328  38.459  25.797  1.00  0.00     0.040 A 
HETATM    6  C7  UNL     1      70.331  37.112  26.065  1.00  0.00     0.096 A 
HETATM    7  C13 UNL     1      69.436  36.279  25.399  1.00  0.00     0.076 A 
ENDROOT
BRANCH   7   8
HETATM    8  N2  UNL     1      69.426  34.877  25.665  1.00  0.00    -0.306 N 
HETATM    9  C14 UNL     1      70.271  33.970  25.001  1.00  0.00     0.323 C 
HETATM   10  O3  UNL     1      71.075  34.446  24.126  1.00  0.00    -0.247 OA
HETATM   11  N3  UNL     1      70.315  32.573  25.211  1.00  0.00    -0.325 N 
ATOM     12  H2  UNL     1      68.777  34.517  26.366  1.00  0.00     0.171 HD
BRANCH  11  13
HETATM   13  C15 UNL     1      71.248  31.758  24.445  1.00  0.00     0.089 C 
HETATM   14  C16 UNL     1      72.681  32.190  24.648  1.00  0.00     0.025 C 
HETATM   15  C17 UNL     1      73.436  32.205  23.344  1.00  0.00     0.002 C 
HETATM   16  C18 UNL     1      73.373  30.932  22.589  1.00  0.00     0.000 C 
HETATM   17  C19 UNL     1      73.032  29.725  23.385  1.00  0.00     0.000 C 
HETATM   18  C20 UNL     1      71.552  29.511  23.581  1.00  0.00     0.002 C 
HETATM   19  C21 UNL     1      71.171  30.299  24.841  1.00  0.00     0.025 C 
ENDBRANCH  11  13
BRANCH  11  20
HETATM   20  C22 UNL     1      69.437  31.956  26.183  1.00  0.00     0.089 A 
HETATM   21  C23 UNL     1      68.127  32.569  26.510  1.00  0.00     0.027 A 
HETATM   22  C24 UNL     1      68.121  31.417  25.604  1.00  0.00     0.027 A 
ENDBRANCH  11  20
ENDBRANCH   7   8
BRANCH   6  23
HETATM   23  O2  UNL     1      71.164  36.530  26.951  1.00  0.00    -0.344 OA
BRANCH  23  24
HETATM   24  C8  UNL     1      72.519  36.411  27.063  1.00  0.00     0.131 C 
HETATM   25  C9  UNL     1      73.281  36.024  25.830  1.00  0.00     0.035 C 
HETATM   26  C10 UNL     1      74.674  35.779  26.413  1.00  0.00     0.040 C 
HETATM   27  C11 UNL     1      74.329  34.937  27.624  1.00  0.00     0.172 C 
HETATM   28  F1  UNL     1      74.166  33.631  27.158  1.00  0.00    -0.249 F 
HETATM   29  C12 UNL     1      73.030  35.501  28.158  1.00  0.00     0.069 C 
ENDBRANCH  23  24
ENDBRANCH   6  23
BRANCH   3  30
HETATM   30  C4  UNL     1      67.617  38.676  23.237  1.00  0.00     0.265 C 
HETATM   31  N1  UNL     1      67.968  38.779  21.850  1.00  0.00    -0.057 NA
HETATM   32  O1  UNL     1      66.491  39.104  23.551  1.00  0.00    -0.271 OA
ENDBRANCH   3  30
TORSDOF 6
ENDMDL
MODEL 2
REMARK VINA RESULT: -9.351029685      2.970      6.088
REMARK  6 active torsions:
REMARK  status: ('A' for Active; 'I' for Inactive)
REMARK    1  A    between atoms: C3_3  and  C4_4 
REMARK    2  A    between atoms: C7_9  and  O2_10 
REMARK    3  A    between atoms: O2_10  and  C8_11 
REMARK    4  A    between atoms: C13_17  and  N2_18 
REMARK       I    between atoms: N2_18  and  C14_20 
REMARK       I    between atoms: C14_20  and  N3_22 
REMARK    5  A    between atoms: N3_22  and  C15_23 
REMARK    6  A    between atoms: N3_22  and  C22_30 
ROOT
HETATM    1  C1  UNL     1      68.176  31.412  26.753  1.00  0.00     0.052 C 
HETATM    2  C2  UNL     1      67.365  32.429  26.035  1.00  0.00    -0.017 A 
HETATM    3  C3  UNL     1      66.059  32.693  26.383  1.00  0.00     0.037 A 
HETATM    4  C5  UNL     1      65.328  33.658  25.683  1.00  0.00     0.020 A 
HETATM    5  C6  UNL     1      65.873  34.365  24.645  1.00  0.00     0.040 A 
HETATM    6  C7  UNL     1      67.175  34.110  24.289  1.00  0.00     0.096 A 
HETATM    7  C13 UNL     1      67.899  33.148  24.987  1.00  0.00     0.076 A 
ENDROOT
BRANCH   7   8
HETATM    8  N2  UNL     1      69.253  32.869  24.630  1.00  0.00    -0.306 N 
HETATM    9  C14 UNL     1      70.345  33.549  25.198  1.00  0.00     0.323 C 
HETATM   10  O3  UNL     1      70.089  34.452  26.069  1.00  0.00    -0.247 OA
HETATM   11  N3  UNL     1      71.708  33.328  24.895  1.00  0.00    -0.325 N 
ATOM     12  H2  UNL     1      69.436  32.146  23.934  1.00  0.00     0.171 HD
BRANCH  11  13
HETATM   13  C15 UNL     1      72.733  34.114  25.568  1.00  0.00     0.089 C 
HETATM   14  C16 UNL     1      74.044  33.372  25.670  1.00  0.00     0.025 C 
HETATM   15  C17 UNL     1      74.666  33.548  27.032  1.00  0.00     0.002 C 
HETATM   16  C18 UNL     1      74.827  34.960  27.449  1.00  0.00     0.000 C 
HETATM   17  C19 UNL     1      74.833  35.962  26.352  1.00  0.00     0.000 C 
HETATM   18  C20 UNL     1      73.460  36.404  25.912  1.00  0.00     0.002 C 
HETATM   19  C21 UNL     1      73.018  35.407  24.833  1.00  0.00     0.025 C 
ENDBRANCH  11  13
BRANCH  11  20
HETATM   20  C22 UNL     1      72.082  32.326  23.919  1.00  0.00     0.089 A 
HETATM   21  C23 UNL     1      73.061  31.267  24.265  1.00  0.00     0.027 A 
HETATM   22  C24 UNL     1      71.643  30.897  24.269  1.00  0.00     0.027 A 
ENDBRANCH  11  20
ENDBRANCH   7   8
BRANCH   6  23
HETATM   23  O2  UNL     1      67.810  34.744  23.284  1.00  0.00    -0.344 OA
BRANCH  23  24
HETATM   24  C8  UNL     1      67.830  36.025  22.815  1.00  0.00     0.131 C 
HETATM   25  C9  UNL     1      66.981  36.334  21.618  1.00  0.00     0.035 C 
HETATM   26  C10 UNL     1      67.450  37.752  21.286  1.00  0.00     0.040 C 
HETATM   27  C11 UNL     1      68.952  37.581  21.371  1.00  0.00     0.172 C 
HETATM   28  F1  UNL     1      69.354  37.036  20.149  1.00  0.00    -0.249 F 
HETATM   29  C12 UNL     1      69.189  36.615  22.512  1.00  0.00     0.069 C 
ENDBRANCH  23  24
ENDBRANCH   6  23
BRANCH   3  30
HETATM   30  C4  UNL     1      65.420  31.975  27.479  1.00  0.00     0.265 C 
HETATM   31  N1  UNL     1      64.163  31.309  27.297  1.00  0.00    -0.057 NA
HETATM   32  O1  UNL     1      65.922  31.900  28.616  1.00  0.00    -0.271 OA
ENDBRANCH   3  30
TORSDOF 6
ENDMDL
MODEL 3
REMARK VINA RESULT: -9.299510116      2.328      6.365
REMARK  6 active torsions:
REMARK  status: ('A' for Active; 'I' for Inactive)
REMARK    1  A    between atoms: C3_3  and  C4_4 
REMARK    2  A    between atoms: C7_9  and  O2_10 
REMARK    3  A    between atoms: O2_10  and  C8_11 
REMARK    4  A    between atoms: C13_17  and  N2_18 
REMARK       I    between atoms: N2_18  and  C14_20 
REMARK       I    between atoms: C14_20  and  N3_22 
REMARK    5  A    between atoms: N3_22  and  C15_23 
REMARK    6  A    between atoms: N3_22  and  C22_30 
ROOT
HETATM    1  C1  UNL     1      70.251  31.016  24.385  1.00  0.00     0.052 C 
HETATM    2  C2  UNL     1      71.349  31.798  25.007  1.00  0.00    -0.017 A 
HETATM    3  C3  UNL     1      72.650  31.344  25.016  1.00  0.00     0.037 A 
HETATM    4  C5  UNL     1      73.657  32.110  25.612  1.00  0.00     0.020 A 
HETATM    5  C6  UNL     1      73.393  33.319  26.198  1.00  0.00     0.040 A 
HETATM    6  C7  UNL     1      72.100  33.782  26.196  1.00  0.00     0.096 A 
HETATM    7  C13 UNL     1      71.100  33.017  25.602  1.00  0.00     0.076 A 
ENDROOT
BRANCH   7   8
HETATM    8  N2  UNL     1      69.751  33.482  25.591  1.00  0.00    -0.306 N 
HETATM    9  C14 UNL     1      69.273  34.408  24.646  1.00  0.00     0.323 C 
HETATM   10  O3  UNL     1      70.102  34.837  23.769  1.00  0.00    -0.247 OA
HETATM   11  N3  UNL     1      67.955  34.912  24.573  1.00  0.00    -0.325 N 
ATOM     12  H2  UNL     1      69.106  33.128  26.298  1.00  0.00     0.171 HD
BRANCH  11  13
HETATM   13  C15 UNL     1      67.606  35.871  23.533  1.00  0.00     0.089 C 
HETATM   14  C16 UNL     1      66.340  35.486  22.806  1.00  0.00     0.025 C 
HETATM   15  C17 UNL     1      66.481  35.690  21.320  1.00  0.00     0.002 C 
HETATM   16  C18 UNL     1      66.917  37.051  20.931  1.00  0.00     0.000 C 
HETATM   17  C19 UNL     1      66.685  38.117  21.939  1.00  0.00     0.000 C 
HETATM   18  C20 UNL     1      67.767  38.229  22.982  1.00  0.00     0.002 C 
HETATM   19  C21 UNL     1      67.380  37.256  24.103  1.00  0.00     0.025 C 
ENDBRANCH  11  13
BRANCH  11  20
HETATM   20  C22 UNL     1      66.957  34.479  25.529  1.00  0.00     0.089 A 
HETATM   21  C23 UNL     1      65.650  33.952  25.066  1.00  0.00     0.027 A 
HETATM   22  C24 UNL     1      66.653  32.975  25.499  1.00  0.00     0.027 A 
ENDBRANCH  11  20
ENDBRANCH   7   8
BRANCH   6  23
HETATM   23  O2  UNL     1      71.728  34.956  26.743  1.00  0.00    -0.344 OA
BRANCH  23  24
HETATM   24  C8  UNL     1      71.944  36.269  26.442  1.00  0.00     0.131 C 
HETATM   25  C9  UNL     1      70.746  37.168  26.376  1.00  0.00     0.035 C 
HETATM   26  C10 UNL     1      71.369  38.444  25.805  1.00  0.00     0.040 C 
HETATM   27  C11 UNL     1      72.196  37.873  24.673  1.00  0.00     0.172 C 
HETATM   28  F1  UNL     1      71.317  37.683  23.603  1.00  0.00    -0.249 F 
HETATM   29  C12 UNL     1      72.736  36.555  25.185  1.00  0.00     0.069 C 
ENDBRANCH  23  24
ENDBRANCH   6  23
BRANCH   3  30
HETATM   30  C4  UNL     1      72.996  30.065  24.409  1.00  0.00     0.265 C 
HETATM   31  N1  UNL     1      73.298  29.964  23.011  1.00  0.00    -0.057 NA
HETATM   32  O1  UNL     1      73.048  29.005  25.059  1.00  0.00    -0.271 OA
ENDBRANCH   3  30
TORSDOF 6
ENDMDL
MODEL 4
REMARK VINA RESULT: -9.234032141      3.163      5.797
REMARK  6 active torsions:
REMARK  status: ('A' for Active; 'I' for Inactive)
REMARK    1  A    between atoms: C3_3  and  C4_4 
REMARK    2  A    between atoms: C7_9  and  O2_10 
REMARK    3  A    between atoms: O2_10  and  C8_11 
REMARK    4  A    between atoms: C13_17  and  N2_18 
REMARK       I    between atoms: N2_18  and  C14_20 
REMARK       I    between atoms: C14_20  and  N3_22 
REMARK    5  A    between atoms: N3_22  and  C15_23 
REMARK    6  A    between atoms: N3_22  and  C22_30 
ROOT
HETATM    1  C1  UNL     1      67.460  31.873  27.704  1.00  0.00     0.052 C 
HETATM    2  C2  UNL     1      66.721  32.667  26.690  1.00  0.00    -0.017 A 
HETATM    3  C3  UNL     1      65.355  32.566  26.545  1.00  0.00     0.037 A 
HETATM    4  C5  UNL     1      64.694  33.332  25.578  1.00  0.00     0.020 A 
HETATM    5  C6  UNL     1      65.367  34.194  24.755  1.00  0.00     0.040 A 
HETATM    6  C7  UNL     1      66.730  34.302  24.891  1.00  0.00     0.096 A 
HETATM    7  C13 UNL     1      67.385  33.539  25.853  1.00  0.00     0.076 A 
ENDROOT
BRANCH   7   8
HETATM    8  N2  UNL     1      68.800  33.638  26.008  1.00  0.00    -0.306 N 
HETATM    9  C14 UNL     1      69.701  32.803  25.323  1.00  0.00     0.323 C 
HETATM   10  O3  UNL     1      69.206  31.924  24.534  1.00  0.00    -0.247 OA
HETATM   11  N3  UNL     1      71.110  32.842  25.426  1.00  0.00    -0.325 N 
ATOM     12  H2  UNL     1      69.174  34.345  26.642  1.00  0.00     0.171 HD
BRANCH  11  13
HETATM   13  C15 UNL     1      71.916  31.909  24.651  1.00  0.00     0.089 C 
HETATM   14  C16 UNL     1      71.319  30.522  24.632  1.00  0.00     0.025 C 
HETATM   15  C17 UNL     1      72.381  29.469  24.820  1.00  0.00     0.002 C 
HETATM   16  C18 UNL     1      73.512  29.568  23.869  1.00  0.00     0.000 C 
HETATM   17  C19 UNL     1      73.238  30.314  22.614  1.00  0.00     0.000 C 
HETATM   18  C20 UNL     1      73.402  31.808  22.735  1.00  0.00     0.002 C 
HETATM   19  C21 UNL     1      72.046  32.348  23.208  1.00  0.00     0.025 C 
ENDBRANCH  11  13
BRANCH  11  20
HETATM   20  C22 UNL     1      71.748  33.805  26.299  1.00  0.00     0.089 A 
HETATM   21  C23 UNL     1      73.211  34.035  26.224  1.00  0.00     0.027 A 
HETATM   22  C24 UNL     1      72.342  35.025  25.580  1.00  0.00     0.027 A 
ENDBRANCH  11  20
ENDBRANCH   7   8
BRANCH   6  23
HETATM   23  O2  UNL     1      67.491  35.117  24.135  1.00  0.00    -0.344 OA
BRANCH  23  24
HETATM   24  C8  UNL     1      67.243  36.184  23.320  1.00  0.00     0.131 C 
HETATM   25  C9  UNL     1      66.777  35.892  21.925  1.00  0.00     0.035 C 
HETATM   26  C10 UNL     1      66.839  37.287  21.299  1.00  0.00     0.040 C 
HETATM   27  C11 UNL     1      68.202  37.748  21.771  1.00  0.00     0.172 C 
HETATM   28  F1  UNL     1      69.132  37.185  20.894  1.00  0.00    -0.249 F 
HETATM   29  C12 UNL     1      68.357  37.196  23.172  1.00  0.00     0.069 C 
ENDBRANCH  23  24
ENDBRANCH   6  23
BRANCH   3  30
HETATM   30  C4  UNL     1      64.580  31.667  27.390  1.00  0.00     0.265 C 
HETATM   31  N1  UNL     1      63.662  30.722  26.823  1.00  0.00    -0.057 NA
HETATM   32  O1  UNL     1      64.671  31.666  28.631  1.00  0.00    -0.271 OA
ENDBRANCH   3  30
TORSDOF 6
ENDMDL
MODEL 5
REMARK VINA RESULT: -9.011383494      2.903      5.966
REMARK  6 active torsions:
REMARK  status: ('A' for Active; 'I' for Inactive)
REMARK    1  A    between atoms: C3_3  and  C4_4 
REMARK    2  A    between atoms: C7_9  and  O2_10 
REMARK    3  A    between atoms: O2_10  and  C8_11 
REMARK    4  A    between atoms: C13_17  and  N2_18 
REMARK       I    between atoms: N2_18  and  C14_20 
REMARK       I    between atoms: C14_20  and  N3_22 
REMARK    5  A    between atoms: N3_22  and  C15_23 
REMARK    6  A    between atoms: N3_22  and  C22_30 
ROOT
HETATM    1  C1  UNL     1      68.302  31.622  26.408  1.00  0.00     0.052 C 
HETATM    2  C2  UNL     1      67.476  32.651  25.726  1.00  0.00    -0.017 A 
HETATM    3  C3  UNL     1      66.178  32.909  26.108  1.00  0.00     0.037 A 
HETATM    4  C5  UNL     1      65.432  33.887  25.442  1.00  0.00     0.020 A 
HETATM    5  C6  UNL     1      65.954  34.611  24.404  1.00  0.00     0.040 A 
HETATM    6  C7  UNL     1      67.247  34.362  24.014  1.00  0.00     0.096 A 
HETATM    7  C13 UNL     1      67.987  33.388  24.679  1.00  0.00     0.076 A 
ENDROOT
BRANCH   7   8
HETATM    8  N2  UNL     1      69.333  33.116  24.288  1.00  0.00    -0.306 N 
HETATM    9  C14 UNL     1      70.441  33.746  24.881  1.00  0.00     0.323 C 
HETATM   10  O3  UNL     1      70.207  34.597  25.809  1.00  0.00    -0.247 OA
HETATM   11  N3  UNL     1      71.796  33.528  24.546  1.00  0.00    -0.325 N 
ATOM     12  H2  UNL     1      69.497  32.434  23.546  1.00  0.00     0.171 HD
BRANCH  11  13
HETATM   13  C15 UNL     1      72.840  34.259  25.252  1.00  0.00     0.089 C 
HETATM   14  C16 UNL     1      72.494  35.718  25.426  1.00  0.00     0.025 C 
HETATM   15  C17 UNL     1      73.687  36.598  25.150  1.00  0.00     0.002 C 
HETATM   16  C18 UNL     1      74.896  36.246  25.931  1.00  0.00     0.000 C 
HETATM   17  C19 UNL     1      74.659  35.462  27.170  1.00  0.00     0.000 C 
HETATM   18  C20 UNL     1      74.552  33.974  26.949  1.00  0.00     0.002 C 
HETATM   19  C21 UNL     1      73.075  33.696  26.638  1.00  0.00     0.025 C 
ENDBRANCH  11  13
BRANCH  11  20
HETATM   20  C22 UNL     1      72.144  32.583  23.506  1.00  0.00     0.089 A 
HETATM   21  C23 UNL     1      73.547  32.132  23.338  1.00  0.00     0.027 A 
HETATM   22  C24 UNL     1      72.623  31.217  24.016  1.00  0.00     0.027 A 
ENDBRANCH  11  20
ENDBRANCH   7   8
BRANCH   6  23
HETATM   23  O2  UNL     1      67.861  35.013  23.006  1.00  0.00    -0.344 OA
BRANCH  23  24
HETATM   24  C8  UNL     1      68.161  36.319  22.747  1.00  0.00     0.131 C 
HETATM   25  C9  UNL     1      68.808  37.109  23.844  1.00  0.00     0.035 C 
HETATM   26  C10 UNL     1      68.763  38.520  23.254  1.00  0.00     0.040 C 
HETATM   27  C11 UNL     1      67.334  38.573  22.757  1.00  0.00     0.172 C 
HETATM   28  F1  UNL     1      66.545  38.885  23.868  1.00  0.00    -0.249 F 
HETATM   29  C12 UNL     1      67.030  37.185  22.236  1.00  0.00     0.069 C 
ENDBRANCH  23  24
ENDBRANCH   6  23
BRANCH   3  30
HETATM   30  C4  UNL     1      65.564  32.173  27.205  1.00  0.00     0.265 C 
HETATM   31  N1  UNL     1      66.213  32.061  28.479  1.00  0.00    -0.057 NA
HETATM   32  O1  UNL     1      64.459  31.609  27.101  1.00  0.00    -0.271 OA
ENDBRANCH   3  30
TORSDOF 6
ENDMDL
