MODEL 1
REMARK VINA RESULT: -8.715805728      0.000      0.000
REMARK  5 active torsions:
REMARK  status: ('A' for Active; 'I' for Inactive)
REMARK    1  A    between atoms: C2_2  and  O1_3 
REMARK    2  A    between atoms: O1_3  and  C3_4 
REMARK    3  A    between atoms: C8_9  and  O2_10 
REMARK    4  A    between atoms: C13_15  and  O3_16 
REMARK    5  A    between atoms: C13_15  and  C14_18 
ROOT
HETATM    1  C3  UNL     1      71.207  38.026  25.083  1.00  0.00     0.102 A 
HETATM    2  C4  UNL     1      71.246  36.752  25.599  1.00  0.00     0.050 A 
HETATM    3  C5  UNL     1      72.420  36.091  25.942  1.00  0.00    -0.015 A 
HETATM    4  C6  UNL     1      73.623  36.731  25.764  1.00  0.00    -0.046 A 
HETATM    5  C7  UNL     1      73.586  38.022  25.241  1.00  0.00     0.047 A 
HETATM    6  C8  UNL     1      72.419  38.662  24.907  1.00  0.00     0.102 A 
HETATM    7  C10 UNL     1      74.950  36.109  26.107  1.00  0.00     0.039 C 
HETATM    8  C11 UNL     1      74.830  34.641  26.272  1.00  0.00     0.008 C 
HETATM    9  C12 UNL     1      73.599  34.211  27.032  1.00  0.00     0.043 C 
HETATM   10  C13 UNL     1      72.315  34.694  26.499  1.00  0.00     0.089 C 
ENDROOT
BRANCH  10  11
HETATM   11  O3  UNL     1      71.412  34.798  27.573  1.00  0.00    -0.385 OA
ATOM     12  H3  UNL     1      71.958  34.840  28.350  1.00  0.00     0.211 HD
ENDBRANCH  10  11
BRANCH  10  13
HETATM   13  C14 UNL     1      71.622  33.769  25.507  1.00  0.00     0.028 C 
HETATM   14  C15 UNL     1      70.290  33.380  26.050  1.00  0.00     0.008 C 
HETATM   15  C16 UNL     1      69.336  32.840  25.021  1.00  0.00     0.001 C 
HETATM   16  C17 UNL     1      68.834  31.478  25.425  1.00  0.00     0.000 C 
HETATM   17  C18 UNL     1      69.724  30.340  25.130  1.00  0.00     0.004 C 
HETATM   18  C19 UNL     1      71.030  30.657  24.467  1.00  0.00    -0.018 C 
HETATM   19  C20 UNL     1      71.570  29.296  23.984  1.00  0.00     0.010 C 
HETATM   20  C21 UNL     1      72.041  31.277  25.354  1.00  0.00     0.009 C 
HETATM   21  C22 UNL     1      72.476  32.670  24.992  1.00  0.00    -0.011 C 
HETATM   22  C23 UNL     1      72.814  32.798  23.513  1.00  0.00     0.010 C 
ENDBRANCH  10  13
BRANCH   1  23
HETATM   23  O1  UNL     1      70.004  38.657  24.750  1.00  0.00    -0.349 OA
BRANCH  23  24
HETATM   24  C2  UNL     1      69.183  39.091  25.804  1.00  0.00     0.171 C 
HETATM   25  C1  UNL     1      67.909  38.288  25.916  1.00  0.00     0.034 C 
ENDBRANCH  23  24
ENDBRANCH   1  23
BRANCH   6  26
HETATM   26  O2  UNL     1      72.429  39.955  24.387  1.00  0.00    -0.353 OA
HETATM   27  C9  UNL     1      72.638  41.089  25.207  1.00  0.00     0.210 C 
ENDBRANCH   6  26
TORSDOF 5
ENDMDL
MODEL 2
REMARK VINA RESULT: -8.708362043      2.564      3.861
REMARK  5 active torsions:
REMARK  status: ('A' for Active; 'I' for Inactive)
REMARK    1  A    between atoms: C2_2  and  O1_3 
REMARK    2  A    between atoms: O1_3  and  C3_4 
REMARK    3  A    between atoms: C8_9  and  O2_10 
REMARK    4  A    between atoms: C13_15  and  O3_16 
REMARK    5  A    between atoms: C13_15  and  C14_18 
ROOT
HETATM    1  C3  UNL     1      67.966  35.226  23.434  1.00  0.00     0.102 A 
HETATM    2  C4  UNL     1      68.937  34.634  24.207  1.00  0.00     0.050 A 
HETATM    3  C5  UNL     1      70.053  35.303  24.698  1.00  0.00    -0.015 A 
HETATM    4  C6  UNL     1      70.214  36.635  24.405  1.00  0.00    -0.046 A 
HETATM    5  C7  UNL     1      69.232  37.239  23.621  1.00  0.00     0.047 A 
HETATM    6  C8  UNL     1      68.135  36.565  23.144  1.00  0.00     0.102 A 
HETATM    7  C10 UNL     1      71.381  37.455  24.889  1.00  0.00     0.039 C 
HETATM    8  C11 UNL     1      72.488  36.588  25.358  1.00  0.00     0.008 C 
HETATM    9  C12 UNL     1      72.033  35.404  26.175  1.00  0.00     0.043 C 
HETATM   10  C13 UNL     1      71.038  34.528  25.535  1.00  0.00     0.089 C 
ENDROOT
BRANCH  10  11
HETATM   11  O3  UNL     1      70.266  33.936  26.551  1.00  0.00    -0.385 OA
ATOM     12  H3  UNL     1      69.861  34.664  27.007  1.00  0.00     0.211 HD
ENDBRANCH  10  11
BRANCH  10  13
HETATM   13  C14 UNL     1      71.603  33.350  24.751  1.00  0.00     0.028 C 
HETATM   14  C15 UNL     1      70.697  32.178  24.910  1.00  0.00     0.008 C 
HETATM   15  C16 UNL     1      70.884  31.106  23.872  1.00  0.00     0.001 C 
HETATM   16  C17 UNL     1      71.155  29.775  24.526  1.00  0.00     0.000 C 
HETATM   17  C18 UNL     1      72.544  29.533  24.961  1.00  0.00     0.004 C 
HETATM   18  C19 UNL     1      73.532  30.631  24.713  1.00  0.00    -0.018 C 
HETATM   19  C20 UNL     1      74.912  29.981  24.941  1.00  0.00     0.010 C 
HETATM   20  C21 UNL     1      73.404  31.797  25.617  1.00  0.00     0.009 C 
HETATM   21  C22 UNL     1      73.051  33.106  24.967  1.00  0.00    -0.011 C 
HETATM   22  C23 UNL     1      73.909  33.387  23.742  1.00  0.00     0.010 C 
ENDBRANCH  10  13
BRANCH   1  23
HETATM   23  O1  UNL     1      66.858  34.518  22.960  1.00  0.00    -0.349 OA
BRANCH  23  24
HETATM   24  C2  UNL     1      66.232  33.621  23.842  1.00  0.00     0.171 C 
HETATM   25  C1  UNL     1      65.131  34.270  24.645  1.00  0.00     0.034 C 
ENDBRANCH  23  24
ENDBRANCH   1  23
BRANCH   6  26
HETATM   26  O2  UNL     1      67.177  37.208  22.364  1.00  0.00    -0.353 OA
HETATM   27  C9  UNL     1      67.319  37.337  20.961  1.00  0.00     0.210 C 
ENDBRANCH   6  26
TORSDOF 5
ENDMDL
MODEL 3
REMARK VINA RESULT: -8.566307765      1.194      1.673
REMARK  5 active torsions:
REMARK  status: ('A' for Active; 'I' for Inactive)
REMARK    1  A    between atoms: C2_2  and  O1_3 
REMARK    2  A    between atoms: O1_3  and  C3_4 
REMARK    3  A    between atoms: C8_9  and  O2_10 
REMARK    4  A    between atoms: C13_15  and  O3_16 
REMARK    5  A    between atoms: C13_15  and  C14_18 
ROOT
HETATM    1  C3  UNL     1      69.299  37.752  25.255  1.00  0.00     0.102 A 
HETATM    2  C4  UNL     1      69.898  36.579  25.650  1.00  0.00     0.050 A 
HETATM    3  C5  UNL     1      71.273  36.375  25.654  1.00  0.00    -0.015 A 
HETATM    4  C6  UNL     1      72.100  37.392  25.243  1.00  0.00    -0.046 A 
HETATM    5  C7  UNL     1      71.496  38.582  24.842  1.00  0.00     0.047 A 
HETATM    6  C8  UNL     1      70.136  38.769  24.844  1.00  0.00     0.102 A 
HETATM    7  C10 UNL     1      73.602  37.279  25.214  1.00  0.00     0.039 C 
HETATM    8  C11 UNL     1      74.035  35.863  25.292  1.00  0.00     0.008 C 
HETATM    9  C12 UNL     1      73.256  35.040  26.288  1.00  0.00     0.043 C 
HETATM   10  C13 UNL     1      71.794  35.037  26.114  1.00  0.00     0.089 C 
ENDROOT
BRANCH  10  11
HETATM   11  O3  UNL     1      71.208  34.833  27.376  1.00  0.00    -0.385 OA
ATOM     12  H3  UNL     1      71.172  33.889  27.480  1.00  0.00     0.211 HD
ENDBRANCH  10  11
BRANCH  10  13
HETATM   13  C14 UNL     1      71.236  33.915  25.248  1.00  0.00     0.028 C 
HETATM   14  C15 UNL     1      69.940  33.453  25.823  1.00  0.00     0.008 C 
HETATM   15  C16 UNL     1      69.080  32.675  24.865  1.00  0.00     0.001 C 
HETATM   16  C17 UNL     1      68.722  31.332  25.446  1.00  0.00     0.000 C 
HETATM   17  C18 UNL     1      69.741  30.273  25.319  1.00  0.00     0.004 C 
HETATM   18  C19 UNL     1      71.021  30.645  24.634  1.00  0.00    -0.018 C 
HETATM   19  C20 UNL     1      71.721  29.301  24.347  1.00  0.00     0.010 C 
HETATM   20  C21 UNL     1      71.932  31.488  25.441  1.00  0.00     0.009 C 
HETATM   21  C22 UNL     1      72.220  32.861  24.898  1.00  0.00    -0.011 C 
HETATM   22  C23 UNL     1      72.582  32.827  23.420  1.00  0.00     0.010 C 
ENDBRANCH  10  13
BRANCH   1  23
HETATM   23  O1  UNL     1      67.910  37.918  25.265  1.00  0.00    -0.349 OA
BRANCH  23  24
HETATM   24  C2  UNL     1      67.156  37.142  24.369  1.00  0.00     0.171 C 
HETATM   25  C1  UNL     1      66.823  37.885  23.097  1.00  0.00     0.034 C 
ENDBRANCH  23  24
ENDBRANCH   1  23
BRANCH   6  26
HETATM   26  O2  UNL     1      69.574  39.977  24.435  1.00  0.00    -0.353 OA
HETATM   27  C9  UNL     1      69.491  41.094  25.300  1.00  0.00     0.210 C 
ENDBRANCH   6  26
TORSDOF 5
ENDMDL
MODEL 4
REMARK VINA RESULT: -8.343527928      2.367      6.546
REMARK  5 active torsions:
REMARK  status: ('A' for Active; 'I' for Inactive)
REMARK    1  A    between atoms: C2_2  and  O1_3 
REMARK    2  A    between atoms: O1_3  and  C3_4 
REMARK    3  A    between atoms: C8_9  and  O2_10 
REMARK    4  A    between atoms: C13_15  and  O3_16 
REMARK    5  A    between atoms: C13_15  and  C14_18 
ROOT
HETATM    1  C3  UNL     1      73.698  32.569  25.516  1.00  0.00     0.102 A 
HETATM    2  C4  UNL     1      72.463  33.122  25.760  1.00  0.00     0.050 A 
HETATM    3  C5  UNL     1      71.262  32.441  25.596  1.00  0.00    -0.015 A 
HETATM    4  C6  UNL     1      71.289  31.137  25.164  1.00  0.00    -0.046 A 
HETATM    5  C7  UNL     1      72.539  30.574  24.915  1.00  0.00     0.047 A 
HETATM    6  C8  UNL     1      73.716  31.259  25.083  1.00  0.00     0.102 A 
HETATM    7  C10 UNL     1      70.049  30.307  24.959  1.00  0.00     0.039 C 
HETATM    8  C11 UNL     1      68.838  31.159  24.892  1.00  0.00     0.008 C 
HETATM    9  C12 UNL     1      68.816  32.271  25.911  1.00  0.00     0.043 C 
HETATM   10  C13 UNL     1      69.980  33.172  25.902  1.00  0.00     0.089 C 
ENDROOT
BRANCH  10  11
HETATM   11  O3  UNL     1      70.150  33.673  27.205  1.00  0.00    -0.385 OA
ATOM     12  H3  UNL     1      70.062  34.616  27.120  1.00  0.00     0.211 HD
ENDBRANCH  10  11
BRANCH  10  13
HETATM   13  C14 UNL     1      69.846  34.415  25.031  1.00  0.00     0.028 C 
HETATM   14  C15 UNL     1      70.793  35.457  25.518  1.00  0.00     0.008 C 
HETATM   15  C16 UNL     1      71.082  36.545  24.521  1.00  0.00     0.001 C 
HETATM   16  C17 UNL     1      70.786  37.899  25.113  1.00  0.00     0.000 C 
HETATM   17  C18 UNL     1      69.373  38.322  25.097  1.00  0.00     0.004 C 
HETATM   18  C19 UNL     1      68.386  37.365  24.503  1.00  0.00    -0.018 C 
HETATM   19  C20 UNL     1      67.098  38.191  24.312  1.00  0.00     0.010 C 
HETATM   20  C21 UNL     1      68.072  36.192  25.351  1.00  0.00     0.009 C 
HETATM   21  C22 UNL     1      68.448  34.848  24.790  1.00  0.00    -0.011 C 
HETATM   22  C23 UNL     1      67.996  34.684  23.346  1.00  0.00     0.010 C 
ENDBRANCH  10  13
BRANCH   1  23
HETATM   23  O1  UNL     1      74.884  33.288  25.693  1.00  0.00    -0.349 OA
BRANCH  23  24
HETATM   24  C2  UNL     1      74.818  34.688  25.588  1.00  0.00     0.171 C 
HETATM   25  C1  UNL     1      74.895  35.375  26.929  1.00  0.00     0.034 C 
ENDBRANCH  23  24
ENDBRANCH   1  23
BRANCH   6  26
HETATM   26  O2  UNL     1      74.945  30.655  24.822  1.00  0.00    -0.353 OA
HETATM   27  C9  UNL     1      75.497  30.617  23.519  1.00  0.00     0.210 C 
ENDBRANCH   6  26
TORSDOF 5
ENDMDL
MODEL 5
REMARK VINA RESULT: -8.096355172      2.437      5.605
REMARK  5 active torsions:
REMARK  status: ('A' for Active; 'I' for Inactive)
REMARK    1  A    between atoms: C2_2  and  O1_3 
REMARK    2  A    between atoms: O1_3  and  C3_4 
REMARK    3  A    between atoms: C8_9  and  O2_10 
REMARK    4  A    between atoms: C13_15  and  O3_16 
REMARK    5  A    between atoms: C13_15  and  C14_18 
ROOT
HETATM    1  C3  UNL     1      72.479  33.864  26.324  1.00  0.00     0.102 A 
HETATM    2  C4  UNL     1      71.129  33.642  26.454  1.00  0.00     0.050 A 
HETATM    3  C5  UNL     1      70.468  32.543  25.917  1.00  0.00    -0.015 A 
HETATM    4  C6  UNL     1      71.190  31.610  25.211  1.00  0.00    -0.046 A 
HETATM    5  C7  UNL     1      72.559  31.832  25.078  1.00  0.00     0.047 A 
HETATM    6  C8  UNL     1      73.198  32.922  25.615  1.00  0.00     0.102 A 
HETATM    7  C10 UNL     1      70.576  30.381  24.594  1.00  0.00     0.039 C 
HETATM    8  C11 UNL     1      69.102  30.507  24.498  1.00  0.00     0.008 C 
HETATM    9  C12 UNL     1      68.460  31.113  25.722  1.00  0.00     0.043 C 
HETATM   10  C13 UNL     1      68.982  32.426  26.137  1.00  0.00     0.089 C 
ENDROOT
BRANCH  10  11
HETATM   11  O3  UNL     1      68.810  32.540  27.528  1.00  0.00    -0.385 OA
ATOM     12  H3  UNL     1      68.560  31.670  27.817  1.00  0.00     0.211 HD
ENDBRANCH  10  11
BRANCH  10  13
HETATM   13  C14 UNL     1      68.255  33.636  25.563  1.00  0.00     0.028 C 
HETATM   14  C15 UNL     1      67.030  33.177  24.850  1.00  0.00     0.008 C 
HETATM   15  C16 UNL     1      66.009  34.256  24.615  1.00  0.00     0.001 C 
HETATM   16  C17 UNL     1      65.668  34.353  23.150  1.00  0.00     0.000 C 
HETATM   17  C18 UNL     1      66.606  35.120  22.311  1.00  0.00     0.004 C 
HETATM   18  C19 UNL     1      67.798  35.715  22.997  1.00  0.00    -0.018 C 
HETATM   19  C20 UNL     1      68.385  36.713  21.978  1.00  0.00     0.010 C 
HETATM   20  C21 UNL     1      68.851  34.742  23.365  1.00  0.00     0.009 C 
HETATM   21  C22 UNL     1      69.129  34.588  24.835  1.00  0.00    -0.011 C 
HETATM   22  C23 UNL     1      69.284  35.933  25.531  1.00  0.00     0.010 C 
ENDBRANCH  10  13
BRANCH   1  23
HETATM   23  O1  UNL     1      73.107  34.983  26.880  1.00  0.00    -0.349 OA
BRANCH  23  24
HETATM   24  C2  UNL     1      72.878  36.227  26.267  1.00  0.00     0.171 C 
HETATM   25  C1  UNL     1      73.980  36.614  25.310  1.00  0.00     0.034 C 
ENDBRANCH  23  24
ENDBRANCH   1  23
BRANCH   6  26
HETATM   26  O2  UNL     1      74.570  33.104  25.457  1.00  0.00    -0.353 OA
HETATM   27  C9  UNL     1      75.193  33.035  24.188  1.00  0.00     0.210 C 
ENDBRANCH   6  26
TORSDOF 5
ENDMDL
