MODEL 1
REMARK VINA RESULT: -10.891707782      0.000      0.000
REMARK  10 active torsions:
REMARK  status: ('A' for Active; 'I' for Inactive)
REMARK    1  A    between atoms: C2_2  and  C3_3 
REMARK    2  A    between atoms: C2_2  and  N7_26 
REMARK       I    between atoms: C3_3  and  N1_5 
REMARK    3  A    between atoms: N1_5  and  N2_7 
REMARK       I    between atoms: N2_7  and  C4_9 
REMARK       I    between atoms: C4_9  and  N3_11 
REMARK    4  A    between atoms: N3_11  and  N4_12 
REMARK    5  A    between atoms: N3_11  and  C5_16 
REMARK    6  A    between atoms: N4_12  and  O3_14 
REMARK    7  A    between atoms: C7_20  and  C8_21 
REMARK    8  A    between atoms: C8_21  and  O4_22 
REMARK    9  A    between atoms: C9_31  and  N11_32 
REMARK   10  A    between atoms: N12_34  and  N13_36 
REMARK       I    between atoms: N13_36  and  C10_38 
ROOT
HETATM    1  C3  UNL     1     -13.181  -7.702 -33.537  1.00  0.00     0.261 C 
HETATM    2  O1  UNL     1     -12.763  -7.852 -34.730  1.00  0.00    -0.269 OA
HETATM    3  N1  UNL     1     -14.095  -6.648 -33.327  1.00  0.00    -0.264 N 
ATOM      4  H1  UNL     1     -14.468  -6.462 -32.396  1.00  0.00     0.190 HD
ENDROOT
BRANCH   3   5
HETATM    5  N2  UNL     1     -14.483  -5.858 -34.425  1.00  0.00    -0.247 N 
HETATM    6  C4  UNL     1     -15.714  -6.106 -35.054  1.00  0.00     0.364 C 
HETATM    7  O2  UNL     1     -16.444  -7.049 -34.608  1.00  0.00    -0.243 OA
HETATM    8  N3  UNL     1     -16.133  -5.317 -36.162  1.00  0.00    -0.152 N 
ATOM      9  H2  UNL     1     -13.874  -5.112 -34.762  1.00  0.00     0.192 HD
BRANCH   8  10
HETATM   10  N4  UNL     1     -15.291  -4.306 -36.616  1.00  0.00    -0.197 N 
ATOM     11  H4  UNL     1     -15.475  -3.329 -36.389  1.00  0.00     0.216 HD
BRANCH  10  12
HETATM   12  O3  UNL     1     -14.301  -4.629 -37.310  1.00  0.00    -0.274 OA
ATOM     13  H3  UNL     1     -14.458  -5.046 -38.149  1.00  0.00     0.246 HD
ENDBRANCH  10  12
ENDBRANCH   8  10
BRANCH   8  14
HETATM   14  C5  UNL     1     -17.400  -5.546 -36.800  1.00  0.00     0.203 A 
HETATM   15  N5  UNL     1     -18.453  -4.820 -36.632  1.00  0.00    -0.358 N 
HETATM   16  C6  UNL     1     -19.553  -5.317 -37.414  1.00  0.00     0.150 A 
ATOM     17  H5  UNL     1     -18.500  -4.001 -36.025  1.00  0.00     0.162 HD
HETATM   18  C7  UNL     1     -19.006  -6.448 -38.233  1.00  0.00     0.126 A 
HETATM   19  N6  UNL     1     -17.668  -6.608 -37.708  1.00  0.00    -0.352 N 
ATOM     20  H6  UNL     1     -17.022  -7.359 -37.950  1.00  0.00     0.163 HD
BRANCH  18  21
HETATM   21  C8  UNL     1     -19.828  -7.707 -38.108  1.00  0.00     0.191 C 
BRANCH  21  22
HETATM   22  O4  UNL     1     -19.115  -8.771 -38.653  1.00  0.00    -0.399 OA
ATOM     23  H4  UNL     1     -19.726  -9.395 -39.028  1.00  0.00     0.209 HD
ENDBRANCH  21  22
ENDBRANCH  18  21
ENDBRANCH   8  14
ENDBRANCH   3   5
BRANCH   1  24
HETATM   24  C2  UNL     1     -12.653  -8.639 -32.545  1.00  0.00     0.213 C 
HETATM   25  C1  UNL     1     -11.935  -9.745 -33.369  1.00  0.00     0.045 C 
BRANCH  24  26
HETATM   26  N7  UNL     1     -11.716  -8.069 -31.631  1.00  0.00    -0.093 N 
HETATM   27  N8  UNL     1     -10.848  -7.012 -31.834  1.00  0.00     0.010 NA
HETATM   28  N9  UNL     1      -9.903  -7.092 -30.813  1.00  0.00     0.007 NA
HETATM   29  N10 UNL     1     -10.439  -7.891 -29.796  1.00  0.00    -0.115 N 
HETATM   30  C9  UNL     1     -11.492  -8.464 -30.261  1.00  0.00     0.726 C 
ATOM     31  H10 UNL     1     -10.062  -8.000 -28.854  1.00  0.00     0.202 HD
BRANCH  30  32
HETATM   32  N11 UNL     1     -12.355  -9.354 -29.587  1.00  0.00    -0.115 N 
HETATM   33  N12 UNL     1     -11.920 -10.379 -29.015  1.00  0.00    -0.225 N 
ATOM     34  H12 UNL     1     -10.914 -10.546 -29.055  1.00  0.00     0.209 HD
ATOM     35  H11 UNL     1     -13.355  -9.158 -29.565  1.00  0.00     0.207 HD
BRANCH  33  36
HETATM   36  N13 UNL     1     -12.688 -11.302 -28.335  1.00  0.00    -0.239 N 
HETATM   37  C10 UNL     1     -13.878 -11.806 -28.913  1.00  0.00     0.348 C 
HETATM   38  N14 UNL     1     -14.670 -12.752 -28.216  1.00  0.00    -0.038 NA
HETATM   39  O5  UNL     1     -14.216 -11.389 -30.069  1.00  0.00    -0.249 OA
ATOM     40  H13 UNL     1     -12.398 -11.622 -27.411  1.00  0.00     0.193 HD
ENDBRANCH  33  36
ENDBRANCH  30  32
ENDBRANCH  24  26
ENDBRANCH   1  24
TORSDOF 10
ENDMDL
MODEL 2
REMARK VINA RESULT: -10.828957922      3.676      4.458
REMARK  10 active torsions:
REMARK  status: ('A' for Active; 'I' for Inactive)
REMARK    1  A    between atoms: C2_2  and  C3_3 
REMARK    2  A    between atoms: C2_2  and  N7_26 
REMARK       I    between atoms: C3_3  and  N1_5 
REMARK    3  A    between atoms: N1_5  and  N2_7 
REMARK       I    between atoms: N2_7  and  C4_9 
REMARK       I    between atoms: C4_9  and  N3_11 
REMARK    4  A    between atoms: N3_11  and  N4_12 
REMARK    5  A    between atoms: N3_11  and  C5_16 
REMARK    6  A    between atoms: N4_12  and  O3_14 
REMARK    7  A    between atoms: C7_20  and  C8_21 
REMARK    8  A    between atoms: C8_21  and  O4_22 
REMARK    9  A    between atoms: C9_31  and  N11_32 
REMARK   10  A    between atoms: N12_34  and  N13_36 
REMARK       I    between atoms: N13_36  and  C10_38 
ROOT
HETATM    1  C3  UNL     1     -13.793  -6.720 -32.897  1.00  0.00     0.261 C 
HETATM    2  O1  UNL     1     -14.797  -6.801 -33.676  1.00  0.00    -0.269 OA
HETATM    3  N1  UNL     1     -13.337  -5.417 -32.607  1.00  0.00    -0.264 N 
ATOM      4  H1  UNL     1     -12.533  -5.272 -31.996  1.00  0.00     0.190 HD
ENDROOT
BRANCH   3   5
HETATM    5  N2  UNL     1     -14.010  -4.320 -33.176  1.00  0.00    -0.247 N 
HETATM    6  C4  UNL     1     -14.990  -3.647 -32.428  1.00  0.00     0.364 C 
HETATM    7  O2  UNL     1     -15.242  -4.058 -31.250  1.00  0.00    -0.243 OA
HETATM    8  N3  UNL     1     -15.681  -2.530 -32.977  1.00  0.00    -0.152 N 
ATOM      9  H2  UNL     1     -13.788  -4.016 -34.124  1.00  0.00     0.192 HD
BRANCH   8  10
HETATM   10  N4  UNL     1     -15.373  -2.130 -34.274  1.00  0.00    -0.197 N 
ATOM     11  H4  UNL     1     -15.829  -2.562 -35.078  1.00  0.00     0.216 HD
BRANCH  10  12
HETATM   12  O3  UNL     1     -14.522  -1.225 -34.427  1.00  0.00    -0.274 OA
ATOM     13  H3  UNL     1     -14.812  -0.394 -34.786  1.00  0.00     0.246 HD
ENDBRANCH  10  12
ENDBRANCH   8  10
BRANCH   8  14
HETATM   14  C5  UNL     1     -16.669  -1.820 -32.214  1.00  0.00     0.203 A 
HETATM   15  N5  UNL     1     -16.635  -1.651 -30.936  1.00  0.00    -0.358 N 
HETATM   16  C6  UNL     1     -17.772  -0.896 -30.484  1.00  0.00     0.150 A 
ATOM     17  H5  UNL     1     -15.898  -2.006 -30.326  1.00  0.00     0.162 HD
HETATM   18  C7  UNL     1     -18.519  -0.486 -31.718  1.00  0.00     0.126 A 
HETATM   19  N6  UNL     1     -17.826  -1.202 -32.766  1.00  0.00    -0.352 N 
ATOM     20  H6  UNL     1     -18.119  -1.255 -33.742  1.00  0.00     0.163 HD
BRANCH  18  21
HETATM   21  C8  UNL     1     -19.985  -0.837 -31.653  1.00  0.00     0.191 C 
BRANCH  21  22
HETATM   22  O4  UNL     1     -20.121  -2.141 -31.188  1.00  0.00    -0.399 OA
ATOM     23  H4  UNL     1     -20.155  -2.734 -31.930  1.00  0.00     0.209 HD
ENDBRANCH  21  22
ENDBRANCH  18  21
ENDBRANCH   8  14
ENDBRANCH   3   5
BRANCH   1  24
HETATM   24  C2  UNL     1     -13.247  -7.987 -32.413  1.00  0.00     0.213 C 
HETATM   25  C1  UNL     1     -12.868  -8.785 -33.693  1.00  0.00     0.045 C 
BRANCH  24  26
HETATM   26  N7  UNL     1     -12.086  -7.859 -31.593  1.00  0.00    -0.093 N 
HETATM   27  N8  UNL     1     -11.059  -6.938 -31.693  1.00  0.00     0.010 NA
HETATM   28  N9  UNL     1     -10.008  -7.455 -30.937  1.00  0.00     0.007 NA
HETATM   29  N10 UNL     1     -10.539  -8.417 -30.069  1.00  0.00    -0.115 N 
HETATM   30  C9  UNL     1     -11.746  -8.659 -30.442  1.00  0.00     0.726 C 
ATOM     31  H10 UNL     1     -10.055  -8.848 -29.282  1.00  0.00     0.202 HD
BRANCH  30  32
HETATM   32  N11 UNL     1     -12.662  -9.556 -29.855  1.00  0.00    -0.115 N 
HETATM   33  N12 UNL     1     -12.295 -10.414 -29.021  1.00  0.00    -0.225 N 
ATOM     34  H12 UNL     1     -11.303 -10.439 -28.780  1.00  0.00     0.209 HD
ATOM     35  H11 UNL     1     -13.647  -9.506 -30.116  1.00  0.00     0.207 HD
BRANCH  33  36
HETATM   36  N13 UNL     1     -13.119 -11.329 -28.398  1.00  0.00    -0.239 N 
HETATM   37  C10 UNL     1     -14.216 -11.891 -29.094  1.00  0.00     0.348 C 
HETATM   38  N14 UNL     1     -15.066 -12.830 -28.458  1.00  0.00    -0.038 NA
HETATM   39  O5  UNL     1     -14.418 -11.533 -30.301  1.00  0.00    -0.249 OA
ATOM     40  H13 UNL     1     -12.938 -11.602 -27.432  1.00  0.00     0.193 HD
ENDBRANCH  33  36
ENDBRANCH  30  32
ENDBRANCH  24  26
ENDBRANCH   1  24
TORSDOF 10
ENDMDL
MODEL 3
REMARK VINA RESULT: -10.614342070      0.890      1.274
REMARK  10 active torsions:
REMARK  status: ('A' for Active; 'I' for Inactive)
REMARK    1  A    between atoms: C2_2  and  C3_3 
REMARK    2  A    between atoms: C2_2  and  N7_26 
REMARK       I    between atoms: C3_3  and  N1_5 
REMARK    3  A    between atoms: N1_5  and  N2_7 
REMARK       I    between atoms: N2_7  and  C4_9 
REMARK       I    between atoms: C4_9  and  N3_11 
REMARK    4  A    between atoms: N3_11  and  N4_12 
REMARK    5  A    between atoms: N3_11  and  C5_16 
REMARK    6  A    between atoms: N4_12  and  O3_14 
REMARK    7  A    between atoms: C7_20  and  C8_21 
REMARK    8  A    between atoms: C8_21  and  O4_22 
REMARK    9  A    between atoms: C9_31  and  N11_32 
REMARK   10  A    between atoms: N12_34  and  N13_36 
REMARK       I    between atoms: N13_36  and  C10_38 
ROOT
HETATM    1  C3  UNL     1     -13.119  -7.711 -33.507  1.00  0.00     0.261 C 
HETATM    2  O1  UNL     1     -12.591  -7.796 -34.663  1.00  0.00    -0.269 OA
HETATM    3  N1  UNL     1     -14.107  -6.716 -33.349  1.00  0.00    -0.264 N 
ATOM      4  H1  UNL     1     -14.570  -6.584 -32.450  1.00  0.00     0.190 HD
ENDROOT
BRANCH   3   5
HETATM    5  N2  UNL     1     -14.442  -5.911 -34.453  1.00  0.00    -0.247 N 
HETATM    6  C4  UNL     1     -15.687  -6.081 -35.079  1.00  0.00     0.364 C 
HETATM    7  O2  UNL     1     -16.478  -6.969 -34.626  1.00  0.00    -0.243 OA
HETATM    8  N3  UNL     1     -16.053  -5.275 -36.194  1.00  0.00    -0.152 N 
ATOM      9  H2  UNL     1     -13.785  -5.209 -34.795  1.00  0.00     0.192 HD
BRANCH   8  10
HETATM   10  N4  UNL     1     -15.146  -4.326 -36.655  1.00  0.00    -0.197 N 
ATOM     11  H4  UNL     1     -15.255  -3.339 -36.423  1.00  0.00     0.216 HD
BRANCH  10  12
HETATM   12  O3  UNL     1     -14.191  -4.717 -37.363  1.00  0.00    -0.274 OA
ATOM     13  H3  UNL     1     -14.018  -4.258 -38.177  1.00  0.00     0.246 HD
ENDBRANCH  10  12
ENDBRANCH   8  10
BRANCH   8  14
HETATM   14  C5  UNL     1     -17.333  -5.423 -36.830  1.00  0.00     0.203 A 
HETATM   15  N5  UNL     1     -17.736  -6.486 -37.440  1.00  0.00    -0.358 N 
HETATM   16  C6  UNL     1     -19.063  -6.309 -37.965  1.00  0.00     0.150 A 
ATOM     17  H5  UNL     1     -17.186  -7.340 -37.538  1.00  0.00     0.162 HD
HETATM   18  C7  UNL     1     -19.525  -4.964 -37.489  1.00  0.00     0.126 A 
HETATM   19  N6  UNL     1     -18.337  -4.416 -36.873  1.00  0.00    -0.352 N 
ATOM     20  H6  UNL     1     -18.235  -3.462 -36.526  1.00  0.00     0.163 HD
BRANCH  18  21
HETATM   21  C8  UNL     1     -20.045  -4.097 -38.609  1.00  0.00     0.191 C 
BRANCH  21  22
HETATM   22  O4  UNL     1     -19.569  -4.588 -39.822  1.00  0.00    -0.399 OA
ATOM     23  H4  UNL     1     -19.577  -3.888 -40.465  1.00  0.00     0.209 HD
ENDBRANCH  21  22
ENDBRANCH  18  21
ENDBRANCH   8  14
ENDBRANCH   3   5
BRANCH   1  24
HETATM   24  C2  UNL     1     -12.627  -8.652 -32.501  1.00  0.00     0.213 C 
HETATM   25  C1  UNL     1     -11.923  -9.780 -33.305  1.00  0.00     0.045 C 
BRANCH  24  26
HETATM   26  N7  UNL     1     -11.691  -8.096 -31.577  1.00  0.00    -0.093 N 
HETATM   27  N8  UNL     1     -10.814  -7.044 -31.767  1.00  0.00     0.010 NA
HETATM   28  N9  UNL     1      -9.875  -7.139 -30.741  1.00  0.00     0.007 NA
HETATM   29  N10 UNL     1     -10.424  -7.942 -29.734  1.00  0.00    -0.115 N 
HETATM   30  C9  UNL     1     -11.478  -8.503 -30.209  1.00  0.00     0.726 C 
ATOM     31  H10 UNL     1     -10.053  -8.060 -28.791  1.00  0.00     0.202 HD
BRANCH  30  32
HETATM   32  N11 UNL     1     -12.351  -9.391 -29.547  1.00  0.00    -0.115 N 
HETATM   33  N12 UNL     1     -11.927 -10.418 -28.971  1.00  0.00    -0.225 N 
ATOM     34  H12 UNL     1     -10.921 -10.588 -28.999  1.00  0.00     0.209 HD
ATOM     35  H11 UNL     1     -13.352  -9.192 -29.537  1.00  0.00     0.207 HD
BRANCH  33  36
HETATM   36  N13 UNL     1     -12.706 -11.339 -28.300  1.00  0.00    -0.239 N 
HETATM   37  C10 UNL     1     -13.888 -11.841 -28.895  1.00  0.00     0.348 C 
HETATM   38  N14 UNL     1     -14.692 -12.785 -28.208  1.00  0.00    -0.038 NA
HETATM   39  O5  UNL     1     -14.210 -11.423 -30.055  1.00  0.00    -0.249 OA
ATOM     40  H13 UNL     1     -12.429 -11.660 -27.373  1.00  0.00     0.193 HD
ENDBRANCH  33  36
ENDBRANCH  30  32
ENDBRANCH  24  26
ENDBRANCH   1  24
TORSDOF 10
ENDMDL
MODEL 4
REMARK VINA RESULT: -10.443658915      4.217      4.659
REMARK  10 active torsions:
REMARK  status: ('A' for Active; 'I' for Inactive)
REMARK    1  A    between atoms: C2_2  and  C3_3 
REMARK    2  A    between atoms: C2_2  and  N7_26 
REMARK       I    between atoms: C3_3  and  N1_5 
REMARK    3  A    between atoms: N1_5  and  N2_7 
REMARK       I    between atoms: N2_7  and  C4_9 
REMARK       I    between atoms: C4_9  and  N3_11 
REMARK    4  A    between atoms: N3_11  and  N4_12 
REMARK    5  A    between atoms: N3_11  and  C5_16 
REMARK    6  A    between atoms: N4_12  and  O3_14 
REMARK    7  A    between atoms: C7_20  and  C8_21 
REMARK    8  A    between atoms: C8_21  and  O4_22 
REMARK    9  A    between atoms: C9_31  and  N11_32 
REMARK   10  A    between atoms: N12_34  and  N13_36 
REMARK       I    between atoms: N13_36  and  C10_38 
ROOT
HETATM    1  C3  UNL     1     -12.442  -7.538 -31.864  1.00  0.00     0.261 C 
HETATM    2  O1  UNL     1     -11.409  -6.838 -32.117  1.00  0.00    -0.269 OA
HETATM    3  N1  UNL     1     -13.685  -6.888 -32.016  1.00  0.00    -0.264 N 
ATOM      4  H1  UNL     1     -14.556  -7.382 -31.825  1.00  0.00     0.190 HD
ENDROOT
BRANCH   3   5
HETATM    5  N2  UNL     1     -13.701  -5.545 -32.437  1.00  0.00    -0.247 N 
HETATM    6  C4  UNL     1     -14.713  -4.688 -31.976  1.00  0.00     0.364 C 
HETATM    7  O2  UNL     1     -15.593  -5.159 -31.187  1.00  0.00    -0.243 OA
HETATM    8  N3  UNL     1     -14.748  -3.324 -32.381  1.00  0.00    -0.152 N 
ATOM      9  H2  UNL     1     -12.982  -5.197 -33.073  1.00  0.00     0.192 HD
BRANCH   8  10
HETATM   10  N4  UNL     1     -13.766  -2.864 -33.254  1.00  0.00    -0.197 N 
ATOM     11  H4  UNL     1     -12.785  -3.105 -33.114  1.00  0.00     0.216 HD
BRANCH  10  12
HETATM   12  O3  UNL     1     -14.121  -2.146 -34.216  1.00  0.00    -0.274 OA
ATOM     13  H3  UNL     1     -14.119  -1.204 -34.096  1.00  0.00     0.246 HD
ENDBRANCH  10  12
ENDBRANCH   8  10
BRANCH   8  14
HETATM   14  C5  UNL     1     -15.765  -2.431 -31.899  1.00  0.00     0.203 A 
HETATM   15  N5  UNL     1     -16.207  -2.401 -30.687  1.00  0.00    -0.358 N 
HETATM   16  C6  UNL     1     -17.222  -1.394 -30.532  1.00  0.00     0.150 A 
ATOM     17  H5  UNL     1     -15.880  -3.011 -29.937  1.00  0.00     0.162 HD
HETATM   18  C7  UNL     1     -17.295  -0.670 -31.843  1.00  0.00     0.126 A 
HETATM   19  N6  UNL     1     -16.426  -1.454 -32.693  1.00  0.00    -0.352 N 
ATOM     20  H6  UNL     1     -16.308  -1.327 -33.698  1.00  0.00     0.163 HD
BRANCH  18  21
HETATM   21  C8  UNL     1     -18.702  -0.582 -32.382  1.00  0.00     0.191 C 
BRANCH  21  22
HETATM   22  O4  UNL     1     -18.708  -1.006 -33.708  1.00  0.00    -0.399 OA
ATOM     23  H4  UNL     1     -18.118  -0.457 -34.212  1.00  0.00     0.209 HD
ENDBRANCH  21  22
ENDBRANCH  18  21
ENDBRANCH   8  14
ENDBRANCH   3   5
BRANCH   1  24
HETATM   24  C2  UNL     1     -12.200  -8.918 -31.445  1.00  0.00     0.213 C 
HETATM   25  C1  UNL     1     -11.089  -9.445 -32.395  1.00  0.00     0.045 C 
BRANCH  24  26
HETATM   26  N7  UNL     1     -11.754  -9.059 -30.096  1.00  0.00    -0.093 N 
HETATM   27  N8  UNL     1     -10.849  -8.277 -29.402  1.00  0.00     0.010 NA
HETATM   28  N9  UNL     1     -10.468  -9.028 -28.292  1.00  0.00     0.007 NA
HETATM   29  N10 UNL     1     -11.433 -10.024 -28.097  1.00  0.00    -0.115 N 
HETATM   30  C9  UNL     1     -12.185 -10.050 -29.140  1.00  0.00     0.726 C 
ATOM     31  H10 UNL     1     -11.523 -10.621 -27.275  1.00  0.00     0.202 HD
BRANCH  30  32
HETATM   32  N11 UNL     1     -13.291 -10.893 -29.380  1.00  0.00    -0.115 N 
HETATM   33  N12 UNL     1     -13.532 -11.879 -28.648  1.00  0.00    -0.225 N 
ATOM     34  H12 UNL     1     -12.897 -12.050 -27.869  1.00  0.00     0.209 HD
ATOM     35  H11 UNL     1     -13.907 -10.694 -30.168  1.00  0.00     0.207 HD
BRANCH  33  36
HETATM   36  N13 UNL     1     -14.588 -12.754 -28.808  1.00  0.00    -0.239 N 
HETATM   37  C10 UNL     1     -14.550 -14.035 -28.209  1.00  0.00     0.348 C 
HETATM   38  N14 UNL     1     -15.632 -14.937 -28.373  1.00  0.00    -0.038 NA
HETATM   39  O5  UNL     1     -13.525 -14.356 -27.522  1.00  0.00    -0.249 OA
ATOM     40  H13 UNL     1     -15.399 -12.476 -29.361  1.00  0.00     0.193 HD
ENDBRANCH  33  36
ENDBRANCH  30  32
ENDBRANCH  24  26
ENDBRANCH   1  24
TORSDOF 10
ENDMDL
MODEL 5
REMARK VINA RESULT: -10.354332343      3.182      9.052
REMARK  10 active torsions:
REMARK  status: ('A' for Active; 'I' for Inactive)
REMARK    1  A    between atoms: C2_2  and  C3_3 
REMARK    2  A    between atoms: C2_2  and  N7_26 
REMARK       I    between atoms: C3_3  and  N1_5 
REMARK    3  A    between atoms: N1_5  and  N2_7 
REMARK       I    between atoms: N2_7  and  C4_9 
REMARK       I    between atoms: C4_9  and  N3_11 
REMARK    4  A    between atoms: N3_11  and  N4_12 
REMARK    5  A    between atoms: N3_11  and  C5_16 
REMARK    6  A    between atoms: N4_12  and  O3_14 
REMARK    7  A    between atoms: C7_20  and  C8_21 
REMARK    8  A    between atoms: C8_21  and  O4_22 
REMARK    9  A    between atoms: C9_31  and  N11_32 
REMARK   10  A    between atoms: N12_34  and  N13_36 
REMARK       I    between atoms: N13_36  and  C10_38 
ROOT
HETATM    1  C3  UNL     1     -12.534  -8.847 -32.538  1.00  0.00     0.261 C 
HETATM    2  O1  UNL     1     -11.347  -9.184 -32.223  1.00  0.00    -0.269 OA
HETATM    3  N1  UNL     1     -13.532  -9.118 -31.579  1.00  0.00    -0.264 N 
ATOM      4  H1  UNL     1     -14.507  -8.882 -31.763  1.00  0.00     0.190 HD
ENDROOT
BRANCH   3   5
HETATM    5  N2  UNL     1     -13.158  -9.719 -30.363  1.00  0.00    -0.247 N 
HETATM    6  C4  UNL     1     -13.793 -10.903 -29.953  1.00  0.00     0.364 C 
HETATM    7  O2  UNL     1     -14.697 -11.396 -30.701  1.00  0.00    -0.243 OA
HETATM    8  N3  UNL     1     -13.429 -11.534 -28.730  1.00  0.00    -0.152 N 
ATOM      9  H2  UNL     1     -12.431  -9.298 -29.783  1.00  0.00     0.192 HD
BRANCH   8  10
HETATM   10  N4  UNL     1     -12.441 -10.946 -27.946  1.00  0.00    -0.197 N 
ATOM     11  H4  UNL     1     -12.633 -10.667 -26.984  1.00  0.00     0.216 HD
BRANCH  10  12
HETATM   12  O3  UNL     1     -11.311 -10.769 -28.453  1.00  0.00    -0.274 OA
ATOM     13  H3  UNL     1     -10.651 -10.325 -27.934  1.00  0.00     0.246 HD
ENDBRANCH  10  12
ENDBRANCH   8  10
BRANCH   8  14
HETATM   14  C5  UNL     1     -14.055 -12.758 -28.311  1.00  0.00     0.203 A 
HETATM   15  N5  UNL     1     -13.495 -13.662 -27.581  1.00  0.00    -0.358 N 
HETATM   16  C6  UNL     1     -14.392 -14.760 -27.341  1.00  0.00     0.150 A 
ATOM     17  H5  UNL     1     -12.542 -13.605 -27.221  1.00  0.00     0.162 HD
HETATM   18  C7  UNL     1     -15.705 -14.369 -27.950  1.00  0.00     0.126 A 
HETATM   19  N6  UNL     1     -15.384 -13.141 -28.643  1.00  0.00    -0.352 N 
ATOM     20  H6  UNL     1     -16.010 -12.633 -29.269  1.00  0.00     0.163 HD
BRANCH  18  21
HETATM   21  C8  UNL     1     -16.254 -15.426 -28.875  1.00  0.00     0.191 C 
BRANCH  21  22
HETATM   22  O4  UNL     1     -15.476 -15.470 -30.029  1.00  0.00    -0.399 OA
ATOM     23  H4  UNL     1     -15.764 -16.196 -30.570  1.00  0.00     0.209 HD
ENDBRANCH  21  22
ENDBRANCH  18  21
ENDBRANCH   8  14
ENDBRANCH   3   5
BRANCH   1  24
HETATM   24  C2  UNL     1     -12.702  -8.229 -33.853  1.00  0.00     0.213 C 
HETATM   25  C1  UNL     1     -11.535  -8.785 -34.718  1.00  0.00     0.045 C 
BRANCH  24  26
HETATM   26  N7  UNL     1     -13.937  -8.537 -34.500  1.00  0.00    -0.093 N 
HETATM   27  N8  UNL     1     -14.454  -9.777 -34.825  1.00  0.00     0.010 NA
HETATM   28  N9  UNL     1     -15.459  -9.539 -35.760  1.00  0.00     0.007 NA
HETATM   29  N10 UNL     1     -15.823  -8.191 -35.662  1.00  0.00    -0.115 N 
HETATM   30  C9  UNL     1     -14.945  -7.599 -34.933  1.00  0.00     0.726 C 
ATOM     31  H10 UNL     1     -16.639  -7.756 -36.092  1.00  0.00     0.202 HD
BRANCH  30  32
HETATM   32  N11 UNL     1     -14.911  -6.238 -34.563  1.00  0.00    -0.115 N 
HETATM   33  N12 UNL     1     -15.278  -5.337 -35.350  1.00  0.00    -0.225 N 
ATOM     34  H12 UNL     1     -15.603  -5.626 -36.273  1.00  0.00     0.209 HD
ATOM     35  H11 UNL     1     -14.581  -5.982 -33.632  1.00  0.00     0.207 HD
BRANCH  33  36
HETATM   36  N13 UNL     1     -15.279  -3.985 -35.074  1.00  0.00    -0.239 N 
HETATM   37  C10 UNL     1     -15.983  -3.486 -33.952  1.00  0.00     0.348 C 
HETATM   38  N14 UNL     1     -15.987  -2.098 -33.666  1.00  0.00    -0.038 NA
HETATM   39  O5  UNL     1     -16.609  -4.312 -33.210  1.00  0.00    -0.249 OA
ATOM     40  H13 UNL     1     -14.770  -3.342 -35.680  1.00  0.00     0.193 HD
ENDBRANCH  33  36
ENDBRANCH  30  32
ENDBRANCH  24  26
ENDBRANCH   1  24
TORSDOF 10
ENDMDL
