MODEL 1
REMARK VINA RESULT: -5.262039815      0.000      0.000
REMARK  3 active torsions:
REMARK  status: ('A' for Active; 'I' for Inactive)
REMARK    1  A    between atoms: C3_3  and  N1_4 
REMARK    2  A    between atoms: C3_3  and  N2_8 
REMARK    3  A    between atoms: N2_8  and  N3_10 
ROOT
HETATM    1  C1  UNL     1     -12.763   6.303 -28.750  1.00  0.00     0.016 C 
HETATM    2  C2  UNL     1     -12.032   5.342 -28.671  1.00  0.00    -0.062 C 
HETATM    3  C3  UNL     1     -11.131   4.191 -28.590  1.00  0.00     0.376 C 
ENDROOT
BRANCH   3   4
HETATM    4  N1  UNL     1     -10.523   4.010 -29.905  1.00  0.00    -0.046 N 
ATOM      5  H13 UNL     1     -10.919   4.627 -30.614  1.00  0.00     0.278 HD
ATOM      6  H12 UNL     1      -9.564   4.353 -29.949  1.00  0.00     0.278 HD
ATOM      7  H11 UNL     1     -10.603   3.023 -30.150  1.00  0.00     0.278 HD
ENDBRANCH   3   4
BRANCH   3   8
HETATM    8  N2  UNL     1     -10.137   4.361 -27.554  1.00  0.00    -0.294 N 
ATOM      9  H2  UNL     1     -10.067   3.655 -26.820  1.00  0.00     0.183 HD
BRANCH   8  10
HETATM   10  N3  UNL     1      -9.279   5.441 -27.518  1.00  0.00    -0.278 N 
HETATM   11  C4  UNL     1      -8.105   5.459 -28.037  1.00  0.00     0.215 C 
HETATM   12  N4  UNL     1      -7.573   4.331 -28.712  1.00  0.00    -0.065 NA
HETATM   13  N5  UNL     1      -7.335   6.630 -27.925  1.00  0.00    -0.065 NA
ATOM     14  H3  UNL     1      -9.601   6.286 -27.045  1.00  0.00     0.189 HD
ENDBRANCH   8  10
ENDBRANCH   3   8
TORSDOF 3
ENDMDL
MODEL 2
REMARK VINA RESULT: -5.145609516      1.516      1.733
REMARK  3 active torsions:
REMARK  status: ('A' for Active; 'I' for Inactive)
REMARK    1  A    between atoms: C3_3  and  N1_4 
REMARK    2  A    between atoms: C3_3  and  N2_8 
REMARK    3  A    between atoms: N2_8  and  N3_10 
ROOT
HETATM    1  C1  UNL     1     -12.716   6.603 -26.958  1.00  0.00     0.016 C 
HETATM    2  C2  UNL     1     -12.453   6.109 -28.031  1.00  0.00    -0.062 C 
HETATM    3  C3  UNL     1     -12.127   5.535 -29.338  1.00  0.00     0.376 C 
ENDROOT
BRANCH   3   4
HETATM    4  N1  UNL     1     -12.555   6.486 -30.360  1.00  0.00    -0.046 N 
ATOM      5  H13 UNL     1     -13.564   6.476 -30.514  1.00  0.00     0.278 HD
ATOM      6  H12 UNL     1     -12.474   7.457 -30.057  1.00  0.00     0.278 HD
ATOM      7  H11 UNL     1     -12.024   6.290 -31.208  1.00  0.00     0.278 HD
ENDBRANCH   3   4
BRANCH   3   8
HETATM    8  N2  UNL     1     -10.720   5.220 -29.448  1.00  0.00    -0.294 N 
ATOM      9  H2  UNL     1     -10.448   4.331 -29.869  1.00  0.00     0.183 HD
BRANCH   8  10
HETATM   10  N3  UNL     1      -9.731   6.074 -29.007  1.00  0.00    -0.278 N 
HETATM   11  C4  UNL     1      -8.595   5.698 -28.540  1.00  0.00     0.215 C 
HETATM   12  N4  UNL     1      -8.252   4.326 -28.434  1.00  0.00    -0.065 NA
HETATM   13  N5  UNL     1      -7.678   6.678 -28.124  1.00  0.00    -0.065 NA
ATOM     14  H3  UNL     1      -9.914   7.076 -29.055  1.00  0.00     0.189 HD
ENDBRANCH   8  10
ENDBRANCH   3   8
TORSDOF 3
ENDMDL
MODEL 3
REMARK VINA RESULT: -5.137344384      1.667      1.907
REMARK  3 active torsions:
REMARK  status: ('A' for Active; 'I' for Inactive)
REMARK    1  A    between atoms: C3_3  and  N1_4 
REMARK    2  A    between atoms: C3_3  and  N2_8 
REMARK    3  A    between atoms: N2_8  and  N3_10 
ROOT
HETATM    1  C1  UNL     1     -10.873   5.934 -26.522  1.00  0.00     0.016 C 
HETATM    2  C2  UNL     1     -10.504   5.021 -27.225  1.00  0.00    -0.062 C 
HETATM    3  C3  UNL     1     -10.070   3.927 -28.095  1.00  0.00     0.376 C 
ENDROOT
BRANCH   3   4
HETATM    4  N1  UNL     1     -11.178   3.606 -28.991  1.00  0.00    -0.046 N 
ATOM      5  H13 UNL     1     -10.867   3.219 -29.882  1.00  0.00     0.278 HD
ATOM      6  H12 UNL     1     -11.720   2.802 -28.677  1.00  0.00     0.278 HD
ATOM      7  H11 UNL     1     -11.743   4.448 -29.100  1.00  0.00     0.278 HD
ENDBRANCH   3   4
BRANCH   3   8
HETATM    8  N2  UNL     1      -8.867   4.268 -28.823  1.00  0.00    -0.294 N 
ATOM      9  H2  UNL     1      -8.878   4.209 -29.842  1.00  0.00     0.183 HD
BRANCH   8  10
HETATM   10  N3  UNL     1      -7.707   4.670 -28.195  1.00  0.00    -0.278 N 
HETATM   11  C4  UNL     1      -7.290   5.883 -28.136  1.00  0.00     0.215 C 
HETATM   12  N4  UNL     1      -8.012   6.947 -28.734  1.00  0.00    -0.065 NA
HETATM   13  N5  UNL     1      -6.087   6.152 -27.461  1.00  0.00    -0.065 NA
ATOM     14  H3  UNL     1      -7.140   3.952 -27.744  1.00  0.00     0.189 HD
ENDBRANCH   8  10
ENDBRANCH   3   8
TORSDOF 3
ENDMDL
MODEL 4
REMARK VINA RESULT: -5.026075127      2.356      2.799
REMARK  3 active torsions:
REMARK  status: ('A' for Active; 'I' for Inactive)
REMARK    1  A    between atoms: C3_3  and  N1_4 
REMARK    2  A    between atoms: C3_3  and  N2_8 
REMARK    3  A    between atoms: N2_8  and  N3_10 
ROOT
HETATM    1  C1  UNL     1     -13.326   6.635 -25.928  1.00  0.00     0.016 C 
HETATM    2  C2  UNL     1     -12.288   6.133 -25.560  1.00  0.00    -0.062 C 
HETATM    3  C3  UNL     1     -11.044   5.503 -25.117  1.00  0.00     0.376 C 
ENDROOT
BRANCH   3   4
HETATM    4  N1  UNL     1     -11.397   4.385 -24.246  1.00  0.00    -0.046 N 
ATOM      5  H13 UNL     1     -10.811   4.331 -23.412  1.00  0.00     0.278 HD
ATOM      6  H12 UNL     1     -12.291   4.519 -23.774  1.00  0.00     0.278 HD
ATOM      7  H11 UNL     1     -11.368   3.533 -24.806  1.00  0.00     0.278 HD
ENDBRANCH   3   4
BRANCH   3   8
HETATM    8  N2  UNL     1     -10.231   5.079 -26.236  1.00  0.00    -0.294 N 
ATOM      9  H2  UNL     1     -10.340   4.128 -26.589  1.00  0.00     0.183 HD
BRANCH   8  10
HETATM   10  N3  UNL     1      -9.314   5.911 -26.844  1.00  0.00    -0.278 N 
HETATM   11  C4  UNL     1      -8.621   5.601 -27.880  1.00  0.00     0.215 C 
HETATM   12  N4  UNL     1      -8.744   4.335 -28.507  1.00  0.00    -0.065 NA
HETATM   13  N5  UNL     1      -7.719   6.548 -28.397  1.00  0.00    -0.065 NA
ATOM     14  H3  UNL     1      -9.176   6.838 -26.442  1.00  0.00     0.189 HD
ENDBRANCH   8  10
ENDBRANCH   3   8
TORSDOF 3
ENDMDL
MODEL 5
REMARK VINA RESULT: -5.018709857      1.078      1.242
REMARK  3 active torsions:
REMARK  status: ('A' for Active; 'I' for Inactive)
REMARK    1  A    between atoms: C3_3  and  N1_4 
REMARK    2  A    between atoms: C3_3  and  N2_8 
REMARK    3  A    between atoms: N2_8  and  N3_10 
ROOT
HETATM    1  C1  UNL     1     -12.980   5.876 -29.573  1.00  0.00     0.016 C 
HETATM    2  C2  UNL     1     -11.917   5.588 -29.073  1.00  0.00    -0.062 C 
HETATM    3  C3  UNL     1     -10.627   5.222 -28.487  1.00  0.00     0.376 C 
ENDROOT
BRANCH   3   4
HETATM    4  N1  UNL     1     -10.476   3.775 -28.612  1.00  0.00    -0.046 N 
ATOM      5  H13 UNL     1     -11.364   3.277 -28.553  1.00  0.00     0.278 HD
ATOM      6  H12 UNL     1     -10.220   3.484 -29.555  1.00  0.00     0.278 HD
ATOM      7  H11 UNL     1      -9.804   3.471 -27.907  1.00  0.00     0.278 HD
ENDBRANCH   3   4
BRANCH   3   8
HETATM    8  N2  UNL     1      -9.534   5.935 -29.110  1.00  0.00    -0.294 N 
ATOM      9  H2  UNL     1      -9.571   6.109 -30.115  1.00  0.00     0.183 HD
BRANCH   8  10
HETATM   10  N3  UNL     1      -8.443   6.391 -28.400  1.00  0.00    -0.278 N 
HETATM   11  C4  UNL     1      -7.389   5.699 -28.156  1.00  0.00     0.215 C 
HETATM   12  N4  UNL     1      -7.254   4.363 -28.612  1.00  0.00    -0.065 NA
HETATM   13  N5  UNL     1      -6.349   6.289 -27.416  1.00  0.00    -0.065 NA
ATOM     14  H3  UNL     1      -8.475   7.346 -28.042  1.00  0.00     0.189 HD
ENDBRANCH   8  10
ENDBRANCH   3   8
TORSDOF 3
ENDMDL
