MODEL 1
REMARK VINA RESULT: -5.517758748      0.000      0.000
REMARK  2 active torsions:
REMARK  status: ('A' for Active; 'I' for Inactive)
REMARK    1  A    between atoms: C1_2  and  N1_3 
REMARK    2  A    between atoms: N1_3  and  C2_5 
ROOT
HETATM    1  C2  UNL     1      -9.301   4.445 -28.383  1.00  0.00     0.191 A 
HETATM    2  N2  UNL     1      -8.075   4.035 -28.755  1.00  0.00    -0.265 N 
ATOM      3  H2  UNL     1      -7.870   3.169 -29.253  1.00  0.00     0.186 HD
HETATM    4  N3  UNL     1      -7.162   4.941 -28.370  1.00  0.00    -0.018 NA
HETATM    5  N4  UNL     1      -7.782   5.932 -27.753  1.00  0.00    -0.247 N 
ATOM      6  H4  UNL     1      -7.341   6.761 -27.355  1.00  0.00     0.187 HD
HETATM    7  C3  UNL     1      -9.100   5.652 -27.747  1.00  0.00     0.303 A 
HETATM    8  O2  UNL     1     -10.006   6.377 -27.242  1.00  0.00    -0.263 OA
ENDROOT
BRANCH   1   9
HETATM    9  N1  UNL     1     -10.412   3.825 -28.588  1.00  0.00    -0.315 N 
ATOM     10  H1  UNL     1     -10.613   2.976 -28.057  1.00  0.00     0.170 HD
BRANCH   9  11
HETATM   11  C1  UNL     1     -11.360   4.289 -29.529  1.00  0.00     0.354 C 
HETATM   12  O1  UNL     1     -12.495   4.653 -29.114  1.00  0.00    -0.283 OA
ENDBRANCH   9  11
ENDBRANCH   1   9
TORSDOF 2
ENDMDL
MODEL 2
REMARK VINA RESULT: -5.440210952      1.765      3.485
REMARK  2 active torsions:
REMARK  status: ('A' for Active; 'I' for Inactive)
REMARK    1  A    between atoms: C1_2  and  N1_3 
REMARK    2  A    between atoms: N1_3  and  C2_5 
ROOT
HETATM    1  C2  UNL     1     -10.058   5.030 -28.467  1.00  0.00     0.191 A 
HETATM    2  N2  UNL     1     -10.396   3.870 -29.057  1.00  0.00    -0.265 N 
ATOM      3  H2  UNL     1      -9.889   2.990 -28.959  1.00  0.00     0.186 HD
HETATM    4  N3  UNL     1     -11.504   4.047 -29.795  1.00  0.00    -0.018 NA
HETATM    5  N4  UNL     1     -11.887   5.308 -29.689  1.00  0.00    -0.247 N 
ATOM      6  H4  UNL     1     -12.699   5.729 -30.140  1.00  0.00     0.187 HD
HETATM    7  C3  UNL     1     -11.014   5.936 -28.878  1.00  0.00     0.303 A 
HETATM    8  O2  UNL     1     -11.062   7.156 -28.545  1.00  0.00    -0.263 OA
ENDROOT
BRANCH   1   9
HETATM    9  N1  UNL     1      -9.050   5.229 -27.688  1.00  0.00    -0.315 N 
ATOM     10  H1  UNL     1      -9.143   5.025 -26.693  1.00  0.00     0.170 HD
BRANCH   9  11
HETATM   11  C1  UNL     1      -7.820   5.725 -28.178  1.00  0.00     0.354 C 
HETATM   12  O1  UNL     1      -7.571   6.956 -28.053  1.00  0.00    -0.283 OA
ENDBRANCH   9  11
ENDBRANCH   1   9
TORSDOF 2
ENDMDL
MODEL 3
REMARK VINA RESULT: -5.337838003      1.871      2.797
REMARK  2 active torsions:
REMARK  status: ('A' for Active; 'I' for Inactive)
REMARK    1  A    between atoms: C1_2  and  N1_3 
REMARK    2  A    between atoms: N1_3  and  C2_5 
ROOT
HETATM    1  C2  UNL     1     -10.587   4.938 -27.466  1.00  0.00     0.191 A 
HETATM    2  N2  UNL     1      -9.271   5.160 -27.296  1.00  0.00    -0.265 N 
ATOM      3  H2  UNL     1      -8.856   5.662 -26.511  1.00  0.00     0.186 HD
HETATM    4  N3  UNL     1      -8.588   4.620 -28.318  1.00  0.00    -0.018 NA
HETATM    5  N4  UNL     1      -9.446   4.051 -29.147  1.00  0.00    -0.247 N 
ATOM      6  H4  UNL     1      -9.211   3.561 -30.010  1.00  0.00     0.187 HD
HETATM    7  C3  UNL     1     -10.684   4.232 -28.648  1.00  0.00     0.303 A 
HETATM    8  O2  UNL     1     -11.759   3.822 -29.174  1.00  0.00    -0.263 OA
ENDROOT
BRANCH   1   9
HETATM    9  N1  UNL     1     -11.537   5.315 -26.680  1.00  0.00    -0.315 N 
ATOM     10  H1  UNL     1     -11.911   4.654 -25.999  1.00  0.00     0.170 HD
BRANCH   9  11
HETATM   11  C1  UNL     1     -12.074   6.622 -26.737  1.00  0.00     0.354 C 
HETATM   12  O1  UNL     1     -11.390   7.534 -27.279  1.00  0.00    -0.283 OA
ENDBRANCH   9  11
ENDBRANCH   1   9
TORSDOF 2
ENDMDL
MODEL 4
REMARK VINA RESULT: -5.284046403      1.377      1.496
REMARK  2 active torsions:
REMARK  status: ('A' for Active; 'I' for Inactive)
REMARK    1  A    between atoms: C1_2  and  N1_3 
REMARK    2  A    between atoms: N1_3  and  C2_5 
ROOT
HETATM    1  C2  UNL     1      -9.018   5.273 -28.835  1.00  0.00     0.191 A 
HETATM    2  N2  UNL     1      -8.712   3.979 -29.036  1.00  0.00    -0.265 N 
ATOM      3  H2  UNL     1      -9.349   3.276 -29.411  1.00  0.00     0.186 HD
HETATM    4  N3  UNL     1      -7.441   3.755 -28.667  1.00  0.00    -0.018 NA
HETATM    5  N4  UNL     1      -6.920   4.888 -28.230  1.00  0.00    -0.247 N 
ATOM      6  H4  UNL     1      -5.969   5.019 -27.886  1.00  0.00     0.187 HD
HETATM    7  C3  UNL     1      -7.869   5.840 -28.321  1.00  0.00     0.303 A 
HETATM    8  O2  UNL     1      -7.732   7.054 -27.992  1.00  0.00    -0.263 OA
ENDROOT
BRANCH   1   9
HETATM    9  N1  UNL     1     -10.150   5.841 -29.076  1.00  0.00    -0.315 N 
ATOM     10  H1  UNL     1     -10.169   6.835 -29.303  1.00  0.00     0.170 HD
BRANCH   9  11
HETATM   11  C1  UNL     1     -11.366   5.121 -29.034  1.00  0.00     0.354 C 
HETATM   12  O1  UNL     1     -11.561   4.213 -29.889  1.00  0.00    -0.283 OA
ENDBRANCH   9  11
ENDBRANCH   1   9
TORSDOF 2
ENDMDL
MODEL 5
REMARK VINA RESULT: -5.266679987      1.753      2.940
REMARK  2 active torsions:
REMARK  status: ('A' for Active; 'I' for Inactive)
REMARK    1  A    between atoms: C1_2  and  N1_3 
REMARK    2  A    between atoms: N1_3  and  C2_5 
ROOT
HETATM    1  C2  UNL     1      -9.663   5.500 -27.584  1.00  0.00     0.191 A 
HETATM    2  N2  UNL     1      -8.331   5.687 -27.603  1.00  0.00    -0.265 N 
ATOM      3  H2  UNL     1      -7.830   6.401 -27.075  1.00  0.00     0.186 HD
HETATM    4  N3  UNL     1      -7.763   4.790 -28.424  1.00  0.00    -0.018 NA
HETATM    5  N4  UNL     1      -8.710   4.024 -28.937  1.00  0.00    -0.247 N 
ATOM      6  H4  UNL     1      -8.572   3.255 -29.592  1.00  0.00     0.187 HD
HETATM    7  C3  UNL     1      -9.890   4.439 -28.437  1.00  0.00     0.303 A 
HETATM    8  O2  UNL     1     -11.022   3.940 -28.703  1.00  0.00    -0.263 OA
ENDROOT
BRANCH   1   9
HETATM    9  N1  UNL     1     -10.523   6.179 -26.906  1.00  0.00    -0.315 N 
ATOM     10  H1  UNL     1     -10.971   6.988 -27.339  1.00  0.00     0.170 HD
BRANCH   9  11
HETATM   11  C1  UNL     1     -10.864   5.833 -25.578  1.00  0.00     0.354 C 
HETATM   12  O1  UNL     1      -9.948   5.788 -24.711  1.00  0.00    -0.283 OA
ENDBRANCH   9  11
ENDBRANCH   1   9
TORSDOF 2
ENDMDL
