MODEL 1
REMARK VINA RESULT: -8.497947450      0.000      0.000
REMARK  10 active torsions:
REMARK  status: ('A' for Active; 'I' for Inactive)
REMARK    1  A    between atoms: C4_4  and  C5_5 
REMARK    2  A    between atoms: C5_5  and  O1_6 
REMARK    3  A    between atoms: C5_5  and  N1_8 
REMARK    4  A    between atoms: N1_8  and  C6_10 
REMARK    5  A    between atoms: N2_12  and  C8_13 
REMARK    6  A    between atoms: C16_25  and  N5_26 
REMARK    7  A    between atoms: N5_26  and  C17_28 
REMARK    8  A    between atoms: C17_28  and  O2_29 
REMARK    9  A    between atoms: C17_28  and  C18_31 
REMARK   10  A    between atoms: N7_36  and  C21_37 
ROOT
HETATM    1  C1  UNL     1      62.635  35.141  21.875  1.00  0.00     0.050 C 
HETATM    2  C2  UNL     1      64.001  35.571  22.191  1.00  0.00    -0.035 A 
HETATM    3  C3  UNL     1      64.634  36.466  21.315  1.00  0.00     0.020 A 
HETATM    4  C4  UNL     1      65.893  36.890  21.562  1.00  0.00    -0.010 A 
HETATM    5  C14 UNL     1      66.551  36.431  22.695  1.00  0.00     0.014 A 
HETATM    6  C15 UNL     1      65.907  35.547  23.550  1.00  0.00     0.030 A 
HETATM    7  C16 UNL     1      64.632  35.107  23.311  1.00  0.00     0.036 A 
ENDROOT
BRANCH   4   8
HETATM    8  C5  UNL     1      66.589  37.832  20.633  1.00  0.00     0.253 C 
BRANCH   8   9
HETATM    9  O1  UNL     1      67.110  37.100  19.532  1.00  0.00    -0.372 OA
ATOM     10  H1  UNL     1      67.959  37.455  19.297  1.00  0.00     0.212 HD
ENDBRANCH   8   9
BRANCH   8  11
HETATM   11  N1  UNL     1      65.642  38.745  20.032  1.00  0.00    -0.344 N 
ATOM     12  H1  UNL     1      65.088  39.364  20.626  1.00  0.00     0.164 HD
BRANCH  11  13
HETATM   13  C6  UNL     1      65.475  38.788  18.611  1.00  0.00     0.136 A 
HETATM   14  C7  UNL     1      65.810  39.827  17.763  1.00  0.00     0.161 A 
HETATM   15  N2  UNL     1      65.496  39.476  16.504  1.00  0.00    -0.281 N 
HETATM   16  N3  UNL     1      64.980  38.244  16.592  1.00  0.00    -0.239 N 
HETATM   17  N4  UNL     1      64.966  37.832  17.835  1.00  0.00    -0.270 N 
ATOM     18  H3  UNL     1      64.643  37.699  15.798  1.00  0.00     0.208 HD
ATOM     19  H4  UNL     1      64.621  36.928  18.156  1.00  0.00     0.190 HD
BRANCH  15  20
HETATM   20  C8  UNL     1      65.684  40.279  15.308  1.00  0.00     0.109 C 
HETATM   21  C9  UNL     1      64.337  40.827  14.897  1.00  0.00     0.027 C 
HETATM   22  C10 UNL     1      64.454  41.497  13.559  1.00  0.00     0.002 C 
HETATM   23  C11 UNL     1      64.790  40.493  12.509  1.00  0.00     0.000 C 
HETATM   24  C12 UNL     1      65.564  39.315  12.991  1.00  0.00     0.002 C 
HETATM   25  C13 UNL     1      66.381  39.552  14.213  1.00  0.00     0.027 C 
ENDBRANCH  15  20
ENDBRANCH  11  13
ENDBRANCH   8  11
ENDBRANCH   4   8
BRANCH   7  26
HETATM   26  N5  UNL     1      64.002  34.226  24.185  1.00  0.00    -0.357 N 
ATOM     27  H5  UNL     1      63.910  33.250  23.901  1.00  0.00     0.162 HD
BRANCH  26  28
HETATM   28  C17 UNL     1      63.464  34.618  25.485  1.00  0.00     0.286 C 
BRANCH  28  29
HETATM   29  O2  UNL     1      62.059  34.691  25.307  1.00  0.00    -0.370 OA
ATOM     30  H2  UNL     1      61.888  35.571  24.993  1.00  0.00     0.212 HD
ENDBRANCH  28  29
BRANCH  28  31
HETATM   31  C18 UNL     1      63.715  33.535  26.502  1.00  0.00     0.125 C 
HETATM   32  N6  UNL     1      62.848  33.198  27.390  1.00  0.00    -0.375 N 
HETATM   33  C19 UNL     1      63.329  32.134  28.247  1.00  0.00     0.141 C 
ATOM     34  H6  UNL     1      61.928  33.630  27.481  1.00  0.00     0.160 HD
HETATM   35  C20 UNL     1      64.815  32.168  27.946  1.00  0.00     0.144 C 
HETATM   36  N7  UNL     1      64.892  32.789  26.611  1.00  0.00    -0.362 N 
BRANCH  36  37
HETATM   37  C21 UNL     1      65.963  32.610  25.696  1.00  0.00     0.077 C 
HETATM   38  C22 UNL     1      66.260  31.181  25.317  1.00  0.00     0.032 C 
HETATM   39  C23 UNL     1      67.252  33.288  26.184  1.00  0.00     0.032 C 
ENDBRANCH  36  37
ENDBRANCH  28  31
ENDBRANCH  26  28
ENDBRANCH   7  26
TORSDOF 10
ENDMDL
MODEL 2
REMARK VINA RESULT: -8.494852981      1.944      2.638
REMARK  10 active torsions:
REMARK  status: ('A' for Active; 'I' for Inactive)
REMARK    1  A    between atoms: C4_4  and  C5_5 
REMARK    2  A    between atoms: C5_5  and  O1_6 
REMARK    3  A    between atoms: C5_5  and  N1_8 
REMARK    4  A    between atoms: N1_8  and  C6_10 
REMARK    5  A    between atoms: N2_12  and  C8_13 
REMARK    6  A    between atoms: C16_25  and  N5_26 
REMARK    7  A    between atoms: N5_26  and  C17_28 
REMARK    8  A    between atoms: C17_28  and  O2_29 
REMARK    9  A    between atoms: C17_28  and  C18_31 
REMARK   10  A    between atoms: N7_36  and  C21_37 
ROOT
HETATM    1  C1  UNL     1      62.181  34.902  22.066  1.00  0.00     0.050 C 
HETATM    2  C2  UNL     1      63.565  35.343  22.263  1.00  0.00    -0.035 A 
HETATM    3  C3  UNL     1      64.130  36.205  21.309  1.00  0.00     0.020 A 
HETATM    4  C4  UNL     1      65.402  36.637  21.446  1.00  0.00    -0.010 A 
HETATM    5  C14 UNL     1      66.144  36.221  22.543  1.00  0.00     0.014 A 
HETATM    6  C15 UNL     1      65.568  35.369  23.476  1.00  0.00     0.030 A 
HETATM    7  C16 UNL     1      64.280  34.921  23.349  1.00  0.00     0.036 A 
ENDROOT
BRANCH   4   8
HETATM    8  C5  UNL     1      66.025  37.544  20.433  1.00  0.00     0.253 C 
BRANCH   8   9
HETATM    9  O1  UNL     1      67.310  37.045  20.091  1.00  0.00    -0.372 OA
ATOM     10  H1  UNL     1      67.628  36.492  20.795  1.00  0.00     0.212 HD
ENDBRANCH   8   9
BRANCH   8  11
HETATM   11  N1  UNL     1      65.286  37.500  19.190  1.00  0.00    -0.344 N 
ATOM     12  H1  UNL     1      64.828  36.635  18.904  1.00  0.00     0.164 HD
BRANCH  11  13
HETATM   13  C6  UNL     1      65.194  38.662  18.360  1.00  0.00     0.136 A 
HETATM   14  C7  UNL     1      65.242  39.983  18.765  1.00  0.00     0.161 A 
HETATM   15  N2  UNL     1      65.120  40.772  17.684  1.00  0.00    -0.281 N 
HETATM   16  N3  UNL     1      65.000  39.939  16.643  1.00  0.00    -0.239 N 
HETATM   17  N4  UNL     1      65.043  38.692  17.036  1.00  0.00    -0.270 N 
ATOM     18  H3  UNL     1      64.888  40.237  15.674  1.00  0.00     0.208 HD
ATOM     19  H4  UNL     1      64.973  37.876  16.429  1.00  0.00     0.190 HD
BRANCH  15  20
HETATM   20  C8  UNL     1      65.120  42.225  17.667  1.00  0.00     0.109 C 
HETATM   21  C9  UNL     1      65.536  42.708  19.038  1.00  0.00     0.027 C 
HETATM   22  C10 UNL     1      65.358  44.196  19.121  1.00  0.00     0.002 C 
HETATM   23  C11 UNL     1      63.913  44.547  19.019  1.00  0.00     0.000 C 
HETATM   24  C12 UNL     1      63.088  43.591  18.229  1.00  0.00     0.002 C 
HETATM   25  C13 UNL     1      63.833  42.810  17.205  1.00  0.00     0.027 C 
ENDBRANCH  15  20
ENDBRANCH  11  13
ENDBRANCH   8  11
ENDBRANCH   4   8
BRANCH   7  26
HETATM   26  N5  UNL     1      63.718  34.073  24.300  1.00  0.00    -0.357 N 
ATOM     27  H5  UNL     1      63.591  33.091  24.054  1.00  0.00     0.162 HD
BRANCH  26  28
HETATM   28  C17 UNL     1      63.300  34.508  25.630  1.00  0.00     0.286 C 
BRANCH  28  29
HETATM   29  O2  UNL     1      61.886  34.599  25.572  1.00  0.00    -0.370 OA
ATOM     30  H2  UNL     1      61.683  35.512  25.740  1.00  0.00     0.212 HD
ENDBRANCH  28  29
BRANCH  28  31
HETATM   31  C18 UNL     1      63.624  33.449  26.652  1.00  0.00     0.125 C 
HETATM   32  N6  UNL     1      62.810  33.113  27.589  1.00  0.00    -0.375 N 
HETATM   33  C19 UNL     1      63.354  32.074  28.439  1.00  0.00     0.141 C 
ATOM     34  H6  UNL     1      61.888  33.530  27.719  1.00  0.00     0.160 HD
HETATM   35  C20 UNL     1      64.822  32.129  28.060  1.00  0.00     0.144 C 
HETATM   36  N7  UNL     1      64.819  32.727  26.712  1.00  0.00    -0.362 N 
BRANCH  36  37
HETATM   37  C21 UNL     1      65.844  32.549  25.746  1.00  0.00     0.077 C 
HETATM   38  C22 UNL     1      66.146  31.120  25.376  1.00  0.00     0.032 C 
HETATM   39  C23 UNL     1      67.145  33.257  26.156  1.00  0.00     0.032 C 
ENDBRANCH  36  37
ENDBRANCH  28  31
ENDBRANCH  26  28
ENDBRANCH   7  26
TORSDOF 10
ENDMDL
MODEL 3
REMARK VINA RESULT: -8.409018338      1.977      2.864
REMARK  10 active torsions:
REMARK  status: ('A' for Active; 'I' for Inactive)
REMARK    1  A    between atoms: C4_4  and  C5_5 
REMARK    2  A    between atoms: C5_5  and  O1_6 
REMARK    3  A    between atoms: C5_5  and  N1_8 
REMARK    4  A    between atoms: N1_8  and  C6_10 
REMARK    5  A    between atoms: N2_12  and  C8_13 
REMARK    6  A    between atoms: C16_25  and  N5_26 
REMARK    7  A    between atoms: N5_26  and  C17_28 
REMARK    8  A    between atoms: C17_28  and  O2_29 
REMARK    9  A    between atoms: C17_28  and  C18_31 
REMARK   10  A    between atoms: N7_36  and  C21_37 
ROOT
HETATM    1  C1  UNL     1      66.182  36.628  25.507  1.00  0.00     0.050 C 
HETATM    2  C2  UNL     1      65.538  36.476  24.199  1.00  0.00    -0.035 A 
HETATM    3  C3  UNL     1      66.210  36.963  23.068  1.00  0.00     0.020 A 
HETATM    4  C4  UNL     1      65.657  36.848  21.841  1.00  0.00    -0.010 A 
HETATM    5  C14 UNL     1      64.415  36.240  21.713  1.00  0.00     0.014 A 
HETATM    6  C15 UNL     1      63.766  35.764  22.844  1.00  0.00     0.030 A 
HETATM    7  C16 UNL     1      64.315  35.875  24.094  1.00  0.00     0.036 A 
ENDROOT
BRANCH   4   8
HETATM    8  C5  UNL     1      66.352  37.373  20.625  1.00  0.00     0.253 C 
BRANCH   8   9
HETATM    9  O1  UNL     1      67.477  36.553  20.343  1.00  0.00    -0.372 OA
ATOM     10  H1  UNL     1      67.866  36.266  21.161  1.00  0.00     0.212 HD
ENDBRANCH   8   9
BRANCH   8  11
HETATM   11  N1  UNL     1      65.510  37.230  19.458  1.00  0.00    -0.344 N 
ATOM     12  H1  UNL     1      65.069  36.332  19.257  1.00  0.00     0.164 HD
BRANCH  11  13
HETATM   13  C6  UNL     1      65.290  38.341  18.582  1.00  0.00     0.136 A 
HETATM   14  C7  UNL     1      65.495  39.679  18.864  1.00  0.00     0.161 A 
HETATM   15  N2  UNL     1      65.171  40.404  17.780  1.00  0.00    -0.281 N 
HETATM   16  N3  UNL     1      64.777  39.517  16.858  1.00  0.00    -0.239 N 
HETATM   17  N4  UNL     1      64.846  38.296  17.326  1.00  0.00    -0.270 N 
ATOM     18  H3  UNL     1      64.465  39.759  15.917  1.00  0.00     0.208 HD
ATOM     19  H4  UNL     1      64.599  37.450  16.814  1.00  0.00     0.190 HD
BRANCH  15  20
HETATM   20  C8  UNL     1      65.240  41.850  17.652  1.00  0.00     0.109 C 
HETATM   21  C9  UNL     1      65.673  42.416  18.984  1.00  0.00     0.027 C 
HETATM   22  C10 UNL     1      65.565  43.913  18.952  1.00  0.00     0.002 C 
HETATM   23  C11 UNL     1      64.138  44.323  18.813  1.00  0.00     0.000 C 
HETATM   24  C12 UNL     1      63.272  43.348  18.093  1.00  0.00     0.002 C 
HETATM   25  C13 UNL     1      63.984  42.457  17.136  1.00  0.00     0.027 C 
ENDBRANCH  15  20
ENDBRANCH  11  13
ENDBRANCH   8  11
ENDBRANCH   4   8
BRANCH   7  26
HETATM   26  N5  UNL     1      63.650  35.385  25.216  1.00  0.00    -0.357 N 
ATOM     27  H5  UNL     1      63.665  35.946  26.067  1.00  0.00     0.162 HD
BRANCH  26  28
HETATM   28  C17 UNL     1      62.933  34.112  25.242  1.00  0.00     0.286 C 
BRANCH  28  29
HETATM   29  O2  UNL     1      63.348  33.420  24.076  1.00  0.00    -0.370 OA
ATOM     30  H2  UNL     1      64.167  33.827  23.816  1.00  0.00     0.212 HD
ENDBRANCH  28  29
BRANCH  28  31
HETATM   31  C18 UNL     1      63.381  33.285  26.419  1.00  0.00     0.125 C 
HETATM   32  N6  UNL     1      62.610  33.008  27.410  1.00  0.00    -0.375 N 
HETATM   33  C19 UNL     1      63.276  32.200  28.411  1.00  0.00     0.141 C 
ATOM     34  H6  UNL     1      61.642  33.321  27.483  1.00  0.00     0.160 HD
HETATM   35  C20 UNL     1      64.727  32.377  28.008  1.00  0.00     0.144 C 
HETATM   36  N7  UNL     1      64.658  32.739  26.580  1.00  0.00    -0.362 N 
BRANCH  36  37
HETATM   37  C21 UNL     1      65.704  32.536  25.642  1.00  0.00     0.077 C 
HETATM   38  C22 UNL     1      66.017  31.097  25.322  1.00  0.00     0.032 C 
HETATM   39  C23 UNL     1      66.993  33.260  26.058  1.00  0.00     0.032 C 
ENDBRANCH  36  37
ENDBRANCH  28  31
ENDBRANCH  26  28
ENDBRANCH   7  26
TORSDOF 10
ENDMDL
MODEL 4
REMARK VINA RESULT: -8.355096638      0.850      1.484
REMARK  10 active torsions:
REMARK  status: ('A' for Active; 'I' for Inactive)
REMARK    1  A    between atoms: C4_4  and  C5_5 
REMARK    2  A    between atoms: C5_5  and  O1_6 
REMARK    3  A    between atoms: C5_5  and  N1_8 
REMARK    4  A    between atoms: N1_8  and  C6_10 
REMARK    5  A    between atoms: N2_12  and  C8_13 
REMARK    6  A    between atoms: C16_25  and  N5_26 
REMARK    7  A    between atoms: N5_26  and  C17_28 
REMARK    8  A    between atoms: C17_28  and  O2_29 
REMARK    9  A    between atoms: C17_28  and  C18_31 
REMARK   10  A    between atoms: N7_36  and  C21_37 
ROOT
HETATM    1  C1  UNL     1      66.636  36.614  25.484  1.00  0.00     0.050 C 
HETATM    2  C2  UNL     1      66.011  36.613  24.158  1.00  0.00    -0.035 A 
HETATM    3  C3  UNL     1      66.740  37.136  23.079  1.00  0.00     0.020 A 
HETATM    4  C4  UNL     1      66.206  37.158  21.839  1.00  0.00    -0.010 A 
HETATM    5  C14 UNL     1      64.927  36.653  21.644  1.00  0.00     0.014 A 
HETATM    6  C15 UNL     1      64.222  36.139  22.723  1.00  0.00     0.030 A 
HETATM    7  C16 UNL     1      64.750  36.112  23.987  1.00  0.00     0.036 A 
ENDROOT
BRANCH   4   8
HETATM    8  C5  UNL     1      66.962  37.724  20.680  1.00  0.00     0.253 C 
BRANCH   8   9
HETATM    9  O1  UNL     1      67.006  36.761  19.637  1.00  0.00    -0.372 OA
ATOM     10  H1  UNL     1      67.141  37.205  18.808  1.00  0.00     0.212 HD
ENDBRANCH   8   9
BRANCH   8  11
HETATM   11  N1  UNL     1      66.244  38.839  20.101  1.00  0.00    -0.344 N 
ATOM     12  H1  UNL     1      65.986  39.634  20.686  1.00  0.00     0.164 HD
BRANCH  11  13
HETATM   13  C6  UNL     1      65.893  38.833  18.714  1.00  0.00     0.136 A 
HETATM   14  C7  UNL     1      66.326  39.715  17.740  1.00  0.00     0.161 A 
HETATM   15  N2  UNL     1      65.768  39.371  16.567  1.00  0.00    -0.281 N 
HETATM   16  N3  UNL     1      65.010  38.300  16.829  1.00  0.00    -0.239 N 
HETATM   17  N4  UNL     1      65.080  37.977  18.095  1.00  0.00    -0.270 N 
ATOM     18  H3  UNL     1      64.452  37.801  16.135  1.00  0.00     0.208 HD
ATOM     19  H4  UNL     1      64.593  37.198  18.537  1.00  0.00     0.190 HD
BRANCH  15  20
HETATM   20  C8  UNL     1      65.958  40.036  15.289  1.00  0.00     0.109 C 
HETATM   21  C9  UNL     1      64.612  40.533  14.816  1.00  0.00     0.027 C 
HETATM   22  C10 UNL     1      64.732  41.050  13.412  1.00  0.00     0.002 C 
HETATM   23  C11 UNL     1      65.072  39.935  12.482  1.00  0.00     0.000 C 
HETATM   24  C12 UNL     1      65.846  38.820  13.093  1.00  0.00     0.002 C 
HETATM   25  C13 UNL     1      66.659  39.193  14.283  1.00  0.00     0.027 C 
ENDBRANCH  15  20
ENDBRANCH  11  13
ENDBRANCH   8  11
ENDBRANCH   4   8
BRANCH   7  26
HETATM   26  N5  UNL     1      64.028  35.585  25.055  1.00  0.00    -0.357 N 
ATOM     27  H5  UNL     1      64.104  36.047  25.961  1.00  0.00     0.162 HD
BRANCH  26  28
HETATM   28  C17 UNL     1      63.170  34.408  24.951  1.00  0.00     0.286 C 
BRANCH  28  29
HETATM   29  O2  UNL     1      63.617  33.713  23.798  1.00  0.00    -0.370 OA
ATOM     30  H2  UNL     1      64.496  34.033  23.634  1.00  0.00     0.212 HD
ENDBRANCH  28  29
BRANCH  28  31
HETATM   31  C18 UNL     1      63.399  33.490  26.125  1.00  0.00     0.125 C 
HETATM   32  N6  UNL     1      62.485  33.221  26.988  1.00  0.00    -0.375 N 
HETATM   33  C19 UNL     1      62.954  32.316  28.017  1.00  0.00     0.141 C 
ATOM     34  H6  UNL     1      61.538  33.601  26.952  1.00  0.00     0.160 HD
HETATM   35  C20 UNL     1      64.455  32.405  27.819  1.00  0.00     0.144 C 
HETATM   36  N7  UNL     1      64.603  32.844  26.418  1.00  0.00    -0.362 N 
BRANCH  36  37
HETATM   37  C21 UNL     1      65.751  32.613  25.615  1.00  0.00     0.077 C 
HETATM   38  C22 UNL     1      66.012  31.172  25.258  1.00  0.00     0.032 C 
HETATM   39  C23 UNL     1      67.016  33.224  26.235  1.00  0.00     0.032 C 
ENDBRANCH  36  37
ENDBRANCH  28  31
ENDBRANCH  26  28
ENDBRANCH   7  26
TORSDOF 10
ENDMDL
MODEL 5
REMARK VINA RESULT: -8.290730868      3.306      4.549
REMARK  10 active torsions:
REMARK  status: ('A' for Active; 'I' for Inactive)
REMARK    1  A    between atoms: C4_4  and  C5_5 
REMARK    2  A    between atoms: C5_5  and  O1_6 
REMARK    3  A    between atoms: C5_5  and  N1_8 
REMARK    4  A    between atoms: N1_8  and  C6_10 
REMARK    5  A    between atoms: N2_12  and  C8_13 
REMARK    6  A    between atoms: C16_25  and  N5_26 
REMARK    7  A    between atoms: N5_26  and  C17_28 
REMARK    8  A    between atoms: C17_28  and  O2_29 
REMARK    9  A    between atoms: C17_28  and  C18_31 
REMARK   10  A    between atoms: N7_36  and  C21_37 
ROOT
HETATM    1  C1  UNL     1      67.028  36.384  24.586  1.00  0.00     0.050 C 
HETATM    2  C2  UNL     1      66.161  36.396  23.404  1.00  0.00    -0.035 A 
HETATM    3  C3  UNL     1      66.696  36.863  22.193  1.00  0.00     0.020 A 
HETATM    4  C4  UNL     1      65.936  36.895  21.077  1.00  0.00    -0.010 A 
HETATM    5  C14 UNL     1      64.620  36.458  21.142  1.00  0.00     0.014 A 
HETATM    6  C15 UNL     1      64.109  35.999  22.348  1.00  0.00     0.030 A 
HETATM    7  C16 UNL     1      64.868  35.963  23.488  1.00  0.00     0.036 A 
ENDROOT
BRANCH   4   8
HETATM    8  C5  UNL     1      66.485  37.401  19.781  1.00  0.00     0.253 C 
BRANCH   8   9
HETATM    9  O1  UNL     1      65.567  37.101  18.739  1.00  0.00    -0.372 OA
ATOM     10  H1  UNL     1      65.250  37.912  18.360  1.00  0.00     0.212 HD
ENDBRANCH   8   9
BRANCH   8  11
HETATM   11  N1  UNL     1      66.550  38.847  19.788  1.00  0.00    -0.344 N 
ATOM     12  H1  UNL     1      65.688  39.393  19.791  1.00  0.00     0.164 HD
BRANCH  11  13
HETATM   13  C6  UNL     1      67.815  39.516  19.791  1.00  0.00     0.136 A 
HETATM   14  C7  UNL     1      68.845  39.355  18.883  1.00  0.00     0.161 A 
HETATM   15  N2  UNL     1      69.861  40.162  19.235  1.00  0.00    -0.281 N 
HETATM   16  N3  UNL     1      69.449  40.799  20.338  1.00  0.00    -0.239 N 
HETATM   17  N4  UNL     1      68.241  40.421  20.670  1.00  0.00    -0.270 N 
ATOM     18  H3  UNL     1      70.003  41.486  20.850  1.00  0.00     0.208 HD
ATOM     19  H4  UNL     1      67.712  40.764  21.472  1.00  0.00     0.190 HD
BRANCH  15  20
HETATM   20  C8  UNL     1      71.135  40.302  18.549  1.00  0.00     0.109 C 
HETATM   21  C9  UNL     1      71.481  38.966  17.933  1.00  0.00     0.027 C 
HETATM   22  C10 UNL     1      72.879  39.013  17.386  1.00  0.00     0.002 C 
HETATM   23  C11 UNL     1      73.859  39.184  18.496  1.00  0.00     0.000 C 
HETATM   24  C12 UNL     1      73.340  39.912  19.687  1.00  0.00     0.002 C 
HETATM   25  C13 UNL     1      72.214  40.847  19.415  1.00  0.00     0.027 C 
ENDBRANCH  15  20
ENDBRANCH  11  13
ENDBRANCH   8  11
ENDBRANCH   4   8
BRANCH   7  26
HETATM   26  N5  UNL     1      64.338  35.492  24.687  1.00  0.00    -0.357 N 
ATOM     27  H5  UNL     1      64.714  35.866  25.559  1.00  0.00     0.162 HD
BRANCH  26  28
HETATM   28  C17 UNL     1      63.275  34.494  24.768  1.00  0.00     0.286 C 
BRANCH  28  29
HETATM   29  O2  UNL     1      63.444  33.668  23.627  1.00  0.00    -0.370 OA
ATOM     30  H2  UNL     1      63.844  32.869  23.949  1.00  0.00     0.212 HD
ENDBRANCH  28  29
BRANCH  28  31
HETATM   31  C18 UNL     1      63.479  33.612  25.973  1.00  0.00     0.125 C 
HETATM   32  N6  UNL     1      62.550  33.379  26.831  1.00  0.00    -0.375 N 
HETATM   33  C19 UNL     1      62.996  32.502  27.895  1.00  0.00     0.141 C 
ATOM     34  H6  UNL     1      61.608  33.767  26.770  1.00  0.00     0.160 HD
HETATM   35  C20 UNL     1      64.500  32.571  27.715  1.00  0.00     0.144 C 
HETATM   36  N7  UNL     1      64.672  32.963  26.304  1.00  0.00    -0.362 N 
BRANCH  36  37
HETATM   37  C21 UNL     1      65.828  32.695  25.524  1.00  0.00     0.077 C 
HETATM   38  C22 UNL     1      66.088  31.240  25.230  1.00  0.00     0.032 C 
HETATM   39  C23 UNL     1      67.088  33.326  26.135  1.00  0.00     0.032 C 
ENDBRANCH  36  37
ENDBRANCH  28  31
ENDBRANCH  26  28
ENDBRANCH   7  26
TORSDOF 10
ENDMDL
