MODEL 1
REMARK VINA RESULT: -6.963849631      0.000      0.000
REMARK  3 active torsions:
REMARK  status: ('A' for Active; 'I' for Inactive)
REMARK    1  A    between atoms: O1_1  and  C1_3 
REMARK    2  A    between atoms: C1_3  and  C2_4 
REMARK    3  A    between atoms: C1_3  and  C8_10 
ROOT
HETATM    1  C1  UNL     1      -0.923  -8.729 -18.151  1.00  0.00     0.154 C 
ENDROOT
BRANCH   1   2
HETATM    2  O1  UNL     1      -1.243  -8.160 -16.918  1.00  0.00    -0.393 OA
ATOM      3  H1  UNL     1      -2.087  -8.498 -16.644  1.00  0.00     0.210 HD
ENDBRANCH   1   2
BRANCH   1   4
HETATM    4  C2  UNL     1       0.558  -8.701 -18.310  1.00  0.00     0.017 C 
HETATM    5  C3  UNL     1       1.328  -9.052 -17.100  1.00  0.00     0.007 C 
HETATM    6  C4  UNL     1       2.668  -8.395 -16.951  1.00  0.00     0.000 C 
HETATM    7  C5  UNL     1       3.182  -7.821 -18.254  1.00  0.00     0.000 C 
HETATM    8  C6  UNL     1       2.188  -6.766 -18.613  1.00  0.00     0.000 C 
HETATM    9  C7  UNL     1       0.893  -7.377 -18.955  1.00  0.00     0.007 C 
ENDBRANCH   1   4
BRANCH   1  10
HETATM   10  C8  UNL     1      -1.656  -9.956 -18.339  1.00  0.00     0.191 C 
HETATM   11  C9  UNL     1      -2.512 -10.493 -17.255  1.00  0.00     0.067 C 
HETATM   12  C10 UNL     1      -2.887 -11.803 -17.988  1.00  0.00     0.212 C 
HETATM   13  O2  UNL     1      -1.672 -12.130 -18.528  1.00  0.00    -0.240 OA
HETATM   14  O3  UNL     1      -0.941 -11.087 -18.692  1.00  0.00    -0.233 OA
ENDBRANCH   1  10
TORSDOF 3
ENDMDL
MODEL 2
REMARK VINA RESULT: -6.857638090      2.165      2.803
REMARK  3 active torsions:
REMARK  status: ('A' for Active; 'I' for Inactive)
REMARK    1  A    between atoms: O1_1  and  C1_3 
REMARK    2  A    between atoms: C1_3  and  C2_4 
REMARK    3  A    between atoms: C1_3  and  C8_10 
ROOT
HETATM    1  C1  UNL     1      -0.024  -8.823 -15.365  1.00  0.00     0.154 C 
ENDROOT
BRANCH   1   2
HETATM    2  O1  UNL     1       0.730  -9.972 -15.128  1.00  0.00    -0.393 OA
ATOM      3  H1  UNL     1       0.534 -10.603 -15.810  1.00  0.00     0.210 HD
ENDBRANCH   1   2
BRANCH   1   4
HETATM    4  C2  UNL     1       0.705  -7.980 -16.353  1.00  0.00     0.017 C 
HETATM    5  C3  UNL     1       0.065  -7.868 -17.679  1.00  0.00     0.007 C 
HETATM    6  C4  UNL     1       0.985  -7.688 -18.849  1.00  0.00     0.000 C 
HETATM    7  C5  UNL     1       2.368  -7.231 -18.435  1.00  0.00     0.000 C 
HETATM    8  C6  UNL     1       2.895  -8.350 -17.601  1.00  0.00     0.000 C 
HETATM    9  C7  UNL     1       2.139  -8.451 -16.341  1.00  0.00     0.007 C 
ENDBRANCH   1   4
BRANCH   1  10
HETATM   10  C8  UNL     1      -1.407  -9.171 -15.579  1.00  0.00     0.191 C 
HETATM   11  C9  UNL     1      -2.450  -8.720 -14.628  1.00  0.00     0.067 C 
HETATM   12  C10 UNL     1      -3.615  -9.481 -15.303  1.00  0.00     0.212 C 
HETATM   13  O2  UNL     1      -2.994 -10.668 -15.584  1.00  0.00    -0.240 OA
HETATM   14  O3  UNL     1      -1.724 -10.512 -15.700  1.00  0.00    -0.233 OA
ENDBRANCH   1  10
TORSDOF 3
ENDMDL
MODEL 3
REMARK VINA RESULT: -6.736621538      1.879      2.719
REMARK  3 active torsions:
REMARK  status: ('A' for Active; 'I' for Inactive)
REMARK    1  A    between atoms: O1_1  and  C1_3 
REMARK    2  A    between atoms: C1_3  and  C2_4 
REMARK    3  A    between atoms: C1_3  and  C8_10 
ROOT
HETATM    1  C1  UNL     1      -0.274  -9.532 -16.936  1.00  0.00     0.154 C 
ENDROOT
BRANCH   1   2
HETATM    2  O1  UNL     1      -0.309 -10.443 -17.991  1.00  0.00    -0.393 OA
ATOM      3  H1  UNL     1      -0.330 -11.320 -17.627  1.00  0.00     0.210 HD
ENDBRANCH   1   2
BRANCH   1   4
HETATM    4  C2  UNL     1       0.483  -8.328 -17.382  1.00  0.00     0.017 C 
HETATM    5  C3  UNL     1       0.181  -7.865 -18.751  1.00  0.00     0.007 C 
HETATM    6  C4  UNL     1       1.302  -7.200 -19.491  1.00  0.00     0.000 C 
HETATM    7  C5  UNL     1       2.412  -6.739 -18.571  1.00  0.00     0.000 C 
HETATM    8  C6  UNL     1       2.941  -7.998 -17.967  1.00  0.00     0.000 C 
HETATM    9  C7  UNL     1       1.936  -8.598 -17.073  1.00  0.00     0.007 C 
ENDBRANCH   1   4
BRANCH   1  10
HETATM   10  C8  UNL     1      -1.584  -9.396 -16.350  1.00  0.00     0.191 C 
HETATM   11  C9  UNL     1      -1.840  -8.369 -15.313  1.00  0.00     0.067 C 
HETATM   12  C10 UNL     1      -3.296  -8.802 -15.022  1.00  0.00     0.212 C 
HETATM   13  O2  UNL     1      -3.147 -10.163 -15.035  1.00  0.00    -0.240 OA
HETATM   14  O3  UNL     1      -2.143 -10.513 -15.755  1.00  0.00    -0.233 OA
ENDBRANCH   1  10
TORSDOF 3
ENDMDL
MODEL 4
REMARK VINA RESULT: -6.716480274      1.061      1.701
REMARK  3 active torsions:
REMARK  status: ('A' for Active; 'I' for Inactive)
REMARK    1  A    between atoms: O1_1  and  C1_3 
REMARK    2  A    between atoms: C1_3  and  C2_4 
REMARK    3  A    between atoms: C1_3  and  C8_10 
ROOT
HETATM    1  C1  UNL     1      -0.425  -8.986 -16.704  1.00  0.00     0.154 C 
ENDROOT
BRANCH   1   2
HETATM    2  O1  UNL     1       0.241  -9.778 -15.769  1.00  0.00    -0.393 OA
ATOM      3  H1  UNL     1       0.609 -10.527 -16.222  1.00  0.00     0.210 HD
ENDBRANCH   1   2
BRANCH   1   4
HETATM    4  C2  UNL     1       0.539  -7.985 -17.241  1.00  0.00     0.017 C 
HETATM    5  C3  UNL     1       0.317  -7.587 -18.646  1.00  0.00     0.007 C 
HETATM    6  C4  UNL     1       1.537  -7.206 -19.430  1.00  0.00     0.000 C 
HETATM    7  C5  UNL     1       2.722  -6.887 -18.543  1.00  0.00     0.000 C 
HETATM    8  C6  UNL     1       3.011  -8.169 -17.834  1.00  0.00     0.000 C 
HETATM    9  C7  UNL     1       1.919  -8.496 -16.902  1.00  0.00     0.007 C 
ENDBRANCH   1   4
BRANCH   1  10
HETATM   10  C8  UNL     1      -1.196  -9.812 -17.599  1.00  0.00     0.191 C 
HETATM   11  C9  UNL     1      -2.426 -10.489 -17.125  1.00  0.00     0.067 C 
HETATM   12  C10 UNL     1      -2.690 -11.267 -18.435  1.00  0.00     0.212 C 
HETATM   13  O2  UNL     1      -1.413 -11.659 -18.741  1.00  0.00    -0.240 OA
HETATM   14  O3  UNL     1      -0.548 -10.859 -18.231  1.00  0.00    -0.233 OA
ENDBRANCH   1  10
TORSDOF 3
ENDMDL
MODEL 5
REMARK VINA RESULT: -6.703156325      2.253      2.604
REMARK  3 active torsions:
REMARK  status: ('A' for Active; 'I' for Inactive)
REMARK    1  A    between atoms: O1_1  and  C1_3 
REMARK    2  A    between atoms: C1_3  and  C2_4 
REMARK    3  A    between atoms: C1_3  and  C8_10 
ROOT
HETATM    1  C1  UNL     1       0.314  -9.085 -15.628  1.00  0.00     0.154 C 
ENDROOT
BRANCH   1   2
HETATM    2  O1  UNL     1       0.929 -10.170 -15.004  1.00  0.00    -0.393 OA
ATOM      3  H1  UNL     1       0.259 -10.805 -14.781  1.00  0.00     0.210 HD
ENDBRANCH   1   2
BRANCH   1   4
HETATM    4  C2  UNL     1       1.041  -8.802 -16.897  1.00  0.00     0.017 C 
HETATM    5  C3  UNL     1       2.513  -8.855 -16.806  1.00  0.00     0.007 C 
HETATM    6  C4  UNL     1       3.270  -7.948 -17.729  1.00  0.00     0.000 C 
HETATM    7  C5  UNL     1       2.421  -7.450 -18.879  1.00  0.00     0.000 C 
HETATM    8  C6  UNL     1       1.344  -6.649 -18.226  1.00  0.00     0.000 C 
HETATM    9  C7  UNL     1       0.451  -7.527 -17.451  1.00  0.00     0.007 C 
ENDBRANCH   1   4
BRANCH   1  10
HETATM   10  C8  UNL     1      -1.118  -9.255 -15.627  1.00  0.00     0.191 C 
HETATM   11  C9  UNL     1      -1.943  -8.671 -14.544  1.00  0.00     0.067 C 
HETATM   12  C10 UNL     1      -3.281  -9.281 -15.022  1.00  0.00     0.212 C 
HETATM   13  O2  UNL     1      -2.861 -10.539 -15.362  1.00  0.00    -0.240 OA
HETATM   14  O3  UNL     1      -1.614 -10.546 -15.667  1.00  0.00    -0.233 OA
ENDBRANCH   1  10
TORSDOF 3
ENDMDL
