MODEL 1
REMARK VINA RESULT: -6.720095186      0.000      0.000
REMARK  4 active torsions:
REMARK  status: ('A' for Active; 'I' for Inactive)
REMARK    1  A    between atoms: O1_1  and  C1_3 
REMARK    2  A    between atoms: C1_3  and  C2_4 
REMARK    3  A    between atoms: C1_3  and  C8_12 
REMARK    4  A    between atoms: C2_4  and  C3_5 
ROOT
HETATM    1  C3  UNL     1      -0.102  -9.086 -16.012  1.00  0.00     0.101 C 
HETATM    2  C4  UNL     1      -0.439  -7.831 -15.275  1.00  0.00     0.044 C 
HETATM    3  C5  UNL     1      -1.903  -7.516 -15.641  1.00  0.00     0.038 C 
HETATM    4  C6  UNL     1      -2.281  -8.816 -16.341  1.00  0.00     0.163 C 
HETATM    5  C7  UNL     1      -1.034  -8.942 -17.240  1.00  0.00     0.076 C 
HETATM    6  O2  UNL     1      -2.077  -9.870 -15.490  1.00  0.00    -0.235 OA
HETATM    7  O3  UNL     1      -0.814 -10.107 -15.372  1.00  0.00    -0.229 OA
ENDROOT
BRANCH   1   8
HETATM    8  C2  UNL     1       1.263  -9.381 -16.360  1.00  0.00     0.073 C 
BRANCH   8   9
HETATM    9  C1  UNL     1       2.183  -8.341 -16.856  1.00  0.00     0.125 C 
BRANCH   9  10
HETATM   10  O1  UNL     1       3.502  -8.858 -16.636  1.00  0.00    -0.395 OA
ATOM     11  H1  UNL     1       3.834  -8.396 -15.875  1.00  0.00     0.210 HD
ENDBRANCH   9  10
BRANCH   9  12
HETATM   12  C8  UNL     1       2.147  -8.029 -18.317  1.00  0.00     0.014 A 
HETATM   13  C9  UNL     1       1.646  -6.607 -18.595  1.00  0.00     0.007 A 
HETATM   14  C10 UNL     1       3.065  -6.959 -18.890  1.00  0.00     0.007 A 
ENDBRANCH   9  12
ENDBRANCH   8   9
ENDBRANCH   1   8
TORSDOF 4
ENDMDL
MODEL 2
REMARK VINA RESULT: -6.582833097      1.035      1.313
REMARK  4 active torsions:
REMARK  status: ('A' for Active; 'I' for Inactive)
REMARK    1  A    between atoms: O1_1  and  C1_3 
REMARK    2  A    between atoms: C1_3  and  C2_4 
REMARK    3  A    between atoms: C1_3  and  C8_12 
REMARK    4  A    between atoms: C2_4  and  C3_5 
ROOT
HETATM    1  C3  UNL     1      -0.102  -8.925 -16.021  1.00  0.00     0.101 C 
HETATM    2  C4  UNL     1      -0.834  -9.567 -14.888  1.00  0.00     0.044 C 
HETATM    3  C5  UNL     1      -1.913  -8.552 -14.463  1.00  0.00     0.038 C 
HETATM    4  C6  UNL     1      -1.808  -7.563 -15.618  1.00  0.00     0.163 C 
HETATM    5  C7  UNL     1      -0.272  -7.432 -15.647  1.00  0.00     0.076 C 
HETATM    6  O2  UNL     1      -2.020  -8.220 -16.802  1.00  0.00    -0.235 OA
HETATM    7  O3  UNL     1      -0.990  -8.935 -17.103  1.00  0.00    -0.229 OA
ENDROOT
BRANCH   1   8
HETATM    8  C2  UNL     1       1.259  -9.292 -16.309  1.00  0.00     0.073 C 
BRANCH   8   9
HETATM    9  C1  UNL     1       2.234  -8.319 -16.834  1.00  0.00     0.125 C 
BRANCH   9  10
HETATM   10  O1  UNL     1       3.524  -8.898 -16.594  1.00  0.00    -0.395 OA
ATOM     11  H1  UNL     1       3.363  -9.820 -16.430  1.00  0.00     0.210 HD
ENDBRANCH   9  10
BRANCH   9  12
HETATM   12  C8  UNL     1       2.217  -8.049 -18.303  1.00  0.00     0.014 A 
HETATM   13  C9  UNL     1       1.680  -6.651 -18.631  1.00  0.00     0.007 A 
HETATM   14  C10 UNL     1       3.114  -6.968 -18.891  1.00  0.00     0.007 A 
ENDBRANCH   9  12
ENDBRANCH   8   9
ENDBRANCH   1   8
TORSDOF 4
ENDMDL
MODEL 3
REMARK VINA RESULT: -6.536220580      1.426      1.884
REMARK  4 active torsions:
REMARK  status: ('A' for Active; 'I' for Inactive)
REMARK    1  A    between atoms: O1_1  and  C1_3 
REMARK    2  A    between atoms: C1_3  and  C2_4 
REMARK    3  A    between atoms: C1_3  and  C8_12 
REMARK    4  A    between atoms: C2_4  and  C3_5 
ROOT
HETATM    1  C3  UNL     1      -1.996  -8.973 -16.811  1.00  0.00     0.101 C 
HETATM    2  C4  UNL     1      -2.410  -7.953 -15.800  1.00  0.00     0.044 C 
HETATM    3  C5  UNL     1      -3.794  -8.408 -15.297  1.00  0.00     0.038 C 
HETATM    4  C6  UNL     1      -3.852  -9.799 -15.917  1.00  0.00     0.163 C 
HETATM    5  C7  UNL     1      -3.382  -9.419 -17.335  1.00  0.00     0.076 C 
HETATM    6  O2  UNL     1      -2.777 -10.534 -15.491  1.00  0.00    -0.235 OA
HETATM    7  O3  UNL     1      -1.703 -10.134 -16.084  1.00  0.00    -0.229 OA
ENDROOT
BRANCH   1   8
HETATM    8  C2  UNL     1      -1.071  -8.626 -17.857  1.00  0.00     0.073 C 
BRANCH   8   9
HETATM    9  C1  UNL     1       0.360  -8.398 -17.588  1.00  0.00     0.125 C 
BRANCH   9  10
HETATM   10  O1  UNL     1       0.897  -9.684 -17.246  1.00  0.00    -0.395 OA
ATOM     11  H1  UNL     1       1.733  -9.509 -16.833  1.00  0.00     0.210 HD
ENDBRANCH   9  10
BRANCH   9  12
HETATM   12  C8  UNL     1       1.210  -7.933 -18.725  1.00  0.00     0.014 A 
HETATM   13  C9  UNL     1       1.550  -6.441 -18.625  1.00  0.00     0.007 A 
HETATM   14  C10 UNL     1       2.632  -7.454 -18.468  1.00  0.00     0.007 A 
ENDBRANCH   9  12
ENDBRANCH   8   9
ENDBRANCH   1   8
TORSDOF 4
ENDMDL
MODEL 4
REMARK VINA RESULT: -6.472637137      0.943      1.045
REMARK  4 active torsions:
REMARK  status: ('A' for Active; 'I' for Inactive)
REMARK    1  A    between atoms: O1_1  and  C1_3 
REMARK    2  A    between atoms: C1_3  and  C2_4 
REMARK    3  A    between atoms: C1_3  and  C8_12 
REMARK    4  A    between atoms: C2_4  and  C3_5 
ROOT
HETATM    1  C3  UNL     1      -1.064  -9.180 -16.232  1.00  0.00     0.101 C 
HETATM    2  C4  UNL     1      -0.841  -8.442 -14.952  1.00  0.00     0.044 C 
HETATM    3  C5  UNL     1      -2.228  -7.918 -14.529  1.00  0.00     0.038 C 
HETATM    4  C6  UNL     1      -3.105  -8.679 -15.517  1.00  0.00     0.163 C 
HETATM    5  C7  UNL     1      -2.279  -8.401 -16.790  1.00  0.00     0.076 C 
HETATM    6  O2  UNL     1      -2.892 -10.025 -15.375  1.00  0.00    -0.235 OA
HETATM    7  O3  UNL     1      -1.751 -10.349 -15.883  1.00  0.00    -0.229 OA
ENDROOT
BRANCH   1   8
HETATM    8  C2  UNL     1       0.007  -9.329 -17.181  1.00  0.00     0.073 C 
BRANCH   8   9
HETATM    9  C1  UNL     1       1.130  -8.376 -17.244  1.00  0.00     0.125 C 
BRANCH   9  10
HETATM   10  O1  UNL     1       2.276  -9.100 -16.773  1.00  0.00    -0.395 OA
ATOM     11  H1  UNL     1       2.806  -8.464 -16.309  1.00  0.00     0.210 HD
ENDBRANCH   9  10
BRANCH   9  12
HETATM   12  C8  UNL     1       1.536  -7.877 -18.592  1.00  0.00     0.014 A 
HETATM   13  C9  UNL     1       1.550  -6.345 -18.665  1.00  0.00     0.007 A 
HETATM   14  C10 UNL     1       2.834  -7.098 -18.758  1.00  0.00     0.007 A 
ENDBRANCH   9  12
ENDBRANCH   8   9
ENDBRANCH   1   8
TORSDOF 4
ENDMDL
MODEL 5
REMARK VINA RESULT: -6.373852576      1.631      2.105
REMARK  4 active torsions:
REMARK  status: ('A' for Active; 'I' for Inactive)
REMARK    1  A    between atoms: O1_1  and  C1_3 
REMARK    2  A    between atoms: C1_3  and  C2_4 
REMARK    3  A    between atoms: C1_3  and  C8_12 
REMARK    4  A    between atoms: C2_4  and  C3_5 
ROOT
HETATM    1  C3  UNL     1      -0.882  -9.278 -17.170  1.00  0.00     0.101 C 
HETATM    2  C4  UNL     1      -2.011  -9.903 -16.416  1.00  0.00     0.044 C 
HETATM    3  C5  UNL     1      -2.991 -10.417 -17.489  1.00  0.00     0.038 C 
HETATM    4  C6  UNL     1      -2.129 -10.242 -18.734  1.00  0.00     0.163 C 
HETATM    5  C7  UNL     1      -1.628  -8.812 -18.444  1.00  0.00     0.076 C 
HETATM    6  O2  UNL     1      -0.963 -10.945 -18.585  1.00  0.00    -0.235 OA
HETATM    7  O3  UNL     1      -0.181 -10.339 -17.757  1.00  0.00    -0.229 OA
ENDROOT
BRANCH   1   8
HETATM    8  C2  UNL     1      -0.086  -8.245 -16.562  1.00  0.00     0.073 C 
BRANCH   8   9
HETATM    9  C1  UNL     1       1.344  -8.077 -16.880  1.00  0.00     0.125 C 
BRANCH   9  10
HETATM   10  O1  UNL     1       1.976  -9.297 -16.471  1.00  0.00    -0.395 OA
ATOM     11  H1  UNL     1       2.634  -9.477 -17.131  1.00  0.00     0.210 HD
ENDBRANCH   9  10
BRANCH   9  12
HETATM   12  C8  UNL     1       1.718  -7.930 -18.319  1.00  0.00     0.014 A 
HETATM   13  C9  UNL     1       1.653  -6.472 -18.791  1.00  0.00     0.007 A 
HETATM   14  C10 UNL     1       2.973  -7.160 -18.705  1.00  0.00     0.007 A 
ENDBRANCH   9  12
ENDBRANCH   8   9
ENDBRANCH   1   8
TORSDOF 4
ENDMDL
