MODEL 1
REMARK VINA RESULT: -3.708058435      0.000      0.000
REMARK  3 active torsions:
REMARK  status: ('A' for Active; 'I' for Inactive)
REMARK       I    between atoms: N1_2  and  C3_4 
REMARK       I    between atoms: N3_6  and  C4_8 
REMARK    1  A    between atoms: N5_10  and  C5_12 
REMARK    2  A    between atoms: C5_12  and  C6_13 
REMARK    3  A    between atoms: C5_12  and  C7_15 
REMARK       I    between atoms: C7_15  and  N6_17 
ROOT
HETATM    1  C1  UNL     1     -45.365 -22.643 -20.230  1.00  0.00     0.151 C 
HETATM    2  N1  UNL     1     -46.205 -21.626 -19.650  1.00  0.00    -0.364 N 
HETATM    3  C2  UNL     1     -46.195 -21.499 -18.208  1.00  0.00     0.151 C 
HETATM    4  C3  UNL     1     -47.041 -20.740 -20.372  1.00  0.00     0.192 C 
HETATM    5  N2  UNL     1     -46.545 -20.167 -21.587  1.00  0.00    -0.063 NA
HETATM    6  N3  UNL     1     -48.245 -20.441 -19.947  1.00  0.00    -0.305 N 
ATOM      7  H3  UNL     1     -48.589 -20.852 -19.080  1.00  0.00     0.171 HD
HETATM    8  C4  UNL     1     -49.076 -19.550 -20.679  1.00  0.00     0.191 C 
HETATM    9  N4  UNL     1     -50.003 -20.130 -21.592  1.00  0.00    -0.063 NA
HETATM   10  N5  UNL     1     -48.997 -18.267 -20.525  1.00  0.00    -0.345 N 
ATOM     11  H5  UNL     1     -48.330 -17.860 -19.868  1.00  0.00     0.163 HD
ENDROOT
BRANCH  10  12
HETATM   12  C5  UNL     1     -49.878 -17.421 -21.307  1.00  0.00     0.238 C 
BRANCH  12  13
HETATM   13  C6  UNL     1     -49.060 -16.588 -22.231  1.00  0.00     0.266 C 
HETATM   14  O1  UNL     1     -48.321 -17.148 -23.019  1.00  0.00    -0.304 OA
ENDBRANCH  12  13
BRANCH  12  15
HETATM   15  C7  UNL     1     -50.729 -16.569 -20.445  1.00  0.00     0.253 C 
HETATM   16  O2  UNL     1     -50.541 -15.341 -20.434  1.00  0.00    -0.270 OA
HETATM   17  N6  UNL     1     -51.734 -17.196 -19.659  1.00  0.00    -0.301 N 
HETATM   18  C8  UNL     1     -52.984 -16.978 -19.811  1.00  0.00     0.203 C 
ATOM     19  H6  UNL     1     -51.442 -17.855 -18.936  1.00  0.00     0.171 HD
HETATM   20  N7  UNL     1     -53.917 -17.641 -18.990  1.00  0.00    -0.066 NA
HETATM   21  N8  UNL     1     -53.447 -16.078 -20.795  1.00  0.00    -0.066 NA
ENDBRANCH  12  15
ENDBRANCH  10  12
TORSDOF 3
ENDMDL
MODEL 2
REMARK VINA RESULT: -3.500022815      5.216      6.380
REMARK  3 active torsions:
REMARK  status: ('A' for Active; 'I' for Inactive)
REMARK       I    between atoms: N1_2  and  C3_4 
REMARK       I    between atoms: N3_6  and  C4_8 
REMARK    1  A    between atoms: N5_10  and  C5_12 
REMARK    2  A    between atoms: C5_12  and  C6_13 
REMARK    3  A    between atoms: C5_12  and  C7_15 
REMARK       I    between atoms: C7_15  and  N6_17 
ROOT
HETATM    1  C1  UNL     1     -41.915 -19.677 -20.082  1.00  0.00     0.151 C 
HETATM    2  N1  UNL     1     -42.770 -20.250 -19.074  1.00  0.00    -0.364 N 
HETATM    3  C2  UNL     1     -42.344 -20.134 -17.696  1.00  0.00     0.151 C 
HETATM    4  C3  UNL     1     -43.994 -20.920 -19.319  1.00  0.00     0.192 C 
HETATM    5  N2  UNL     1     -44.884 -20.383 -20.304  1.00  0.00    -0.063 NA
HETATM    6  N3  UNL     1     -44.318 -22.008 -18.664  1.00  0.00    -0.305 N 
ATOM      7  H3  UNL     1     -43.679 -22.383 -17.963  1.00  0.00     0.171 HD
HETATM    8  C4  UNL     1     -45.548 -22.673 -18.917  1.00  0.00     0.191 C 
HETATM    9  N4  UNL     1     -45.525 -23.750 -19.849  1.00  0.00    -0.063 NA
HETATM   10  N5  UNL     1     -46.645 -22.317 -18.328  1.00  0.00    -0.345 N 
ATOM     11  H5  UNL     1     -46.653 -21.544 -17.662  1.00  0.00     0.163 HD
ENDROOT
BRANCH  10  12
HETATM   12  C5  UNL     1     -47.863 -23.043 -18.637  1.00  0.00     0.238 C 
BRANCH  12  13
HETATM   13  C6  UNL     1     -48.480 -22.460 -19.860  1.00  0.00     0.266 C 
HETATM   14  O1  UNL     1     -48.463 -21.251 -20.001  1.00  0.00    -0.304 OA
ENDBRANCH  12  13
BRANCH  12  15
HETATM   15  C7  UNL     1     -48.817 -23.021 -17.505  1.00  0.00     0.253 C 
HETATM   16  O2  UNL     1     -49.819 -23.755 -17.545  1.00  0.00    -0.270 OA
HETATM   17  N6  UNL     1     -48.546 -22.156 -16.410  1.00  0.00    -0.301 N 
HETATM   18  C8  UNL     1     -48.319 -22.574 -15.223  1.00  0.00     0.203 C 
ATOM     19  H6  UNL     1     -48.531 -21.150 -16.580  1.00  0.00     0.171 HD
HETATM   20  N7  UNL     1     -48.058 -21.650 -14.193  1.00  0.00    -0.066 NA
HETATM   21  N8  UNL     1     -48.326 -23.953 -14.928  1.00  0.00    -0.066 NA
ENDBRANCH  12  15
ENDBRANCH  10  12
TORSDOF 3
ENDMDL
MODEL 3
REMARK VINA RESULT: -3.189787925      2.277      6.893
REMARK  3 active torsions:
REMARK  status: ('A' for Active; 'I' for Inactive)
REMARK       I    between atoms: N1_2  and  C3_4 
REMARK       I    between atoms: N3_6  and  C4_8 
REMARK    1  A    between atoms: N5_10  and  C5_12 
REMARK    2  A    between atoms: C5_12  and  C6_13 
REMARK    3  A    between atoms: C5_12  and  C7_15 
REMARK       I    between atoms: C7_15  and  N6_17 
ROOT
HETATM    1  C1  UNL     1     -52.722 -15.271 -20.843  1.00  0.00     0.151 C 
HETATM    2  N1  UNL     1     -51.348 -15.704 -20.786  1.00  0.00    -0.364 N 
HETATM    3  C2  UNL     1     -50.325 -14.690 -20.923  1.00  0.00     0.151 C 
HETATM    4  C3  UNL     1     -50.915 -17.041 -20.608  1.00  0.00     0.192 C 
HETATM    5  N2  UNL     1     -51.608 -17.865 -19.664  1.00  0.00    -0.063 NA
HETATM    6  N3  UNL     1     -49.902 -17.524 -21.285  1.00  0.00    -0.305 N 
ATOM      7  H3  UNL     1     -49.414 -16.929 -21.954  1.00  0.00     0.171 HD
HETATM    8  C4  UNL     1     -49.475 -18.867 -21.099  1.00  0.00     0.191 C 
HETATM    9  N4  UNL     1     -49.994 -19.843 -21.997  1.00  0.00    -0.063 NA
HETATM   10  N5  UNL     1     -48.650 -19.192 -20.156  1.00  0.00    -0.345 N 
ATOM     11  H5  UNL     1     -48.283 -18.486 -19.517  1.00  0.00     0.163 HD
ENDROOT
BRANCH  10  12
HETATM   12  C5  UNL     1     -48.260 -20.583 -20.027  1.00  0.00     0.238 C 
BRANCH  12  13
HETATM   13  C6  UNL     1     -48.104 -20.914 -18.584  1.00  0.00     0.266 C 
HETATM   14  O1  UNL     1     -48.529 -21.982 -18.184  1.00  0.00    -0.304 OA
ENDBRANCH  12  13
BRANCH  12  15
HETATM   15  C7  UNL     1     -47.012 -20.874 -20.772  1.00  0.00     0.253 C 
HETATM   16  O2  UNL     1     -46.619 -20.066 -21.630  1.00  0.00    -0.270 OA
HETATM   17  N6  UNL     1     -46.312 -22.074 -20.472  1.00  0.00    -0.301 N 
HETATM   18  C8  UNL     1     -45.130 -22.095 -19.986  1.00  0.00     0.203 C 
ATOM     19  H6  UNL     1     -46.777 -22.964 -20.654  1.00  0.00     0.171 HD
HETATM   20  N7  UNL     1     -44.505 -23.328 -19.716  1.00  0.00    -0.066 NA
HETATM   21  N8  UNL     1     -44.438 -20.896 -19.713  1.00  0.00    -0.066 NA
ENDBRANCH  12  15
ENDBRANCH  10  12
TORSDOF 3
ENDMDL
MODEL 4
REMARK VINA RESULT: -3.138890889      1.479      1.927
REMARK  3 active torsions:
REMARK  status: ('A' for Active; 'I' for Inactive)
REMARK       I    between atoms: N1_2  and  C3_4 
REMARK       I    between atoms: N3_6  and  C4_8 
REMARK    1  A    between atoms: N5_10  and  C5_12 
REMARK    2  A    between atoms: C5_12  and  C6_13 
REMARK    3  A    between atoms: C5_12  and  C7_15 
REMARK       I    between atoms: C7_15  and  N6_17 
ROOT
HETATM    1  C1  UNL     1     -45.655 -22.776 -19.745  1.00  0.00     0.151 C 
HETATM    2  N1  UNL     1     -46.464 -21.668 -19.302  1.00  0.00    -0.364 N 
HETATM    3  C2  UNL     1     -46.561 -21.445 -17.876  1.00  0.00     0.151 C 
HETATM    4  C3  UNL     1     -47.174 -20.780 -20.147  1.00  0.00     0.192 C 
HETATM    5  N2  UNL     1     -46.542 -20.326 -21.349  1.00  0.00    -0.063 NA
HETATM    6  N3  UNL     1     -48.384 -20.374 -19.845  1.00  0.00    -0.305 N 
ATOM      7  H3  UNL     1     -48.825 -20.702 -18.986  1.00  0.00     0.171 HD
HETATM    8  C4  UNL     1     -49.088 -19.483 -20.699  1.00  0.00     0.191 C 
HETATM    9  N4  UNL     1     -49.977 -20.061 -21.649  1.00  0.00    -0.063 NA
HETATM   10  N5  UNL     1     -48.930 -18.200 -20.619  1.00  0.00    -0.345 N 
ATOM     11  H5  UNL     1     -48.290 -17.795 -19.935  1.00  0.00     0.163 HD
ENDROOT
BRANCH  10  12
HETATM   12  C5  UNL     1     -49.682 -17.353 -21.525  1.00  0.00     0.238 C 
BRANCH  12  13
HETATM   13  C6  UNL     1     -48.733 -16.566 -22.358  1.00  0.00     0.266 C 
HETATM   14  O1  UNL     1     -47.974 -17.164 -23.098  1.00  0.00    -0.304 OA
ENDBRANCH  12  13
BRANCH  12  15
HETATM   15  C7  UNL     1     -50.610 -16.458 -20.795  1.00  0.00     0.253 C 
HETATM   16  O2  UNL     1     -50.612 -16.474 -19.553  1.00  0.00    -0.270 OA
HETATM   17  N6  UNL     1     -51.466 -15.612 -21.552  1.00  0.00    -0.301 N 
HETATM   18  C8  UNL     1     -51.409 -14.336 -21.511  1.00  0.00     0.203 C 
ATOM     19  H6  UNL     1     -52.162 -16.047 -22.159  1.00  0.00     0.171 HD
HETATM   20  N7  UNL     1     -52.294 -13.569 -22.293  1.00  0.00    -0.066 NA
HETATM   21  N8  UNL     1     -50.467 -13.680 -20.691  1.00  0.00    -0.066 NA
ENDBRANCH  12  15
ENDBRANCH  10  12
TORSDOF 3
ENDMDL
MODEL 5
REMARK VINA RESULT: -2.913425401      1.841      6.749
REMARK  3 active torsions:
REMARK  status: ('A' for Active; 'I' for Inactive)
REMARK       I    between atoms: N1_2  and  C3_4 
REMARK       I    between atoms: N3_6  and  C4_8 
REMARK    1  A    between atoms: N5_10  and  C5_12 
REMARK    2  A    between atoms: C5_12  and  C6_13 
REMARK    3  A    between atoms: C5_12  and  C7_15 
REMARK       I    between atoms: C7_15  and  N6_17 
ROOT
HETATM    1  C1  UNL     1     -54.502 -13.572 -20.631  1.00  0.00     0.151 C 
HETATM    2  N1  UNL     1     -54.086 -14.944 -20.485  1.00  0.00    -0.364 N 
HETATM    3  C2  UNL     1     -55.106 -15.917 -20.158  1.00  0.00     0.151 C 
HETATM    4  C3  UNL     1     -52.760 -15.421 -20.633  1.00  0.00     0.192 C 
HETATM    5  N2  UNL     1     -51.959 -14.898 -21.698  1.00  0.00    -0.063 NA
HETATM    6  N3  UNL     1     -52.267 -16.324 -19.819  1.00  0.00    -0.305 N 
ATOM      7  H3  UNL     1     -52.845 -16.691 -19.064  1.00  0.00     0.171 HD
HETATM    8  C4  UNL     1     -50.935 -16.796 -19.976  1.00  0.00     0.191 C 
HETATM    9  N4  UNL     1     -49.925 -16.158 -19.201  1.00  0.00    -0.063 NA
HETATM   10  N5  UNL     1     -50.651 -17.764 -20.787  1.00  0.00    -0.345 N 
ATOM     11  H5  UNL     1     -51.381 -18.215 -21.339  1.00  0.00     0.163 HD
ENDROOT
BRANCH  10  12
HETATM   12  C5  UNL     1     -49.269 -18.192 -20.895  1.00  0.00     0.238 C 
BRANCH  12  13
HETATM   13  C6  UNL     1     -48.742 -17.808 -22.233  1.00  0.00     0.266 C 
HETATM   14  O1  UNL     1     -48.468 -16.640 -22.437  1.00  0.00    -0.304 OA
ENDBRANCH  12  13
BRANCH  12  15
HETATM   15  C7  UNL     1     -49.127 -19.649 -20.671  1.00  0.00     0.253 C 
HETATM   16  O2  UNL     1     -49.646 -20.437 -21.480  1.00  0.00    -0.270 OA
HETATM   17  N6  UNL     1     -48.398 -20.089 -19.533  1.00  0.00    -0.301 N 
HETATM   18  C8  UNL     1     -47.314 -20.763 -19.610  1.00  0.00     0.203 C 
ATOM     19  H6  UNL     1     -48.758 -19.855 -18.608  1.00  0.00     0.171 HD
HETATM   20  N7  UNL     1     -46.651 -21.162 -18.433  1.00  0.00    -0.066 NA
HETATM   21  N8  UNL     1     -46.768 -21.116 -20.862  1.00  0.00    -0.066 NA
ENDBRANCH  12  15
ENDBRANCH  10  12
TORSDOF 3
ENDMDL
