MODEL 1
REMARK VINA RESULT: -5.911086658      0.000      0.000
REMARK  6 active torsions:
REMARK  status: ('A' for Active; 'I' for Inactive)
REMARK    1  A    between atoms: C6_8  and  N2_9 
REMARK    2  A    between atoms: N2_9  and  S1_11 
REMARK    3  A    between atoms: S1_11  and  N3_12 
REMARK    4  A    between atoms: C7_17  and  C8_18 
REMARK    5  A    between atoms: C8_18  and  O3_19 
REMARK    6  A    between atoms: C9_21  and  O4_22 
ROOT
HETATM    1  C1  UNL     1     -42.310 -20.073 -18.040  1.00  0.00     0.012 C 
HETATM    2  C2  UNL     1     -43.412 -20.563 -17.986  1.00  0.00    -0.108 C 
HETATM    3  C3  UNL     1     -44.770 -21.148 -17.902  1.00  0.00     0.111 C 
HETATM    4  C4  UNL     1     -45.373 -20.625 -16.621  1.00  0.00     0.138 C 
HETATM    5  N1  UNL     1     -46.575 -21.329 -16.278  1.00  0.00    -0.399 N 
ATOM      6  H1  UNL     1     -46.827 -21.249 -15.294  1.00  0.00     0.158 HD
HETATM    7  C5  UNL     1     -47.393 -22.037 -16.961  1.00  0.00     0.082 C 
HETATM    8  C6  UNL     1     -47.273 -22.325 -18.421  1.00  0.00     0.141 C 
HETATM    9  C7  UNL     1     -46.988 -21.031 -19.101  1.00  0.00     0.068 C 
HETATM   10  C9  UNL     1     -45.529 -20.646 -19.075  1.00  0.00     0.143 C 
ENDROOT
BRANCH  10  11
HETATM   11  O4  UNL     1     -44.929 -21.072 -20.272  1.00  0.00    -0.394 OA
ATOM     12  H4  UNL     1     -45.329 -21.878 -20.577  1.00  0.00     0.210 HD
ENDBRANCH  10  11
BRANCH   9  13
HETATM   13  C8  UNL     1     -47.500 -20.960 -20.518  1.00  0.00     0.173 C 
BRANCH  13  14
HETATM   14  O3  UNL     1     -48.738 -20.346 -20.558  1.00  0.00    -0.400 OA
ATOM     15  H3  UNL     1     -48.667 -19.475 -20.931  1.00  0.00     0.209 HD
ENDBRANCH  13  14
ENDBRANCH   9  13
BRANCH   8  16
HETATM   16  N2  UNL     1     -48.399 -22.985 -18.959  1.00  0.00    -0.293 N 
ATOM     17  H2  UNL     1     -49.339 -22.623 -18.793  1.00  0.00     0.174 HD
BRANCH  16  18
HETATM   18  S1  UNL     1     -48.171 -24.375 -19.876  1.00  0.00     0.313 S 
HETATM   19  O1  UNL     1     -47.484 -25.489 -19.095  1.00  0.00    -0.183 OA
HETATM   20  O2  UNL     1     -49.455 -24.874 -20.479  1.00  0.00    -0.183 OA
BRANCH  18  21
HETATM   21  N3  UNL     1     -47.114 -24.025 -21.194  1.00  0.00    -0.312 N 
ATOM     22  H32 UNL     1     -46.509 -23.205 -21.248  1.00  0.00     0.170 HD
ATOM     23  H31 UNL     1     -47.194 -24.760 -21.897  1.00  0.00     0.170 HD
ENDBRANCH  18  21
ENDBRANCH  16  18
ENDBRANCH   8  16
TORSDOF 6
ENDMDL
MODEL 2
REMARK VINA RESULT: -5.815142759      0.915      1.098
REMARK  6 active torsions:
REMARK  status: ('A' for Active; 'I' for Inactive)
REMARK    1  A    between atoms: C6_8  and  N2_9 
REMARK    2  A    between atoms: N2_9  and  S1_11 
REMARK    3  A    between atoms: S1_11  and  N3_12 
REMARK    4  A    between atoms: C7_17  and  C8_18 
REMARK    5  A    between atoms: C8_18  and  O3_19 
REMARK    6  A    between atoms: C9_21  and  O4_22 
ROOT
HETATM    1  C1  UNL     1     -42.365 -20.005 -17.793  1.00  0.00     0.012 C 
HETATM    2  C2  UNL     1     -43.448 -20.539 -17.832  1.00  0.00    -0.108 C 
HETATM    3  C3  UNL     1     -44.783 -21.177 -17.862  1.00  0.00     0.111 C 
HETATM    4  C4  UNL     1     -45.488 -20.734 -16.604  1.00  0.00     0.138 C 
HETATM    5  N1  UNL     1     -46.680 -21.497 -16.371  1.00  0.00    -0.399 N 
ATOM      6  H1  UNL     1     -46.999 -21.470 -15.403  1.00  0.00     0.158 HD
HETATM    7  C5  UNL     1     -47.423 -22.206 -17.134  1.00  0.00     0.082 C 
HETATM    8  C6  UNL     1     -47.197 -22.425 -18.594  1.00  0.00     0.141 C 
HETATM    9  C7  UNL     1     -46.921 -21.093 -19.200  1.00  0.00     0.068 C 
HETATM   10  C9  UNL     1     -45.484 -20.654 -19.061  1.00  0.00     0.143 C 
ENDROOT
BRANCH  10  11
HETATM   11  O4  UNL     1     -44.792 -21.005 -20.232  1.00  0.00    -0.394 OA
ATOM     12  H4  UNL     1     -45.365 -21.463 -20.835  1.00  0.00     0.210 HD
ENDBRANCH  10  11
BRANCH   9  13
HETATM   13  C8  UNL     1     -47.343 -20.979 -20.644  1.00  0.00     0.173 C 
BRANCH  13  14
HETATM   14  O3  UNL     1     -48.610 -20.433 -20.739  1.00  0.00    -0.400 OA
ATOM     15  H3  UNL     1     -49.254 -21.111 -20.907  1.00  0.00     0.209 HD
ENDBRANCH  13  14
ENDBRANCH   9  13
BRANCH   8  16
HETATM   16  N2  UNL     1     -48.259 -23.102 -19.232  1.00  0.00    -0.293 N 
ATOM     17  H2  UNL     1     -49.218 -22.768 -19.136  1.00  0.00     0.174 HD
BRANCH  16  18
HETATM   18  S1  UNL     1     -47.920 -24.468 -20.152  1.00  0.00     0.313 S 
HETATM   19  O1  UNL     1     -47.030 -24.166 -21.351  1.00  0.00    -0.183 OA
HETATM   20  O2  UNL     1     -47.326 -25.575 -19.325  1.00  0.00    -0.183 OA
BRANCH  18  21
HETATM   21  N3  UNL     1     -49.387 -25.087 -20.819  1.00  0.00    -0.312 N 
ATOM     22  H32 UNL     1     -50.134 -24.511 -21.206  1.00  0.00     0.170 HD
ATOM     23  H31 UNL     1     -49.381 -26.106 -20.762  1.00  0.00     0.170 HD
ENDBRANCH  18  21
ENDBRANCH  16  18
ENDBRANCH   8  16
TORSDOF 6
ENDMDL
MODEL 3
REMARK VINA RESULT: -5.605567443      1.017      1.017
REMARK  6 active torsions:
REMARK  status: ('A' for Active; 'I' for Inactive)
REMARK    1  A    between atoms: C6_8  and  N2_9 
REMARK    2  A    between atoms: N2_9  and  S1_11 
REMARK    3  A    between atoms: S1_11  and  N3_12 
REMARK    4  A    between atoms: C7_17  and  C8_18 
REMARK    5  A    between atoms: C8_18  and  O3_19 
REMARK    6  A    between atoms: C9_21  and  O4_22 
ROOT
HETATM    1  C1  UNL     1     -42.282 -20.257 -17.522  1.00  0.00     0.012 C 
HETATM    2  C2  UNL     1     -43.389 -20.688 -17.739  1.00  0.00    -0.108 C 
HETATM    3  C3  UNL     1     -44.756 -21.199 -17.991  1.00  0.00     0.111 C 
HETATM    4  C4  UNL     1     -45.629 -20.610 -16.910  1.00  0.00     0.138 C 
HETATM    5  N1  UNL     1     -46.916 -21.241 -16.870  1.00  0.00    -0.399 N 
ATOM      6  H1  UNL     1     -47.402 -21.121 -15.981  1.00  0.00     0.158 HD
HETATM    7  C5  UNL     1     -47.577 -21.925 -17.726  1.00  0.00     0.082 C 
HETATM    8  C6  UNL     1     -47.113 -22.259 -19.105  1.00  0.00     0.141 C 
HETATM    9  C7  UNL     1     -46.593 -21.000 -19.709  1.00  0.00     0.068 C 
HETATM   10  C9  UNL     1     -45.168 -20.690 -19.323  1.00  0.00     0.143 C 
ENDROOT
BRANCH  10  11
HETATM   11  O4  UNL     1     -44.314 -21.180 -20.326  1.00  0.00    -0.394 OA
ATOM     12  H4  UNL     1     -44.718 -21.095 -21.181  1.00  0.00     0.210 HD
ENDBRANCH  10  11
BRANCH   9  13
HETATM   13  C8  UNL     1     -46.730 -20.941 -21.211  1.00  0.00     0.173 C 
BRANCH  13  14
HETATM   14  O3  UNL     1     -46.145 -22.049 -21.797  1.00  0.00    -0.400 OA
ATOM     15  H3  UNL     1     -45.202 -22.025 -21.687  1.00  0.00     0.209 HD
ENDBRANCH  13  14
ENDBRANCH   9  13
BRANCH   8  16
HETATM   16  N2  UNL     1     -48.105 -22.873 -19.899  1.00  0.00    -0.293 N 
ATOM     17  H2  UNL     1     -48.880 -22.326 -20.275  1.00  0.00     0.174 HD
BRANCH  16  18
HETATM   18  S1  UNL     1     -47.992 -24.520 -20.217  1.00  0.00     0.313 S 
HETATM   19  O1  UNL     1     -47.264 -25.284 -19.118  1.00  0.00    -0.183 OA
HETATM   20  O2  UNL     1     -49.337 -25.140 -20.482  1.00  0.00    -0.183 OA
BRANCH  18  21
HETATM   21  N3  UNL     1     -47.050 -24.765 -21.642  1.00  0.00    -0.312 N 
ATOM     22  H32 UNL     1     -47.135 -24.210 -22.494  1.00  0.00     0.170 HD
ATOM     23  H31 UNL     1     -46.407 -25.543 -21.493  1.00  0.00     0.170 HD
ENDBRANCH  18  21
ENDBRANCH  16  18
ENDBRANCH   8  16
TORSDOF 6
ENDMDL
MODEL 4
REMARK VINA RESULT: -5.315383513      3.141      5.518
REMARK  6 active torsions:
REMARK  status: ('A' for Active; 'I' for Inactive)
REMARK    1  A    between atoms: C6_8  and  N2_9 
REMARK    2  A    between atoms: N2_9  and  S1_11 
REMARK    3  A    between atoms: S1_11  and  N3_12 
REMARK    4  A    between atoms: C7_17  and  C8_18 
REMARK    5  A    between atoms: C8_18  and  O3_19 
REMARK    6  A    between atoms: C9_21  and  O4_22 
ROOT
HETATM    1  C1  UNL     1     -49.092 -24.944 -20.008  1.00  0.00     0.012 C 
HETATM    2  C2  UNL     1     -48.248 -24.095 -19.850  1.00  0.00    -0.108 C 
HETATM    3  C3  UNL     1     -47.223 -23.042 -19.675  1.00  0.00     0.111 C 
HETATM    4  C4  UNL     1     -47.294 -22.177 -20.910  1.00  0.00     0.138 C 
HETATM    5  N1  UNL     1     -46.171 -21.288 -20.997  1.00  0.00    -0.399 N 
ATOM      6  H1  UNL     1     -46.002 -20.937 -21.938  1.00  0.00     0.158 HD
HETATM    7  C5  UNL     1     -45.341 -20.848 -20.129  1.00  0.00     0.082 C 
HETATM    8  C6  UNL     1     -45.347 -21.195 -18.676  1.00  0.00     0.141 C 
HETATM    9  C7  UNL     1     -46.750 -21.050 -18.197  1.00  0.00     0.068 C 
HETATM   10  C9  UNL     1     -47.609 -22.260 -18.473  1.00  0.00     0.143 C 
ENDROOT
BRANCH  10  11
HETATM   11  O4  UNL     1     -47.612 -23.079 -17.331  1.00  0.00    -0.394 OA
ATOM     12  H4  UNL     1     -48.113 -22.675 -16.631  1.00  0.00     0.210 HD
ENDBRANCH  10  11
BRANCH   9  13
HETATM   13  C8  UNL     1     -46.863 -20.677 -16.740  1.00  0.00     0.173 C 
BRANCH  13  14
HETATM   14  O3  UNL     1     -45.876 -21.301 -16.000  1.00  0.00    -0.400 OA
ATOM     15  H3  UNL     1     -45.082 -20.780 -15.996  1.00  0.00     0.209 HD
ENDBRANCH  13  14
ENDBRANCH   9  13
BRANCH   8  16
HETATM   16  N2  UNL     1     -44.432 -20.439 -17.913  1.00  0.00    -0.293 N 
ATOM     17  H2  UNL     1     -44.763 -19.819 -17.173  1.00  0.00     0.174 HD
BRANCH  16  18
HETATM   18  S1  UNL     1     -42.789 -20.573 -18.241  1.00  0.00     0.313 S 
HETATM   19  O1  UNL     1     -42.431 -20.126 -19.653  1.00  0.00    -0.183 OA
HETATM   20  O2  UNL     1     -41.948 -19.841 -17.231  1.00  0.00    -0.183 OA
BRANCH  18  21
HETATM   21  N3  UNL     1     -42.322 -22.232 -18.157  1.00  0.00    -0.312 N 
ATOM     22  H32 UNL     1     -42.963 -23.005 -17.977  1.00  0.00     0.170 HD
ATOM     23  H31 UNL     1     -41.316 -22.310 -18.313  1.00  0.00     0.170 HD
ENDBRANCH  18  21
ENDBRANCH  16  18
ENDBRANCH   8  16
TORSDOF 6
ENDMDL
MODEL 5
REMARK VINA RESULT: -5.101124027      1.104      1.610
REMARK  6 active torsions:
REMARK  status: ('A' for Active; 'I' for Inactive)
REMARK    1  A    between atoms: C6_8  and  N2_9 
REMARK    2  A    between atoms: N2_9  and  S1_11 
REMARK    3  A    between atoms: S1_11  and  N3_12 
REMARK    4  A    between atoms: C7_17  and  C8_18 
REMARK    5  A    between atoms: C8_18  and  O3_19 
REMARK    6  A    between atoms: C9_21  and  O4_22 
ROOT
HETATM    1  C1  UNL     1     -42.062 -20.344 -17.736  1.00  0.00     0.012 C 
HETATM    2  C2  UNL     1     -43.203 -20.709 -17.889  1.00  0.00    -0.108 C 
HETATM    3  C3  UNL     1     -44.609 -21.137 -18.064  1.00  0.00     0.111 C 
HETATM    4  C4  UNL     1     -45.411 -20.372 -17.040  1.00  0.00     0.138 C 
HETATM    5  N1  UNL     1     -46.741 -20.894 -16.913  1.00  0.00    -0.399 N 
ATOM      6  H1  UNL     1     -47.196 -20.643 -16.036  1.00  0.00     0.158 HD
HETATM    7  C5  UNL     1     -47.471 -21.612 -17.681  1.00  0.00     0.082 C 
HETATM    8  C6  UNL     1     -47.064 -22.125 -19.023  1.00  0.00     0.141 C 
HETATM    9  C7  UNL     1     -46.465 -20.982 -19.767  1.00  0.00     0.068 C 
HETATM   10  C9  UNL     1     -45.013 -20.743 -19.437  1.00  0.00     0.143 C 
ENDROOT
BRANCH  10  11
HETATM   11  O4  UNL     1     -44.221 -21.401 -20.394  1.00  0.00    -0.394 OA
ATOM     12  H4  UNL     1     -43.920 -20.791 -21.056  1.00  0.00     0.210 HD
ENDBRANCH  10  11
BRANCH   9  13
HETATM   13  C8  UNL     1     -46.632 -21.073 -21.264  1.00  0.00     0.173 C 
BRANCH  13  14
HETATM   14  O3  UNL     1     -46.030 -19.995 -21.887  1.00  0.00    -0.400 OA
ATOM     15  H3  UNL     1     -45.902 -20.172 -22.811  1.00  0.00     0.209 HD
ENDBRANCH  13  14
ENDBRANCH   9  13
BRANCH   8  16
HETATM   16  N2  UNL     1     -48.117 -22.743 -19.732  1.00  0.00    -0.293 N 
ATOM     17  H2  UNL     1     -48.636 -22.226 -20.442  1.00  0.00     0.174 HD
BRANCH  16  18
HETATM   18  S1  UNL     1     -48.505 -24.342 -19.389  1.00  0.00     0.313 S 
HETATM   19  O1  UNL     1     -49.499 -24.934 -20.381  1.00  0.00    -0.183 OA
HETATM   20  O2  UNL     1     -47.282 -25.213 -19.291  1.00  0.00    -0.183 OA
BRANCH  18  21
HETATM   21  N3  UNL     1     -49.290 -24.425 -17.854  1.00  0.00    -0.312 N 
ATOM     22  H32 UNL     1     -49.479 -23.619 -17.258  1.00  0.00     0.170 HD
ATOM     23  H31 UNL     1     -49.529 -25.395 -17.648  1.00  0.00     0.170 HD
ENDBRANCH  18  21
ENDBRANCH  16  18
ENDBRANCH   8  16
TORSDOF 6
ENDMDL
