MODEL 1
REMARK VINA RESULT: -6.880431936      0.000      0.000
REMARK  11 active torsions:
REMARK  status: ('A' for Active; 'I' for Inactive)
REMARK    1  A    between atoms: C2_2  and  C3_3 
REMARK    2  A    between atoms: C3_3  and  C4_4 
REMARK    3  A    between atoms: C7_8  and  C9_10 
REMARK    4  A    between atoms: C9_10  and  C10_11 
REMARK    5  A    between atoms: C10_11  and  C11_12 
REMARK    6  A    between atoms: C11_12  and  C12_13 
REMARK    7  A    between atoms: C11_12  and  N1_17 
REMARK    8  A    between atoms: C12_13  and  O3_15 
REMARK    9  A    between atoms: N1_17  and  C15_19 
REMARK   10  A    between atoms: C15_19  and  C16_20 
REMARK   11  A    between atoms: C16_20  and  C17_21 
ROOT
HETATM    1  C4  UNL     1     -45.799  13.031  -8.961  1.00  0.00    -0.000 C 
HETATM    2  C5  UNL     1     -44.991  12.189  -8.007  1.00  0.00     0.084 C 
HETATM    3  C6  UNL     1     -44.119  13.067  -7.223  1.00  0.00     0.139 C 
HETATM    4  O1  UNL     1     -42.954  12.776  -7.069  1.00  0.00    -0.297 OA
HETATM    5  C7  UNL     1     -44.578  14.362  -6.563  1.00  0.00     0.038 C 
HETATM    6  C8  UNL     1     -43.343  15.208  -6.450  1.00  0.00     0.028 C 
HETATM    7  C19 UNL     1     -45.558  15.017  -7.494  1.00  0.00     0.005 C 
HETATM    8  C20 UNL     1     -46.993  14.940  -7.149  1.00  0.00     0.012 C 
HETATM    9  C21 UNL     1     -45.436  14.468  -8.936  1.00  0.00    -0.009 C 
HETATM   10  C22 UNL     1     -44.191  14.890  -9.610  1.00  0.00     0.011 C 
ENDROOT
BRANCH   5  11
HETATM   11  C9  UNL     1     -45.100  13.945  -5.249  1.00  0.00    -0.011 C 
BRANCH  11  12
HETATM   12  C10 UNL     1     -45.554  12.582  -4.979  1.00  0.00     0.016 C 
BRANCH  12  13
HETATM   13  C11 UNL     1     -46.446  12.249  -3.861  1.00  0.00     0.343 C 
BRANCH  13  14
HETATM   14  C12 UNL     1     -45.802  12.033  -2.554  1.00  0.00     0.296 C 
HETATM   15  O2  UNL     1     -45.029  11.126  -2.243  1.00  0.00    -0.262 OA
BRANCH  14  16
HETATM   16  O3  UNL     1     -46.080  12.948  -1.512  1.00  0.00    -0.325 OA
HETATM   17  C13 UNL     1     -45.196  14.010  -1.201  1.00  0.00     0.213 C 
ENDBRANCH  14  16
ENDBRANCH  13  14
BRANCH  13  18
HETATM   18  N1  UNL     1     -47.317  11.126  -4.208  1.00  0.00     0.102 N 
HETATM   19  C14 UNL     1     -47.409  10.917  -5.618  1.00  0.00     0.311 C 
BRANCH  18  20
HETATM   20  C15 UNL     1     -48.574  11.097  -3.588  1.00  0.00     0.273 C 
BRANCH  20  21
HETATM   21  C16 UNL     1     -48.956   9.906  -2.781  1.00  0.00     0.030 C 
BRANCH  21  22
HETATM   22  C17 UNL     1     -50.186   9.234  -3.274  1.00  0.00    -0.003 C 
HETATM   23  C18 UNL     1     -50.834   9.916  -4.413  1.00  0.00     0.005 C 
ENDBRANCH  21  22
ENDBRANCH  20  21
ENDBRANCH  18  20
ENDBRANCH  13  18
ENDBRANCH  12  13
ENDBRANCH  11  12
ENDBRANCH   5  11
BRANCH   1  24
HETATM   24  C3  UNL     1     -45.983  12.456 -10.312  1.00  0.00     0.031 C 
BRANCH  24  25
HETATM   25  C2  UNL     1     -47.340  12.071 -10.706  1.00  0.00    -0.037 C 
HETATM   26  C1  UNL     1     -47.595  11.702 -11.945  1.00  0.00     0.007 C 
ENDBRANCH  24  25
ENDBRANCH   1  24
TORSDOF 11
ENDMDL
MODEL 2
REMARK VINA RESULT: -6.761722097      1.202      1.696
REMARK  11 active torsions:
REMARK  status: ('A' for Active; 'I' for Inactive)
REMARK    1  A    between atoms: C2_2  and  C3_3 
REMARK    2  A    between atoms: C3_3  and  C4_4 
REMARK    3  A    between atoms: C7_8  and  C9_10 
REMARK    4  A    between atoms: C9_10  and  C10_11 
REMARK    5  A    between atoms: C10_11  and  C11_12 
REMARK    6  A    between atoms: C11_12  and  C12_13 
REMARK    7  A    between atoms: C11_12  and  N1_17 
REMARK    8  A    between atoms: C12_13  and  O3_15 
REMARK    9  A    between atoms: N1_17  and  C15_19 
REMARK   10  A    between atoms: C15_19  and  C16_20 
REMARK   11  A    between atoms: C16_20  and  C17_21 
ROOT
HETATM    1  C4  UNL     1     -46.063  12.849  -9.059  1.00  0.00    -0.000 C 
HETATM    2  C5  UNL     1     -45.548  11.700  -8.229  1.00  0.00     0.084 C 
HETATM    3  C6  UNL     1     -44.811  12.239  -7.083  1.00  0.00     0.139 C 
HETATM    4  O1  UNL     1     -43.732  11.773  -6.790  1.00  0.00    -0.297 OA
HETATM    5  C7  UNL     1     -45.311  13.376  -6.200  1.00  0.00     0.038 C 
HETATM    6  C8  UNL     1     -44.074  14.004  -5.625  1.00  0.00     0.028 C 
HETATM    7  C19 UNL     1     -46.012  14.361  -7.092  1.00  0.00     0.005 C 
HETATM    8  C20 UNL     1     -47.489  14.383  -7.066  1.00  0.00     0.012 C 
HETATM    9  C21 UNL     1     -45.613  14.176  -8.576  1.00  0.00    -0.009 C 
HETATM   10  C22 UNL     1     -44.224  14.592  -8.856  1.00  0.00     0.011 C 
ENDROOT
BRANCH   5  11
HETATM   11  C9  UNL     1     -46.139  12.715  -5.176  1.00  0.00    -0.011 C 
BRANCH  11  12
HETATM   12  C10 UNL     1     -45.588  12.230  -3.912  1.00  0.00     0.016 C 
BRANCH  12  13
HETATM   13  C11 UNL     1     -46.134  12.621  -2.606  1.00  0.00     0.343 C 
BRANCH  13  14
HETATM   14  C12 UNL     1     -45.261  13.446  -1.753  1.00  0.00     0.296 C 
HETATM   15  O2  UNL     1     -45.565  14.018  -0.706  1.00  0.00    -0.262 OA
BRANCH  14  16
HETATM   16  O3  UNL     1     -43.915  13.626  -2.150  1.00  0.00    -0.325 OA
HETATM   17  C13 UNL     1     -43.269  14.881  -2.035  1.00  0.00     0.213 C 
ENDBRANCH  14  16
ENDBRANCH  13  14
BRANCH  13  18
HETATM   18  N1  UNL     1     -46.625  11.451  -1.876  1.00  0.00     0.102 N 
HETATM   19  C14 UNL     1     -45.580  10.745  -1.205  1.00  0.00     0.311 C 
BRANCH  18  20
HETATM   20  C15 UNL     1     -47.476  10.589  -2.581  1.00  0.00     0.273 C 
BRANCH  20  21
HETATM   21  C16 UNL     1     -48.899  10.979  -2.778  1.00  0.00     0.030 C 
BRANCH  21  22
HETATM   22  C17 UNL     1     -49.831   9.823  -2.771  1.00  0.00    -0.003 C 
HETATM   23  C18 UNL     1     -50.517   9.589  -4.060  1.00  0.00     0.005 C 
ENDBRANCH  21  22
ENDBRANCH  20  21
ENDBRANCH  18  20
ENDBRANCH  13  18
ENDBRANCH  12  13
ENDBRANCH  11  12
ENDBRANCH   5  11
BRANCH   1  24
HETATM   24  C3  UNL     1     -45.985  12.656 -10.524  1.00  0.00     0.031 C 
BRANCH  24  25
HETATM   25  C2  UNL     1     -47.244  12.490 -11.254  1.00  0.00    -0.037 C 
HETATM   26  C1  UNL     1     -47.493  11.372 -11.907  1.00  0.00     0.007 C 
ENDBRANCH  24  25
ENDBRANCH   1  24
TORSDOF 11
ENDMDL
MODEL 3
REMARK VINA RESULT: -6.749442490      1.831      2.691
REMARK  11 active torsions:
REMARK  status: ('A' for Active; 'I' for Inactive)
REMARK    1  A    between atoms: C2_2  and  C3_3 
REMARK    2  A    between atoms: C3_3  and  C4_4 
REMARK    3  A    between atoms: C7_8  and  C9_10 
REMARK    4  A    between atoms: C9_10  and  C10_11 
REMARK    5  A    between atoms: C10_11  and  C11_12 
REMARK    6  A    between atoms: C11_12  and  C12_13 
REMARK    7  A    between atoms: C11_12  and  N1_17 
REMARK    8  A    between atoms: C12_13  and  O3_15 
REMARK    9  A    between atoms: N1_17  and  C15_19 
REMARK   10  A    between atoms: C15_19  and  C16_20 
REMARK   11  A    between atoms: C16_20  and  C17_21 
ROOT
HETATM    1  C4  UNL     1     -46.181  12.887  -9.148  1.00  0.00    -0.000 C 
HETATM    2  C5  UNL     1     -45.700  11.838  -8.178  1.00  0.00     0.084 C 
HETATM    3  C6  UNL     1     -44.957  12.497  -7.101  1.00  0.00     0.139 C 
HETATM    4  O1  UNL     1     -43.891  12.046  -6.742  1.00  0.00    -0.297 OA
HETATM    5  C7  UNL     1     -45.434  13.746  -6.370  1.00  0.00     0.038 C 
HETATM    6  C8  UNL     1     -44.186  14.412  -5.865  1.00  0.00     0.028 C 
HETATM    7  C19 UNL     1     -46.106  14.629  -7.383  1.00  0.00     0.005 C 
HETATM    8  C20 UNL     1     -47.582  14.689  -7.373  1.00  0.00     0.012 C 
HETATM    9  C21 UNL     1     -45.702  14.253  -8.829  1.00  0.00    -0.009 C 
HETATM   10  C22 UNL     1     -44.302  14.598  -9.146  1.00  0.00     0.011 C 
ENDROOT
BRANCH   5  11
HETATM   11  C9  UNL     1     -46.284  13.236  -5.279  1.00  0.00    -0.011 C 
BRANCH  11  12
HETATM   12  C10 UNL     1     -45.922  12.068  -4.480  1.00  0.00     0.016 C 
BRANCH  12  13
HETATM   13  C11 UNL     1     -46.857  10.967  -4.214  1.00  0.00     0.343 C 
BRANCH  13  14
HETATM   14  C12 UNL     1     -47.739  10.575  -5.327  1.00  0.00     0.296 C 
HETATM   15  O2  UNL     1     -48.524  11.294  -5.946  1.00  0.00    -0.262 OA
BRANCH  14  16
HETATM   16  O3  UNL     1     -47.711   9.229  -5.761  1.00  0.00    -0.325 OA
HETATM   17  C13 UNL     1     -48.716   8.306  -5.385  1.00  0.00     0.213 C 
ENDBRANCH  14  16
ENDBRANCH  13  14
BRANCH  13  18
HETATM   18  N1  UNL     1     -47.630  11.222  -2.998  1.00  0.00     0.102 N 
HETATM   19  C14 UNL     1     -46.838  11.791  -1.954  1.00  0.00     0.311 C 
BRANCH  18  20
HETATM   20  C15 UNL     1     -48.433  10.171  -2.537  1.00  0.00     0.273 C 
BRANCH  20  21
HETATM   21  C16 UNL     1     -49.911  10.346  -2.513  1.00  0.00     0.030 C 
BRANCH  21  22
HETATM   22  C17 UNL     1     -50.347  11.711  -2.904  1.00  0.00    -0.003 C 
HETATM   23  C18 UNL     1     -50.969  12.485  -1.808  1.00  0.00     0.005 C 
ENDBRANCH  21  22
ENDBRANCH  20  21
ENDBRANCH  18  20
ENDBRANCH  13  18
ENDBRANCH  12  13
ENDBRANCH  11  12
ENDBRANCH   5  11
BRANCH   1  24
HETATM   24  C3  UNL     1     -46.099  12.513 -10.577  1.00  0.00     0.031 C 
BRANCH  24  25
HETATM   25  C2  UNL     1     -47.351  12.444 -11.334  1.00  0.00    -0.037 C 
HETATM   26  C1  UNL     1     -47.660  11.359 -12.014  1.00  0.00     0.007 C 
ENDBRANCH  24  25
ENDBRANCH   1  24
TORSDOF 11
ENDMDL
MODEL 4
REMARK VINA RESULT: -6.574026219      4.454      8.346
REMARK  11 active torsions:
REMARK  status: ('A' for Active; 'I' for Inactive)
REMARK    1  A    between atoms: C2_2  and  C3_3 
REMARK    2  A    between atoms: C3_3  and  C4_4 
REMARK    3  A    between atoms: C7_8  and  C9_10 
REMARK    4  A    between atoms: C9_10  and  C10_11 
REMARK    5  A    between atoms: C10_11  and  C11_12 
REMARK    6  A    between atoms: C11_12  and  C12_13 
REMARK    7  A    between atoms: C11_12  and  N1_17 
REMARK    8  A    between atoms: C12_13  and  O3_15 
REMARK    9  A    between atoms: N1_17  and  C15_19 
REMARK   10  A    between atoms: C15_19  and  C16_20 
REMARK   11  A    between atoms: C16_20  and  C17_21 
ROOT
HETATM    1  C4  UNL     1     -46.782  12.326  -7.655  1.00  0.00    -0.000 C 
HETATM    2  C5  UNL     1     -46.858  13.632  -6.905  1.00  0.00     0.084 C 
HETATM    3  C6  UNL     1     -45.548  14.286  -6.962  1.00  0.00     0.139 C 
HETATM    4  O1  UNL     1     -45.068  14.758  -5.955  1.00  0.00    -0.297 OA
HETATM    5  C7  UNL     1     -44.715  14.427  -8.230  1.00  0.00     0.038 C 
HETATM    6  C8  UNL     1     -43.294  14.540  -7.760  1.00  0.00     0.028 C 
HETATM    7  C19 UNL     1     -44.888  13.162  -9.022  1.00  0.00     0.005 C 
HETATM    8  C20 UNL     1     -45.763  13.210 -10.212  1.00  0.00     0.012 C 
HETATM    9  C21 UNL     1     -45.421  12.004  -8.146  1.00  0.00    -0.009 C 
HETATM   10  C22 UNL     1     -44.423  11.509  -7.175  1.00  0.00     0.011 C 
ENDROOT
BRANCH   5  11
HETATM   11  C9  UNL     1     -45.203  15.667  -8.860  1.00  0.00    -0.011 C 
BRANCH  11  12
HETATM   12  C10 UNL     1     -44.306  16.648  -9.466  1.00  0.00     0.016 C 
BRANCH  12  13
HETATM   13  C11 UNL     1     -44.088  17.984  -8.897  1.00  0.00     0.343 C 
BRANCH  13  14
HETATM   14  C12 UNL     1     -44.874  19.082  -9.487  1.00  0.00     0.296 C 
HETATM   15  O2  UNL     1     -45.426  19.097 -10.588  1.00  0.00    -0.262 OA
BRANCH  14  16
HETATM   16  O3  UNL     1     -45.033  20.269  -8.735  1.00  0.00    -0.325 OA
HETATM   17  C13 UNL     1     -45.590  21.440  -9.304  1.00  0.00     0.213 C 
ENDBRANCH  14  16
ENDBRANCH  13  14
BRANCH  13  18
HETATM   18  N1  UNL     1     -42.663  18.314  -8.875  1.00  0.00     0.102 N 
HETATM   19  C14 UNL     1     -42.114  18.287  -7.556  1.00  0.00     0.311 C 
BRANCH  18  20
HETATM   20  C15 UNL     1     -42.276  19.459  -9.583  1.00  0.00     0.273 C 
BRANCH  20  21
HETATM   21  C16 UNL     1     -41.472  20.502  -8.890  1.00  0.00     0.030 C 
BRANCH  21  22
HETATM   22  C17 UNL     1     -41.589  21.845  -9.514  1.00  0.00    -0.003 C 
HETATM   23  C18 UNL     1     -41.964  22.920  -8.571  1.00  0.00     0.005 C 
ENDBRANCH  21  22
ENDBRANCH  20  21
ENDBRANCH  18  20
ENDBRANCH  13  18
ENDBRANCH  12  13
ENDBRANCH  11  12
ENDBRANCH   5  11
BRANCH   1  24
HETATM   24  C3  UNL     1     -47.508  11.197  -7.034  1.00  0.00     0.031 C 
BRANCH  24  25
HETATM   25  C2  UNL     1     -47.807  11.287  -5.603  1.00  0.00    -0.037 C 
HETATM   26  C1  UNL     1     -48.784  10.574  -5.080  1.00  0.00     0.007 C 
ENDBRANCH  24  25
ENDBRANCH   1  24
TORSDOF 11
ENDMDL
MODEL 5
REMARK VINA RESULT: -6.560419910      3.990      7.849
REMARK  11 active torsions:
REMARK  status: ('A' for Active; 'I' for Inactive)
REMARK    1  A    between atoms: C2_2  and  C3_3 
REMARK    2  A    between atoms: C3_3  and  C4_4 
REMARK    3  A    between atoms: C7_8  and  C9_10 
REMARK    4  A    between atoms: C9_10  and  C10_11 
REMARK    5  A    between atoms: C10_11  and  C11_12 
REMARK    6  A    between atoms: C11_12  and  C12_13 
REMARK    7  A    between atoms: C11_12  and  N1_17 
REMARK    8  A    between atoms: C12_13  and  O3_15 
REMARK    9  A    between atoms: N1_17  and  C15_19 
REMARK   10  A    between atoms: C15_19  and  C16_20 
REMARK   11  A    between atoms: C16_20  and  C17_21 
ROOT
HETATM    1  C4  UNL     1     -46.909  12.437  -7.774  1.00  0.00    -0.000 C 
HETATM    2  C5  UNL     1     -46.932  13.758  -7.047  1.00  0.00     0.084 C 
HETATM    3  C6  UNL     1     -45.583  14.330  -7.066  1.00  0.00     0.139 C 
HETATM    4  O1  UNL     1     -45.111  14.789  -6.049  1.00  0.00    -0.297 OA
HETATM    5  C7  UNL     1     -44.698  14.398  -8.305  1.00  0.00     0.038 C 
HETATM    6  C8  UNL     1     -43.290  14.432  -7.784  1.00  0.00     0.028 C 
HETATM    7  C19 UNL     1     -44.920  13.132  -9.083  1.00  0.00     0.005 C 
HETATM    8  C20 UNL     1     -45.747  13.211 -10.305  1.00  0.00     0.012 C 
HETATM    9  C21 UNL     1     -45.554  12.024  -8.209  1.00  0.00    -0.009 C 
HETATM   10  C22 UNL     1     -44.624  11.486  -7.195  1.00  0.00     0.011 C 
ENDROOT
BRANCH   5  11
HETATM   11  C9  UNL     1     -45.087  15.654  -8.971  1.00  0.00    -0.011 C 
BRANCH  11  12
HETATM   12  C10 UNL     1     -44.119  16.692  -9.319  1.00  0.00     0.016 C 
BRANCH  12  13
HETATM   13  C11 UNL     1     -44.189  18.056  -8.780  1.00  0.00     0.343 C 
BRANCH  13  14
HETATM   14  C12 UNL     1     -45.026  19.011  -9.527  1.00  0.00     0.296 C 
HETATM   15  O2  UNL     1     -45.456  18.889 -10.675  1.00  0.00    -0.262 OA
BRANCH  14  16
HETATM   16  O3  UNL     1     -45.397  20.218  -8.888  1.00  0.00    -0.325 OA
HETATM   17  C13 UNL     1     -45.596  21.414  -9.618  1.00  0.00     0.213 C 
ENDBRANCH  14  16
ENDBRANCH  13  14
BRANCH  13  18
HETATM   18  N1  UNL     1     -42.848  18.597  -8.558  1.00  0.00     0.102 N 
HETATM   19  C14 UNL     1     -42.410  19.435  -9.628  1.00  0.00     0.311 C 
BRANCH  18  20
HETATM   20  C15 UNL     1     -41.863  17.680  -8.168  1.00  0.00     0.273 C 
BRANCH  20  21
HETATM   21  C16 UNL     1     -40.435  18.102  -8.181  1.00  0.00     0.030 C 
BRANCH  21  22
HETATM   22  C17 UNL     1     -39.486  16.967  -8.049  1.00  0.00    -0.003 C 
HETATM   23  C18 UNL     1     -39.863  15.769  -8.830  1.00  0.00     0.005 C 
ENDBRANCH  21  22
ENDBRANCH  20  21
ENDBRANCH  18  20
ENDBRANCH  13  18
ENDBRANCH  12  13
ENDBRANCH  11  12
ENDBRANCH   5  11
BRANCH   1  24
HETATM   24  C3  UNL     1     -47.724  11.364  -7.162  1.00  0.00     0.031 C 
BRANCH  24  25
HETATM   25  C2  UNL     1     -47.838  11.347  -5.702  1.00  0.00    -0.037 C 
HETATM   26  C1  UNL     1     -48.773  10.627  -5.115  1.00  0.00     0.007 C 
ENDBRANCH  24  25
ENDBRANCH   1  24
TORSDOF 11
ENDMDL
