MODEL 1
REMARK VINA RESULT: -7.372420758      0.000      0.000
REMARK  4 active torsions:
REMARK  status: ('A' for Active; 'I' for Inactive)
REMARK    1  A    between atoms: N1_1  and  N2_4 
REMARK    2  A    between atoms: C1_6  and  O1_7 
REMARK    3  A    between atoms: C1_6  and  N3_9 
REMARK    4  A    between atoms: N4_11  and  C2_13 
ROOT
HETATM    1  N3  UNL     1      21.076 126.108  -9.341  1.00  0.00    -0.263 N 
ATOM      2  H3  UNL     1      20.698 126.888  -9.879  1.00  0.00     0.190 HD
HETATM    3  N4  UNL     1      20.652 124.970  -9.634  1.00  0.00    -0.290 N 
ATOM      4  H4  UNL     1      19.965 124.918 -10.387  1.00  0.00     0.187 HD
ENDROOT
BRANCH   3   5
HETATM    5  C2  UNL     1      21.023 123.756  -9.036  1.00  0.00     0.158 A 
HETATM    6  C3  UNL     1      20.423 123.344  -7.864  1.00  0.00     0.154 A 
HETATM    7  N5  UNL     1      19.411 124.127  -7.218  1.00  0.00    -0.080 NA
HETATM    8  N6  UNL     1      20.809 122.181  -7.330  1.00  0.00    -0.295 N 
HETATM    9  C4  UNL     1      21.754 121.427  -7.912  1.00  0.00     0.328 A 
ATOM     10  H6  UNL     1      20.375 121.861  -6.464  1.00  0.00     0.172 HD
HETATM   11  O2  UNL     1      22.102 120.323  -7.381  1.00  0.00    -0.247 OA
HETATM   12  N7  UNL     1      22.372 121.789  -9.063  1.00  0.00    -0.273 N 
HETATM   13  C5  UNL     1      21.992 122.961  -9.614  1.00  0.00     0.281 A 
ATOM     14  H7  UNL     1      23.089 121.205  -9.492  1.00  0.00     0.173 HD
HETATM   15  O3  UNL     1      22.541 123.337 -10.686  1.00  0.00    -0.265 OA
ENDBRANCH   3   5
BRANCH   1  16
HETATM   16  C1  UNL     1      22.014 126.426  -8.354  1.00  0.00     0.250 C 
HETATM   17  N2  UNL     1      21.752 127.458  -7.590  1.00  0.00    -0.271 N 
ATOM     18  H2  UNL     1      20.886 127.972  -7.751  1.00  0.00     0.190 HD
BRANCH  17  19
HETATM   19  N1  UNL     1      22.586 127.883  -6.582  1.00  0.00    -0.342 N 
ATOM     20  H12 UNL     1      22.924 128.843  -6.627  1.00  0.00     0.176 HD
ATOM     21  H11 UNL     1      22.875 127.286  -5.806  1.00  0.00     0.176 HD
ENDBRANCH  17  19
BRANCH  16  22
HETATM   22  O1  UNL     1      23.193 125.738  -8.122  1.00  0.00    -0.330 OA
ATOM     23  H1  UNL     1      23.772 125.593  -8.862  1.00  0.00     0.221 HD
ENDBRANCH  16  22
ENDBRANCH   1  16
TORSDOF 4
ENDMDL
MODEL 2
REMARK VINA RESULT: -7.308237771      1.269      2.121
REMARK  4 active torsions:
REMARK  status: ('A' for Active; 'I' for Inactive)
REMARK    1  A    between atoms: N1_1  and  N2_4 
REMARK    2  A    between atoms: C1_6  and  O1_7 
REMARK    3  A    between atoms: C1_6  and  N3_9 
REMARK    4  A    between atoms: N4_11  and  C2_13 
ROOT
HETATM    1  N3  UNL     1      21.019 126.059  -9.331  1.00  0.00    -0.263 N 
ATOM      2  H3  UNL     1      20.601 126.836  -9.842  1.00  0.00     0.190 HD
HETATM    3  N4  UNL     1      20.580 124.918  -9.593  1.00  0.00    -0.290 N 
ATOM      4  H4  UNL     1      19.842 124.863 -10.295  1.00  0.00     0.187 HD
ENDROOT
BRANCH   3   5
HETATM    5  C2  UNL     1      20.997 123.707  -9.021  1.00  0.00     0.158 A 
HETATM    6  C3  UNL     1      22.037 122.993  -9.581  1.00  0.00     0.154 A 
HETATM    7  N5  UNL     1      22.724 123.453 -10.751  1.00  0.00    -0.080 NA
HETATM    8  N6  UNL     1      22.400 121.845  -9.002  1.00  0.00    -0.295 N 
HETATM    9  C4  UNL     1      21.775 121.389  -7.905  1.00  0.00     0.328 A 
ATOM     10  H6  UNL     1      23.168 121.304  -9.402  1.00  0.00     0.172 HD
HETATM   11  O2  UNL     1      22.142 120.291  -7.375  1.00  0.00    -0.247 OA
HETATM   12  N7  UNL     1      20.749 122.053  -7.320  1.00  0.00    -0.273 N 
HETATM   13  C5  UNL     1      20.372 123.216  -7.893  1.00  0.00     0.281 A 
ATOM     14  H7  UNL     1      20.284 121.693  -6.486  1.00  0.00     0.173 HD
HETATM   15  O3  UNL     1      19.421 123.868  -7.380  1.00  0.00    -0.265 OA
ENDBRANCH   3   5
BRANCH   1  16
HETATM   16  C1  UNL     1      22.023 126.382  -8.412  1.00  0.00     0.250 C 
HETATM   17  N2  UNL     1      21.833 127.442  -7.667  1.00  0.00    -0.271 N 
ATOM     18  H2  UNL     1      20.972 127.973  -7.792  1.00  0.00     0.190 HD
BRANCH  17  19
HETATM   19  N1  UNL     1      22.738 127.875  -6.725  1.00  0.00    -0.342 N 
ATOM     20  H12 UNL     1      22.468 127.793  -5.745  1.00  0.00     0.176 HD
ATOM     21  H11 UNL     1      23.649 128.266  -6.962  1.00  0.00     0.176 HD
ENDBRANCH  17  19
BRANCH  16  22
HETATM   22  O1  UNL     1      23.196 125.670  -8.230  1.00  0.00    -0.330 OA
ATOM     23  H1  UNL     1      23.124 124.747  -8.014  1.00  0.00     0.221 HD
ENDBRANCH  16  22
ENDBRANCH   1  16
TORSDOF 4
ENDMDL
MODEL 3
REMARK VINA RESULT: -7.301191864      1.469      1.666
REMARK  4 active torsions:
REMARK  status: ('A' for Active; 'I' for Inactive)
REMARK    1  A    between atoms: N1_1  and  N2_4 
REMARK    2  A    between atoms: C1_6  and  O1_7 
REMARK    3  A    between atoms: C1_6  and  N3_9 
REMARK    4  A    between atoms: N4_11  and  C2_13 
ROOT
HETATM    1  N3  UNL     1      21.194 125.441  -9.700  1.00  0.00    -0.263 N 
ATOM      2  H3  UNL     1      20.714 126.211 -10.166  1.00  0.00     0.190 HD
HETATM    3  N4  UNL     1      20.529 124.400  -9.513  1.00  0.00    -0.290 N 
ATOM      4  H4  UNL     1      19.564 124.408  -9.844  1.00  0.00     0.187 HD
ENDROOT
BRANCH   3   5
HETATM    5  C2  UNL     1      20.972 123.220  -8.897  1.00  0.00     0.158 A 
HETATM    6  C3  UNL     1      20.555 122.901  -7.621  1.00  0.00     0.154 A 
HETATM    7  N5  UNL     1      19.665 123.748  -6.884  1.00  0.00    -0.080 NA
HETATM    8  N6  UNL     1      21.003 121.767  -7.074  1.00  0.00    -0.295 N 
HETATM    9  C4  UNL     1      21.837 120.954  -7.740  1.00  0.00     0.328 A 
ATOM     10  H6  UNL     1      20.704 121.514  -6.132  1.00  0.00     0.172 HD
HETATM   11  O2  UNL     1      22.248 119.879  -7.194  1.00  0.00    -0.247 OA
HETATM   12  N7  UNL     1      22.275 121.224  -8.995  1.00  0.00    -0.273 N 
HETATM   13  C5  UNL     1      21.830 122.366  -9.560  1.00  0.00     0.281 A 
ATOM     14  H7  UNL     1      22.909 120.596  -9.487  1.00  0.00     0.173 HD
HETATM   15  O3  UNL     1      22.212 122.657 -10.727  1.00  0.00    -0.265 OA
ENDBRANCH   3   5
BRANCH   1  16
HETATM   16  C1  UNL     1      22.527 125.663  -9.337  1.00  0.00     0.250 C 
HETATM   17  N2  UNL     1      23.438 125.463 -10.257  1.00  0.00    -0.271 N 
ATOM     18  H2  UNL     1      23.134 125.161 -11.181  1.00  0.00     0.190 HD
BRANCH  17  19
HETATM   19  N1  UNL     1      24.784 125.643 -10.037  1.00  0.00    -0.342 N 
ATOM     20  H12 UNL     1      25.377 125.785 -10.854  1.00  0.00     0.176 HD
ATOM     21  H11 UNL     1      25.205 125.638  -9.108  1.00  0.00     0.176 HD
ENDBRANCH  17  19
BRANCH  16  22
HETATM   22  O1  UNL     1      22.955 126.075  -8.086  1.00  0.00    -0.330 OA
ATOM     23  H1  UNL     1      23.831 126.436  -8.017  1.00  0.00     0.221 HD
ENDBRANCH  16  22
ENDBRANCH   1  16
TORSDOF 4
ENDMDL
MODEL 4
REMARK VINA RESULT: -7.015741711      2.016      2.653
REMARK  4 active torsions:
REMARK  status: ('A' for Active; 'I' for Inactive)
REMARK    1  A    between atoms: N1_1  and  N2_4 
REMARK    2  A    between atoms: C1_6  and  O1_7 
REMARK    3  A    between atoms: C1_6  and  N3_9 
REMARK    4  A    between atoms: N4_11  and  C2_13 
ROOT
HETATM    1  N3  UNL     1      21.345 127.547  -8.994  1.00  0.00    -0.263 N 
ATOM      2  H3  UNL     1      21.360 128.356  -9.614  1.00  0.00     0.190 HD
HETATM    3  N4  UNL     1      21.328 126.423  -9.541  1.00  0.00    -0.290 N 
ATOM      4  H4  UNL     1      21.332 126.412 -10.561  1.00  0.00     0.187 HD
ENDROOT
BRANCH   3   5
HETATM    5  C2  UNL     1      21.305 125.177  -8.897  1.00  0.00     0.158 A 
HETATM    6  C3  UNL     1      22.446 124.404  -8.834  1.00  0.00     0.154 A 
HETATM    7  N5  UNL     1      23.684 124.836  -9.414  1.00  0.00    -0.080 NA
HETATM    8  N6  UNL     1      22.378 123.223  -8.211  1.00  0.00    -0.295 N 
HETATM    9  C4  UNL     1      21.233 122.792  -7.659  1.00  0.00     0.328 A 
ATOM     10  H6  UNL     1      23.212 122.639  -8.154  1.00  0.00     0.172 HD
HETATM   11  O2  UNL     1      21.196 121.663  -7.072  1.00  0.00    -0.247 OA
HETATM   12  N7  UNL     1      20.086 123.515  -7.696  1.00  0.00    -0.273 N 
HETATM   13  C5  UNL     1      20.141 124.710  -8.321  1.00  0.00     0.281 A 
ATOM     14  H7  UNL     1      19.224 123.173  -7.272  1.00  0.00     0.173 HD
HETATM   15  O3  UNL     1      19.097 125.417  -8.378  1.00  0.00    -0.265 OA
ENDBRANCH   3   5
BRANCH   1  16
HETATM   16  C1  UNL     1      21.345 127.812  -7.620  1.00  0.00     0.250 C 
HETATM   17  N2  UNL     1      22.498 128.100  -7.068  1.00  0.00    -0.271 N 
ATOM     18  H2  UNL     1      23.327 128.117  -7.660  1.00  0.00     0.190 HD
BRANCH  17  19
HETATM   19  N1  UNL     1      22.644 128.381  -5.728  1.00  0.00    -0.342 N 
ATOM     20  H12 UNL     1      22.406 129.323  -5.419  1.00  0.00     0.176 HD
ATOM     21  H11 UNL     1      22.975 127.699  -5.046  1.00  0.00     0.176 HD
ENDBRANCH  17  19
BRANCH  16  22
HETATM   22  O1  UNL     1      20.228 127.794  -6.803  1.00  0.00    -0.330 OA
ATOM     23  H1  UNL     1      19.375 127.807  -7.222  1.00  0.00     0.221 HD
ENDBRANCH  16  22
ENDBRANCH   1  16
TORSDOF 4
ENDMDL
MODEL 5
REMARK VINA RESULT: -6.923700880      2.078      4.866
REMARK  4 active torsions:
REMARK  status: ('A' for Active; 'I' for Inactive)
REMARK    1  A    between atoms: N1_1  and  N2_4 
REMARK    2  A    between atoms: C1_6  and  O1_7 
REMARK    3  A    between atoms: C1_6  and  N3_9 
REMARK    4  A    between atoms: N4_11  and  C2_13 
ROOT
HETATM    1  N3  UNL     1      20.788 122.361  -9.489  1.00  0.00    -0.263 N 
ATOM      2  H3  UNL     1      20.429 121.695 -10.173  1.00  0.00     0.190 HD
HETATM    3  N4  UNL     1      20.751 123.568  -9.810  1.00  0.00    -0.290 N 
ATOM      4  H4  UNL     1      20.365 123.785 -10.729  1.00  0.00     0.187 HD
ENDROOT
BRANCH   3   5
HETATM    5  C2  UNL     1      21.186 124.656  -9.038  1.00  0.00     0.158 A 
HETATM    6  C3  UNL     1      22.521 125.004  -9.012  1.00  0.00     0.154 A 
HETATM    7  N5  UNL     1      23.504 124.280  -9.762  1.00  0.00    -0.080 NA
HETATM    8  N6  UNL     1      22.889 126.047  -8.262  1.00  0.00    -0.295 N 
HETATM    9  C4  UNL     1      21.990 126.743  -7.549  1.00  0.00     0.328 A 
ATOM     10  H6  UNL     1      23.871 126.319  -8.232  1.00  0.00     0.172 HD
HETATM   11  O2  UNL     1      22.369 127.733  -6.843  1.00  0.00    -0.247 OA
HETATM   12  N7  UNL     1      20.669 126.440  -7.541  1.00  0.00    -0.273 N 
HETATM   13  C5  UNL     1      20.283 125.389  -8.295  1.00  0.00     0.281 A 
ATOM     14  H7  UNL     1      19.999 126.980  -6.993  1.00  0.00     0.173 HD
HETATM   15  O3  UNL     1      19.062 125.072  -8.318  1.00  0.00    -0.265 OA
ENDBRANCH   3   5
BRANCH   1  16
HETATM   16  C1  UNL     1      21.269 121.825  -8.289  1.00  0.00     0.250 C 
HETATM   17  N2  UNL     1      22.100 120.816  -8.376  1.00  0.00    -0.271 N 
ATOM     18  H2  UNL     1      22.352 120.476  -9.302  1.00  0.00     0.190 HD
BRANCH  17  19
HETATM   19  N1  UNL     1      22.649 120.194  -7.278  1.00  0.00    -0.342 N 
ATOM     20  H12 UNL     1      23.110 120.784  -6.586  1.00  0.00     0.176 HD
ATOM     21  H11 UNL     1      22.613 119.185  -7.131  1.00  0.00     0.176 HD
ENDBRANCH  17  19
BRANCH  16  22
HETATM   22  O1  UNL     1      20.936 122.278  -7.024  1.00  0.00    -0.330 OA
ATOM     23  H1  UNL     1      20.676 121.631  -6.378  1.00  0.00     0.221 HD
ENDBRANCH  16  22
ENDBRANCH   1  16
TORSDOF 4
ENDMDL
