MODEL 1
REMARK VINA RESULT: -6.720089338      0.000      0.000
REMARK  4 active torsions:
REMARK  status: ('A' for Active; 'I' for Inactive)
REMARK    1  A    between atoms: C3_4  and  N2_5 
REMARK    2  A    between atoms: C4_10  and  N4_11 
REMARK    3  A    between atoms: C5_16  and  N6_17 
REMARK    4  A    between atoms: N6_17  and  N7_19 
ROOT
HETATM    1  N1  UNL     1      19.730 123.485  -6.922  1.00  0.00    -0.191 NA
HETATM    2  C1  UNL     1      20.528 123.645  -7.770  1.00  0.00     0.107 C 
HETATM    3  C2  UNL     1      21.507 123.811  -8.810  1.00  0.00     0.141 A 
HETATM    4  C3  UNL     1      21.863 125.083  -9.196  1.00  0.00     0.212 A 
HETATM    5  N3  UNL     1      22.798 125.177 -10.188  1.00  0.00    -0.169 N 
ATOM      6  H3  UNL     1      23.083 126.105 -10.498  1.00  0.00     0.186 HD
HETATM    7  C4  UNL     1      23.357 124.109 -10.774  1.00  0.00     0.679 A 
HETATM    8  N5  UNL     1      22.988 122.880 -10.374  1.00  0.00    -0.174 N 
ATOM      9  H5  UNL     1      23.412 122.066 -10.819  1.00  0.00     0.186 HD
HETATM   10  C5  UNL     1      22.091 122.695  -9.421  1.00  0.00     0.160 A 
ENDROOT
BRANCH   4  11
HETATM   11  N2  UNL     1      21.322 126.260  -8.629  1.00  0.00    -0.096 N 
HETATM   12  O1  UNL     1      20.306 126.796  -9.057  1.00  0.00    -0.530 OA
HETATM   13  O2  UNL     1      21.956 126.830  -7.557  1.00  0.00    -0.530 OA
ENDBRANCH   4  11
BRANCH  10  14
HETATM   14  N6  UNL     1      21.694 121.554  -8.992  1.00  0.00    -0.290 N 
ATOM     15  H6  UNL     1      20.798 121.215  -9.343  1.00  0.00     0.188 HD
BRANCH  14  16
HETATM   16  N7  UNL     1      22.360 120.744  -8.105  1.00  0.00    -0.344 N 
ATOM     17  H72 UNL     1      23.152 121.170  -7.624  1.00  0.00     0.176 HD
ATOM     18  H71 UNL     1      22.136 119.772  -7.890  1.00  0.00     0.176 HD
ENDBRANCH  14  16
ENDBRANCH  10  14
BRANCH   7  19
HETATM   19  N4  UNL     1      24.231 124.291 -11.704  1.00  0.00    -0.234 N 
ATOM     20  H42 UNL     1      24.422 125.215 -12.093  1.00  0.00     0.174 HD
ATOM     21  H41 UNL     1      24.749 123.489 -12.062  1.00  0.00     0.174 HD
ENDBRANCH   7  19
TORSDOF 4
ENDMDL
MODEL 2
REMARK VINA RESULT: -6.381792442      2.167      3.564
REMARK  4 active torsions:
REMARK  status: ('A' for Active; 'I' for Inactive)
REMARK    1  A    between atoms: C3_4  and  N2_5 
REMARK    2  A    between atoms: C4_10  and  N4_11 
REMARK    3  A    between atoms: C5_16  and  N6_17 
REMARK    4  A    between atoms: N6_17  and  N7_19 
ROOT
HETATM    1  N1  UNL     1      19.142 125.057  -7.107  1.00  0.00    -0.191 NA
HETATM    2  C1  UNL     1      20.055 124.890  -7.827  1.00  0.00     0.107 C 
HETATM    3  C2  UNL     1      21.174 124.716  -8.713  1.00  0.00     0.141 A 
HETATM    4  C3  UNL     1      21.625 123.443  -8.978  1.00  0.00     0.212 A 
HETATM    5  N3  UNL     1      22.691 123.341  -9.827  1.00  0.00    -0.169 N 
ATOM      6  H3  UNL     1      23.050 122.412 -10.043  1.00  0.00     0.186 HD
HETATM    7  C4  UNL     1      23.288 124.402 -10.387  1.00  0.00     0.679 A 
HETATM    8  N5  UNL     1      22.824 125.633 -10.108  1.00  0.00    -0.174 N 
ATOM      9  H5  UNL     1      23.277 126.441 -10.533  1.00  0.00     0.186 HD
HETATM   10  C5  UNL     1      21.797 125.824  -9.298  1.00  0.00     0.160 A 
ENDROOT
BRANCH   4  11
HETATM   11  N2  UNL     1      21.052 122.273  -8.429  1.00  0.00    -0.096 N 
HETATM   12  O1  UNL     1      20.146 121.656  -8.979  1.00  0.00    -0.530 OA
HETATM   13  O2  UNL     1      21.526 121.803  -7.233  1.00  0.00    -0.530 OA
ENDBRANCH   4  11
BRANCH  10  14
HETATM   14  N6  UNL     1      21.304 126.968  -8.989  1.00  0.00    -0.290 N 
ATOM     15  H6  UNL     1      20.483 127.273  -9.511  1.00  0.00     0.188 HD
BRANCH  14  16
HETATM   16  N7  UNL     1      21.778 127.820  -8.022  1.00  0.00    -0.344 N 
ATOM     17  H72 UNL     1      21.394 127.688  -7.086  1.00  0.00     0.176 HD
ATOM     18  H71 UNL     1      22.467 128.561  -8.156  1.00  0.00     0.176 HD
ENDBRANCH  14  16
ENDBRANCH  10  14
BRANCH   7  19
HETATM   19  N4  UNL     1      24.290 124.213 -11.176  1.00  0.00    -0.234 N 
ATOM     20  H42 UNL     1      24.326 124.621 -12.111  1.00  0.00     0.174 HD
ATOM     21  H41 UNL     1      25.071 123.640 -10.858  1.00  0.00     0.174 HD
ENDBRANCH   7  19
TORSDOF 4
ENDMDL
MODEL 3
REMARK VINA RESULT: -6.212776896      1.970      3.685
REMARK  4 active torsions:
REMARK  status: ('A' for Active; 'I' for Inactive)
REMARK    1  A    between atoms: C3_4  and  N2_5 
REMARK    2  A    between atoms: C4_10  and  N4_11 
REMARK    3  A    between atoms: C5_16  and  N6_17 
REMARK    4  A    between atoms: N6_17  and  N7_19 
ROOT
HETATM    1  N1  UNL     1      20.938 121.902  -9.817  1.00  0.00    -0.191 NA
HETATM    2  C1  UNL     1      21.033 123.027  -9.490  1.00  0.00     0.107 C 
HETATM    3  C2  UNL     1      21.170 124.407  -9.112  1.00  0.00     0.141 A 
HETATM    4  C3  UNL     1      20.429 124.889  -8.058  1.00  0.00     0.212 A 
HETATM    5  N3  UNL     1      20.601 126.208  -7.746  1.00  0.00    -0.169 N 
ATOM      6  H3  UNL     1      20.066 126.596  -6.970  1.00  0.00     0.186 HD
HETATM    7  C4  UNL     1      21.439 127.016  -8.409  1.00  0.00     0.679 A 
HETATM    8  N5  UNL     1      22.151 126.516  -9.435  1.00  0.00    -0.174 N 
ATOM      9  H5  UNL     1      22.789 127.129  -9.941  1.00  0.00     0.186 HD
HETATM   10  C5  UNL     1      22.046 125.250  -9.806  1.00  0.00     0.160 A 
ENDROOT
BRANCH   4  11
HETATM   11  N2  UNL     1      19.523 124.104  -7.307  1.00  0.00    -0.096 N 
HETATM   12  O1  UNL     1      18.311 124.278  -7.337  1.00  0.00    -0.530 OA
HETATM   13  O2  UNL     1      20.018 123.105  -6.510  1.00  0.00    -0.530 OA
ENDBRANCH   4  11
BRANCH  10  14
HETATM   14  N6  UNL     1      22.693 124.709 -10.772  1.00  0.00    -0.290 N 
ATOM     15  H6  UNL     1      22.146 124.194 -11.462  1.00  0.00     0.188 HD
BRANCH  14  16
HETATM   16  N7  UNL     1      24.052 124.757 -10.966  1.00  0.00    -0.344 N 
ATOM     17  H72 UNL     1      24.544 125.502 -10.473  1.00  0.00     0.176 HD
ATOM     18  H71 UNL     1      24.601 124.124 -11.548  1.00  0.00     0.176 HD
ENDBRANCH  14  16
ENDBRANCH  10  14
BRANCH   7  19
HETATM   19  N4  UNL     1      21.539 128.249  -8.047  1.00  0.00    -0.234 N 
ATOM     20  H42 UNL     1      20.802 128.929  -8.236  1.00  0.00     0.174 HD
ATOM     21  H41 UNL     1      22.379 128.556  -7.556  1.00  0.00     0.174 HD
ENDBRANCH   7  19
TORSDOF 4
ENDMDL
MODEL 4
REMARK VINA RESULT: -6.174896801      1.786      3.421
REMARK  4 active torsions:
REMARK  status: ('A' for Active; 'I' for Inactive)
REMARK    1  A    between atoms: C3_4  and  N2_5 
REMARK    2  A    between atoms: C4_10  and  N4_11 
REMARK    3  A    between atoms: C5_16  and  N6_17 
REMARK    4  A    between atoms: N6_17  and  N7_19 
ROOT
HETATM    1  N1  UNL     1      21.512 127.038  -7.585  1.00  0.00    -0.191 NA
HETATM    2  C1  UNL     1      21.548 126.012  -8.158  1.00  0.00     0.107 C 
HETATM    3  C2  UNL     1      21.614 124.769  -8.877  1.00  0.00     0.141 A 
HETATM    4  C3  UNL     1      20.781 123.739  -8.509  1.00  0.00     0.212 A 
HETATM    5  N3  UNL     1      20.889 122.582  -9.228  1.00  0.00    -0.169 N 
ATOM      6  H3  UNL     1      20.286 121.799  -8.980  1.00  0.00     0.186 HD
HETATM    7  C4  UNL     1      21.749 122.427 -10.244  1.00  0.00     0.679 A 
HETATM    8  N5  UNL     1      22.551 123.453 -10.580  1.00  0.00    -0.174 N 
ATOM      9  H5  UNL     1      23.207 123.337 -11.353  1.00  0.00     0.186 HD
HETATM   10  C5  UNL     1      22.513 124.609  -9.938  1.00  0.00     0.160 A 
ENDROOT
BRANCH   4  11
HETATM   11  N2  UNL     1      19.845 123.820  -7.451  1.00  0.00    -0.096 N 
HETATM   12  O1  UNL     1      19.972 123.197  -6.404  1.00  0.00    -0.530 OA
HETATM   13  O2  UNL     1      18.750 124.629  -7.598  1.00  0.00    -0.530 OA
ENDBRANCH   4  11
BRANCH  10  14
HETATM   14  N6  UNL     1      23.247 125.626 -10.206  1.00  0.00    -0.290 N 
ATOM     15  H6  UNL     1      22.771 126.519 -10.328  1.00  0.00     0.188 HD
BRANCH  14  16
HETATM   16  N7  UNL     1      24.614 125.626 -10.344  1.00  0.00    -0.344 N 
ATOM     17  H72 UNL     1      25.110 124.886  -9.847  1.00  0.00     0.176 HD
ATOM     18  H71 UNL     1      25.164 126.289 -10.890  1.00  0.00     0.176 HD
ENDBRANCH  14  16
ENDBRANCH  10  14
BRANCH   7  19
HETATM   19  N4  UNL     1      21.785 121.300 -10.869  1.00  0.00    -0.234 N 
ATOM     20  H42 UNL     1      20.945 120.869 -11.254  1.00  0.00     0.174 HD
ATOM     21  H41 UNL     1      22.680 120.825 -10.983  1.00  0.00     0.174 HD
ENDBRANCH   7  19
TORSDOF 4
ENDMDL
MODEL 5
REMARK VINA RESULT: -6.163593892      2.594      5.052
REMARK  4 active torsions:
REMARK  status: ('A' for Active; 'I' for Inactive)
REMARK    1  A    between atoms: C3_4  and  N2_5 
REMARK    2  A    between atoms: C4_10  and  N4_11 
REMARK    3  A    between atoms: C5_16  and  N6_17 
REMARK    4  A    between atoms: N6_17  and  N7_19 
ROOT
HETATM    1  N1  UNL     1      23.987 124.621  -8.615  1.00  0.00    -0.191 NA
HETATM    2  C1  UNL     1      22.845 124.813  -8.415  1.00  0.00     0.107 C 
HETATM    3  C2  UNL     1      21.453 125.078  -8.170  1.00  0.00     0.141 A 
HETATM    4  C3  UNL     1      20.583 124.019  -8.046  1.00  0.00     0.212 A 
HETATM    5  N3  UNL     1      19.274 124.333  -7.814  1.00  0.00    -0.169 N 
ATOM      6  H3  UNL     1      18.603 123.571  -7.718  1.00  0.00     0.186 HD
HETATM    7  C4  UNL     1      18.828 125.592  -7.707  1.00  0.00     0.679 A 
HETATM    8  N5  UNL     1      19.703 126.605  -7.832  1.00  0.00    -0.174 N 
ATOM      9  H5  UNL     1      19.366 127.564  -7.751  1.00  0.00     0.186 HD
HETATM   10  C5  UNL     1      20.989 126.393  -8.058  1.00  0.00     0.160 A 
ENDROOT
BRANCH   4  11
HETATM   11  N2  UNL     1      20.972 122.663  -8.145  1.00  0.00    -0.096 N 
HETATM   12  O1  UNL     1      21.426 122.031  -7.199  1.00  0.00    -0.530 OA
HETATM   13  O2  UNL     1      20.837 122.023  -9.349  1.00  0.00    -0.530 OA
ENDBRANCH   4  11
BRANCH  10  14
HETATM   14  N6  UNL     1      21.876 127.310  -8.188  1.00  0.00    -0.290 N 
ATOM     15  H6  UNL     1      22.346 127.373  -9.091  1.00  0.00     0.188 HD
BRANCH  14  16
HETATM   16  N7  UNL     1      22.253 128.216  -7.226  1.00  0.00    -0.344 N 
ATOM     17  H72 UNL     1      21.773 128.137  -6.330  1.00  0.00     0.176 HD
ATOM     18  H71 UNL     1      22.958 128.946  -7.330  1.00  0.00     0.176 HD
ENDBRANCH  14  16
ENDBRANCH  10  14
BRANCH   7  19
HETATM   19  N4  UNL     1      17.574 125.797  -7.488  1.00  0.00    -0.234 N 
ATOM     20  H42 UNL     1      17.159 125.665  -6.565  1.00  0.00     0.174 HD
ATOM     21  H41 UNL     1      16.979 126.100  -8.258  1.00  0.00     0.174 HD
ENDBRANCH   7  19
TORSDOF 4
ENDMDL
