MODEL 1
REMARK VINA RESULT: -8.698167760      0.000      0.000
REMARK  16 active torsions:
REMARK  status: ('A' for Active; 'I' for Inactive)
REMARK    1  A    between atoms: C2_2  and  C3_3 
REMARK    2  A    between atoms: C3_3  and  N2_7 
REMARK       I    between atoms: N2_7  and  C6_9 
REMARK       I    between atoms: C6_9  and  N7_29 
REMARK    3  A    between atoms: N3_10  and  C7_12 
REMARK    4  A    between atoms: C11_16  and  C12_17 
REMARK    5  A    between atoms: C12_17  and  N5_21 
REMARK    6  A    between atoms: N5_21  and  C13_23 
REMARK    7  A    between atoms: C13_23  and  C14_24 
REMARK    8  A    between atoms: C14_24  and  N6_25 
REMARK    9  A    between atoms: N7_29  and  N8_31 
REMARK       I    between atoms: N8_31  and  C18_33 
REMARK       I    between atoms: C18_33  and  N9_35 
REMARK   10  A    between atoms: N9_35  and  C19_37 
REMARK   11  A    between atoms: C19_37  and  C20_38 
REMARK   12  A    between atoms: C20_38  and  C21_39 
REMARK       I    between atoms: C21_39  and  N10_41 
REMARK   13  A    between atoms: N10_41  and  C22_43 
REMARK   14  A    between atoms: C22_43  and  C23_44 
REMARK   15  A    between atoms: C23_44  and  C24_45 
REMARK   16  A    between atoms: C24_45  and  N11_46 
ROOT
HETATM    1  C3  UNL     1     -14.173  -7.995  25.454  1.00  0.00     0.132 C 
HETATM    2  C4  UNL     1     -13.846  -8.828  26.660  1.00  0.00     0.055 C 
HETATM    3  C5  UNL     1     -13.031  -7.895  24.526  1.00  0.00     0.091 C 
HETATM    4  N1  UNL     1     -12.123  -7.820  23.806  1.00  0.00    -0.195 NA
ENDROOT
BRANCH   1   5
HETATM    5  C2  UNL     1     -14.354  -6.543  25.958  1.00  0.00     0.042 C 
HETATM    6  C1  UNL     1     -15.693  -6.007  25.528  1.00  0.00     0.009 C 
ENDBRANCH   1   5
BRANCH   1   7
HETATM    7  N2  UNL     1     -15.396  -8.338  24.822  1.00  0.00    -0.203 N 
HETATM    8  C6  UNL     1     -15.518  -9.119  23.589  1.00  0.00     0.694 C 
HETATM    9  N3  UNL     1     -15.432 -10.328  23.736  1.00  0.00    -0.191 N 
HETATM   10  N7  UNL     1     -15.736  -8.352  22.428  1.00  0.00    -0.128 N 
ATOM     11  H3  UNL     1     -15.287 -10.449  24.738  1.00  0.00     0.184 HD
ATOM     12  H7  UNL     1     -16.338  -7.537  22.555  1.00  0.00     0.205 HD
ATOM     13  H2  UNL     1     -16.259  -8.014  25.260  1.00  0.00     0.179 HD
BRANCH   9  14
HETATM   14  C7  UNL     1     -15.432 -11.577  23.249  1.00  0.00     0.050 A 
HETATM   15  C8  UNL     1     -15.470 -11.899  21.895  1.00  0.00     0.030 A 
HETATM   16  C9  UNL     1     -15.469 -13.218  21.513  1.00  0.00     0.003 A 
HETATM   17  C10 UNL     1     -15.429 -14.231  22.437  1.00  0.00     0.015 A 
HETATM   18  C11 UNL     1     -15.387 -13.975  23.793  1.00  0.00     0.009 A 
HETATM   19  C17 UNL     1     -15.391 -12.650  24.156  1.00  0.00     0.045 A 
BRANCH  18  20
HETATM   20  C12 UNL     1     -15.340 -15.051  24.771  1.00  0.00     0.105 C 
HETATM   21  N4  UNL     1     -16.091 -16.059  24.685  1.00  0.00    -0.385 N 
ATOM     22  H42 UNL     1     -16.743 -16.051  23.901  1.00  0.00     0.157 HD
ATOM     23  H41 UNL     1     -16.058 -16.813  25.371  1.00  0.00     0.157 HD
BRANCH  20  24
HETATM   24  N5  UNL     1     -14.414 -15.062  25.882  1.00  0.00    -0.374 N 
ATOM     25  H5  UNL     1     -14.758 -14.995  26.840  1.00  0.00     0.161 HD
BRANCH  24  26
HETATM   26  C13 UNL     1     -12.990 -15.168  25.619  1.00  0.00     0.151 C 
BRANCH  26  27
HETATM   27  C14 UNL     1     -12.337 -13.846  25.805  1.00  0.00     0.290 C 
BRANCH  27  28
HETATM   28  N6  UNL     1     -11.592 -13.423  24.628  1.00  0.00     0.081 N 
HETATM   29  C15 UNL     1     -11.748 -14.355  23.524  1.00  0.00     0.309 C 
HETATM   30  C16 UNL     1     -11.852 -12.072  24.233  1.00  0.00     0.309 C 
ENDBRANCH  27  28
ENDBRANCH  26  27
ENDBRANCH  24  26
ENDBRANCH  20  24
ENDBRANCH  18  20
ENDBRANCH   9  14
BRANCH  10  31
HETATM   31  N8  UNL     1     -15.261  -8.535  21.147  1.00  0.00    -0.237 N 
HETATM   32  C18 UNL     1     -14.572  -7.628  20.329  1.00  0.00     0.335 C 
HETATM   33  O1  UNL     1     -14.304  -6.480  20.746  1.00  0.00    -0.246 OA
HETATM   34  N9  UNL     1     -14.157  -7.976  19.021  1.00  0.00    -0.341 N 
ATOM     35  H9  UNL     1     -14.377  -8.904  18.657  1.00  0.00     0.164 HD
ATOM     36  H8  UNL     1     -15.433  -9.454  20.741  1.00  0.00     0.192 HD
BRANCH  34  37
HETATM   37  C19 UNL     1     -13.440  -7.059  18.203  1.00  0.00     0.134 C 
BRANCH  37  38
HETATM   38  C20 UNL     1     -14.207  -6.370  17.128  1.00  0.00     0.122 C 
BRANCH  38  39
HETATM   39  C21 UNL     1     -14.081  -4.880  17.177  1.00  0.00     0.219 C 
HETATM   40  O2  UNL     1     -13.982  -4.329  18.287  1.00  0.00    -0.274 OA
HETATM   41  N10 UNL     1     -14.081  -4.148  15.970  1.00  0.00    -0.361 N 
ATOM     42  H10 UNL     1     -14.153  -4.649  15.084  1.00  0.00     0.162 HD
BRANCH  41  43
HETATM   43  C22 UNL     1     -13.983  -2.720  15.958  1.00  0.00     0.124 C 
BRANCH  43  44
HETATM   44  C23 UNL     1     -14.881  -2.082  14.932  1.00  0.00     0.050 C 
BRANCH  44  45
HETATM   45  C24 UNL     1     -15.129  -0.612  15.283  1.00  0.00     0.273 C 
BRANCH  45  46
HETATM   46  N11 UNL     1     -13.974   0.115  14.774  1.00  0.00     0.080 N 
HETATM   47  C25 UNL     1     -13.397   0.963  15.810  1.00  0.00     0.309 C 
HETATM   48  C26 UNL     1     -14.335   0.901  13.606  1.00  0.00     0.309 C 
ENDBRANCH  45  46
ENDBRANCH  44  45
ENDBRANCH  43  44
ENDBRANCH  41  43
ENDBRANCH  38  39
ENDBRANCH  37  38
ENDBRANCH  34  37
ENDBRANCH  10  31
ENDBRANCH   1   7
TORSDOF 16
ENDMDL
MODEL 2
REMARK VINA RESULT: -8.652888117      2.411      5.296
REMARK  16 active torsions:
REMARK  status: ('A' for Active; 'I' for Inactive)
REMARK    1  A    between atoms: C2_2  and  C3_3 
REMARK    2  A    between atoms: C3_3  and  N2_7 
REMARK       I    between atoms: N2_7  and  C6_9 
REMARK       I    between atoms: C6_9  and  N7_29 
REMARK    3  A    between atoms: N3_10  and  C7_12 
REMARK    4  A    between atoms: C11_16  and  C12_17 
REMARK    5  A    between atoms: C12_17  and  N5_21 
REMARK    6  A    between atoms: N5_21  and  C13_23 
REMARK    7  A    between atoms: C13_23  and  C14_24 
REMARK    8  A    between atoms: C14_24  and  N6_25 
REMARK    9  A    between atoms: N7_29  and  N8_31 
REMARK       I    between atoms: N8_31  and  C18_33 
REMARK       I    between atoms: C18_33  and  N9_35 
REMARK   10  A    between atoms: N9_35  and  C19_37 
REMARK   11  A    between atoms: C19_37  and  C20_38 
REMARK   12  A    between atoms: C20_38  and  C21_39 
REMARK       I    between atoms: C21_39  and  N10_41 
REMARK   13  A    between atoms: N10_41  and  C22_43 
REMARK   14  A    between atoms: C22_43  and  C23_44 
REMARK   15  A    between atoms: C23_44  and  C24_45 
REMARK   16  A    between atoms: C24_45  and  N11_46 
ROOT
HETATM    1  C3  UNL     1     -14.499 -12.041  21.876  1.00  0.00     0.132 C 
HETATM    2  C4  UNL     1     -15.580 -11.168  21.304  1.00  0.00     0.055 C 
HETATM    3  C5  UNL     1     -14.010 -13.029  20.896  1.00  0.00     0.091 C 
HETATM    4  N1  UNL     1     -13.636 -13.804  20.118  1.00  0.00    -0.195 NA
ENDROOT
BRANCH   1   5
HETATM    5  C2  UNL     1     -15.169 -12.915  22.963  1.00  0.00     0.042 C 
HETATM    6  C1  UNL     1     -14.148 -13.354  23.979  1.00  0.00     0.009 C 
ENDBRANCH   1   5
BRANCH   1   7
HETATM    7  N2  UNL     1     -13.464 -11.330  22.539  1.00  0.00    -0.203 N 
HETATM    8  C6  UNL     1     -13.437  -9.880  22.747  1.00  0.00     0.694 C 
HETATM    9  N3  UNL     1     -14.104  -9.484  23.689  1.00  0.00    -0.191 N 
HETATM   10  N7  UNL     1     -12.627  -9.173  21.837  1.00  0.00    -0.128 N 
ATOM     11  H3  UNL     1     -14.515 -10.331  24.080  1.00  0.00     0.184 HD
ATOM     12  H7  UNL     1     -11.765  -9.646  21.567  1.00  0.00     0.205 HD
ATOM     13  H2  UNL     1     -12.677 -11.871  22.898  1.00  0.00     0.179 HD
BRANCH   9  14
HETATM   14  C7  UNL     1     -14.570  -8.500  24.473  1.00  0.00     0.050 A 
HETATM   15  C8  UNL     1     -13.812  -7.425  24.927  1.00  0.00     0.030 A 
HETATM   16  C9  UNL     1     -14.397  -6.476  25.729  1.00  0.00     0.003 A 
HETATM   17  C10 UNL     1     -15.716  -6.563  26.095  1.00  0.00     0.015 A 
HETATM   18  C11 UNL     1     -16.520  -7.603  25.673  1.00  0.00     0.009 A 
HETATM   19  C17 UNL     1     -15.916  -8.543  24.873  1.00  0.00     0.045 A 
BRANCH  18  20
HETATM   20  C12 UNL     1     -17.920  -7.689  26.057  1.00  0.00     0.105 C 
HETATM   21  N4  UNL     1     -18.824  -7.937  25.216  1.00  0.00    -0.385 N 
ATOM     22  H42 UNL     1     -18.506  -8.048  24.253  1.00  0.00     0.157 HD
ATOM     23  H41 UNL     1     -19.806  -7.997  25.485  1.00  0.00     0.157 HD
BRANCH  20  24
HETATM   24  N5  UNL     1     -18.371  -7.533  27.422  1.00  0.00    -0.374 N 
ATOM     25  H5  UNL     1     -18.453  -6.604  27.835  1.00  0.00     0.161 HD
BRANCH  24  26
HETATM   26  C13 UNL     1     -18.705  -8.714  28.198  1.00  0.00     0.151 C 
BRANCH  26  27
HETATM   27  C14 UNL     1     -17.502  -9.207  28.920  1.00  0.00     0.290 C 
BRANCH  27  28
HETATM   28  N6  UNL     1     -16.944 -10.408  28.315  1.00  0.00     0.081 N 
HETATM   29  C15 UNL     1     -15.523 -10.266  28.043  1.00  0.00     0.309 C 
HETATM   30  C16 UNL     1     -17.237 -11.609  29.035  1.00  0.00     0.309 C 
ENDBRANCH  27  28
ENDBRANCH  26  27
ENDBRANCH  24  26
ENDBRANCH  20  24
ENDBRANCH  18  20
ENDBRANCH   9  14
BRANCH  10  31
HETATM   31  N8  UNL     1     -12.824  -7.938  21.257  1.00  0.00    -0.237 N 
HETATM   32  C18 UNL     1     -13.433  -7.630  20.033  1.00  0.00     0.335 C 
HETATM   33  O1  UNL     1     -13.897  -8.541  19.312  1.00  0.00    -0.246 OA
HETATM   34  N9  UNL     1     -13.547  -6.295  19.575  1.00  0.00    -0.341 N 
ATOM     35  H9  UNL     1     -13.164  -5.538  20.142  1.00  0.00     0.164 HD
ATOM     36  H8  UNL     1     -12.479  -7.140  21.792  1.00  0.00     0.192 HD
BRANCH  34  37
HETATM   37  C19 UNL     1     -14.185  -5.987  18.341  1.00  0.00     0.134 C 
BRANCH  37  38
HETATM   38  C20 UNL     1     -13.478  -5.043  17.432  1.00  0.00     0.122 C 
BRANCH  38  39
HETATM   39  C21 UNL     1     -14.361  -4.486  16.360  1.00  0.00     0.219 C 
HETATM   40  O2  UNL     1     -15.118  -5.262  15.751  1.00  0.00    -0.274 OA
HETATM   41  N10 UNL     1     -14.308  -3.105  16.071  1.00  0.00    -0.361 N 
ATOM     42  H10 UNL     1     -13.677  -2.509  16.607  1.00  0.00     0.162 HD
BRANCH  41  43
HETATM   43  C22 UNL     1     -15.116  -2.521  15.044  1.00  0.00     0.124 C 
BRANCH  43  44
HETATM   44  C23 UNL     1     -15.057  -1.017  15.041  1.00  0.00     0.050 C 
BRANCH  44  45
HETATM   45  C24 UNL     1     -14.277  -0.513  16.259  1.00  0.00     0.273 C 
BRANCH  45  46
HETATM   46  N11 UNL     1     -13.340   0.476  15.745  1.00  0.00     0.080 N 
HETATM   47  C25 UNL     1     -13.050   1.489  16.753  1.00  0.00     0.309 C 
HETATM   48  C26 UNL     1     -13.854   1.089  14.531  1.00  0.00     0.309 C 
ENDBRANCH  45  46
ENDBRANCH  44  45
ENDBRANCH  43  44
ENDBRANCH  41  43
ENDBRANCH  38  39
ENDBRANCH  37  38
ENDBRANCH  34  37
ENDBRANCH  10  31
ENDBRANCH   1   7
TORSDOF 16
ENDMDL
MODEL 3
REMARK VINA RESULT: -8.459085114      3.432      6.458
REMARK  16 active torsions:
REMARK  status: ('A' for Active; 'I' for Inactive)
REMARK    1  A    between atoms: C2_2  and  C3_3 
REMARK    2  A    between atoms: C3_3  and  N2_7 
REMARK       I    between atoms: N2_7  and  C6_9 
REMARK       I    between atoms: C6_9  and  N7_29 
REMARK    3  A    between atoms: N3_10  and  C7_12 
REMARK    4  A    between atoms: C11_16  and  C12_17 
REMARK    5  A    between atoms: C12_17  and  N5_21 
REMARK    6  A    between atoms: N5_21  and  C13_23 
REMARK    7  A    between atoms: C13_23  and  C14_24 
REMARK    8  A    between atoms: C14_24  and  N6_25 
REMARK    9  A    between atoms: N7_29  and  N8_31 
REMARK       I    between atoms: N8_31  and  C18_33 
REMARK       I    between atoms: C18_33  and  N9_35 
REMARK   10  A    between atoms: N9_35  and  C19_37 
REMARK   11  A    between atoms: C19_37  and  C20_38 
REMARK   12  A    between atoms: C20_38  and  C21_39 
REMARK       I    between atoms: C21_39  and  N10_41 
REMARK   13  A    between atoms: N10_41  and  C22_43 
REMARK   14  A    between atoms: C22_43  and  C23_44 
REMARK   15  A    between atoms: C23_44  and  C24_45 
REMARK   16  A    between atoms: C24_45  and  N11_46 
ROOT
HETATM    1  C3  UNL     1     -14.467 -12.049  21.957  1.00  0.00     0.132 C 
HETATM    2  C4  UNL     1     -15.582 -11.196  21.426  1.00  0.00     0.055 C 
HETATM    3  C5  UNL     1     -13.968 -13.001  20.946  1.00  0.00     0.091 C 
HETATM    4  N1  UNL     1     -13.588 -13.747  20.143  1.00  0.00    -0.195 NA
ENDROOT
BRANCH   1   5
HETATM    5  C2  UNL     1     -15.089 -12.966  23.037  1.00  0.00     0.042 C 
HETATM    6  C1  UNL     1     -14.054 -13.337  24.064  1.00  0.00     0.009 C 
ENDBRANCH   1   5
BRANCH   1   7
HETATM    7  N2  UNL     1     -13.439 -11.324  22.616  1.00  0.00    -0.203 N 
HETATM    8  C6  UNL     1     -13.428  -9.873  22.816  1.00  0.00     0.694 C 
HETATM    9  N3  UNL     1     -14.099  -9.478  23.756  1.00  0.00    -0.191 N 
HETATM   10  N7  UNL     1     -12.625  -9.162  21.903  1.00  0.00    -0.128 N 
ATOM     11  H3  UNL     1     -14.501 -10.327  24.151  1.00  0.00     0.184 HD
ATOM     12  H7  UNL     1     -11.757  -9.628  21.635  1.00  0.00     0.205 HD
ATOM     13  H2  UNL     1     -12.647 -11.854  22.979  1.00  0.00     0.179 HD
BRANCH   9  14
HETATM   14  C7  UNL     1     -14.576  -8.494  24.533  1.00  0.00     0.050 A 
HETATM   15  C8  UNL     1     -13.827  -7.412  24.987  1.00  0.00     0.030 A 
HETATM   16  C9  UNL     1     -14.423  -6.464  25.783  1.00  0.00     0.003 A 
HETATM   17  C10 UNL     1     -15.743  -6.559  26.143  1.00  0.00     0.015 A 
HETATM   18  C11 UNL     1     -16.537  -7.608  25.722  1.00  0.00     0.009 A 
HETATM   19  C17 UNL     1     -15.923  -8.546  24.928  1.00  0.00     0.045 A 
BRANCH  18  20
HETATM   20  C12 UNL     1     -17.938  -7.703  26.101  1.00  0.00     0.105 C 
HETATM   21  N4  UNL     1     -18.837  -7.964  25.258  1.00  0.00    -0.385 N 
ATOM     22  H42 UNL     1     -18.513  -8.078  24.297  1.00  0.00     0.157 HD
ATOM     23  H41 UNL     1     -19.819  -8.031  25.523  1.00  0.00     0.157 HD
BRANCH  20  24
HETATM   24  N5  UNL     1     -18.396  -7.541  27.463  1.00  0.00    -0.374 N 
ATOM     25  H5  UNL     1     -18.406  -6.618  27.898  1.00  0.00     0.161 HD
BRANCH  24  26
HETATM   26  C13 UNL     1     -18.840  -8.708  28.205  1.00  0.00     0.151 C 
BRANCH  26  27
HETATM   27  C14 UNL     1     -17.666  -9.482  28.688  1.00  0.00     0.290 C 
BRANCH  27  28
HETATM   28  N6  UNL     1     -17.616 -10.825  28.127  1.00  0.00     0.081 N 
HETATM   29  C15 UNL     1     -17.338 -11.826  29.143  1.00  0.00     0.309 C 
HETATM   30  C16 UNL     1     -18.758 -11.164  27.335  1.00  0.00     0.309 C 
ENDBRANCH  27  28
ENDBRANCH  26  27
ENDBRANCH  24  26
ENDBRANCH  20  24
ENDBRANCH  18  20
ENDBRANCH   9  14
BRANCH  10  31
HETATM   31  N8  UNL     1     -12.834  -7.932  21.316  1.00  0.00    -0.237 N 
HETATM   32  C18 UNL     1     -13.463  -7.636  20.098  1.00  0.00     0.335 C 
HETATM   33  O1  UNL     1     -13.936  -8.555  19.393  1.00  0.00    -0.246 OA
HETATM   34  N9  UNL     1     -13.588  -6.306  19.631  1.00  0.00    -0.341 N 
ATOM     35  H9  UNL     1     -13.198  -5.543  20.186  1.00  0.00     0.164 HD
ATOM     36  H8  UNL     1     -12.483  -7.130  21.838  1.00  0.00     0.192 HD
BRANCH  34  37
HETATM   37  C19 UNL     1     -14.246  -6.011  18.405  1.00  0.00     0.134 C 
BRANCH  37  38
HETATM   38  C20 UNL     1     -13.434  -5.356  17.343  1.00  0.00     0.122 C 
BRANCH  38  39
HETATM   39  C21 UNL     1     -12.024  -5.855  17.288  1.00  0.00     0.219 C 
HETATM   40  O2  UNL     1     -11.214  -5.441  18.134  1.00  0.00    -0.274 OA
HETATM   41  N10 UNL     1     -11.657  -6.775  16.281  1.00  0.00    -0.361 N 
ATOM     42  H10 UNL     1     -12.363  -7.093  15.617  1.00  0.00     0.162 HD
BRANCH  41  43
HETATM   43  C22 UNL     1     -10.320  -7.272  16.170  1.00  0.00     0.124 C 
BRANCH  43  44
HETATM   44  C23 UNL     1      -9.616  -6.780  14.933  1.00  0.00     0.050 C 
BRANCH  44  45
HETATM   45  C24 UNL     1      -9.075  -7.963  14.124  1.00  0.00     0.273 C 
BRANCH  45  46
HETATM   46  N11 UNL     1     -10.243  -8.611  13.544  1.00  0.00     0.080 N 
HETATM   47  C25 UNL     1     -10.020 -10.044  13.393  1.00  0.00     0.309 C 
HETATM   48  C26 UNL     1     -10.587  -8.005  12.268  1.00  0.00     0.309 C 
ENDBRANCH  45  46
ENDBRANCH  44  45
ENDBRANCH  43  44
ENDBRANCH  41  43
ENDBRANCH  38  39
ENDBRANCH  37  38
ENDBRANCH  34  37
ENDBRANCH  10  31
ENDBRANCH   1   7
TORSDOF 16
ENDMDL
MODEL 4
REMARK VINA RESULT: -8.343108158      1.387      2.023
REMARK  16 active torsions:
REMARK  status: ('A' for Active; 'I' for Inactive)
REMARK    1  A    between atoms: C2_2  and  C3_3 
REMARK    2  A    between atoms: C3_3  and  N2_7 
REMARK       I    between atoms: N2_7  and  C6_9 
REMARK       I    between atoms: C6_9  and  N7_29 
REMARK    3  A    between atoms: N3_10  and  C7_12 
REMARK    4  A    between atoms: C11_16  and  C12_17 
REMARK    5  A    between atoms: C12_17  and  N5_21 
REMARK    6  A    between atoms: N5_21  and  C13_23 
REMARK    7  A    between atoms: C13_23  and  C14_24 
REMARK    8  A    between atoms: C14_24  and  N6_25 
REMARK    9  A    between atoms: N7_29  and  N8_31 
REMARK       I    between atoms: N8_31  and  C18_33 
REMARK       I    between atoms: C18_33  and  N9_35 
REMARK   10  A    between atoms: N9_35  and  C19_37 
REMARK   11  A    between atoms: C19_37  and  C20_38 
REMARK   12  A    between atoms: C20_38  and  C21_39 
REMARK       I    between atoms: C21_39  and  N10_41 
REMARK   13  A    between atoms: N10_41  and  C22_43 
REMARK   14  A    between atoms: C22_43  and  C23_44 
REMARK   15  A    between atoms: C23_44  and  C24_45 
REMARK   16  A    between atoms: C24_45  and  N11_46 
ROOT
HETATM    1  C3  UNL     1     -14.326  -8.272  24.491  1.00  0.00     0.132 C 
HETATM    2  C4  UNL     1     -14.144  -9.158  25.689  1.00  0.00     0.055 C 
HETATM    3  C5  UNL     1     -13.064  -8.070  23.754  1.00  0.00     0.091 C 
HETATM    4  N1  UNL     1     -12.063  -7.916  23.186  1.00  0.00    -0.195 NA
ENDROOT
BRANCH   1   5
HETATM    5  C2  UNL     1     -14.655  -6.860  25.033  1.00  0.00     0.042 C 
HETATM    6  C1  UNL     1     -13.970  -6.638  26.354  1.00  0.00     0.009 C 
ENDBRANCH   1   5
BRANCH   1   7
HETATM    7  N2  UNL     1     -15.422  -8.630  23.661  1.00  0.00    -0.203 N 
HETATM    8  C6  UNL     1     -15.311  -9.276  22.352  1.00  0.00     0.694 C 
HETATM    9  N3  UNL     1     -15.141 -10.484  22.386  1.00  0.00    -0.191 N 
HETATM   10  N7  UNL     1     -15.441  -8.401  21.255  1.00  0.00    -0.128 N 
ATOM     11  H3  UNL     1     -15.119 -10.705  23.382  1.00  0.00     0.184 HD
ATOM     12  H7  UNL     1     -16.122  -7.652  21.377  1.00  0.00     0.205 HD
ATOM     13  H2  UNL     1     -16.359  -8.421  24.005  1.00  0.00     0.179 HD
BRANCH   9  14
HETATM   14  C7  UNL     1     -14.968 -11.668  21.781  1.00  0.00     0.050 A 
HETATM   15  C8  UNL     1     -13.937 -11.958  20.892  1.00  0.00     0.030 A 
HETATM   16  C9  UNL     1     -13.861 -13.208  20.329  1.00  0.00     0.003 A 
HETATM   17  C10 UNL     1     -14.781 -14.183  20.625  1.00  0.00     0.015 A 
HETATM   18  C11 UNL     1     -15.823 -13.956  21.501  1.00  0.00     0.009 A 
HETATM   19  C17 UNL     1     -15.883 -12.699  22.052  1.00  0.00     0.045 A 
BRANCH  18  20
HETATM   20  C12 UNL     1     -16.793 -14.993  21.817  1.00  0.00     0.105 C 
HETATM   21  N4  UNL     1     -17.698 -15.324  21.005  1.00  0.00    -0.385 N 
ATOM     22  H42 UNL     1     -17.713 -14.799  20.131  1.00  0.00     0.157 HD
ATOM     23  H41 UNL     1     -18.379 -16.050  21.226  1.00  0.00     0.157 HD
BRANCH  20  24
HETATM   24  N5  UNL     1     -16.772 -15.737  23.057  1.00  0.00    -0.374 N 
ATOM     25  H5  UNL     1     -17.643 -15.976  23.530  1.00  0.00     0.161 HD
BRANCH  24  26
HETATM   26  C13 UNL     1     -15.495 -16.141  23.619  1.00  0.00     0.151 C 
BRANCH  26  27
HETATM   27  C14 UNL     1     -15.243 -15.409  24.889  1.00  0.00     0.290 C 
BRANCH  27  28
HETATM   28  N6  UNL     1     -14.214 -14.389  24.748  1.00  0.00     0.081 N 
HETATM   29  C15 UNL     1     -13.814 -13.843  26.033  1.00  0.00     0.309 C 
HETATM   30  C16 UNL     1     -13.090 -14.805  23.966  1.00  0.00     0.309 C 
ENDBRANCH  27  28
ENDBRANCH  26  27
ENDBRANCH  24  26
ENDBRANCH  20  24
ENDBRANCH  18  20
ENDBRANCH   9  14
BRANCH  10  31
HETATM   31  N8  UNL     1     -14.787  -8.405  20.041  1.00  0.00    -0.237 N 
HETATM   32  C18 UNL     1     -14.035  -7.383  19.446  1.00  0.00     0.335 C 
HETATM   33  O1  UNL     1     -13.878  -6.290  20.035  1.00  0.00    -0.246 OA
HETATM   34  N9  UNL     1     -13.429  -7.548  18.178  1.00  0.00    -0.341 N 
ATOM     35  H9  UNL     1     -13.555  -8.427  17.675  1.00  0.00     0.164 HD
ATOM     36  H8  UNL     1     -14.860  -9.269  19.504  1.00  0.00     0.192 HD
BRANCH  34  37
HETATM   37  C19 UNL     1     -12.650  -6.514  17.589  1.00  0.00     0.134 C 
BRANCH  37  38
HETATM   38  C20 UNL     1     -13.035  -6.074  16.219  1.00  0.00     0.122 C 
BRANCH  38  39
HETATM   39  C21 UNL     1     -13.980  -4.913  16.218  1.00  0.00     0.219 C 
HETATM   40  O2  UNL     1     -14.285  -4.395  17.306  1.00  0.00    -0.274 OA
HETATM   41  N10 UNL     1     -14.496  -4.446  14.990  1.00  0.00    -0.361 N 
ATOM     42  H10 UNL     1     -14.206  -4.899  14.123  1.00  0.00     0.162 HD
BRANCH  41  43
HETATM   43  C22 UNL     1     -15.418  -3.352  14.930  1.00  0.00     0.124 C 
BRANCH  43  44
HETATM   44  C23 UNL     1     -14.731  -2.015  14.853  1.00  0.00     0.050 C 
BRANCH  44  45
HETATM   45  C24 UNL     1     -14.077  -1.832  13.480  1.00  0.00     0.273 C 
BRANCH  45  46
HETATM   46  N11 UNL     1     -13.715  -0.424  13.401  1.00  0.00     0.080 N 
HETATM   47  C25 UNL     1     -14.341   0.334  14.478  1.00  0.00     0.309 C 
HETATM   48  C26 UNL     1     -14.075   0.128  12.106  1.00  0.00     0.309 C 
ENDBRANCH  45  46
ENDBRANCH  44  45
ENDBRANCH  43  44
ENDBRANCH  41  43
ENDBRANCH  38  39
ENDBRANCH  37  38
ENDBRANCH  34  37
ENDBRANCH  10  31
ENDBRANCH   1   7
TORSDOF 16
ENDMDL
MODEL 5
REMARK VINA RESULT: -8.327242816      2.942      4.100
REMARK  16 active torsions:
REMARK  status: ('A' for Active; 'I' for Inactive)
REMARK    1  A    between atoms: C2_2  and  C3_3 
REMARK    2  A    between atoms: C3_3  and  N2_7 
REMARK       I    between atoms: N2_7  and  C6_9 
REMARK       I    between atoms: C6_9  and  N7_29 
REMARK    3  A    between atoms: N3_10  and  C7_12 
REMARK    4  A    between atoms: C11_16  and  C12_17 
REMARK    5  A    between atoms: C12_17  and  N5_21 
REMARK    6  A    between atoms: N5_21  and  C13_23 
REMARK    7  A    between atoms: C13_23  and  C14_24 
REMARK    8  A    between atoms: C14_24  and  N6_25 
REMARK    9  A    between atoms: N7_29  and  N8_31 
REMARK       I    between atoms: N8_31  and  C18_33 
REMARK       I    between atoms: C18_33  and  N9_35 
REMARK   10  A    between atoms: N9_35  and  C19_37 
REMARK   11  A    between atoms: C19_37  and  C20_38 
REMARK   12  A    between atoms: C20_38  and  C21_39 
REMARK       I    between atoms: C21_39  and  N10_41 
REMARK   13  A    between atoms: N10_41  and  C22_43 
REMARK   14  A    between atoms: C22_43  and  C23_44 
REMARK   15  A    between atoms: C23_44  and  C24_45 
REMARK   16  A    between atoms: C24_45  and  N11_46 
ROOT
HETATM    1  C3  UNL     1     -14.089  -7.880  25.627  1.00  0.00     0.132 C 
HETATM    2  C4  UNL     1     -13.879  -8.740  26.840  1.00  0.00     0.055 C 
HETATM    3  C5  UNL     1     -12.889  -7.828  24.771  1.00  0.00     0.091 C 
HETATM    4  N1  UNL     1     -11.936  -7.791  24.109  1.00  0.00    -0.195 NA
ENDROOT
BRANCH   1   5
HETATM    5  C2  UNL     1     -14.231  -6.426  26.136  1.00  0.00     0.042 C 
HETATM    6  C1  UNL     1     -15.516  -5.823  25.637  1.00  0.00     0.009 C 
ENDBRANCH   1   5
BRANCH   1   7
HETATM    7  N2  UNL     1     -15.287  -8.156  24.916  1.00  0.00    -0.203 N 
HETATM    8  C6  UNL     1     -15.366  -8.888  23.650  1.00  0.00     0.694 C 
HETATM    9  N3  UNL     1     -15.329 -10.103  23.755  1.00  0.00    -0.191 N 
HETATM   10  N7  UNL     1     -15.494  -8.071  22.509  1.00  0.00    -0.128 N 
ATOM     11  H3  UNL     1     -15.244 -10.266  24.758  1.00  0.00     0.184 HD
ATOM     12  H7  UNL     1     -16.074  -7.242  22.633  1.00  0.00     0.205 HD
ATOM     13  H2  UNL     1     -16.162  -7.819  25.319  1.00  0.00     0.179 HD
BRANCH   9  14
HETATM   14  C7  UNL     1     -15.343 -11.334  23.221  1.00  0.00     0.050 A 
HETATM   15  C8  UNL     1     -15.337 -11.604  21.856  1.00  0.00     0.030 A 
HETATM   16  C9  UNL     1     -15.356 -12.907  21.424  1.00  0.00     0.003 A 
HETATM   17  C10 UNL     1     -15.380 -13.954  22.311  1.00  0.00     0.015 A 
HETATM   18  C11 UNL     1     -15.384 -13.750  23.676  1.00  0.00     0.009 A 
HETATM   19  C17 UNL     1     -15.366 -12.439  24.088  1.00  0.00     0.045 A 
BRANCH  18  20
HETATM   20  C12 UNL     1     -15.404 -14.862  24.613  1.00  0.00     0.105 C 
HETATM   21  N4  UNL     1     -16.237 -15.801  24.511  1.00  0.00    -0.385 N 
ATOM     22  H42 UNL     1     -16.904 -15.710  23.744  1.00  0.00     0.157 HD
ATOM     23  H41 UNL     1     -16.251 -16.581  25.168  1.00  0.00     0.157 HD
BRANCH  20  24
HETATM   24  N5  UNL     1     -14.458 -14.990  25.700  1.00  0.00    -0.374 N 
ATOM     25  H5  UNL     1     -14.781 -14.989  26.667  1.00  0.00     0.161 HD
BRANCH  24  26
HETATM   26  C13 UNL     1     -13.043 -15.120  25.397  1.00  0.00     0.151 C 
BRANCH  26  27
HETATM   27  C14 UNL     1     -12.351 -13.826  25.633  1.00  0.00     0.290 C 
BRANCH  27  28
HETATM   28  N6  UNL     1     -11.567 -13.397  24.483  1.00  0.00     0.081 N 
HETATM   29  C15 UNL     1     -11.746 -14.282  23.345  1.00  0.00     0.309 C 
HETATM   30  C16 UNL     1     -11.758 -12.023  24.132  1.00  0.00     0.309 C 
ENDBRANCH  27  28
ENDBRANCH  26  27
ENDBRANCH  24  26
ENDBRANCH  20  24
ENDBRANCH  18  20
ENDBRANCH   9  14
BRANCH  10  31
HETATM   31  N8  UNL     1     -14.954  -8.224  21.250  1.00  0.00    -0.237 N 
HETATM   32  C18 UNL     1     -14.433  -7.245  20.393  1.00  0.00     0.335 C 
HETATM   33  O1  UNL     1     -14.407  -6.046  20.748  1.00  0.00    -0.246 OA
HETATM   34  N9  UNL     1     -13.920  -7.573  19.115  1.00  0.00    -0.341 N 
ATOM     35  H9  UNL     1     -13.942  -8.544  18.801  1.00  0.00     0.164 HD
ATOM     36  H8  UNL     1     -14.931  -9.180  20.894  1.00  0.00     0.192 HD
BRANCH  34  37
HETATM   37  C19 UNL     1     -13.373  -6.576  18.259  1.00  0.00     0.134 C 
BRANCH  37  38
HETATM   38  C20 UNL     1     -12.940  -7.014  16.903  1.00  0.00     0.122 C 
BRANCH  38  39
HETATM   39  C21 UNL     1     -11.463  -7.229  16.798  1.00  0.00     0.219 C 
HETATM   40  O2  UNL     1     -10.837  -7.565  17.818  1.00  0.00    -0.274 OA
HETATM   41  N10 UNL     1     -10.826  -7.044  15.552  1.00  0.00    -0.361 N 
ATOM     42  H10 UNL     1     -11.386  -6.779  14.741  1.00  0.00     0.162 HD
BRANCH  41  43
HETATM   43  C22 UNL     1      -9.414  -7.217  15.397  1.00  0.00     0.124 C 
BRANCH  43  44
HETATM   44  C23 UNL     1      -9.024  -7.608  13.997  1.00  0.00     0.050 C 
BRANCH  44  45
HETATM   45  C24 UNL     1     -10.233  -8.180  13.249  1.00  0.00     0.273 C 
BRANCH  45  46
HETATM   46  N11 UNL     1      -9.840  -9.518  12.829  1.00  0.00     0.080 N 
HETATM   47  C25 UNL     1     -10.441 -10.529  13.690  1.00  0.00     0.309 C 
HETATM   48  C26 UNL     1      -8.392  -9.647  12.814  1.00  0.00     0.309 C 
ENDBRANCH  45  46
ENDBRANCH  44  45
ENDBRANCH  43  44
ENDBRANCH  41  43
ENDBRANCH  38  39
ENDBRANCH  37  38
ENDBRANCH  34  37
ENDBRANCH  10  31
ENDBRANCH   1   7
TORSDOF 16
ENDMDL
