MODEL 1
REMARK VINA RESULT: -5.640091269      0.000      0.000
REMARK  10 active torsions:
REMARK  status: ('A' for Active; 'I' for Inactive)
REMARK    1  A    between atoms: C2_2  and  O1_5 
REMARK    2  A    between atoms: O1_5  and  C5_6 
REMARK       I    between atoms: C5_6  and  N1_8 
REMARK    3  A    between atoms: C9_12  and  C10_13 
REMARK    4  A    between atoms: C10_13  and  S1_14 
REMARK    5  A    between atoms: S1_14  and  C11_15 
REMARK    6  A    between atoms: C11_15  and  C12_16 
REMARK    7  A    between atoms: C12_16  and  N2_17 
REMARK       I    between atoms: N2_17  and  C13_19 
REMARK    8  A    between atoms: C13_19  and  C14_21 
REMARK    9  A    between atoms: C14_21  and  O4_23 
REMARK   10  A    between atoms: C14_21  and  C16_25 
ROOT
HETATM    1  S1  UNL     1      32.770  97.066  27.033  1.00  0.00    -0.167 SA
ENDROOT
BRANCH   1   2
HETATM    2  C10 UNL     1      31.824  98.376  26.210  1.00  0.00     0.080 C 
BRANCH   2   3
HETATM    3  C9  UNL     1      30.394  98.384  26.674  1.00  0.00     0.013 C 
HETATM    4  C8  UNL     1      29.722  99.590  26.114  1.00  0.00     0.009 C 
HETATM    5  C7  UNL     1      28.220  99.595  26.272  1.00  0.00     0.020 C 
HETATM    6  C6  UNL     1      27.705  98.344  25.547  1.00  0.00     0.128 C 
HETATM    7  N1  UNL     1      28.278  97.219  26.252  1.00  0.00    -0.328 N 
HETATM    8  C5  UNL     1      27.397  96.249  26.798  1.00  0.00     0.363 C 
HETATM    9  C20 UNL     1      29.692  97.092  26.393  1.00  0.00     0.133 C 
HETATM   10  O2  UNL     1      26.145  96.347  26.685  1.00  0.00    -0.238 OA
BRANCH   8  11
HETATM   11  O1  UNL     1      27.861  95.133  27.493  1.00  0.00    -0.294 OA
BRANCH  11  12
HETATM   12  C2  UNL     1      27.674  94.957  28.877  1.00  0.00     0.061 C 
HETATM   13  C1  UNL     1      28.196  96.118  29.682  1.00  0.00     0.046 C 
HETATM   14  C3  UNL     1      26.244  94.619  29.240  1.00  0.00     0.046 C 
HETATM   15  C4  UNL     1      28.513  93.737  29.275  1.00  0.00     0.046 C 
ENDBRANCH  11  12
ENDBRANCH   8  11
ENDBRANCH   2   3
ENDBRANCH   1   2
BRANCH   1  16
HETATM   16  C11 UNL     1      34.543  97.428  27.012  1.00  0.00     0.093 C 
BRANCH  16  17
HETATM   17  C12 UNL     1      35.166  96.792  28.212  1.00  0.00     0.133 C 
BRANCH  17  18
HETATM   18  N2  UNL     1      34.333  96.966  29.397  1.00  0.00    -0.358 N 
HETATM   19  C13 UNL     1      34.353  96.012  30.438  1.00  0.00     0.252 C 
HETATM   20  O3  UNL     1      35.094  95.011  30.338  1.00  0.00    -0.270 OA
ATOM     21  H2  UNL     1      33.730  97.784  29.473  1.00  0.00     0.162 HD
BRANCH  19  22
HETATM   22  C14 UNL     1      33.514  96.179  31.641  1.00  0.00     0.141 C 
HETATM   23  C15 UNL     1      34.344  95.754  32.831  1.00  0.00     0.057 C 
BRANCH  22  24
HETATM   24  O4  UNL     1      33.149  97.529  31.794  1.00  0.00    -0.380 OA
ATOM     25  H4  UNL     1      32.401  97.602  32.376  1.00  0.00     0.211 HD
ENDBRANCH  22  24
BRANCH  22  26
HETATM   26  C16 UNL     1      32.222  95.392  31.556  1.00  0.00    -0.012 C 
HETATM   27  C17 UNL     1      31.669  95.338  30.168  1.00  0.00     0.018 C 
HETATM   28  C18 UNL     1      31.209  96.017  32.489  1.00  0.00     0.018 C 
HETATM   29  C19 UNL     1      32.494  93.995  32.058  1.00  0.00     0.018 C 
ENDBRANCH  22  26
ENDBRANCH  19  22
ENDBRANCH  17  18
ENDBRANCH  16  17
ENDBRANCH   1  16
TORSDOF 10
ENDMDL
MODEL 2
REMARK VINA RESULT: -5.637539761      1.435      1.871
REMARK  10 active torsions:
REMARK  status: ('A' for Active; 'I' for Inactive)
REMARK    1  A    between atoms: C2_2  and  O1_5 
REMARK    2  A    between atoms: O1_5  and  C5_6 
REMARK       I    between atoms: C5_6  and  N1_8 
REMARK    3  A    between atoms: C9_12  and  C10_13 
REMARK    4  A    between atoms: C10_13  and  S1_14 
REMARK    5  A    between atoms: S1_14  and  C11_15 
REMARK    6  A    between atoms: C11_15  and  C12_16 
REMARK    7  A    between atoms: C12_16  and  N2_17 
REMARK       I    between atoms: N2_17  and  C13_19 
REMARK    8  A    between atoms: C13_19  and  C14_21 
REMARK    9  A    between atoms: C14_21  and  O4_23 
REMARK   10  A    between atoms: C14_21  and  C16_25 
ROOT
HETATM    1  S1  UNL     1      32.510  97.049  26.499  1.00  0.00    -0.167 SA
ENDROOT
BRANCH   1   2
HETATM    2  C10 UNL     1      31.694  98.646  26.232  1.00  0.00     0.080 C 
BRANCH   2   3
HETATM    3  C9  UNL     1      30.253  98.594  26.656  1.00  0.00     0.013 C 
HETATM    4  C8  UNL     1      29.524  99.711  25.990  1.00  0.00     0.009 C 
HETATM    5  C7  UNL     1      28.021  99.631  26.108  1.00  0.00     0.020 C 
HETATM    6  C6  UNL     1      27.608  98.301  25.463  1.00  0.00     0.128 C 
HETATM    7  N1  UNL     1      28.228  97.268  26.264  1.00  0.00    -0.328 N 
HETATM    8  C5  UNL     1      27.392  96.284  26.856  1.00  0.00     0.363 C 
HETATM    9  C20 UNL     1      29.642  97.243  26.452  1.00  0.00     0.133 C 
HETATM   10  O2  UNL     1      26.141  96.293  26.702  1.00  0.00    -0.238 OA
BRANCH   8  11
HETATM   11  O1  UNL     1      27.903  95.253  27.643  1.00  0.00    -0.294 OA
BRANCH  11  12
HETATM   12  C2  UNL     1      28.086  93.942  27.166  1.00  0.00     0.061 C 
HETATM   13  C1  UNL     1      26.891  93.432  26.405  1.00  0.00     0.046 C 
HETATM   14  C3  UNL     1      29.367  93.776  26.377  1.00  0.00     0.046 C 
HETATM   15  C4  UNL     1      28.231  93.049  28.403  1.00  0.00     0.046 C 
ENDBRANCH  11  12
ENDBRANCH   8  11
ENDBRANCH   2   3
ENDBRANCH   1   2
BRANCH   1  16
HETATM   16  C11 UNL     1      34.300  97.250  26.677  1.00  0.00     0.093 C 
BRANCH  16  17
HETATM   17  C12 UNL     1      34.626  97.277  28.135  1.00  0.00     0.133 C 
BRANCH  17  18
HETATM   18  N2  UNL     1      34.138  96.079  28.810  1.00  0.00    -0.358 N 
HETATM   19  C13 UNL     1      33.425  96.177  30.025  1.00  0.00     0.252 C 
HETATM   20  O3  UNL     1      33.213  97.303  30.522  1.00  0.00    -0.270 OA
ATOM     21  H2  UNL     1      34.314  95.162  28.400  1.00  0.00     0.162 HD
BRANCH  19  22
HETATM   22  C14 UNL     1      32.927  94.971  30.716  1.00  0.00     0.141 C 
HETATM   23  C15 UNL     1      34.020  93.929  30.645  1.00  0.00     0.057 C 
BRANCH  22  24
HETATM   24  O4  UNL     1      32.656  95.261  32.066  1.00  0.00    -0.380 OA
ATOM     25  H4  UNL     1      32.525  94.457  32.553  1.00  0.00     0.211 HD
ENDBRANCH  22  24
BRANCH  22  26
HETATM   26  C16 UNL     1      31.632  94.459  30.119  1.00  0.00    -0.012 C 
HETATM   27  C17 UNL     1      30.750  95.559  29.621  1.00  0.00     0.018 C 
HETATM   28  C18 UNL     1      30.900  93.648  31.165  1.00  0.00     0.018 C 
HETATM   29  C19 UNL     1      31.979  93.523  28.987  1.00  0.00     0.018 C 
ENDBRANCH  22  26
ENDBRANCH  19  22
ENDBRANCH  17  18
ENDBRANCH  16  17
ENDBRANCH   1  16
TORSDOF 10
ENDMDL
MODEL 3
REMARK VINA RESULT: -5.626429199      2.339      3.336
REMARK  10 active torsions:
REMARK  status: ('A' for Active; 'I' for Inactive)
REMARK    1  A    between atoms: C2_2  and  O1_5 
REMARK    2  A    between atoms: O1_5  and  C5_6 
REMARK       I    between atoms: C5_6  and  N1_8 
REMARK    3  A    between atoms: C9_12  and  C10_13 
REMARK    4  A    between atoms: C10_13  and  S1_14 
REMARK    5  A    between atoms: S1_14  and  C11_15 
REMARK    6  A    between atoms: C11_15  and  C12_16 
REMARK    7  A    between atoms: C12_16  and  N2_17 
REMARK       I    between atoms: N2_17  and  C13_19 
REMARK    8  A    between atoms: C13_19  and  C14_21 
REMARK    9  A    between atoms: C14_21  and  O4_23 
REMARK   10  A    between atoms: C14_21  and  C16_25 
ROOT
HETATM    1  S1  UNL     1      32.403  97.139  26.034  1.00  0.00    -0.167 SA
ENDROOT
BRANCH   1   2
HETATM    2  C10 UNL     1      31.688  98.786  26.285  1.00  0.00     0.080 C 
BRANCH   2   3
HETATM    3  C9  UNL     1      30.243  98.692  26.690  1.00  0.00     0.013 C 
HETATM    4  C8  UNL     1      29.462  99.673  25.884  1.00  0.00     0.009 C 
HETATM    5  C7  UNL     1      27.965  99.511  25.987  1.00  0.00     0.020 C 
HETATM    6  C6  UNL     1      27.650  98.090  25.498  1.00  0.00     0.128 C 
HETATM    7  N1  UNL     1      28.314  97.201  26.426  1.00  0.00    -0.328 N 
HETATM    8  C5  UNL     1      27.528  96.242  27.117  1.00  0.00     0.363 C 
HETATM    9  C20 UNL     1      29.722  97.289  26.637  1.00  0.00     0.133 C 
HETATM   10  O2  UNL     1      26.282  96.152  26.944  1.00  0.00    -0.238 OA
BRANCH   8  11
HETATM   11  O1  UNL     1      28.083  95.345  28.029  1.00  0.00    -0.294 OA
BRANCH  11  12
HETATM   12  C2  UNL     1      28.308  93.988  27.731  1.00  0.00     0.061 C 
HETATM   13  C1  UNL     1      27.134  93.116  28.088  1.00  0.00     0.046 C 
HETATM   14  C3  UNL     1      28.760  93.765  26.304  1.00  0.00     0.046 C 
HETATM   15  C4  UNL     1      29.473  93.539  28.621  1.00  0.00     0.046 C 
ENDBRANCH  11  12
ENDBRANCH   8  11
ENDBRANCH   2   3
ENDBRANCH   1   2
BRANCH   1  16
HETATM   16  C11 UNL     1      33.377  96.623  27.471  1.00  0.00     0.093 C 
BRANCH  16  17
HETATM   17  C12 UNL     1      34.656  97.396  27.472  1.00  0.00     0.133 C 
BRANCH  17  18
HETATM   18  N2  UNL     1      35.805  96.518  27.660  1.00  0.00    -0.358 N 
HETATM   19  C13 UNL     1      36.355  96.315  28.946  1.00  0.00     0.252 C 
HETATM   20  O3  UNL     1      35.846  96.896  29.928  1.00  0.00    -0.270 OA
ATOM     21  H2  UNL     1      36.217  96.047  26.855  1.00  0.00     0.162 HD
BRANCH  19  22
HETATM   22  C14 UNL     1      37.518  95.428  29.146  1.00  0.00     0.141 C 
HETATM   23  C15 UNL     1      38.498  95.714  28.031  1.00  0.00     0.057 C 
BRANCH  22  24
HETATM   24  O4  UNL     1      38.133  95.706  30.381  1.00  0.00    -0.380 OA
ATOM     25  H4  UNL     1      39.014  96.035  30.241  1.00  0.00     0.211 HD
ENDBRANCH  22  24
BRANCH  22  26
HETATM   26  C16 UNL     1      37.128  93.965  29.180  1.00  0.00    -0.012 C 
HETATM   27  C17 UNL     1      35.701  93.757  29.577  1.00  0.00     0.018 C 
HETATM   28  C18 UNL     1      38.040  93.241  30.145  1.00  0.00     0.018 C 
HETATM   29  C19 UNL     1      37.372  93.385  27.809  1.00  0.00     0.018 C 
ENDBRANCH  22  26
ENDBRANCH  19  22
ENDBRANCH  17  18
ENDBRANCH  16  17
ENDBRANCH   1  16
TORSDOF 10
ENDMDL
MODEL 4
REMARK VINA RESULT: -5.615942354      2.255      4.642
REMARK  10 active torsions:
REMARK  status: ('A' for Active; 'I' for Inactive)
REMARK    1  A    between atoms: C2_2  and  O1_5 
REMARK    2  A    between atoms: O1_5  and  C5_6 
REMARK       I    between atoms: C5_6  and  N1_8 
REMARK    3  A    between atoms: C9_12  and  C10_13 
REMARK    4  A    between atoms: C10_13  and  S1_14 
REMARK    5  A    between atoms: S1_14  and  C11_15 
REMARK    6  A    between atoms: C11_15  and  C12_16 
REMARK    7  A    between atoms: C12_16  and  N2_17 
REMARK       I    between atoms: N2_17  and  C13_19 
REMARK    8  A    between atoms: C13_19  and  C14_21 
REMARK    9  A    between atoms: C14_21  and  O4_23 
REMARK   10  A    between atoms: C14_21  and  C16_25 
ROOT
HETATM    1  S1  UNL     1      29.675  93.532  29.017  1.00  0.00    -0.167 SA
ENDROOT
BRANCH   1   2
HETATM    2  C10 UNL     1      29.282  92.811  27.401  1.00  0.00     0.080 C 
BRANCH   2   3
HETATM    3  C9  UNL     1      28.517  93.783  26.547  1.00  0.00     0.013 C 
HETATM    4  C8  UNL     1      27.063  93.479  26.670  1.00  0.00     0.009 C 
HETATM    5  C7  UNL     1      26.155  94.532  26.083  1.00  0.00     0.020 C 
HETATM    6  C6  UNL     1      26.465  95.835  26.832  1.00  0.00     0.128 C 
HETATM    7  N1  UNL     1      27.846  96.142  26.531  1.00  0.00    -0.328 N 
HETATM    8  C5  UNL     1      28.141  97.394  25.929  1.00  0.00     0.363 C 
HETATM    9  C20 UNL     1      28.881  95.207  26.832  1.00  0.00     0.133 C 
HETATM   10  O2  UNL     1      27.238  98.230  25.655  1.00  0.00    -0.238 OA
BRANCH   8  11
HETATM   11  O1  UNL     1      29.443  97.772  25.604  1.00  0.00    -0.294 OA
BRANCH  11  12
HETATM   12  C2  UNL     1      30.216  98.630  26.408  1.00  0.00     0.061 C 
HETATM   13  C1  UNL     1      29.762  98.642  27.844  1.00  0.00     0.046 C 
HETATM   14  C3  UNL     1      31.701  98.368  26.290  1.00  0.00     0.046 C 
HETATM   15  C4  UNL     1      29.991 100.047  25.867  1.00  0.00     0.046 C 
ENDBRANCH  11  12
ENDBRANCH   8  11
ENDBRANCH   2   3
ENDBRANCH   1   2
BRANCH   1  16
HETATM   16  C11 UNL     1      31.453  93.829  29.186  1.00  0.00     0.093 C 
BRANCH  16  17
HETATM   17  C12 UNL     1      31.670  95.298  29.357  1.00  0.00     0.133 C 
BRANCH  17  18
HETATM   18  N2  UNL     1      32.906  95.730  28.716  1.00  0.00    -0.358 N 
HETATM   19  C13 UNL     1      34.044  96.052  29.489  1.00  0.00     0.252 C 
HETATM   20  O3  UNL     1      33.984  95.964  30.733  1.00  0.00    -0.270 OA
ATOM     21  H2  UNL     1      32.949  95.801  27.700  1.00  0.00     0.162 HD
BRANCH  19  22
HETATM   22  C14 UNL     1      35.301  96.491  28.849  1.00  0.00     0.141 C 
HETATM   23  C15 UNL     1      34.952  96.978  27.462  1.00  0.00     0.057 C 
BRANCH  22  24
HETATM   24  O4  UNL     1      35.872  97.550  29.578  1.00  0.00    -0.380 OA
ATOM     25  H4  UNL     1      36.225  98.202  28.985  1.00  0.00     0.211 HD
ENDBRANCH  22  24
BRANCH  22  26
HETATM   26  C16 UNL     1      36.339  95.389  28.806  1.00  0.00    -0.012 C 
HETATM   27  C17 UNL     1      35.733  94.024  28.732  1.00  0.00     0.018 C 
HETATM   28  C18 UNL     1      37.214  95.497  30.035  1.00  0.00     0.018 C 
HETATM   29  C19 UNL     1      37.221  95.627  27.605  1.00  0.00     0.018 C 
ENDBRANCH  22  26
ENDBRANCH  19  22
ENDBRANCH  17  18
ENDBRANCH  16  17
ENDBRANCH   1  16
TORSDOF 10
ENDMDL
MODEL 5
REMARK VINA RESULT: -5.587823345      2.212      3.229
REMARK  10 active torsions:
REMARK  status: ('A' for Active; 'I' for Inactive)
REMARK    1  A    between atoms: C2_2  and  O1_5 
REMARK    2  A    between atoms: O1_5  and  C5_6 
REMARK       I    between atoms: C5_6  and  N1_8 
REMARK    3  A    between atoms: C9_12  and  C10_13 
REMARK    4  A    between atoms: C10_13  and  S1_14 
REMARK    5  A    between atoms: S1_14  and  C11_15 
REMARK    6  A    between atoms: C11_15  and  C12_16 
REMARK    7  A    between atoms: C12_16  and  N2_17 
REMARK       I    between atoms: N2_17  and  C13_19 
REMARK    8  A    between atoms: C13_19  and  C14_21 
REMARK    9  A    between atoms: C14_21  and  O4_23 
REMARK   10  A    between atoms: C14_21  and  C16_25 
ROOT
HETATM    1  S1  UNL     1      32.508  96.996  26.127  1.00  0.00    -0.167 SA
ENDROOT
BRANCH   1   2
HETATM    2  C10 UNL     1      31.761  98.648  26.180  1.00  0.00     0.080 C 
BRANCH   2   3
HETATM    3  C9  UNL     1      30.332  98.581  26.643  1.00  0.00     0.013 C 
HETATM    4  C8  UNL     1      29.585  99.717  26.034  1.00  0.00     0.009 C 
HETATM    5  C7  UNL     1      28.086  99.631  26.192  1.00  0.00     0.020 C 
HETATM    6  C6  UNL     1      27.655  98.322  25.517  1.00  0.00     0.128 C 
HETATM    7  N1  UNL     1      28.298  97.265  26.266  1.00  0.00    -0.328 N 
HETATM    8  C5  UNL     1      27.480  96.262  26.850  1.00  0.00     0.363 C 
HETATM    9  C20 UNL     1      29.717  97.236  26.413  1.00  0.00     0.133 C 
HETATM   10  O2  UNL     1      26.225  96.273  26.732  1.00  0.00    -0.238 OA
BRANCH   8  11
HETATM   11  O1  UNL     1      28.014  95.206  27.589  1.00  0.00    -0.294 OA
BRANCH  11  12
HETATM   12  C2  UNL     1      27.951  95.144  28.993  1.00  0.00     0.061 C 
HETATM   13  C1  UNL     1      28.623  96.319  29.654  1.00  0.00     0.046 C 
HETATM   14  C3  UNL     1      26.545  94.936  29.512  1.00  0.00     0.046 C 
HETATM   15  C4  UNL     1      28.745  93.899  29.406  1.00  0.00     0.046 C 
ENDBRANCH  11  12
ENDBRANCH   8  11
ENDBRANCH   2   3
ENDBRANCH   1   2
BRANCH   1  16
HETATM   16  C11 UNL     1      33.432  96.648  27.644  1.00  0.00     0.093 C 
BRANCH  16  17
HETATM   17  C12 UNL     1      34.702  97.436  27.612  1.00  0.00     0.133 C 
BRANCH  17  18
HETATM   18  N2  UNL     1      35.869  96.562  27.635  1.00  0.00    -0.358 N 
HETATM   19  C13 UNL     1      36.518  96.259  28.853  1.00  0.00     0.252 C 
HETATM   20  O3  UNL     1      36.083  96.748  29.917  1.00  0.00    -0.270 OA
ATOM     21  H2  UNL     1      36.221  96.167  26.764  1.00  0.00     0.162 HD
BRANCH  19  22
HETATM   22  C14 UNL     1      37.701  95.376  28.887  1.00  0.00     0.141 C 
HETATM   23  C15 UNL     1      38.380  95.482  27.541  1.00  0.00     0.057 C 
BRANCH  22  24
HETATM   24  O4  UNL     1      38.595  95.800  29.888  1.00  0.00    -0.380 OA
ATOM     25  H4  UNL     1      39.130  95.071  30.178  1.00  0.00     0.211 HD
ENDBRANCH  22  24
BRANCH  22  26
HETATM   26  C16 UNL     1      37.339  93.942  29.215  1.00  0.00    -0.012 C 
HETATM   27  C17 UNL     1      35.929  93.603  28.849  1.00  0.00     0.018 C 
HETATM   28  C18 UNL     1      37.556  93.711  30.694  1.00  0.00     0.018 C 
HETATM   29  C19 UNL     1      38.294  93.039  28.474  1.00  0.00     0.018 C 
ENDBRANCH  22  26
ENDBRANCH  19  22
ENDBRANCH  17  18
ENDBRANCH  16  17
ENDBRANCH   1  16
TORSDOF 10
ENDMDL
