MODEL 1
REMARK VINA RESULT: -7.659342503      0.000      0.000
REMARK  8 active torsions:
REMARK  status: ('A' for Active; 'I' for Inactive)
REMARK    1  A    between atoms: C2_2  and  C3_3 
REMARK    2  A    between atoms: C3_3  and  C4_4 
REMARK    3  A    between atoms: C4_4  and  N1_5 
REMARK       I    between atoms: N1_5  and  C5_7 
REMARK       I    between atoms: C5_7  and  N3_11 
REMARK       I    between atoms: N3_11  and  C6_13 
REMARK    4  A    between atoms: C6_13  and  O2_15 
REMARK    5  A    between atoms: O2_15  and  C7_16 
REMARK    6  A    between atoms: C7_16  and  C9_18 
REMARK    7  A    between atoms: C7_16  and  C19_32 
REMARK    8  A    between atoms: C12_21  and  C13_22 
ROOT
HETATM    1  C7  UNL     1     -26.542  11.114 -90.547  1.00  0.00     0.193 C 
HETATM    2  C8  UNL     1     -25.684  12.228 -89.912  1.00  0.00     0.062 C 
ENDROOT
BRANCH   1   3
HETATM    3  O2  UNL     1     -26.638  11.266 -91.905  1.00  0.00    -0.278 OA
BRANCH   3   4
HETATM    4  C6  UNL     1     -26.462  12.316 -92.733  1.00  0.00     0.380 C 
HETATM    5  N3  UNL     1     -27.467  13.237 -93.133  1.00  0.00    -0.136 N 
HETATM    6  C5  UNL     1     -27.251  14.308 -94.038  1.00  0.00     0.676 C 
ATOM      7  H3  UNL     1     -28.403  13.120 -92.746  1.00  0.00     0.189 HD
HETATM    8  N1  UNL     1     -26.054  14.528 -94.720  1.00  0.00    -0.226 N 
HETATM    9  N2  UNL     1     -28.240  15.114 -94.300  1.00  0.00    -0.235 N 
ATOM     10  H1  UNL     1     -25.672  13.743 -95.247  1.00  0.00     0.177 HD
ATOM     11  H22 UNL     1     -28.085  15.884 -94.950  1.00  0.00     0.174 HD
ATOM     12  H21 UNL     1     -29.115  14.953 -93.800  1.00  0.00     0.174 HD
HETATM   13  O1  UNL     1     -25.316  12.511 -93.199  1.00  0.00    -0.238 OA
BRANCH   8  14
HETATM   14  C4  UNL     1     -25.309  15.759 -94.750  1.00  0.00     0.138 C 
BRANCH  14  15
HETATM   15  C3  UNL     1     -24.559  15.886 -96.072  1.00  0.00     0.020 C 
BRANCH  15  16
HETATM   16  C2  UNL     1     -23.666  17.081 -96.114  1.00  0.00    -0.003 C 
HETATM   17  C1  UNL     1     -24.184  18.230 -96.924  1.00  0.00     0.005 C 
ENDBRANCH  15  16
ENDBRANCH  14  15
ENDBRANCH   8  14
ENDBRANCH   3   4
ENDBRANCH   1   3
BRANCH   1  18
HETATM   18  C9  UNL     1     -27.923  11.296 -89.989  1.00  0.00    -0.015 A 
HETATM   19  C10 UNL     1     -28.810  10.257 -90.048  1.00  0.00     0.011 A 
HETATM   20  C11 UNL     1     -30.099  10.441 -89.539  1.00  0.00     0.016 A 
HETATM   21  C12 UNL     1     -30.490  11.631 -88.987  1.00  0.00     0.008 A 
HETATM   22  C17 UNL     1     -29.599  12.696 -88.920  1.00  0.00     0.016 A 
HETATM   23  C18 UNL     1     -28.339  12.491 -89.424  1.00  0.00     0.011 A 
BRANCH  21  24
HETATM   24  C13 UNL     1     -31.857  11.778 -88.481  1.00  0.00     0.115 A 
HETATM   25  N4  UNL     1     -32.370  12.934 -88.051  1.00  0.00    -0.352 N 
HETATM   26  C14 UNL     1     -33.648  13.035 -87.598  1.00  0.00     0.091 A 
ATOM     27  H4  UNL     1     -31.783  13.769 -88.064  1.00  0.00     0.166 HD
HETATM   28  C15 UNL     1     -34.482  11.948 -87.559  1.00  0.00     0.034 A 
HETATM   29  C16 UNL     1     -33.947  10.741 -88.007  1.00  0.00     0.091 A 
HETATM   30  N5  UNL     1     -32.685  10.695 -88.443  1.00  0.00    -0.352 N 
ATOM     31  H5  UNL     1     -32.319   9.798 -88.765  1.00  0.00     0.166 HD
ENDBRANCH  21  24
ENDBRANCH   1  18
BRANCH   1  32
HETATM   32  C19 UNL     1     -26.039   9.821 -89.997  1.00  0.00     0.423 C 
HETATM   33  F1  UNL     1     -25.693   8.874 -90.938  1.00  0.00    -0.167 F 
HETATM   34  F2  UNL     1     -24.849  10.066 -89.289  1.00  0.00    -0.167 F 
HETATM   35  F3  UNL     1     -26.874   9.235 -89.050  1.00  0.00    -0.167 F 
ENDBRANCH   1  32
TORSDOF 8
ENDMDL
MODEL 2
REMARK VINA RESULT: -7.656594522      0.546      1.187
REMARK  8 active torsions:
REMARK  status: ('A' for Active; 'I' for Inactive)
REMARK    1  A    between atoms: C2_2  and  C3_3 
REMARK    2  A    between atoms: C3_3  and  C4_4 
REMARK    3  A    between atoms: C4_4  and  N1_5 
REMARK       I    between atoms: N1_5  and  C5_7 
REMARK       I    between atoms: C5_7  and  N3_11 
REMARK       I    between atoms: N3_11  and  C6_13 
REMARK    4  A    between atoms: C6_13  and  O2_15 
REMARK    5  A    between atoms: O2_15  and  C7_16 
REMARK    6  A    between atoms: C7_16  and  C9_18 
REMARK    7  A    between atoms: C7_16  and  C19_32 
REMARK    8  A    between atoms: C12_21  and  C13_22 
ROOT
HETATM    1  C7  UNL     1     -26.547  11.079 -90.597  1.00  0.00     0.193 C 
HETATM    2  C8  UNL     1     -25.667  12.154 -89.927  1.00  0.00     0.062 C 
ENDROOT
BRANCH   1   3
HETATM    3  O2  UNL     1     -26.603  11.249 -91.955  1.00  0.00    -0.278 OA
BRANCH   3   4
HETATM    4  C6  UNL     1     -26.466  12.323 -92.758  1.00  0.00     0.380 C 
HETATM    5  N3  UNL     1     -27.507  13.210 -93.145  1.00  0.00    -0.136 N 
HETATM    6  C5  UNL     1     -27.331  14.309 -94.025  1.00  0.00     0.676 C 
ATOM      7  H3  UNL     1     -28.439  13.046 -92.765  1.00  0.00     0.189 HD
HETATM    8  N1  UNL     1     -26.142  14.593 -94.696  1.00  0.00    -0.226 N 
HETATM    9  N2  UNL     1     -28.352  15.078 -94.274  1.00  0.00    -0.235 N 
ATOM     10  H1  UNL     1     -25.725  13.836 -95.237  1.00  0.00     0.177 HD
ATOM     11  H22 UNL     1     -28.226  15.868 -94.907  1.00  0.00     0.174 HD
ATOM     12  H21 UNL     1     -29.222  14.870 -93.784  1.00  0.00     0.174 HD
HETATM   13  O1  UNL     1     -25.328  12.575 -93.215  1.00  0.00    -0.238 OA
BRANCH   8  14
HETATM   14  C4  UNL     1     -25.448  15.853 -94.695  1.00  0.00     0.138 C 
BRANCH  14  15
HETATM   15  C3  UNL     1     -24.466  15.913 -95.860  1.00  0.00     0.020 C 
BRANCH  15  16
HETATM   16  C2  UNL     1     -23.127  16.433 -95.458  1.00  0.00    -0.003 C 
HETATM   17  C1  UNL     1     -22.280  15.471 -94.683  1.00  0.00     0.005 C 
ENDBRANCH  15  16
ENDBRANCH  14  15
ENDBRANCH   8  14
ENDBRANCH   3   4
ENDBRANCH   1   3
BRANCH   1  18
HETATM   18  C9  UNL     1     -27.935  11.304 -90.072  1.00  0.00    -0.015 A 
HETATM   19  C10 UNL     1     -28.230  12.483 -89.446  1.00  0.00     0.011 A 
HETATM   20  C11 UNL     1     -29.521  12.677 -88.946  1.00  0.00     0.016 A 
HETATM   21  C12 UNL     1     -30.490  11.718 -89.070  1.00  0.00     0.008 A 
HETATM   22  C17 UNL     1     -30.205  10.514 -89.704  1.00  0.00     0.016 A 
HETATM   23  C18 UNL     1     -28.931  10.347 -90.187  1.00  0.00     0.011 A 
BRANCH  21  24
HETATM   24  C13 UNL     1     -31.824  11.964 -88.516  1.00  0.00     0.115 A 
HETATM   25  N4  UNL     1     -32.209  13.135 -88.000  1.00  0.00    -0.352 N 
HETATM   26  C14 UNL     1     -33.460  13.331 -87.503  1.00  0.00     0.091 A 
ATOM     27  H4  UNL     1     -31.543  13.907 -87.977  1.00  0.00     0.166 HD
HETATM   28  C15 UNL     1     -34.398  12.330 -87.508  1.00  0.00     0.034 A 
HETATM   29  C16 UNL     1     -33.996  11.108 -88.047  1.00  0.00     0.091 A 
HETATM   30  N5  UNL     1     -32.755  10.967 -88.521  1.00  0.00    -0.352 N 
ATOM     31  H5  UNL     1     -32.488  10.062 -88.910  1.00  0.00     0.166 HD
ENDBRANCH  21  24
ENDBRANCH   1  18
BRANCH   1  32
HETATM   32  C19 UNL     1     -26.105   9.763 -90.049  1.00  0.00     0.423 C 
HETATM   33  F1  UNL     1     -25.783   8.809 -90.992  1.00  0.00    -0.167 F 
HETATM   34  F2  UNL     1     -24.917   9.954 -89.322  1.00  0.00    -0.167 F 
HETATM   35  F3  UNL     1     -26.977   9.204 -89.119  1.00  0.00    -0.167 F 
ENDBRANCH   1  32
TORSDOF 8
ENDMDL
MODEL 3
REMARK VINA RESULT: -7.538052457      1.215      1.749
REMARK  8 active torsions:
REMARK  status: ('A' for Active; 'I' for Inactive)
REMARK    1  A    between atoms: C2_2  and  C3_3 
REMARK    2  A    between atoms: C3_3  and  C4_4 
REMARK    3  A    between atoms: C4_4  and  N1_5 
REMARK       I    between atoms: N1_5  and  C5_7 
REMARK       I    between atoms: C5_7  and  N3_11 
REMARK       I    between atoms: N3_11  and  C6_13 
REMARK    4  A    between atoms: C6_13  and  O2_15 
REMARK    5  A    between atoms: O2_15  and  C7_16 
REMARK    6  A    between atoms: C7_16  and  C9_18 
REMARK    7  A    between atoms: C7_16  and  C19_32 
REMARK    8  A    between atoms: C12_21  and  C13_22 
ROOT
HETATM    1  C7  UNL     1     -26.439  11.504 -90.989  1.00  0.00     0.193 C 
HETATM    2  C8  UNL     1     -25.719  12.599 -90.176  1.00  0.00     0.062 C 
ENDROOT
BRANCH   1   3
HETATM    3  O2  UNL     1     -26.553  11.851 -92.310  1.00  0.00    -0.278 OA
BRANCH   3   4
HETATM    4  C6  UNL     1     -26.092  12.889 -93.036  1.00  0.00     0.380 C 
HETATM    5  N3  UNL     1     -24.772  13.415 -92.990  1.00  0.00    -0.136 N 
HETATM    6  C5  UNL     1     -24.335  14.536 -93.742  1.00  0.00     0.676 C 
ATOM      7  H3  UNL     1     -24.097  12.957 -92.377  1.00  0.00     0.189 HD
HETATM    8  N1  UNL     1     -25.169  15.318 -94.540  1.00  0.00    -0.226 N 
HETATM    9  N2  UNL     1     -23.089  14.902 -93.649  1.00  0.00    -0.235 N 
ATOM     10  H1  UNL     1     -26.012  15.689 -94.102  1.00  0.00     0.177 HD
ATOM     11  H22 UNL     1     -22.773  15.707 -94.189  1.00  0.00     0.174 HD
ATOM     12  H21 UNL     1     -22.478  14.330 -93.065  1.00  0.00     0.174 HD
HETATM   13  O1  UNL     1     -26.883  13.453 -93.825  1.00  0.00    -0.238 OA
BRANCH   8  14
HETATM   14  C4  UNL     1     -24.953  15.649 -95.924  1.00  0.00     0.138 C 
BRANCH  14  15
HETATM   15  C3  UNL     1     -24.558  17.116 -96.057  1.00  0.00     0.020 C 
BRANCH  15  16
HETATM   16  C2  UNL     1     -23.088  17.304 -96.223  1.00  0.00    -0.003 C 
HETATM   17  C1  UNL     1     -22.677  18.642 -96.758  1.00  0.00     0.005 C 
ENDBRANCH  15  16
ENDBRANCH  14  15
ENDBRANCH   8  14
ENDBRANCH   3   4
ENDBRANCH   1   3
BRANCH   1  18
HETATM   18  C9  UNL     1     -27.833  11.437 -90.436  1.00  0.00    -0.015 A 
HETATM   19  C10 UNL     1     -28.655  12.523 -90.559  1.00  0.00     0.011 A 
HETATM   20  C11 UNL     1     -29.946  12.456 -90.026  1.00  0.00     0.016 A 
HETATM   21  C12 UNL     1     -30.401  11.334 -89.388  1.00  0.00     0.008 A 
HETATM   22  C17 UNL     1     -29.577  10.222 -89.254  1.00  0.00     0.016 A 
HETATM   23  C18 UNL     1     -28.315  10.311 -89.786  1.00  0.00     0.011 A 
BRANCH  21  24
HETATM   24  C13 UNL     1     -31.757  11.319 -88.833  1.00  0.00     0.115 A 
HETATM   25  N4  UNL     1     -32.437  12.422 -88.506  1.00  0.00    -0.352 N 
HETATM   26  C14 UNL     1     -33.700  12.371 -88.003  1.00  0.00     0.091 A 
ATOM     27  H4  UNL     1     -31.995  13.332 -88.637  1.00  0.00     0.166 HD
HETATM   28  C15 UNL     1     -34.345  11.178 -87.806  1.00  0.00     0.034 A 
HETATM   29  C16 UNL     1     -33.635  10.026 -88.147  1.00  0.00     0.091 A 
HETATM   30  N5  UNL     1     -32.396  10.131 -88.638  1.00  0.00    -0.352 N 
ATOM     31  H5  UNL     1     -31.901   9.272 -88.879  1.00  0.00     0.166 HD
ENDBRANCH  21  24
ENDBRANCH   1  18
BRANCH   1  32
HETATM   32  C19 UNL     1     -25.789  10.209 -90.634  1.00  0.00     0.423 C 
HETATM   33  F1  UNL     1     -26.489   9.078 -90.995  1.00  0.00    -0.167 F 
HETATM   34  F2  UNL     1     -24.573  10.110 -91.333  1.00  0.00    -0.167 F 
HETATM   35  F3  UNL     1     -25.412  10.102 -89.298  1.00  0.00    -0.167 F 
ENDBRANCH   1  32
TORSDOF 8
ENDMDL
MODEL 4
REMARK VINA RESULT: -7.322291864      3.134      9.375
REMARK  8 active torsions:
REMARK  status: ('A' for Active; 'I' for Inactive)
REMARK    1  A    between atoms: C2_2  and  C3_3 
REMARK    2  A    between atoms: C3_3  and  C4_4 
REMARK    3  A    between atoms: C4_4  and  N1_5 
REMARK       I    between atoms: N1_5  and  C5_7 
REMARK       I    between atoms: C5_7  and  N3_11 
REMARK       I    between atoms: N3_11  and  C6_13 
REMARK    4  A    between atoms: C6_13  and  O2_15 
REMARK    5  A    between atoms: O2_15  and  C7_16 
REMARK    6  A    between atoms: C7_16  and  C9_18 
REMARK    7  A    between atoms: C7_16  and  C19_32 
REMARK    8  A    between atoms: C12_21  and  C13_22 
ROOT
HETATM    1  C7  UNL     1     -28.833  13.301 -92.965  1.00  0.00     0.193 C 
HETATM    2  C8  UNL     1     -29.707  14.416 -92.355  1.00  0.00     0.062 C 
ENDROOT
BRANCH   1   3
HETATM    3  O2  UNL     1     -28.472  12.373 -92.025  1.00  0.00    -0.278 OA
BRANCH   3   4
HETATM    4  C6  UNL     1     -29.059  11.922 -90.898  1.00  0.00     0.380 C 
HETATM    5  N3  UNL     1     -29.322  12.691 -89.733  1.00  0.00    -0.136 N 
HETATM    6  C5  UNL     1     -29.908  12.170 -88.550  1.00  0.00     0.676 C 
ATOM      7  H3  UNL     1     -29.073  13.680 -89.747  1.00  0.00     0.189 HD
HETATM    8  N1  UNL     1     -30.205  10.822 -88.351  1.00  0.00    -0.226 N 
HETATM    9  N2  UNL     1     -30.139  12.981 -87.558  1.00  0.00    -0.235 N 
ATOM     10  H1  UNL     1     -29.450  10.154 -88.509  1.00  0.00     0.177 HD
ATOM     11  H22 UNL     1     -30.559  12.608 -86.708  1.00  0.00     0.174 HD
ATOM     12  H21 UNL     1     -29.922  13.968 -87.704  1.00  0.00     0.174 HD
HETATM   13  O1  UNL     1     -29.410  10.720 -90.858  1.00  0.00    -0.238 OA
BRANCH   8  14
HETATM   14  C4  UNL     1     -31.476  10.285 -87.943  1.00  0.00     0.138 C 
BRANCH  14  15
HETATM   15  C3  UNL     1     -32.561  10.696 -88.931  1.00  0.00     0.020 C 
BRANCH  15  16
HETATM   16  C2  UNL     1     -33.673   9.704 -89.010  1.00  0.00    -0.003 C 
HETATM   17  C1  UNL     1     -34.959  10.142 -88.379  1.00  0.00     0.005 C 
ENDBRANCH  15  16
ENDBRANCH  14  15
ENDBRANCH   8  14
ENDBRANCH   3   4
ENDBRANCH   1   3
BRANCH   1  18
HETATM   18  C9  UNL     1     -27.571  13.976 -93.418  1.00  0.00    -0.015 A 
HETATM   19  C10 UNL     1     -27.644  15.215 -93.992  1.00  0.00     0.011 A 
HETATM   20  C11 UNL     1     -26.465  15.829 -94.425  1.00  0.00     0.016 A 
HETATM   21  C12 UNL     1     -25.247  15.219 -94.288  1.00  0.00     0.008 A 
HETATM   22  C17 UNL     1     -25.157  13.960 -93.707  1.00  0.00     0.016 A 
HETATM   23  C18 UNL     1     -26.328  13.378 -93.289  1.00  0.00     0.011 A 
BRANCH  21  24
HETATM   24  C13 UNL     1     -24.042  15.898 -94.772  1.00  0.00     0.115 A 
HETATM   25  N4  UNL     1     -24.041  16.791 -95.765  1.00  0.00    -0.352 N 
HETATM   26  C14 UNL     1     -22.904  17.410 -96.181  1.00  0.00     0.091 A 
ATOM     27  H4  UNL     1     -24.923  17.016 -96.227  1.00  0.00     0.166 HD
HETATM   28  C15 UNL     1     -21.691  17.148 -95.598  1.00  0.00     0.034 A 
HETATM   29  C16 UNL     1     -21.692  16.216 -94.561  1.00  0.00     0.091 A 
HETATM   30  N5  UNL     1     -22.837  15.635 -94.190  1.00  0.00    -0.352 N 
ATOM     31  H5  UNL     1     -22.807  14.957 -93.429  1.00  0.00     0.166 HD
ENDBRANCH  21  24
ENDBRANCH   1  18
BRANCH   1  32
HETATM   32  C19 UNL     1     -29.527  12.844 -94.205  1.00  0.00     0.423 C 
HETATM   33  F1  UNL     1     -30.285  11.700 -94.070  1.00  0.00    -0.167 F 
HETATM   34  F2  UNL     1     -30.449  13.833 -94.595  1.00  0.00    -0.167 F 
HETATM   35  F3  UNL     1     -28.697  12.711 -95.314  1.00  0.00    -0.167 F 
ENDBRANCH   1  32
TORSDOF 8
ENDMDL
MODEL 5
REMARK VINA RESULT: -7.208205335      3.422      4.327
REMARK  8 active torsions:
REMARK  status: ('A' for Active; 'I' for Inactive)
REMARK    1  A    between atoms: C2_2  and  C3_3 
REMARK    2  A    between atoms: C3_3  and  C4_4 
REMARK    3  A    between atoms: C4_4  and  N1_5 
REMARK       I    between atoms: N1_5  and  C5_7 
REMARK       I    between atoms: C5_7  and  N3_11 
REMARK       I    between atoms: N3_11  and  C6_13 
REMARK    4  A    between atoms: C6_13  and  O2_15 
REMARK    5  A    between atoms: O2_15  and  C7_16 
REMARK    6  A    between atoms: C7_16  and  C9_18 
REMARK    7  A    between atoms: C7_16  and  C19_32 
REMARK    8  A    between atoms: C12_21  and  C13_22 
ROOT
HETATM    1  C7  UNL     1     -28.836  13.537 -94.145  1.00  0.00     0.193 C 
HETATM    2  C8  UNL     1     -29.759  12.697 -95.053  1.00  0.00     0.062 C 
ENDROOT
BRANCH   1   3
HETATM    3  O2  UNL     1     -27.521  13.185 -94.301  1.00  0.00    -0.278 OA
BRANCH   3   4
HETATM    4  C6  UNL     1     -26.383  13.897 -94.432  1.00  0.00     0.380 C 
HETATM    5  N3  UNL     1     -25.966  14.590 -95.600  1.00  0.00    -0.136 N 
HETATM    6  C5  UNL     1     -24.741  15.297 -95.712  1.00  0.00     0.676 C 
ATOM      7  H3  UNL     1     -26.587  14.579 -96.409  1.00  0.00     0.189 HD
HETATM    8  N1  UNL     1     -23.754  15.314 -94.727  1.00  0.00    -0.226 N 
HETATM    9  N2  UNL     1     -24.485  15.930 -96.821  1.00  0.00    -0.235 N 
ATOM     10  H1  UNL     1     -23.431  14.411 -94.381  1.00  0.00     0.177 HD
ATOM     11  H22 UNL     1     -23.604  16.438 -96.902  1.00  0.00     0.174 HD
ATOM     12  H21 UNL     1     -25.207  15.918 -97.541  1.00  0.00     0.174 HD
HETATM   13  O1  UNL     1     -25.614  13.962 -93.447  1.00  0.00    -0.238 OA
BRANCH   8  14
HETATM   14  C4  UNL     1     -23.148  16.487 -94.154  1.00  0.00     0.138 C 
BRANCH  14  15
HETATM   15  C3  UNL     1     -21.640  16.463 -94.379  1.00  0.00     0.020 C 
BRANCH  15  16
HETATM   16  C2  UNL     1     -21.123  17.739 -94.952  1.00  0.00    -0.003 C 
HETATM   17  C1  UNL     1     -21.821  18.206 -96.193  1.00  0.00     0.005 C 
ENDBRANCH  15  16
ENDBRANCH  14  15
ENDBRANCH   8  14
ENDBRANCH   3   4
ENDBRANCH   1   3
BRANCH   1  18
HETATM   18  C9  UNL     1     -29.218  13.182 -92.738  1.00  0.00    -0.015 A 
HETATM   19  C10 UNL     1     -30.429  13.587 -92.251  1.00  0.00     0.011 A 
HETATM   20  C11 UNL     1     -30.770  13.265 -90.934  1.00  0.00     0.016 A 
HETATM   21  C12 UNL     1     -29.920  12.557 -90.126  1.00  0.00     0.008 A 
HETATM   22  C17 UNL     1     -28.686  12.138 -90.607  1.00  0.00     0.016 A 
HETATM   23  C18 UNL     1     -28.374  12.465 -91.903  1.00  0.00     0.011 A 
BRANCH  21  24
HETATM   24  C13 UNL     1     -30.318  12.258 -88.748  1.00  0.00     0.115 A 
HETATM   25  N4  UNL     1     -30.588  13.193 -87.833  1.00  0.00    -0.352 N 
HETATM   26  C14 UNL     1     -30.965  12.878 -86.565  1.00  0.00     0.091 A 
ATOM     27  H4  UNL     1     -30.510  14.176 -88.095  1.00  0.00     0.166 HD
HETATM   28  C15 UNL     1     -31.088  11.575 -86.157  1.00  0.00     0.034 A 
HETATM   29  C16 UNL     1     -30.805  10.598 -87.111  1.00  0.00     0.091 A 
HETATM   30  N5  UNL     1     -30.438  10.960 -88.344  1.00  0.00    -0.352 N 
ATOM     31  H5  UNL     1     -30.238  10.225 -89.022  1.00  0.00     0.166 HD
ENDBRANCH  21  24
ENDBRANCH   1  18
BRANCH   1  32
HETATM   32  C19 UNL     1     -29.232  14.963 -94.335  1.00  0.00     0.423 C 
HETATM   33  F1  UNL     1     -28.482  15.883 -93.632  1.00  0.00    -0.167 F 
HETATM   34  F2  UNL     1     -29.038  15.308 -95.685  1.00  0.00    -0.167 F 
HETATM   35  F3  UNL     1     -30.583  15.219 -94.118  1.00  0.00    -0.167 F 
ENDBRANCH   1  32
TORSDOF 8
ENDMDL
