MODEL 1
REMARK VINA RESULT: -5.831218358      0.000      0.000
REMARK  1 active torsions:
REMARK  status: ('A' for Active; 'I' for Inactive)
REMARK    1  A    between atoms: N1_3  and  C3_4 
ROOT
HETATM    1  C3  UNL     1     -29.215   3.068  46.783  1.00  0.00     0.029 C 
HETATM    2  C4  UNL     1     -27.827   3.134  47.413  1.00  0.00     0.035 C 
HETATM    3  C5  UNL     1     -26.747   3.101  46.369  1.00  0.00    -0.012 C 
HETATM    4  C6  UNL     1     -26.883   4.364  45.551  1.00  0.00     0.009 C 
HETATM    5  C7  UNL     1     -28.245   4.380  44.927  1.00  0.00    -0.012 C 
HETATM    6  C8  UNL     1     -28.339   3.189  43.989  1.00  0.00     0.009 C 
HETATM    7  C9  UNL     1     -28.200   1.930  44.802  1.00  0.00    -0.012 C 
HETATM    8  C10 UNL     1     -26.843   1.913  45.449  1.00  0.00     0.009 C 
HETATM    9  C11 UNL     1     -29.236   1.846  45.915  1.00  0.00     0.035 C 
HETATM   10  C12 UNL     1     -29.370   4.272  45.912  1.00  0.00     0.035 C 
ENDROOT
BRANCH   1  11
HETATM   11  N1  UNL     1     -30.135   2.951  47.849  1.00  0.00    -0.400 N 
HETATM   12  C2  UNL     1     -30.050   3.902  48.902  1.00  0.00     0.144 C 
HETATM   13  C1  UNL     1     -31.318   3.743  49.737  1.00  0.00     0.187 C 
HETATM   14  O1  UNL     1     -31.407   2.491  50.316  1.00  0.00    -0.388 OA
HETATM   15  C14 UNL     1     -30.471   1.585  49.817  1.00  0.00     0.187 C 
HETATM   16  C13 UNL     1     -30.465   1.649  48.294  1.00  0.00     0.144 C 
ENDBRANCH   1  11
TORSDOF 1
ENDMDL
MODEL 2
REMARK VINA RESULT: -5.738573546      0.417      1.239
REMARK  1 active torsions:
REMARK  status: ('A' for Active; 'I' for Inactive)
REMARK    1  A    between atoms: N1_3  and  C3_4 
ROOT
HETATM    1  C3  UNL     1     -28.899   2.994  47.204  1.00  0.00     0.029 C 
HETATM    2  C4  UNL     1     -27.396   3.034  47.469  1.00  0.00     0.035 C 
HETATM    3  C5  UNL     1     -26.612   3.028  46.187  1.00  0.00    -0.012 C 
HETATM    4  C6  UNL     1     -26.932   4.315  45.464  1.00  0.00     0.009 C 
HETATM    5  C7  UNL     1     -28.406   4.357  45.201  1.00  0.00    -0.012 C 
HETATM    6  C8  UNL     1     -28.746   3.195  44.284  1.00  0.00     0.009 C 
HETATM    7  C9  UNL     1     -28.424   1.911  45.000  1.00  0.00    -0.012 C 
HETATM    8  C10 UNL     1     -26.948   1.869  45.288  1.00  0.00     0.009 C 
HETATM    9  C11 UNL     1     -29.150   1.799  46.335  1.00  0.00     0.035 C 
HETATM   10  C12 UNL     1     -29.252   4.224  46.433  1.00  0.00     0.035 C 
ENDROOT
BRANCH   1  11
HETATM   11  N1  UNL     1     -29.524   2.850  48.462  1.00  0.00    -0.400 N 
HETATM   12  C2  UNL     1     -30.349   1.709  48.664  1.00  0.00     0.144 C 
HETATM   13  C1  UNL     1     -30.636   1.639  50.161  1.00  0.00     0.187 C 
HETATM   14  O1  UNL     1     -31.339   2.741  50.609  1.00  0.00    -0.388 OA
HETATM   15  C14 UNL     1     -31.407   3.770  49.670  1.00  0.00     0.187 C 
HETATM   16  C13 UNL     1     -30.021   4.018  49.088  1.00  0.00     0.144 C 
ENDBRANCH   1  11
TORSDOF 1
ENDMDL
MODEL 3
REMARK VINA RESULT: -5.718023895      0.207      1.822
REMARK  1 active torsions:
REMARK  status: ('A' for Active; 'I' for Inactive)
REMARK    1  A    between atoms: N1_3  and  C3_4 
ROOT
HETATM    1  C3  UNL     1     -29.040   3.150  47.026  1.00  0.00     0.029 C 
HETATM    2  C4  UNL     1     -29.170   1.883  46.184  1.00  0.00     0.035 C 
HETATM    3  C5  UNL     1     -28.294   1.941  44.965  1.00  0.00    -0.012 C 
HETATM    4  C6  UNL     1     -26.863   1.963  45.447  1.00  0.00     0.009 C 
HETATM    5  C7  UNL     1     -26.673   3.171  46.313  1.00  0.00    -0.012 C 
HETATM    6  C8  UNL     1     -26.907   4.400  45.450  1.00  0.00     0.009 C 
HETATM    7  C9  UNL     1     -28.332   4.377  44.965  1.00  0.00    -0.012 C 
HETATM    8  C10 UNL     1     -28.539   3.157  44.112  1.00  0.00     0.009 C 
HETATM    9  C11 UNL     1     -29.330   4.303  46.114  1.00  0.00     0.035 C 
HETATM   10  C12 UNL     1     -27.618   3.246  47.475  1.00  0.00     0.035 C 
ENDROOT
BRANCH   1  11
HETATM   11  N1  UNL     1     -30.008   3.053  48.049  1.00  0.00    -0.400 N 
HETATM   12  C2  UNL     1     -29.906   3.956  49.143  1.00  0.00     0.144 C 
HETATM   13  C1  UNL     1     -31.215   3.848  49.920  1.00  0.00     0.187 C 
HETATM   14  O1  UNL     1     -31.407   2.584  50.445  1.00  0.00    -0.388 OA
HETATM   15  C14 UNL     1     -30.511   1.638  49.946  1.00  0.00     0.187 C 
HETATM   16  C13 UNL     1     -30.438   1.759  48.428  1.00  0.00     0.144 C 
ENDBRANCH   1  11
TORSDOF 1
ENDMDL
MODEL 4
REMARK VINA RESULT: -4.931563317      1.412      2.811
REMARK  1 active torsions:
REMARK  status: ('A' for Active; 'I' for Inactive)
REMARK    1  A    between atoms: N1_3  and  C3_4 
ROOT
HETATM    1  C3  UNL     1     -29.801   2.792  48.235  1.00  0.00     0.029 C 
HETATM    2  C4  UNL     1     -30.271   1.556  47.471  1.00  0.00     0.035 C 
HETATM    3  C5  UNL     1     -30.152   1.750  45.986  1.00  0.00    -0.012 C 
HETATM    4  C6  UNL     1     -28.680   1.886  45.673  1.00  0.00     0.009 C 
HETATM    5  C7  UNL     1     -28.143   3.067  46.422  1.00  0.00    -0.012 C 
HETATM    6  C8  UNL     1     -28.859   4.305  45.908  1.00  0.00     0.009 C 
HETATM    7  C9  UNL     1     -30.325   4.170  46.215  1.00  0.00    -0.012 C 
HETATM    8  C10 UNL     1     -30.870   2.974  45.485  1.00  0.00     0.009 C 
HETATM    9  C11 UNL     1     -30.585   3.951  47.701  1.00  0.00     0.035 C 
HETATM   10  C12 UNL     1     -28.359   3.001  47.905  1.00  0.00     0.035 C 
ENDROOT
BRANCH   1  11
HETATM   11  N1  UNL     1     -30.098   2.560  49.596  1.00  0.00    -0.400 N 
HETATM   12  C2  UNL     1     -31.302   1.870  49.902  1.00  0.00     0.144 C 
HETATM   13  C1  UNL     1     -31.223   1.487  51.377  1.00  0.00     0.187 C 
HETATM   14  O1  UNL     1     -31.162   2.596  52.200  1.00  0.00    -0.388 OA
HETATM   15  C14 UNL     1     -30.932   3.784  51.508  1.00  0.00     0.187 C 
HETATM   16  C13 UNL     1     -29.788   3.585  50.521  1.00  0.00     0.144 C 
ENDBRANCH   1  11
TORSDOF 1
ENDMDL
MODEL 5
REMARK VINA RESULT: -4.858572227      1.424      2.837
REMARK  1 active torsions:
REMARK  status: ('A' for Active; 'I' for Inactive)
REMARK    1  A    between atoms: N1_3  and  C3_4 
ROOT
HETATM    1  C3  UNL     1     -29.886   2.587  48.179  1.00  0.00     0.029 C 
HETATM    2  C4  UNL     1     -30.728   3.763  47.692  1.00  0.00     0.035 C 
HETATM    3  C5  UNL     1     -30.418   4.105  46.262  1.00  0.00    -0.012 C 
HETATM    4  C6  UNL     1     -30.843   2.925  45.421  1.00  0.00     0.009 C 
HETATM    5  C7  UNL     1     -30.075   1.720  45.872  1.00  0.00    -0.012 C 
HETATM    6  C8  UNL     1     -28.602   1.987  45.614  1.00  0.00     0.009 C 
HETATM    7  C9  UNL     1     -28.178   3.166  46.448  1.00  0.00    -0.012 C 
HETATM    8  C10 UNL     1     -28.958   4.376  46.017  1.00  0.00     0.009 C 
HETATM    9  C11 UNL     1     -28.454   2.951  47.931  1.00  0.00     0.035 C 
HETATM   10  C12 UNL     1     -30.230   1.406  47.330  1.00  0.00     0.035 C 
ENDROOT
BRANCH   1  11
HETATM   11  N1  UNL     1     -30.145   2.453  49.561  1.00  0.00    -0.400 N 
HETATM   12  C2  UNL     1     -31.402   1.913  49.949  1.00  0.00     0.144 C 
HETATM   13  C1  UNL     1     -31.298   1.595  51.438  1.00  0.00     0.187 C 
HETATM   14  O1  UNL     1     -31.083   2.727  52.200  1.00  0.00    -0.388 OA
HETATM   15  C14 UNL     1     -30.759   3.850  51.438  1.00  0.00     0.187 C 
HETATM   16  C13 UNL     1     -29.687   3.481  50.420  1.00  0.00     0.144 C 
ENDBRANCH   1  11
TORSDOF 1
ENDMDL
