MODEL 1
REMARK VINA RESULT: -4.998624383      0.000      0.000
REMARK  1 active torsions:
REMARK  status: ('A' for Active; 'I' for Inactive)
REMARK    1  A    between atoms: N1_6  and  C6_7 
ROOT
HETATM    1  C6  UNL     1     -29.737   3.524  46.775  1.00  0.00     0.359 C 
HETATM    2  C7  UNL     1     -31.123   3.202  47.237  1.00  0.00     0.065 C 
HETATM    3  C8  UNL     1     -31.305   3.675  48.647  1.00  0.00     0.016 C 
HETATM    4  C9  UNL     1     -30.213   3.174  49.573  1.00  0.00    -0.019 C 
HETATM    5  C10 UNL     1     -30.282   3.875  50.893  1.00  0.00     0.011 C 
HETATM    6  C11 UNL     1     -30.845   2.892  51.897  1.00  0.00     0.001 C 
HETATM    7  C12 UNL     1     -31.407   1.778  51.057  1.00  0.00     0.001 C 
HETATM    8  C13 UNL     1     -30.445   1.725  49.901  1.00  0.00     0.011 C 
HETATM    9  C14 UNL     1     -28.898   3.421  48.897  1.00  0.00     0.180 C 
HETATM   10  O1  UNL     1     -28.850   2.858  47.642  1.00  0.00    -0.356 OA
ENDROOT
BRANCH   1  11
HETATM   11  N1  UNL     1     -29.437   3.074  45.448  1.00  0.00     0.121 N 
HETATM   12  C2  UNL     1     -28.051   2.661  45.422  1.00  0.00     0.222 C 
HETATM   13  C1  UNL     1     -28.021   1.317  44.701  1.00  0.00     0.043 C 
HETATM   14  C3  UNL     1     -27.285   3.646  44.609  1.00  0.00     0.037 C 
HETATM   15  C4  UNL     1     -28.327   4.221  43.691  1.00  0.00     0.032 C 
HETATM   16  C5  UNL     1     -29.648   4.024  44.416  1.00  0.00     0.276 C 
ENDBRANCH   1  11
TORSDOF 1
ENDMDL
MODEL 2
REMARK VINA RESULT: -4.679841117      9.698     11.895
REMARK  1 active torsions:
REMARK  status: ('A' for Active; 'I' for Inactive)
REMARK    1  A    between atoms: N1_6  and  C6_7 
ROOT
HETATM    1  C6  UNL     1     -24.339  -6.518  43.086  1.00  0.00     0.359 C 
HETATM    2  C7  UNL     1     -23.479  -6.865  44.260  1.00  0.00     0.065 C 
HETATM    3  C8  UNL     1     -23.668  -5.844  45.340  1.00  0.00     0.016 C 
HETATM    4  C9  UNL     1     -23.484  -4.425  44.837  1.00  0.00    -0.019 C 
HETATM    5  C10 UNL     1     -23.936  -3.440  45.869  1.00  0.00     0.011 C 
HETATM    6  C11 UNL     1     -22.696  -2.818  46.474  1.00  0.00     0.001 C 
HETATM    7  C12 UNL     1     -21.571  -3.711  46.025  1.00  0.00     0.001 C 
HETATM    8  C13 UNL     1     -22.021  -4.134  44.652  1.00  0.00     0.011 C 
HETATM    9  C14 UNL     1     -24.276  -4.287  43.573  1.00  0.00     0.180 C 
HETATM   10  O1  UNL     1     -23.935  -5.243  42.644  1.00  0.00    -0.356 OA
ENDROOT
BRANCH   1  11
HETATM   11  N1  UNL     1     -24.204  -7.406  41.970  1.00  0.00     0.121 N 
HETATM   12  C2  UNL     1     -24.984  -6.869  40.877  1.00  0.00     0.222 C 
HETATM   13  C1  UNL     1     -24.094  -6.948  39.640  1.00  0.00     0.043 C 
HETATM   14  C3  UNL     1     -26.161  -7.756  40.664  1.00  0.00     0.037 C 
HETATM   15  C4  UNL     1     -25.696  -9.081  41.197  1.00  0.00     0.032 C 
HETATM   16  C5  UNL     1     -24.605  -8.746  42.201  1.00  0.00     0.276 C 
ENDBRANCH   1  11
TORSDOF 1
ENDMDL
MODEL 3
REMARK VINA RESULT: -4.343448820      1.804      5.894
REMARK  1 active torsions:
REMARK  status: ('A' for Active; 'I' for Inactive)
REMARK    1  A    between atoms: N1_6  and  C6_7 
ROOT
HETATM    1  C6  UNL     1     -28.552   3.589  46.352  1.00  0.00     0.359 C 
HETATM    2  C7  UNL     1     -28.925   2.710  45.200  1.00  0.00     0.065 C 
HETATM    3  C8  UNL     1     -28.397   3.300  43.928  1.00  0.00     0.016 C 
HETATM    4  C9  UNL     1     -28.796   4.753  43.752  1.00  0.00    -0.019 C 
HETATM    5  C10 UNL     1     -28.039   5.371  42.619  1.00  0.00     0.011 C 
HETATM    6  C11 UNL     1     -29.002   5.522  41.461  1.00  0.00     0.001 C 
HETATM    7  C12 UNL     1     -30.182   4.671  41.841  1.00  0.00     0.001 C 
HETATM    8  C13 UNL     1     -30.238   4.841  43.336  1.00  0.00     0.011 C 
HETATM    9  C14 UNL     1     -28.512   5.460  45.043  1.00  0.00     0.180 C 
HETATM   10  O1  UNL     1     -29.130   4.850  46.110  1.00  0.00    -0.356 OA
ENDROOT
BRANCH   1  11
HETATM   11  N1  UNL     1     -29.047   3.142  47.621  1.00  0.00     0.121 N 
HETATM   12  C2  UNL     1     -30.145   2.233  47.374  1.00  0.00     0.222 C 
HETATM   13  C1  UNL     1     -29.911   1.028  48.280  1.00  0.00     0.043 C 
HETATM   14  C3  UNL     1     -31.407   2.900  47.800  1.00  0.00     0.037 C 
HETATM   15  C4  UNL     1     -30.945   3.885  48.835  1.00  0.00     0.032 C 
HETATM   16  C5  UNL     1     -29.489   4.163  48.500  1.00  0.00     0.276 C 
ENDBRANCH   1  11
TORSDOF 1
ENDMDL
MODEL 4
REMARK VINA RESULT: -4.150969666      1.680      6.011
REMARK  1 active torsions:
REMARK  status: ('A' for Active; 'I' for Inactive)
REMARK    1  A    between atoms: N1_6  and  C6_7 
ROOT
HETATM    1  C6  UNL     1     -29.804   3.703  46.756  1.00  0.00     0.359 C 
HETATM    2  C7  UNL     1     -29.895   2.819  45.553  1.00  0.00     0.065 C 
HETATM    3  C8  UNL     1     -28.978   3.330  44.484  1.00  0.00     0.016 C 
HETATM    4  C9  UNL     1     -29.194   4.801  44.187  1.00  0.00    -0.019 C 
HETATM    5  C10 UNL     1     -28.096   5.328  43.318  1.00  0.00     0.011 C 
HETATM    6  C11 UNL     1     -28.668   5.512  41.929  1.00  0.00     0.001 C 
HETATM    7  C12 UNL     1     -29.970   4.760  41.957  1.00  0.00     0.001 C 
HETATM    8  C13 UNL     1     -30.443   4.980  43.369  1.00  0.00     0.011 C 
HETATM    9  C14 UNL     1     -29.242   5.525  45.498  1.00  0.00     0.180 C 
HETATM   10  O1  UNL     1     -30.187   4.995  46.346  1.00  0.00    -0.356 OA
ENDROOT
BRANCH   1  11
HETATM   11  N1  UNL     1     -30.678   3.333  47.830  1.00  0.00     0.121 N 
HETATM   12  C2  UNL     1     -30.189   3.960  49.038  1.00  0.00     0.222 C 
HETATM   13  C1  UNL     1     -31.407   4.574  49.721  1.00  0.00     0.043 C 
HETATM   14  C3  UNL     1     -29.640   2.898  49.925  1.00  0.00     0.037 C 
HETATM   15  C4  UNL     1     -30.386   1.667  49.494  1.00  0.00     0.032 C 
HETATM   16  C5  UNL     1     -30.810   1.940  48.060  1.00  0.00     0.276 C 
ENDBRANCH   1  11
TORSDOF 1
ENDMDL
MODEL 5
REMARK VINA RESULT: -4.115122010      8.695     11.990
REMARK  1 active torsions:
REMARK  status: ('A' for Active; 'I' for Inactive)
REMARK    1  A    between atoms: N1_6  and  C6_7 
ROOT
HETATM    1  C6  UNL     1     -23.607  -4.948  43.901  1.00  0.00     0.359 C 
HETATM    2  C7  UNL     1     -23.952  -6.350  44.290  1.00  0.00     0.065 C 
HETATM    3  C8  UNL     1     -23.751  -7.261  43.118  1.00  0.00     0.016 C 
HETATM    4  C9  UNL     1     -24.467  -6.771  41.873  1.00  0.00    -0.019 C 
HETATM    5  C10 UNL     1     -24.031  -7.555  40.675  1.00  0.00     0.011 C 
HETATM    6  C11 UNL     1     -25.163  -8.490  40.309  1.00  0.00     0.001 C 
HETATM    7  C12 UNL     1     -26.070  -8.468  41.509  1.00  0.00     0.001 C 
HETATM    8  C13 UNL     1     -25.941  -7.047  41.989  1.00  0.00     0.011 C 
HETATM    9  C14 UNL     1     -24.152  -5.315  41.713  1.00  0.00     0.180 C 
HETATM   10  O1  UNL     1     -24.465  -4.593  42.841  1.00  0.00    -0.356 OA
ENDROOT
BRANCH   1  11
HETATM   11  N1  UNL     1     -23.806  -3.980  44.938  1.00  0.00     0.121 N 
HETATM   12  C2  UNL     1     -23.356  -2.698  44.442  1.00  0.00     0.222 C 
HETATM   13  C1  UNL     1     -24.444  -1.694  44.810  1.00  0.00     0.043 C 
HETATM   14  C3  UNL     1     -22.111  -2.327  45.169  1.00  0.00     0.037 C 
HETATM   15  C4  UNL     1     -22.233  -3.075  46.466  1.00  0.00     0.032 C 
HETATM   16  C5  UNL     1     -23.147  -4.250  46.164  1.00  0.00     0.276 C 
ENDBRANCH   1  11
TORSDOF 1
ENDMDL
