MODEL 1
REMARK VINA RESULT: -4.209635862      0.000      0.000
REMARK  4 active torsions:
REMARK  status: ('A' for Active; 'I' for Inactive)
REMARK    1  A    between atoms: C2_2  and  C3_3 
REMARK    2  A    between atoms: C3_3  and  N1_4 
REMARK    3  A    between atoms: C5_6  and  N2_7 
REMARK    4  A    between atoms: C7_12  and  O1_13 
ROOT
HETATM    1  N1  UNL     1      20.475   3.750   6.833  1.00  0.00     0.092 N 
HETATM    2  C4  UNL     1      20.076   3.341   5.529  1.00  0.00     0.305 C 
HETATM    3  C5  UNL     1      18.989   4.264   5.042  1.00  0.00     0.214 C 
HETATM    4  C6  UNL     1      19.639   5.622   4.917  1.00  0.00     0.068 C 
HETATM    5  C7  UNL     1      20.005   6.057   6.303  1.00  0.00     0.148 C 
HETATM    6  C8  UNL     1      19.912   4.969   7.319  1.00  0.00     0.303 C 
ENDROOT
BRANCH   3   7
HETATM    7  N2  UNL     1      18.400   3.904   3.802  1.00  0.00    -0.073 N 
ATOM      8  H23 UNL     1      18.932   4.307   3.031  1.00  0.00     0.274 HD
ATOM      9  H22 UNL     1      18.544   2.911   3.621  1.00  0.00     0.274 HD
ATOM     10  H21 UNL     1      17.412   4.138   3.706  1.00  0.00     0.274 HD
ENDBRANCH   3   7
BRANCH   1  11
HETATM   11  C3  UNL     1      20.431   2.655   7.745  1.00  0.00     0.272 C 
BRANCH  11  12
HETATM   12  C2  UNL     1      19.191   2.617   8.592  1.00  0.00     0.026 C 
HETATM   13  C1  UNL     1      18.713   1.164   8.626  1.00  0.00     0.007 C 
ENDBRANCH  11  12
ENDBRANCH   1  11
BRANCH   5  14
HETATM   14  O1  UNL     1      19.209   7.130   6.748  1.00  0.00    -0.394 OA
ATOM     15  H1  UNL     1      19.637   7.969   6.621  1.00  0.00     0.210 HD
ENDBRANCH   5  14
TORSDOF 4
ENDMDL
MODEL 2
REMARK VINA RESULT: -4.179080830      3.080      4.602
REMARK  4 active torsions:
REMARK  status: ('A' for Active; 'I' for Inactive)
REMARK    1  A    between atoms: C2_2  and  C3_3 
REMARK    2  A    between atoms: C3_3  and  N1_4 
REMARK    3  A    between atoms: C5_6  and  N2_7 
REMARK    4  A    between atoms: C7_12  and  O1_13 
ROOT
HETATM    1  N1  UNL     1      19.961   2.691   8.286  1.00  0.00     0.092 N 
HETATM    2  C4  UNL     1      19.180   3.853   8.546  1.00  0.00     0.305 C 
HETATM    3  C5  UNL     1      17.732   3.450   8.658  1.00  0.00     0.214 C 
HETATM    4  C6  UNL     1      17.654   2.562   9.878  1.00  0.00     0.068 C 
HETATM    5  C7  UNL     1      18.438   1.324   9.564  1.00  0.00     0.148 C 
HETATM    6  C8  UNL     1      19.278   1.439   8.337  1.00  0.00     0.303 C 
ENDROOT
BRANCH   3   7
HETATM    7  N2  UNL     1      16.814   4.523   8.793  1.00  0.00    -0.073 N 
ATOM      8  H23 UNL     1      15.985   4.348   8.225  1.00  0.00     0.274 HD
ATOM      9  H22 UNL     1      16.398   4.515   9.724  1.00  0.00     0.274 HD
ATOM     10  H21 UNL     1      17.191   5.447   8.586  1.00  0.00     0.274 HD
ENDBRANCH   3   7
BRANCH   1  11
HETATM   11  C3  UNL     1      20.791   2.883   7.142  1.00  0.00     0.272 C 
BRANCH  11  12
HETATM   12  C2  UNL     1      20.145   2.484   5.846  1.00  0.00     0.026 C 
HETATM   13  C1  UNL     1      20.141   3.720   4.945  1.00  0.00     0.007 C 
ENDBRANCH  11  12
ENDBRANCH   1  11
BRANCH   5  14
HETATM   14  O1  UNL     1      17.609   0.196   9.415  1.00  0.00    -0.394 OA
ATOM     15  H1  UNL     1      17.491  -0.041   8.502  1.00  0.00     0.210 HD
ENDBRANCH   5  14
TORSDOF 4
ENDMDL
MODEL 3
REMARK VINA RESULT: -4.092321739      2.179      2.799
REMARK  4 active torsions:
REMARK  status: ('A' for Active; 'I' for Inactive)
REMARK    1  A    between atoms: C2_2  and  C3_3 
REMARK    2  A    between atoms: C3_3  and  N1_4 
REMARK    3  A    between atoms: C5_6  and  N2_7 
REMARK    4  A    between atoms: C7_12  and  O1_13 
ROOT
HETATM    1  N1  UNL     1      18.296   4.196   7.514  1.00  0.00     0.092 N 
HETATM    2  C4  UNL     1      18.477   5.600   7.367  1.00  0.00     0.305 C 
HETATM    3  C5  UNL     1      19.662   5.846   6.468  1.00  0.00     0.214 C 
HETATM    4  C6  UNL     1      19.267   5.291   5.119  1.00  0.00     0.068 C 
HETATM    5  C7  UNL     1      19.133   3.807   5.283  1.00  0.00     0.148 C 
HETATM    6  C8  UNL     1      19.123   3.359   6.706  1.00  0.00     0.303 C 
ENDROOT
BRANCH   3   7
HETATM    7  N2  UNL     1      20.044   7.205   6.329  1.00  0.00    -0.073 N 
ATOM      8  H23 UNL     1      19.583   7.774   7.039  1.00  0.00     0.274 HD
ATOM      9  H22 UNL     1      21.018   7.326   6.606  1.00  0.00     0.274 HD
ATOM     10  H21 UNL     1      19.891   7.607   5.404  1.00  0.00     0.274 HD
ENDBRANCH   3   7
BRANCH   1  11
HETATM   11  C3  UNL     1      18.228   3.834   8.891  1.00  0.00     0.272 C 
BRANCH  11  12
HETATM   12  C2  UNL     1      18.753   2.458   9.187  1.00  0.00     0.026 C 
HETATM   13  C1  UNL     1      17.971   1.927  10.389  1.00  0.00     0.007 C 
ENDBRANCH  11  12
ENDBRANCH   1  11
BRANCH   5  14
HETATM   14  O1  UNL     1      20.156   3.107   4.617  1.00  0.00    -0.394 OA
ATOM     15  H1  UNL     1      20.603   2.496   5.192  1.00  0.00     0.210 HD
ENDBRANCH   5  14
TORSDOF 4
ENDMDL
MODEL 4
REMARK VINA RESULT: -4.080697500      2.561      4.083
REMARK  4 active torsions:
REMARK  status: ('A' for Active; 'I' for Inactive)
REMARK    1  A    between atoms: C2_2  and  C3_3 
REMARK    2  A    between atoms: C3_3  and  N1_4 
REMARK    3  A    between atoms: C5_6  and  N2_7 
REMARK    4  A    between atoms: C7_12  and  O1_13 
ROOT
HETATM    1  N1  UNL     1      19.123   4.026   8.241  1.00  0.00     0.092 N 
HETATM    2  C4  UNL     1      19.030   2.766   8.898  1.00  0.00     0.305 C 
HETATM    3  C5  UNL     1      18.893   1.685   7.857  1.00  0.00     0.214 C 
HETATM    4  C6  UNL     1      20.190   1.703   7.082  1.00  0.00     0.068 C 
HETATM    5  C7  UNL     1      20.243   3.014   6.358  1.00  0.00     0.148 C 
HETATM    6  C8  UNL     1      19.219   3.997   6.817  1.00  0.00     0.303 C 
ENDROOT
BRANCH   3   7
HETATM    7  N2  UNL     1      18.663   0.381   8.367  1.00  0.00    -0.073 N 
ATOM      8  H23 UNL     1      19.540  -0.030   8.687  1.00  0.00     0.274 HD
ATOM      9  H22 UNL     1      18.156   0.434   9.251  1.00  0.00     0.274 HD
ATOM     10  H21 UNL     1      18.189  -0.258   7.729  1.00  0.00     0.274 HD
ENDBRANCH   3   7
BRANCH   1  11
HETATM   11  C3  UNL     1      18.166   4.944   8.765  1.00  0.00     0.272 C 
BRANCH  11  12
HETATM   12  C2  UNL     1      18.191   6.294   8.107  1.00  0.00     0.026 C 
HETATM   13  C1  UNL     1      17.737   7.314   9.152  1.00  0.00     0.007 C 
ENDBRANCH  11  12
ENDBRANCH   1  11
BRANCH   5  14
HETATM   14  O1  UNL     1      20.095   2.856   4.967  1.00  0.00    -0.394 OA
ATOM     15  H1  UNL     1      20.133   3.686   4.507  1.00  0.00     0.210 HD
ENDBRANCH   5  14
TORSDOF 4
ENDMDL
MODEL 5
REMARK VINA RESULT: -4.073275757      3.224      4.771
REMARK  4 active torsions:
REMARK  status: ('A' for Active; 'I' for Inactive)
REMARK    1  A    between atoms: C2_2  and  C3_3 
REMARK    2  A    between atoms: C3_3  and  N1_4 
REMARK    3  A    between atoms: C5_6  and  N2_7 
REMARK    4  A    between atoms: C7_12  and  O1_13 
ROOT
HETATM    1  N1  UNL     1      18.071   3.196   8.173  1.00  0.00     0.092 N 
HETATM    2  C4  UNL     1      17.120   2.369   7.511  1.00  0.00     0.305 C 
HETATM    3  C5  UNL     1      17.229   0.970   8.060  1.00  0.00     0.214 C 
HETATM    4  C6  UNL     1      16.817   1.071   9.510  1.00  0.00     0.068 C 
HETATM    5  C7  UNL     1      17.858   1.901  10.198  1.00  0.00     0.148 C 
HETATM    6  C8  UNL     1      18.781   2.606   9.262  1.00  0.00     0.303 C 
ENDROOT
BRANCH   3   7
HETATM    7  N2  UNL     1      16.426  -0.001   7.406  1.00  0.00    -0.073 N 
ATOM      8  H23 UNL     1      15.784   0.455   6.757  1.00  0.00     0.274 HD
ATOM      9  H22 UNL     1      16.991  -0.540   6.750  1.00  0.00     0.274 HD
ATOM     10  H21 UNL     1      15.912  -0.628   8.023  1.00  0.00     0.274 HD
ENDBRANCH   3   7
BRANCH   1  11
HETATM   11  C3  UNL     1      18.881   3.895   7.230  1.00  0.00     0.272 C 
BRANCH  11  12
HETATM   12  C2  UNL     1      20.335   3.526   7.282  1.00  0.00     0.026 C 
HETATM   13  C1  UNL     1      20.650   2.749   6.003  1.00  0.00     0.007 C 
ENDBRANCH  11  12
ENDBRANCH   1  11
BRANCH   5  14
HETATM   14  O1  UNL     1      18.643   1.138  11.084  1.00  0.00    -0.394 OA
ATOM     15  H1  UNL     1      18.194   0.352  11.372  1.00  0.00     0.210 HD
ENDBRANCH   5  14
TORSDOF 4
ENDMDL
