MODEL 1
REMARK VINA RESULT: -4.974689168      0.000      0.000
REMARK  1 active torsions:
REMARK  status: ('A' for Active; 'I' for Inactive)
REMARK    1  A    between atoms: C2_2  and  C3_3 
ROOT
HETATM    1  C3  UNL     1       7.210  25.096 -29.097  1.00  0.00     0.086 C 
HETATM    2  C4  UNL     1       7.554  26.166 -30.129  1.00  0.00     0.046 C 
HETATM    3  N1  UNL     1       7.930  23.923 -29.428  1.00  0.00    -0.355 N 
ATOM      4  H1  UNL     1       8.875  24.058 -29.785  1.00  0.00     0.162 HD
HETATM    5  C5  UNL     1       7.488  22.588 -29.321  1.00  0.00     0.140 C 
HETATM    6  N2  UNL     1       8.106  21.641 -29.919  1.00  0.00    -0.380 N 
ATOM      7  H21 UNL     1       7.786  20.675 -29.842  1.00  0.00     0.158 HD
ATOM      8  H22 UNL     1       8.935  21.811 -30.490  1.00  0.00     0.158 HD
HETATM    9  S1  UNL     1       6.030  22.288 -28.317  1.00  0.00    -0.039 SA
HETATM   10  C6  UNL     1       5.213  23.892 -28.215  1.00  0.00     0.088 C 
HETATM   11  N3  UNL     1       4.214  24.011 -27.412  1.00  0.00    -0.394 N 
ATOM     12  H31 UNL     1       3.752  24.918 -27.355  1.00  0.00     0.156 HD
ATOM     13  H32 UNL     1       3.855  23.255 -26.830  1.00  0.00     0.156 HD
HETATM   14  C7  UNL     1       5.727  24.976 -29.050  1.00  0.00     0.213 C 
HETATM   15  C8  UNL     1       5.198  26.236 -28.487  1.00  0.00     0.094 C 
HETATM   16  N4  UNL     1       4.768  27.217 -28.041  1.00  0.00    -0.195 NA
HETATM   17  C9  UNL     1       5.245  24.818 -30.433  1.00  0.00     0.094 C 
HETATM   18  N5  UNL     1       4.859  24.709 -31.522  1.00  0.00    -0.195 NA
ENDROOT
BRANCH   1  19
HETATM   19  C2  UNL     1       7.680  25.585 -27.771  1.00  0.00    -0.004 C 
HETATM   20  C1  UNL     1       8.829  25.213 -27.249  1.00  0.00     0.009 C 
ENDBRANCH   1  19
TORSDOF 1
ENDMDL
MODEL 2
REMARK VINA RESULT: -4.931681992      1.895      3.740
REMARK  1 active torsions:
REMARK  status: ('A' for Active; 'I' for Inactive)
REMARK    1  A    between atoms: C2_2  and  C3_3 
ROOT
HETATM    1  C3  UNL     1       5.626  24.146 -28.224  1.00  0.00     0.086 C 
HETATM    2  C4  UNL     1       4.131  24.025 -27.940  1.00  0.00     0.046 C 
HETATM    3  N1  UNL     1       6.302  24.208 -26.982  1.00  0.00    -0.355 N 
ATOM      4  H1  UNL     1       5.931  23.621 -26.236  1.00  0.00     0.162 HD
HETATM    5  C5  UNL     1       7.432  24.988 -26.660  1.00  0.00     0.140 C 
HETATM    6  N2  UNL     1       7.770  25.182 -25.441  1.00  0.00    -0.380 N 
ATOM      7  H21 UNL     1       8.588  25.747 -25.209  1.00  0.00     0.158 HD
ATOM      8  H22 UNL     1       7.244  24.784 -24.663  1.00  0.00     0.158 HD
HETATM    9  S1  UNL     1       8.359  25.688 -28.029  1.00  0.00    -0.039 SA
HETATM   10  C6  UNL     1       7.207  25.661 -29.416  1.00  0.00     0.088 C 
HETATM   11  N3  UNL     1       7.660  25.959 -30.583  1.00  0.00    -0.394 N 
ATOM     12  H31 UNL     1       7.008  25.944 -31.367  1.00  0.00     0.156 HD
ATOM     13  H32 UNL     1       8.630  26.211 -30.773  1.00  0.00     0.156 HD
HETATM   14  C7  UNL     1       5.817  25.301 -29.144  1.00  0.00     0.213 C 
HETATM   15  C8  UNL     1       5.208  24.939 -30.441  1.00  0.00     0.094 C 
HETATM   16  N4  UNL     1       4.739  24.668 -31.467  1.00  0.00    -0.195 NA
HETATM   17  C9  UNL     1       5.101  26.455 -28.572  1.00  0.00     0.094 C 
HETATM   18  N5  UNL     1       4.525  27.361 -28.134  1.00  0.00    -0.195 NA
ENDROOT
BRANCH   1  19
HETATM   19  C2  UNL     1       6.048  22.908 -28.936  1.00  0.00    -0.004 C 
HETATM   20  C1  UNL     1       6.315  21.787 -28.303  1.00  0.00     0.009 C 
ENDBRANCH   1  19
TORSDOF 1
ENDMDL
MODEL 3
REMARK VINA RESULT: -4.691411037      1.768      3.216
REMARK  1 active torsions:
REMARK  status: ('A' for Active; 'I' for Inactive)
REMARK    1  A    between atoms: C2_2  and  C3_3 
ROOT
HETATM    1  C3  UNL     1       6.784  26.098 -29.028  1.00  0.00     0.086 C 
HETATM    2  C4  UNL     1       6.827  27.307 -29.958  1.00  0.00     0.046 C 
HETATM    3  N1  UNL     1       7.755  26.291 -28.016  1.00  0.00    -0.355 N 
ATOM      4  H1  UNL     1       7.867  27.245 -27.673  1.00  0.00     0.162 HD
HETATM    5  C5  UNL     1       8.586  25.314 -27.429  1.00  0.00     0.140 C 
HETATM    6  N2  UNL     1       9.615  25.651 -26.747  1.00  0.00    -0.380 N 
ATOM      7  H21 UNL     1      10.216  24.944 -26.323  1.00  0.00     0.158 HD
ATOM      8  H22 UNL     1       9.872  26.627 -26.601  1.00  0.00     0.158 HD
HETATM    9  S1  UNL     1       8.134  23.596 -27.685  1.00  0.00    -0.039 SA
HETATM   10  C6  UNL     1       7.057  23.622 -29.131  1.00  0.00     0.088 C 
HETATM   11  N3  UNL     1       6.447  22.535 -29.450  1.00  0.00    -0.394 N 
ATOM     12  H31 UNL     1       5.838  22.550 -30.268  1.00  0.00     0.156 HD
ATOM     13  H32 UNL     1       6.534  21.658 -28.936  1.00  0.00     0.156 HD
HETATM   14  C7  UNL     1       6.931  24.878 -29.868  1.00  0.00     0.213 C 
HETATM   15  C8  UNL     1       5.716  24.765 -30.701  1.00  0.00     0.094 C 
HETATM   16  N4  UNL     1       4.765  24.659 -31.358  1.00  0.00    -0.195 NA
HETATM   17  C9  UNL     1       8.105  25.070 -30.738  1.00  0.00     0.094 C 
HETATM   18  N5  UNL     1       9.018  25.224 -31.437  1.00  0.00    -0.195 NA
ENDROOT
BRANCH   1  19
HETATM   19  C2  UNL     1       5.437  26.068 -28.395  1.00  0.00    -0.004 C 
HETATM   20  C1  UNL     1       4.576  27.056 -28.519  1.00  0.00     0.009 C 
ENDBRANCH   1  19
TORSDOF 1
ENDMDL
MODEL 4
REMARK VINA RESULT: -4.653538345      1.912      3.507
REMARK  1 active torsions:
REMARK  status: ('A' for Active; 'I' for Inactive)
REMARK    1  A    between atoms: C2_2  and  C3_3 
ROOT
HETATM    1  C3  UNL     1       6.288  24.141 -28.757  1.00  0.00     0.086 C 
HETATM    2  C4  UNL     1       6.059  23.686 -27.318  1.00  0.00     0.046 C 
HETATM    3  N1  UNL     1       6.677  23.010 -29.515  1.00  0.00    -0.355 N 
ATOM      4  H1  UNL     1       6.217  22.130 -29.283  1.00  0.00     0.162 HD
HETATM    5  C5  UNL     1       7.629  22.963 -30.554  1.00  0.00     0.140 C 
HETATM    6  N2  UNL     1       8.105  21.847 -30.960  1.00  0.00    -0.380 N 
ATOM      7  H21 UNL     1       8.794  21.813 -31.712  1.00  0.00     0.158 HD
ATOM      8  H22 UNL     1       7.817  20.956 -30.553  1.00  0.00     0.158 HD
HETATM    9  S1  UNL     1       8.134  24.530 -31.271  1.00  0.00    -0.039 SA
HETATM   10  C6  UNL     1       7.695  25.759 -30.027  1.00  0.00     0.088 C 
HETATM   11  N3  UNL     1       7.797  27.002 -30.344  1.00  0.00    -0.394 N 
ATOM     12  H31 UNL     1       7.549  27.697 -29.640  1.00  0.00     0.156 HD
ATOM     13  H32 UNL     1       8.112  27.336 -31.254  1.00  0.00     0.156 HD
HETATM   14  C7  UNL     1       7.244  25.280 -28.722  1.00  0.00     0.213 C 
HETATM   15  C8  UNL     1       6.559  26.413 -28.065  1.00  0.00     0.094 C 
HETATM   16  N4  UNL     1       6.033  27.314 -27.557  1.00  0.00    -0.195 NA
HETATM   17  C9  UNL     1       8.402  24.871 -27.909  1.00  0.00     0.094 C 
HETATM   18  N5  UNL     1       9.309  24.559 -27.255  1.00  0.00    -0.195 NA
ENDROOT
BRANCH   1  19
HETATM   19  C2  UNL     1       4.986  24.639 -29.280  1.00  0.00    -0.004 C 
HETATM   20  C1  UNL     1       3.830  24.222 -28.811  1.00  0.00     0.009 C 
ENDBRANCH   1  19
TORSDOF 1
ENDMDL
MODEL 5
REMARK VINA RESULT: -4.570206754     11.649     12.907
REMARK  1 active torsions:
REMARK  status: ('A' for Active; 'I' for Inactive)
REMARK    1  A    between atoms: C2_2  and  C3_3 
ROOT
HETATM    1  C3  UNL     1       9.469  16.777 -19.117  1.00  0.00     0.086 C 
HETATM    2  C4  UNL     1       9.661  15.601 -20.071  1.00  0.00     0.046 C 
HETATM    3  N1  UNL     1       9.533  16.280 -17.793  1.00  0.00    -0.355 N 
ATOM      4  H1  UNL     1      10.210  15.538 -17.621  1.00  0.00     0.162 HD
HETATM    5  C5  UNL     1       8.765  16.695 -16.686  1.00  0.00     0.140 C 
HETATM    6  N2  UNL     1       8.702  15.981 -15.625  1.00  0.00    -0.380 N 
ATOM      7  H21 UNL     1       8.146  16.281 -14.824  1.00  0.00     0.158 HD
ATOM      8  H22 UNL     1       9.199  15.094 -15.539  1.00  0.00     0.158 HD
HETATM    9  S1  UNL     1       7.889  18.255 -16.836  1.00  0.00    -0.039 SA
HETATM   10  C6  UNL     1       7.788  18.547 -18.613  1.00  0.00     0.088 C 
HETATM   11  N3  UNL     1       7.348  19.688 -19.013  1.00  0.00    -0.394 N 
ATOM     12  H31 UNL     1       7.291  19.853 -20.018  1.00  0.00     0.156 HD
ATOM     13  H32 UNL     1       7.051  20.438 -18.389  1.00  0.00     0.156 HD
HETATM   14  C7  UNL     1       8.213  17.473 -19.508  1.00  0.00     0.213 C 
HETATM   15  C8  UNL     1       8.440  18.086 -20.833  1.00  0.00     0.094 C 
HETATM   16  N4  UNL     1       8.605  18.579 -21.871  1.00  0.00    -0.195 NA
HETATM   17  C9  UNL     1       7.151  16.457 -19.615  1.00  0.00     0.094 C 
HETATM   18  N5  UNL     1       6.315  15.659 -19.716  1.00  0.00    -0.195 NA
ENDROOT
BRANCH   1  19
HETATM   19  C2  UNL     1      10.607  17.714 -19.328  1.00  0.00    -0.004 C 
HETATM   20  C1  UNL     1      11.801  17.304 -19.699  1.00  0.00     0.009 C 
ENDBRANCH   1  19
TORSDOF 1
ENDMDL
