MODEL 1
REMARK VINA RESULT: -5.575407455      0.000      0.000
REMARK  2 active torsions:
REMARK  status: ('A' for Active; 'I' for Inactive)
REMARK    1  A    between atoms: C6_12  and  N4_13 
REMARK    2  A    between atoms: C7_16  and  C8_17 
ROOT
HETATM    1  C8  UNL     1      11.638  20.951 -26.777  1.00  0.00     0.160 C 
HETATM    2  C9  UNL     1      11.898  22.336 -26.941  1.00  0.00     0.114 C 
HETATM    3  N5  UNL     1      12.089  23.476 -27.043  1.00  0.00    -0.191 NA
HETATM    4  C10 UNL     1      10.788  20.665 -25.604  1.00  0.00     0.114 C 
HETATM    5  N6  UNL     1      10.128  20.420 -24.692  1.00  0.00    -0.191 NA
ENDROOT
BRANCH   1   6
HETATM    6  C7  UNL     1      12.025  19.934 -27.482  1.00  0.00     0.133 C 
HETATM    7  C5  UNL     1      11.211  19.136 -28.373  1.00  0.00     0.114 A 
HETATM    8  C4  UNL     1      11.711  18.046 -29.102  1.00  0.00     0.107 A 
HETATM    9  N2  UNL     1       9.922  19.186 -28.723  1.00  0.00    -0.294 N 
HETATM   10  N1  UNL     1      13.098  17.745 -28.925  1.00  0.00    -0.354 N 
HETATM   11  C6  UNL     1      10.709  17.480 -29.862  1.00  0.00     0.143 A 
HETATM   12  C2  UNL     1      13.819  18.245 -27.771  1.00  0.00     0.133 C 
ATOM     13  H1  UNL     1      13.584  17.173 -29.616  1.00  0.00     0.163 HD
HETATM   14  C1  UNL     1      13.577  17.334 -26.564  1.00  0.00     0.071 C 
HETATM   15  C3  UNL     1      15.294  18.289 -28.016  1.00  0.00     0.071 C 
HETATM   16  O1  UNL     1      13.381  19.527 -27.401  1.00  0.00    -0.316 OA
HETATM   17  N3  UNL     1       9.623  18.213 -29.600  1.00  0.00    -0.283 N 
ATOM     18  H3  UNL     1       8.702  18.057 -30.008  1.00  0.00     0.188 HD
ATOM     19  H2  UNL     1       9.253  19.871 -28.371  1.00  0.00     0.187 HD
BRANCH  11  20
HETATM   20  N4  UNL     1      10.824  16.464 -30.649  1.00  0.00    -0.383 N 
ATOM     21  H42 UNL     1      10.548  16.383 -31.628  1.00  0.00     0.157 HD
ATOM     22  H41 UNL     1      11.222  15.556 -30.412  1.00  0.00     0.157 HD
ENDBRANCH  11  20
ENDBRANCH   1   6
TORSDOF 2
ENDMDL
MODEL 2
REMARK VINA RESULT: -5.274540088      5.130      6.759
REMARK  2 active torsions:
REMARK  status: ('A' for Active; 'I' for Inactive)
REMARK    1  A    between atoms: C6_12  and  N4_13 
REMARK    2  A    between atoms: C7_16  and  C8_17 
ROOT
HETATM    1  C8  UNL     1      10.450  21.615 -32.718  1.00  0.00     0.160 C 
HETATM    2  C9  UNL     1      11.315  22.581 -33.292  1.00  0.00     0.114 C 
HETATM    3  N5  UNL     1      12.036  23.345 -33.786  1.00  0.00    -0.191 NA
HETATM    4  C10 UNL     1      10.557  20.294 -33.370  1.00  0.00     0.114 C 
HETATM    5  N6  UNL     1      10.624  19.257 -33.866  1.00  0.00    -0.191 NA
ENDROOT
BRANCH   1   6
HETATM    6  C7  UNL     1       9.605  21.718 -31.739  1.00  0.00     0.133 C 
HETATM    7  C5  UNL     1       8.641  22.777 -31.533  1.00  0.00     0.114 A 
HETATM    8  C4  UNL     1       7.760  22.812 -30.441  1.00  0.00     0.107 A 
HETATM    9  N2  UNL     1       8.339  23.884 -32.219  1.00  0.00    -0.294 N 
HETATM   10  N1  UNL     1       7.855  21.729 -29.512  1.00  0.00    -0.354 N 
HETATM   11  C6  UNL     1       6.962  23.935 -30.508  1.00  0.00     0.143 A 
HETATM   12  C2  UNL     1       9.043  20.900 -29.466  1.00  0.00     0.133 C 
ATOM     13  H1  UNL     1       7.080  21.539 -28.876  1.00  0.00     0.163 HD
HETATM   14  C1  UNL     1      10.126  21.578 -28.622  1.00  0.00     0.071 C 
HETATM   15  C3  UNL     1       8.762  19.564 -28.854  1.00  0.00     0.071 C 
HETATM   16  O1  UNL     1       9.592  20.708 -30.744  1.00  0.00    -0.316 OA
HETATM   17  N3  UNL     1       7.350  24.567 -31.619  1.00  0.00    -0.283 N 
ATOM     18  H3  UNL     1       6.952  25.441 -31.963  1.00  0.00     0.188 HD
ATOM     19  H2  UNL     1       8.797  24.171 -33.084  1.00  0.00     0.187 HD
BRANCH  11  20
HETATM   20  N4  UNL     1       6.045  24.275 -29.667  1.00  0.00    -0.383 N 
ATOM     21  H42 UNL     1       6.153  24.638 -28.720  1.00  0.00     0.157 HD
ATOM     22  H41 UNL     1       5.037  24.236 -29.820  1.00  0.00     0.157 HD
ENDBRANCH  11  20
ENDBRANCH   1   6
TORSDOF 2
ENDMDL
MODEL 3
REMARK VINA RESULT: -5.262149903      2.260      4.923
REMARK  2 active torsions:
REMARK  status: ('A' for Active; 'I' for Inactive)
REMARK    1  A    between atoms: C6_12  and  N4_13 
REMARK    2  A    between atoms: C7_16  and  C8_17 
ROOT
HETATM    1  C8  UNL     1      12.834  18.052 -27.796  1.00  0.00     0.160 C 
HETATM    2  C9  UNL     1      14.200  18.409 -27.658  1.00  0.00     0.114 C 
HETATM    3  N5  UNL     1      15.328  18.665 -27.558  1.00  0.00    -0.191 NA
HETATM    4  C10 UNL     1      12.651  16.673 -28.291  1.00  0.00     0.114 C 
HETATM    5  N6  UNL     1      12.487  15.601 -28.678  1.00  0.00    -0.191 NA
ENDROOT
BRANCH   1   6
HETATM    6  C7  UNL     1      11.758  18.737 -27.559  1.00  0.00     0.133 C 
HETATM    7  C5  UNL     1      11.049  18.830 -26.301  1.00  0.00     0.114 A 
HETATM    8  C4  UNL     1       9.886  19.597 -26.131  1.00  0.00     0.107 A 
HETATM    9  N2  UNL     1      11.253  18.292 -25.095  1.00  0.00    -0.294 N 
HETATM   10  N1  UNL     1       9.415  20.305 -27.281  1.00  0.00    -0.354 N 
HETATM   11  C6  UNL     1       9.433  19.494 -24.832  1.00  0.00     0.143 A 
HETATM   12  C2  UNL     1       9.849  19.921 -28.610  1.00  0.00     0.133 C 
ATOM     13  H1  UNL     1       8.769  21.086 -27.165  1.00  0.00     0.163 HD
HETATM   14  C1  UNL     1       9.007  18.748 -29.120  1.00  0.00     0.071 C 
HETATM   15  C3  UNL     1       9.699  21.044 -29.586  1.00  0.00     0.071 C 
HETATM   16  O1  UNL     1      11.185  19.488 -28.615  1.00  0.00    -0.316 OA
HETATM   17  N3  UNL     1      10.304  18.681 -24.227  1.00  0.00    -0.283 N 
ATOM     18  H3  UNL     1      10.256  18.398 -23.249  1.00  0.00     0.188 HD
ATOM     19  H2  UNL     1      12.026  17.668 -24.864  1.00  0.00     0.187 HD
BRANCH  11  20
HETATM   20  N4  UNL     1       8.391  20.070 -24.335  1.00  0.00    -0.383 N 
ATOM     21  H42 UNL     1       8.345  20.791 -23.615  1.00  0.00     0.157 HD
ATOM     22  H41 UNL     1       7.420  19.893 -24.592  1.00  0.00     0.157 HD
ENDBRANCH  11  20
ENDBRANCH   1   6
TORSDOF 2
ENDMDL
MODEL 4
REMARK VINA RESULT: -5.243187284      5.048      7.633
REMARK  2 active torsions:
REMARK  status: ('A' for Active; 'I' for Inactive)
REMARK    1  A    between atoms: C6_12  and  N4_13 
REMARK    2  A    between atoms: C7_16  and  C8_17 
ROOT
HETATM    1  C8  UNL     1       8.306  22.018 -28.808  1.00  0.00     0.160 C 
HETATM    2  C9  UNL     1       7.403  21.060 -29.336  1.00  0.00     0.114 C 
HETATM    3  N5  UNL     1       6.693  20.249 -29.767  1.00  0.00    -0.191 NA
HETATM    4  C10 UNL     1       9.653  21.463 -28.571  1.00  0.00     0.114 C 
HETATM    5  N6  UNL     1      10.711  21.049 -28.377  1.00  0.00    -0.191 NA
ENDROOT
BRANCH   1   6
HETATM    6  C7  UNL     1       8.127  23.268 -28.513  1.00  0.00     0.133 C 
HETATM    7  C5  UNL     1       7.985  24.367 -29.444  1.00  0.00     0.114 A 
HETATM    8  C4  UNL     1       7.794  25.697 -29.038  1.00  0.00     0.107 A 
HETATM    9  N2  UNL     1       7.991  24.441 -30.778  1.00  0.00    -0.294 N 
HETATM   10  N1  UNL     1       7.745  25.932 -27.628  1.00  0.00    -0.354 N 
HETATM   11  C6  UNL     1       7.693  26.522 -30.139  1.00  0.00     0.143 A 
HETATM   12  C2  UNL     1       8.276  24.953 -26.700  1.00  0.00     0.133 C 
ATOM     13  H1  UNL     1       7.332  26.794 -27.273  1.00  0.00     0.163 HD
HETATM   14  C1  UNL     1       9.792  25.124 -26.566  1.00  0.00     0.071 C 
HETATM   15  C3  UNL     1       7.682  25.106 -25.335  1.00  0.00     0.071 C 
HETATM   16  O1  UNL     1       8.058  23.641 -27.147  1.00  0.00    -0.316 OA
HETATM   17  N3  UNL     1       7.819  25.708 -31.191  1.00  0.00    -0.283 N 
ATOM     18  H3  UNL     1       7.787  26.005 -32.166  1.00  0.00     0.188 HD
ATOM     19  H2  UNL     1       8.111  23.642 -31.401  1.00  0.00     0.187 HD
BRANCH  11  20
HETATM   20  N4  UNL     1       7.514  27.799 -30.126  1.00  0.00    -0.383 N 
ATOM     21  H42 UNL     1       7.598  28.446 -29.342  1.00  0.00     0.157 HD
ATOM     22  H41 UNL     1       7.254  28.383 -30.921  1.00  0.00     0.157 HD
ENDBRANCH  11  20
ENDBRANCH   1   6
TORSDOF 2
ENDMDL
MODEL 5
REMARK VINA RESULT: -5.236548499     12.278     14.236
REMARK  2 active torsions:
REMARK  status: ('A' for Active; 'I' for Inactive)
REMARK    1  A    between atoms: C6_12  and  N4_13 
REMARK    2  A    between atoms: C7_16  and  C8_17 
ROOT
HETATM    1  C8  UNL     1      12.743  30.843 -17.843  1.00  0.00     0.160 C 
HETATM    2  C9  UNL     1      14.143  30.895 -18.061  1.00  0.00     0.114 C 
HETATM    3  N5  UNL     1      15.292  30.964 -18.211  1.00  0.00    -0.191 NA
HETATM    4  C10 UNL     1      12.297  31.765 -16.779  1.00  0.00     0.114 C 
HETATM    5  N6  UNL     1      11.928  32.476 -15.951  1.00  0.00    -0.191 NA
ENDROOT
BRANCH   1   6
HETATM    6  C7  UNL     1      11.827  30.129 -18.420  1.00  0.00     0.133 C 
HETATM    7  C5  UNL     1      11.287  28.870 -17.954  1.00  0.00     0.114 A 
HETATM    8  C4  UNL     1      10.293  28.159 -18.643  1.00  0.00     0.107 A 
HETATM    9  N2  UNL     1      11.534  28.111 -16.881  1.00  0.00    -0.294 N 
HETATM   10  N1  UNL     1       9.820  28.742 -19.860  1.00  0.00    -0.354 N 
HETATM   11  C6  UNL     1       9.978  27.000 -17.963  1.00  0.00     0.143 A 
HETATM   12  C2  UNL     1      10.602  29.754 -20.544  1.00  0.00     0.133 C 
ATOM     13  H1  UNL     1       8.927  28.443 -20.251  1.00  0.00     0.163 HD
HETATM   14  C1  UNL     1      11.682  29.092 -21.406  1.00  0.00     0.071 C 
HETATM   15  C3  UNL     1       9.753  30.592 -21.446  1.00  0.00     0.071 C 
HETATM   16  O1  UNL     1      11.270  30.593 -19.638  1.00  0.00    -0.316 OA
HETATM   17  N3  UNL     1      10.764  27.010 -16.883  1.00  0.00    -0.283 N 
ATOM     18  H3  UNL     1      10.777  26.287 -16.164  1.00  0.00     0.188 HD
ATOM     19  H2  UNL     1      12.215  28.338 -16.158  1.00  0.00     0.187 HD
BRANCH  11  20
HETATM   20  N4  UNL     1       9.106  26.117 -18.317  1.00  0.00    -0.383 N 
ATOM     21  H42 UNL     1       8.131  26.256 -18.581  1.00  0.00     0.157 HD
ATOM     22  H41 UNL     1       9.259  25.111 -18.392  1.00  0.00     0.157 HD
ENDBRANCH  11  20
ENDBRANCH   1   6
TORSDOF 2
ENDMDL
