MODEL 1
REMARK VINA RESULT: -9.951786534      0.000      0.000
REMARK  6 active torsions:
REMARK  status: ('A' for Active; 'I' for Inactive)
REMARK    1  A    between atoms: C2_2  and  N1_3 
REMARK    2  A    between atoms: C2_2  and  C13_24 
REMARK    3  A    between atoms: N1_3  and  N2_4 
REMARK    4  A    between atoms: C4_11  and  C5_12 
REMARK    5  A    between atoms: C16_28  and  N6_29 
REMARK    6  A    between atoms: C17_32  and  N7_33 
ROOT
HETATM    1  N2  UNL     1      17.480  89.451  -4.644  1.00  0.00    -0.196 N 
ATOM      2  H2  UNL     1      16.925  89.456  -5.501  1.00  0.00     0.205 HD
HETATM    3  C3  UNL     1      17.224  90.450  -3.884  1.00  0.00     0.271 A 
HETATM    4  N3  UNL     1      16.335  91.430  -4.127  1.00  0.00    -0.261 N 
ATOM      5  H3  UNL     1      15.744  91.510  -4.954  1.00  0.00     0.190 HD
HETATM    6  N4  UNL     1      16.361  92.260  -3.122  1.00  0.00    -0.275 N 
ATOM      7  H4  UNL     1      15.790  93.100  -3.031  1.00  0.00     0.189 HD
HETATM    8  C4  UNL     1      17.261  91.826  -2.226  1.00  0.00     0.193 A 
HETATM    9  O1  UNL     1      17.779  90.721  -2.706  1.00  0.00    -0.256 OA
ENDROOT
BRANCH   1  10
HETATM   10  N1  UNL     1      18.271  88.448  -4.576  1.00  0.00    -0.327 NA
BRANCH  10  11
HETATM   11  C2  UNL     1      18.742  87.349  -4.400  1.00  0.00     0.117 C 
HETATM   12  C1  UNL     1      17.950  86.123  -4.759  1.00  0.00     0.088 C 
BRANCH  11  13
HETATM   13  C13 UNL     1      20.089  87.181  -3.830  1.00  0.00     0.028 A 
HETATM   14  C14 UNL     1      21.173  87.189  -4.710  1.00  0.00     0.043 A 
HETATM   15  C15 UNL     1      22.462  87.039  -4.259  1.00  0.00     0.070 A 
HETATM   16 CL2  UNL     1      23.856  87.043  -5.348  1.00  0.00    -0.082 Cl
HETATM   17  C16 UNL     1      22.703  86.875  -2.893  1.00  0.00     0.159 A 
HETATM   18  C17 UNL     1      21.648  86.864  -2.010  1.00  0.00     0.160 A 
HETATM   19  C18 UNL     1      20.355  87.020  -2.505  1.00  0.00     0.083 A 
HETATM   20 CL3  UNL     1      19.060  86.995  -1.355  1.00  0.00    -0.081 Cl
BRANCH  17  21
HETATM   21  N6  UNL     1      24.028  86.720  -2.398  1.00  0.00    -0.111 N 
HETATM   22  O2  UNL     1      24.665  87.731  -2.061  1.00  0.00    -0.532 OA
HETATM   23  O3  UNL     1      24.528  85.448  -2.316  1.00  0.00    -0.532 OA
ENDBRANCH  17  21
BRANCH  18  24
HETATM   24  N7  UNL     1      21.894  86.698  -0.614  1.00  0.00    -0.111 N 
HETATM   25  O4  UNL     1      21.996  87.701   0.127  1.00  0.00    -0.532 OA
HETATM   26  O5  UNL     1      22.030  85.460  -0.035  1.00  0.00    -0.532 OA
ENDBRANCH  18  24
ENDBRANCH  11  13
ENDBRANCH  10  11
ENDBRANCH   1  10
BRANCH   8  27
HETATM   27  C5  UNL     1      17.568  92.496  -0.965  1.00  0.00     0.087 A 
HETATM   28  C6  UNL     1      16.796  93.476  -0.363  1.00  0.00     0.048 A 
HETATM   29  C7  UNL     1      17.372  93.866   0.818  1.00  0.00    -0.005 A 
HETATM   30  C8  UNL     1      17.025  94.778   1.776  1.00  0.00     0.037 A 
HETATM   31  C12 UNL     1      18.522  93.109   0.943  1.00  0.00     0.043 A 
HETATM   32  C9  UNL     1      17.851  94.941   2.895  1.00  0.00     0.035 A 
HETATM   33 CL1  UNL     1      17.440  96.103   4.155  1.00  0.00    -0.084 Cl
HETATM   34  C10 UNL     1      19.000  94.198   3.039  1.00  0.00     0.026 A 
HETATM   35  C11 UNL     1      19.311  93.290   2.049  1.00  0.00     0.032 A 
HETATM   36  N5  UNL     1      18.614  92.292  -0.147  1.00  0.00    -0.352 N 
ATOM     37  H5  UNL     1      19.366  91.625  -0.316  1.00  0.00     0.166 HD
ENDBRANCH   8  27
TORSDOF 6
ENDMDL
MODEL 2
REMARK VINA RESULT: -9.869226092      1.161      2.333
REMARK  6 active torsions:
REMARK  status: ('A' for Active; 'I' for Inactive)
REMARK    1  A    between atoms: C2_2  and  N1_3 
REMARK    2  A    between atoms: C2_2  and  C13_24 
REMARK    3  A    between atoms: N1_3  and  N2_4 
REMARK    4  A    between atoms: C4_11  and  C5_12 
REMARK    5  A    between atoms: C16_28  and  N6_29 
REMARK    6  A    between atoms: C17_32  and  N7_33 
ROOT
HETATM    1  N2  UNL     1      17.374  89.490  -4.663  1.00  0.00    -0.196 N 
ATOM      2  H2  UNL     1      16.799  89.496  -5.506  1.00  0.00     0.205 HD
HETATM    3  C3  UNL     1      17.134  90.486  -3.893  1.00  0.00     0.271 A 
HETATM    4  N3  UNL     1      16.237  91.464  -4.111  1.00  0.00    -0.261 N 
ATOM      5  H3  UNL     1      15.625  91.544  -4.924  1.00  0.00     0.190 HD
HETATM    6  N4  UNL     1      16.283  92.290  -3.104  1.00  0.00    -0.275 N 
ATOM      7  H4  UNL     1      15.712  93.128  -2.997  1.00  0.00     0.189 HD
HETATM    8  C4  UNL     1      17.206  91.856  -2.232  1.00  0.00     0.193 A 
HETATM    9  O1  UNL     1      17.716  90.754  -2.729  1.00  0.00    -0.256 OA
ENDROOT
BRANCH   1  10
HETATM   10  N1  UNL     1      18.170  88.489  -4.617  1.00  0.00    -0.327 NA
BRANCH  10  11
HETATM   11  C2  UNL     1      18.646  87.388  -4.468  1.00  0.00     0.117 C 
HETATM   12  C1  UNL     1      17.856  86.168  -4.851  1.00  0.00     0.088 C 
BRANCH  11  13
HETATM   13  C13 UNL     1      19.996  87.213  -3.908  1.00  0.00     0.028 A 
HETATM   14  C14 UNL     1      20.148  87.342  -2.526  1.00  0.00     0.043 A 
HETATM   15  C15 UNL     1      21.375  87.194  -1.924  1.00  0.00     0.070 A 
HETATM   16 CL2  UNL     1      21.601  87.353  -0.177  1.00  0.00    -0.082 Cl
HETATM   17  C16 UNL     1      22.498  86.908  -2.703  1.00  0.00     0.159 A 
HETATM   18  C17 UNL     1      22.369  86.778  -4.068  1.00  0.00     0.160 A 
HETATM   19  C18 UNL     1      21.108  86.934  -4.641  1.00  0.00     0.083 A 
HETATM   20 CL3  UNL     1      20.997  86.766  -6.362  1.00  0.00    -0.081 Cl
BRANCH  17  21
HETATM   21  N6  UNL     1      23.779  86.747  -2.107  1.00  0.00    -0.111 N 
HETATM   22  O2  UNL     1      24.157  85.606  -1.793  1.00  0.00    -0.532 OA
HETATM   23  O3  UNL     1      24.534  87.873  -1.915  1.00  0.00    -0.532 OA
ENDBRANCH  17  21
BRANCH  18  24
HETATM   24  N7  UNL     1      23.517  86.484  -4.863  1.00  0.00    -0.111 N 
HETATM   25  O4  UNL     1      24.225  87.414  -5.307  1.00  0.00    -0.532 OA
HETATM   26  O5  UNL     1      23.886  85.198  -5.172  1.00  0.00    -0.532 OA
ENDBRANCH  18  24
ENDBRANCH  11  13
ENDBRANCH  10  11
ENDBRANCH   1  10
BRANCH   8  27
HETATM   27  C5  UNL     1      17.541  92.523  -0.976  1.00  0.00     0.087 A 
HETATM   28  C6  UNL     1      16.768  93.478  -0.338  1.00  0.00     0.048 A 
HETATM   29  C7  UNL     1      17.375  93.872   0.826  1.00  0.00    -0.005 A 
HETATM   30  C8  UNL     1      17.041  94.766   1.803  1.00  0.00     0.037 A 
HETATM   31  C12 UNL     1      18.548  93.142   0.903  1.00  0.00     0.043 A 
HETATM   32  C9  UNL     1      17.901  94.941   2.894  1.00  0.00     0.035 A 
HETATM   33 CL1  UNL     1      17.507  96.082   4.179  1.00  0.00    -0.084 Cl
HETATM   34  C10 UNL     1      19.073  94.225   2.991  1.00  0.00     0.026 A 
HETATM   35  C11 UNL     1      19.371  93.334   1.982  1.00  0.00     0.032 A 
HETATM   36  N5  UNL     1      18.620  92.338  -0.198  1.00  0.00    -0.352 N 
ATOM     37  H5  UNL     1      19.383  91.691  -0.400  1.00  0.00     0.166 HD
ENDBRANCH   8  27
TORSDOF 6
ENDMDL
MODEL 3
REMARK VINA RESULT: -9.323564202      0.965      1.025
REMARK  6 active torsions:
REMARK  status: ('A' for Active; 'I' for Inactive)
REMARK    1  A    between atoms: C2_2  and  N1_3 
REMARK    2  A    between atoms: C2_2  and  C13_24 
REMARK    3  A    between atoms: N1_3  and  N2_4 
REMARK    4  A    between atoms: C4_11  and  C5_12 
REMARK    5  A    between atoms: C16_28  and  N6_29 
REMARK    6  A    between atoms: C17_32  and  N7_33 
ROOT
HETATM    1  N2  UNL     1      17.299  89.652  -4.700  1.00  0.00    -0.196 N 
ATOM      2  H2  UNL     1      16.713  89.696  -5.534  1.00  0.00     0.205 HD
HETATM    3  C3  UNL     1      17.082  90.621  -3.891  1.00  0.00     0.271 A 
HETATM    4  N3  UNL     1      16.195  91.618  -4.060  1.00  0.00    -0.261 N 
ATOM      5  H3  UNL     1      15.573  91.737  -4.861  1.00  0.00     0.190 HD
HETATM    6  N4  UNL     1      16.266  92.406  -3.024  1.00  0.00    -0.275 N 
ATOM      7  H4  UNL     1      15.707  93.247  -2.878  1.00  0.00     0.189 HD
HETATM    8  C4  UNL     1      17.194  91.928  -2.181  1.00  0.00     0.193 A 
HETATM    9  O1  UNL     1      17.682  90.839  -2.725  1.00  0.00    -0.256 OA
ENDROOT
BRANCH   1  10
HETATM   10  N1  UNL     1      18.082  88.640  -4.702  1.00  0.00    -0.327 NA
BRANCH  10  11
HETATM   11  C2  UNL     1      18.538  87.523  -4.629  1.00  0.00     0.117 C 
HETATM   12  C1  UNL     1      17.625  86.331  -4.669  1.00  0.00     0.088 C 
BRANCH  11  13
HETATM   13  C13 UNL     1      19.988  87.302  -4.494  1.00  0.00     0.028 A 
HETATM   14  C14 UNL     1      20.771  87.410  -5.645  1.00  0.00     0.043 A 
HETATM   15  C15 UNL     1      22.132  87.218  -5.604  1.00  0.00     0.070 A 
HETATM   16 CL2  UNL     1      23.152  87.345  -7.044  1.00  0.00    -0.082 Cl
HETATM   17  C16 UNL     1      22.752  86.910  -4.392  1.00  0.00     0.159 A 
HETATM   18  C17 UNL     1      21.996  86.800  -3.246  1.00  0.00     0.160 A 
HETATM   19  C18 UNL     1      20.620  87.001  -3.327  1.00  0.00     0.083 A 
HETATM   20 CL3  UNL     1      19.712  86.847  -1.860  1.00  0.00    -0.081 Cl
BRANCH  17  21
HETATM   21  N6  UNL     1      24.158  86.710  -4.320  1.00  0.00    -0.111 N 
HETATM   22  O2  UNL     1      24.893  87.682  -4.078  1.00  0.00    -0.532 OA
HETATM   23  O3  UNL     1      24.627  85.439  -4.520  1.00  0.00    -0.532 OA
ENDBRANCH  17  21
BRANCH  18  24
HETATM   24  N7  UNL     1      22.631  86.486  -2.007  1.00  0.00    -0.111 N 
HETATM   25  O4  UNL     1      23.032  87.406  -1.259  1.00  0.00    -0.532 OA
HETATM   26  O5  UNL     1      22.827  85.193  -1.589  1.00  0.00    -0.532 OA
ENDBRANCH  18  24
ENDBRANCH  11  13
ENDBRANCH  10  11
ENDBRANCH   1  10
BRANCH   8  27
HETATM   27  C5  UNL     1      17.554  92.543  -0.906  1.00  0.00     0.087 A 
HETATM   28  C6  UNL     1      16.845  93.544  -0.263  1.00  0.00     0.048 A 
HETATM   29  C7  UNL     1      17.457  93.868   0.919  1.00  0.00    -0.005 A 
HETATM   30  C8  UNL     1      17.174  94.767   1.908  1.00  0.00     0.037 A 
HETATM   31  C12 UNL     1      18.568  93.048   1.003  1.00  0.00     0.043 A 
HETATM   32  C9  UNL     1      18.023  94.854   3.018  1.00  0.00     0.035 A 
HETATM   33 CL1  UNL     1      17.693  95.998   4.318  1.00  0.00    -0.084 Cl
HETATM   34  C10 UNL     1      19.133  94.048   3.122  1.00  0.00     0.026 A 
HETATM   35  C11 UNL     1      19.382  93.155   2.101  1.00  0.00     0.032 A 
HETATM   36  N5  UNL     1      18.600  92.261  -0.112  1.00  0.00    -0.352 N 
ATOM     37  H5  UNL     1      19.314  91.560  -0.312  1.00  0.00     0.166 HD
ENDBRANCH   8  27
TORSDOF 6
ENDMDL
MODEL 4
REMARK VINA RESULT: -9.287312584     10.905     16.204
REMARK  6 active torsions:
REMARK  status: ('A' for Active; 'I' for Inactive)
REMARK    1  A    between atoms: C2_2  and  N1_3 
REMARK    2  A    between atoms: C2_2  and  C13_24 
REMARK    3  A    between atoms: N1_3  and  N2_4 
REMARK    4  A    between atoms: C4_11  and  C5_12 
REMARK    5  A    between atoms: C16_28  and  N6_29 
REMARK    6  A    between atoms: C17_32  and  N7_33 
ROOT
HETATM    1  N2  UNL     1      15.022  97.815   9.647  1.00  0.00    -0.196 N 
ATOM      2  H2  UNL     1      14.473  98.576   9.246  1.00  0.00     0.205 HD
HETATM    3  C3  UNL     1      15.538  97.053   8.755  1.00  0.00     0.271 A 
HETATM    4  N3  UNL     1      15.410  97.186   7.423  1.00  0.00    -0.261 N 
ATOM      5  H3  UNL     1      14.881  97.915   6.942  1.00  0.00     0.190 HD
HETATM    6  N4  UNL     1      16.079  96.224   6.853  1.00  0.00    -0.275 N 
ATOM      7  H4  UNL     1      16.162  96.073   5.847  1.00  0.00     0.189 HD
HETATM    8  C4  UNL     1      16.642  95.465   7.806  1.00  0.00     0.193 A 
HETATM    9  O1  UNL     1      16.302  95.985   8.961  1.00  0.00    -0.256 OA
ENDROOT
BRANCH   1  10
HETATM   10  N1  UNL     1      15.038  97.841  10.926  1.00  0.00    -0.327 NA
BRANCH  10  11
HETATM   11  C2  UNL     1      14.787  97.666  12.096  1.00  0.00     0.117 C 
HETATM   12  C1  UNL     1      15.603  98.356  13.153  1.00  0.00     0.088 C 
BRANCH  11  13
HETATM   13  C13 UNL     1      13.690  96.778  12.513  1.00  0.00     0.028 A 
HETATM   14  C14 UNL     1      12.552  97.367  13.068  1.00  0.00     0.043 A 
HETATM   15  C15 UNL     1      11.484  96.609  13.483  1.00  0.00     0.070 A 
HETATM   16 CL2  UNL     1      10.030  97.324  14.192  1.00  0.00    -0.082 Cl
HETATM   17  C16 UNL     1      11.528  95.219  13.351  1.00  0.00     0.159 A 
HETATM   18  C17 UNL     1      12.641  94.619  12.806  1.00  0.00     0.160 A 
HETATM   19  C18 UNL     1      13.704  95.422  12.397  1.00  0.00     0.083 A 
HETATM   20 CL3  UNL     1      15.085  94.621  11.722  1.00  0.00    -0.081 Cl
BRANCH  17  21
HETATM   21  N6  UNL     1      10.436  94.410  13.769  1.00  0.00    -0.111 N 
HETATM   22  O2  UNL     1      10.576  93.679  14.763  1.00  0.00    -0.532 OA
HETATM   23  O3  UNL     1       9.277  94.487  13.044  1.00  0.00    -0.532 OA
ENDBRANCH  17  21
BRANCH  18  24
HETATM   24  N7  UNL     1      12.686  93.200  12.670  1.00  0.00    -0.111 N 
HETATM   25  O4  UNL     1      13.298  92.509  13.514  1.00  0.00    -0.532 OA
HETATM   26  O5  UNL     1      12.075  92.543  11.629  1.00  0.00    -0.532 OA
ENDBRANCH  18  24
ENDBRANCH  11  13
ENDBRANCH  10  11
ENDBRANCH   1  10
BRANCH   8  27
HETATM   27  C5  UNL     1      17.472  94.291   7.551  1.00  0.00     0.087 A 
HETATM   28  C6  UNL     1      17.938  93.885   6.312  1.00  0.00     0.048 A 
HETATM   29  C7  UNL     1      18.703  92.756   6.445  1.00  0.00    -0.005 A 
HETATM   30  C8  UNL     1      19.382  91.971   5.556  1.00  0.00     0.037 A 
HETATM   31  C12 UNL     1      18.706  92.462   7.797  1.00  0.00     0.043 A 
HETATM   32  C9  UNL     1      20.087  90.856   6.026  1.00  0.00     0.035 A 
HETATM   33 CL1  UNL     1      20.978  89.819   4.914  1.00  0.00    -0.084 Cl
HETATM   34  C10 UNL     1      20.103  90.545   7.367  1.00  0.00     0.026 A 
HETATM   35  C11 UNL     1      19.404  91.364   8.228  1.00  0.00     0.032 A 
HETATM   36  N5  UNL     1      17.955  93.404   8.438  1.00  0.00    -0.352 N 
ATOM     37  H5  UNL     1      17.785  93.432   9.443  1.00  0.00     0.166 HD
ENDBRANCH   8  27
TORSDOF 6
ENDMDL
MODEL 5
REMARK VINA RESULT: -8.867932926      1.088      2.292
REMARK  6 active torsions:
REMARK  status: ('A' for Active; 'I' for Inactive)
REMARK    1  A    between atoms: C2_2  and  N1_3 
REMARK    2  A    between atoms: C2_2  and  C13_24 
REMARK    3  A    between atoms: N1_3  and  N2_4 
REMARK    4  A    between atoms: C4_11  and  C5_12 
REMARK    5  A    between atoms: C16_28  and  N6_29 
REMARK    6  A    between atoms: C17_32  and  N7_33 
ROOT
HETATM    1  N2  UNL     1      17.426  89.602  -4.756  1.00  0.00    -0.196 N 
ATOM      2  H2  UNL     1      16.836  89.619  -5.588  1.00  0.00     0.205 HD
HETATM    3  C3  UNL     1      17.163  90.556  -3.942  1.00  0.00     0.271 A 
HETATM    4  N3  UNL     1      16.224  91.505  -4.104  1.00  0.00    -0.261 N 
ATOM      5  H3  UNL     1      15.594  91.595  -4.902  1.00  0.00     0.190 HD
HETATM    6  N4  UNL     1      16.258  92.292  -3.065  1.00  0.00    -0.275 N 
ATOM      7  H4  UNL     1      15.657  93.102  -2.913  1.00  0.00     0.189 HD
HETATM    8  C4  UNL     1      17.214  91.860  -2.227  1.00  0.00     0.193 A 
HETATM    9  O1  UNL     1      17.756  90.800  -2.778  1.00  0.00    -0.256 OA
ENDROOT
BRANCH   1  10
HETATM   10  N1  UNL     1      18.261  88.632  -4.765  1.00  0.00    -0.327 NA
BRANCH  10  11
HETATM   11  C2  UNL     1      19.207  87.914  -4.993  1.00  0.00     0.117 C 
HETATM   12  C1  UNL     1      19.537  87.528  -6.407  1.00  0.00     0.088 C 
BRANCH  11  13
HETATM   13  C13 UNL     1      20.049  87.399  -3.901  1.00  0.00     0.028 A 
HETATM   14  C14 UNL     1      19.777  87.842  -2.606  1.00  0.00     0.043 A 
HETATM   15  C15 UNL     1      20.516  87.410  -1.531  1.00  0.00     0.070 A 
HETATM   16 CL2  UNL     1      20.198  87.954   0.122  1.00  0.00    -0.082 Cl
HETATM   17  C16 UNL     1      21.564  86.507  -1.729  1.00  0.00     0.159 A 
HETATM   18  C17 UNL     1      21.848  86.059  -2.999  1.00  0.00     0.160 A 
HETATM   19  C18 UNL     1      21.075  86.520  -4.063  1.00  0.00     0.083 A 
HETATM   20 CL3  UNL     1      21.475  85.931  -5.643  1.00  0.00    -0.081 Cl
BRANCH  17  21
HETATM   21  N6  UNL     1      22.344  86.041  -0.635  1.00  0.00    -0.111 N 
HETATM   22  O2  UNL     1      23.359  86.676  -0.306  1.00  0.00    -0.532 OA
HETATM   23  O3  UNL     1      21.923  84.904   0.003  1.00  0.00    -0.532 OA
ENDBRANCH  17  21
BRANCH  18  24
HETATM   24  N7  UNL     1      22.917  85.136  -3.202  1.00  0.00    -0.111 N 
HETATM   25  O4  UNL     1      24.071  85.557  -3.437  1.00  0.00    -0.532 OA
HETATM   26  O5  UNL     1      22.732  83.776  -3.151  1.00  0.00    -0.532 OA
ENDBRANCH  18  24
ENDBRANCH  11  13
ENDBRANCH  10  11
ENDBRANCH   1  10
BRANCH   8  27
HETATM   27  C5  UNL     1      17.546  92.488  -0.952  1.00  0.00     0.087 A 
HETATM   28  C6  UNL     1      16.831  93.505  -0.341  1.00  0.00     0.048 A 
HETATM   29  C7  UNL     1      17.415  93.838   0.853  1.00  0.00    -0.005 A 
HETATM   30  C8  UNL     1      17.115  94.753   1.822  1.00  0.00     0.037 A 
HETATM   31  C12 UNL     1      18.514  93.007   0.978  1.00  0.00     0.043 A 
HETATM   32  C9  UNL     1      17.936  94.846   2.953  1.00  0.00     0.035 A 
HETATM   33 CL1  UNL     1      17.583  96.010   4.229  1.00  0.00    -0.084 Cl
HETATM   34  C10 UNL     1      19.034  94.029   3.097  1.00  0.00     0.026 A 
HETATM   35  C11 UNL     1      19.299  93.120   2.095  1.00  0.00     0.032 A 
HETATM   36  N5  UNL     1      18.567  92.205  -0.126  1.00  0.00    -0.352 N 
ATOM     37  H5  UNL     1      19.278  91.494  -0.298  1.00  0.00     0.166 HD
ENDBRANCH   8  27
TORSDOF 6
ENDMDL
