MODEL 1
REMARK VINA RESULT: -4.850435206      0.000      0.000
REMARK  1 active torsions:
REMARK  status: ('A' for Active; 'I' for Inactive)
REMARK    1  A    between atoms: C5_5  and  C7_7 
ROOT
HETATM    1  C1  UNL     1     135.640   7.580  68.525  1.00  0.00     0.049 C 
HETATM    2  C2  UNL     1     135.258   6.154  68.853  1.00  0.00     0.092 C 
HETATM    3  C3  UNL     1     136.222   5.508  69.810  1.00  0.00     0.049 C 
HETATM    4  C4  UNL     1     133.818   6.074  69.378  1.00  0.00     0.083 C 
HETATM    5  C5  UNL     1     133.116   5.571  68.117  1.00  0.00     0.123 C 
HETATM    6  C6  UNL     1     131.780   6.191  67.914  1.00  0.00     0.051 C 
HETATM    7  O1  UNL     1     134.040   5.988  67.144  1.00  0.00    -0.227 OA
HETATM    8  O2  UNL     1     135.158   5.456  67.645  1.00  0.00    -0.230 OA
ENDROOT
BRANCH   5   9
HETATM    9  C7  UNL     1     133.093   4.064  68.078  1.00  0.00     0.224 C 
HETATM   10  C8  UNL     1     131.658   3.581  67.927  1.00  0.00     0.063 C 
HETATM   11  C9  UNL     1     132.153   2.448  68.826  1.00  0.00     0.235 C 
HETATM   12  N1  UNL     1     133.124   3.396  69.345  1.00  0.00    -0.068 N 
ATOM     13  H12 UNL     1     134.007   3.072  69.741  1.00  0.00     0.277 HD
ATOM     14  H11 UNL     1     132.940   3.908  70.208  1.00  0.00     0.277 HD
ENDBRANCH   5   9
TORSDOF 1
ENDMDL
MODEL 2
REMARK VINA RESULT: -4.701742877     12.730     14.019
REMARK  1 active torsions:
REMARK  status: ('A' for Active; 'I' for Inactive)
REMARK    1  A    between atoms: C5_5  and  C7_7 
ROOT
HETATM    1  C1  UNL     1     125.822  15.132  69.758  1.00  0.00     0.049 C 
HETATM    2  C2  UNL     1     124.313  15.049  69.811  1.00  0.00     0.092 C 
HETATM    3  C3  UNL     1     123.651  16.103  68.966  1.00  0.00     0.049 C 
HETATM    4  C4  UNL     1     123.822  13.645  69.430  1.00  0.00     0.083 C 
HETATM    5  C5  UNL     1     123.522  13.094  70.824  1.00  0.00     0.123 C 
HETATM    6  C6  UNL     1     123.898  11.664  70.974  1.00  0.00     0.051 C 
HETATM    7  O1  UNL     1     124.341  13.934  71.597  1.00  0.00    -0.227 OA
HETATM    8  O2  UNL     1     123.932  15.126  71.154  1.00  0.00    -0.230 OA
ENDROOT
BRANCH   5   9
HETATM    9  C7  UNL     1     122.098  13.388  71.224  1.00  0.00     0.224 C 
HETATM   10  C8  UNL     1     121.410  12.097  71.642  1.00  0.00     0.063 C 
HETATM   11  C9  UNL     1     120.198  12.764  70.990  1.00  0.00     0.235 C 
HETATM   12  N1  UNL     1     121.146  13.483  70.157  1.00  0.00    -0.068 N 
ATOM     13  H12 UNL     1     120.903  14.389  69.756  1.00  0.00     0.277 HD
ATOM     14  H11 UNL     1     121.378  13.147  69.223  1.00  0.00     0.277 HD
ENDBRANCH   5   9
TORSDOF 1
ENDMDL
MODEL 3
REMARK VINA RESULT: -4.602582640     12.925     13.711
REMARK  1 active torsions:
REMARK  status: ('A' for Active; 'I' for Inactive)
REMARK    1  A    between atoms: C5_5  and  C7_7 
ROOT
HETATM    1  C1  UNL     1     126.071  14.947  69.708  1.00  0.00     0.049 C 
HETATM    2  C2  UNL     1     124.892  14.735  70.632  1.00  0.00     0.092 C 
HETATM    3  C3  UNL     1     125.040  15.483  71.929  1.00  0.00     0.049 C 
HETATM    4  C4  UNL     1     123.572  15.092  69.934  1.00  0.00     0.083 C 
HETATM    5  C5  UNL     1     123.075  13.686  69.599  1.00  0.00     0.123 C 
HETATM    6  C6  UNL     1     122.419  13.608  68.267  1.00  0.00     0.051 C 
HETATM    7  O1  UNL     1     124.293  12.987  69.624  1.00  0.00    -0.227 OA
HETATM    8  O2  UNL     1     124.747  13.358  70.824  1.00  0.00    -0.230 OA
ENDROOT
BRANCH   5   9
HETATM    9  C7  UNL     1     122.232  13.131  70.719  1.00  0.00     0.224 C 
HETATM   10  C8  UNL     1     121.787  11.719  70.370  1.00  0.00     0.063 C 
HETATM   11  C9  UNL     1     120.520  12.146  71.110  1.00  0.00     0.235 C 
HETATM   12  N1  UNL     1     120.849  13.505  70.717  1.00  0.00    -0.068 N 
ATOM     13  H12 UNL     1     120.524  14.300  71.270  1.00  0.00     0.277 HD
ATOM     14  H11 UNL     1     120.425  13.925  69.890  1.00  0.00     0.277 HD
ENDBRANCH   5   9
TORSDOF 1
ENDMDL
MODEL 4
REMARK VINA RESULT: -4.541183626     11.516     13.145
REMARK  1 active torsions:
REMARK  status: ('A' for Active; 'I' for Inactive)
REMARK    1  A    between atoms: C5_5  and  C7_7 
ROOT
HETATM    1  C1  UNL     1     122.211  13.263  69.048  1.00  0.00     0.049 C 
HETATM    2  C2  UNL     1     122.331  12.988  70.531  1.00  0.00     0.092 C 
HETATM    3  C3  UNL     1     121.024  13.166  71.255  1.00  0.00     0.049 C 
HETATM    4  C4  UNL     1     122.921  11.595  70.788  1.00  0.00     0.083 C 
HETATM    5  C5  UNL     1     124.358  11.988  71.131  1.00  0.00     0.123 C 
HETATM    6  C6  UNL     1     125.364  11.043  70.577  1.00  0.00     0.051 C 
HETATM    7  O1  UNL     1     124.421  13.244  70.505  1.00  0.00    -0.227 OA
HETATM    8  O2  UNL     1     123.337  13.819  71.034  1.00  0.00    -0.230 OA
ENDROOT
BRANCH   5   9
HETATM    9  C7  UNL     1     124.512  12.231  72.611  1.00  0.00     0.224 C 
HETATM   10  C8  UNL     1     125.598  11.321  73.166  1.00  0.00     0.063 C 
HETATM   11  C9  UNL     1     124.678  11.298  74.388  1.00  0.00     0.235 C 
HETATM   12  N1  UNL     1     123.585  11.551  73.466  1.00  0.00    -0.068 N 
ATOM     13  H12 UNL     1     122.733  12.015  73.783  1.00  0.00     0.277 HD
ATOM     14  H11 UNL     1     123.017  10.782  73.109  1.00  0.00     0.277 HD
ENDBRANCH   5   9
TORSDOF 1
ENDMDL
MODEL 5
REMARK VINA RESULT: -4.527525373     13.086     13.927
REMARK  1 active torsions:
REMARK  status: ('A' for Active; 'I' for Inactive)
REMARK    1  A    between atoms: C5_5  and  C7_7 
ROOT
HETATM    1  C1  UNL     1     121.305  12.123  72.021  1.00  0.00     0.049 C 
HETATM    2  C2  UNL     1     122.773  12.457  71.887  1.00  0.00     0.092 C 
HETATM    3  C3  UNL     1     123.628  11.684  72.854  1.00  0.00     0.049 C 
HETATM    4  C4  UNL     1     123.255  12.261  70.443  1.00  0.00     0.083 C 
HETATM    5  C5  UNL     1     123.271  13.718  69.981  1.00  0.00     0.123 C 
HETATM    6  C6  UNL     1     122.804  13.886  68.580  1.00  0.00     0.051 C 
HETATM    7  O1  UNL     1     122.367  14.274  70.903  1.00  0.00    -0.227 OA
HETATM    8  O2  UNL     1     122.908  13.840  72.045  1.00  0.00    -0.230 OA
ENDROOT
BRANCH   5   9
HETATM    9  C7  UNL     1     124.612  14.354  70.250  1.00  0.00     0.224 C 
HETATM   10  C8  UNL     1     124.606  15.788  69.742  1.00  0.00     0.063 C 
HETATM   11  C9  UNL     1     126.063  15.467  69.409  1.00  0.00     0.235 C 
HETATM   12  N1  UNL     1     125.646  14.081  69.296  1.00  0.00    -0.068 N 
ATOM     13  H12 UNL     1     126.310  13.323  69.452  1.00  0.00     0.277 HD
ATOM     14  H11 UNL     1     125.421  13.677  68.387  1.00  0.00     0.277 HD
ENDBRANCH   5   9
TORSDOF 1
ENDMDL
