MODEL 1
REMARK VINA RESULT: -7.148480527      0.000      0.000
REMARK  15 active torsions:
REMARK  status: ('A' for Active; 'I' for Inactive)
REMARK    1  A    between atoms: C2_2  and  C3_3 
REMARK    2  A    between atoms: C2_2  and  C34_43 
REMARK    3  A    between atoms: C3_3  and  C4_4 
REMARK    4  A    between atoms: C4_4  and  C5_5 
REMARK    5  A    between atoms: C5_5  and  O1_6 
REMARK    6  A    between atoms: C6_8  and  O2_9 
REMARK    7  A    between atoms: O2_9  and  C7_10 
REMARK    8  A    between atoms: C14_19  and  C16_21 
REMARK    9  A    between atoms: C17_22  and  C18_23 
REMARK   10  A    between atoms: C22_27  and  O5_28 
REMARK   11  A    between atoms: C22_27  and  C23_30 
REMARK   12  A    between atoms: C23_30  and  O7_32 
REMARK   13  A    between atoms: C26_35  and  C28_37 
REMARK   14  A    between atoms: C28_37  and  C29_38 
REMARK   15  A    between atoms: C29_38  and  C30_39 
ROOT
HETATM    1  C5  UNL     1      15.503   0.768  29.477  1.00  0.00     0.097 C 
HETATM    2  C6  UNL     1      16.552  -0.352  29.836  1.00  0.00     0.182 C 
HETATM    3  C9  UNL     1      17.324  -0.848  28.677  1.00  0.00     0.043 C 
HETATM    4  C10 UNL     1      17.161  -2.372  28.490  1.00  0.00     0.026 C 
HETATM    5  C11 UNL     1      18.811  -0.618  28.741  1.00  0.00     0.026 C 
HETATM    6  C12 UNL     1      16.847  -0.261  27.401  1.00  0.00     0.138 C 
HETATM    7  O4  UNL     1      17.623   0.204  26.553  1.00  0.00    -0.297 OA
HETATM    8  C13 UNL     1      15.391  -0.270  27.217  1.00  0.00     0.095 C 
HETATM    9  C14 UNL     1      14.619   0.207  28.454  1.00  0.00     0.014 C 
HETATM   10  C15 UNL     1      13.758  -0.947  28.888  1.00  0.00     0.023 C 
ENDROOT
BRANCH   9  11
HETATM   11  C16 UNL     1      13.609   1.158  27.834  1.00  0.00    -0.017 C 
HETATM   12  C17 UNL     1      12.472   0.620  27.471  1.00  0.00    -0.020 C 
BRANCH  12  13
HETATM   13  C18 UNL     1      11.253   1.088  26.864  1.00  0.00     0.044 C 
HETATM   14  C19 UNL     1      10.437   2.132  27.471  1.00  0.00    -0.076 C 
HETATM   15  C20 UNL     1      10.650   2.879  28.717  1.00  0.00     0.044 C 
HETATM   16  C21 UNL     1       9.318   2.467  26.778  1.00  0.00     0.024 C 
HETATM   17  C22 UNL     1       9.028   1.770  25.507  1.00  0.00     0.164 C 
HETATM   18  C25 UNL     1       9.239   0.280  25.612  1.00  0.00     0.062 C 
HETATM   19  C26 UNL     1      10.336  -0.086  26.567  1.00  0.00    -0.030 C 
HETATM   20  C27 UNL     1       9.753  -0.571  27.855  1.00  0.00     0.016 C 
BRANCH  17  21
HETATM   21  O5  UNL     1       9.691   2.345  24.424  1.00  0.00    -0.375 OA
ATOM     22  H5  UNL     1      10.613   2.118  24.402  1.00  0.00     0.211 HD
ENDBRANCH  17  21
BRANCH  17  23
HETATM   23  C23 UNL     1       7.560   1.971  25.236  1.00  0.00     0.297 C 
HETATM   24  O6  UNL     1       6.763   2.361  26.121  1.00  0.00    -0.261 OA
BRANCH  23  25
HETATM   25  O7  UNL     1       7.030   1.729  23.975  1.00  0.00    -0.324 OA
HETATM   26  C24 UNL     1       5.638   1.702  23.732  1.00  0.00     0.213 C 
ENDBRANCH  23  25
ENDBRANCH  17  23
BRANCH  19  27
HETATM   27  C28 UNL     1      11.071  -1.248  25.889  1.00  0.00     0.014 C 
BRANCH  27  28
HETATM   28  C29 UNL     1      11.480  -0.759  24.539  1.00  0.00     0.028 C 
BRANCH  28  29
HETATM   29  C30 UNL     1      12.881  -0.689  24.202  1.00  0.00    -0.025 C 
HETATM   30  C31 UNL     1      13.656   0.289  23.919  1.00  0.00    -0.091 C 
HETATM   31  C32 UNL     1      15.125  -0.059  23.611  1.00  0.00     0.042 C 
HETATM   32  C33 UNL     1      13.329   1.712  23.837  1.00  0.00     0.042 C 
ENDBRANCH  28  29
ENDBRANCH  27  28
ENDBRANCH  19  27
ENDBRANCH  12  13
ENDBRANCH   9  11
BRANCH   1  33
HETATM   33  C4  UNL     1      14.904   1.022  30.827  1.00  0.00     0.046 C 
BRANCH  33  34
HETATM   34  C3  UNL     1      14.012   2.159  31.062  1.00  0.00     0.037 C 
BRANCH  34  35
HETATM   35  C2  UNL     1      12.717   1.891  31.761  1.00  0.00    -0.086 C 
HETATM   36  C1  UNL     1      11.949   2.887  32.186  1.00  0.00     0.014 C 
BRANCH  35  37
HETATM   37  C34 UNL     1      12.164   0.516  31.915  1.00  0.00     0.005 C 
HETATM   38  C35 UNL     1      12.059   0.150  33.395  1.00  0.00     0.014 C 
HETATM   39  C36 UNL     1      10.906   0.199  31.211  1.00  0.00     0.014 C 
ENDBRANCH  35  37
ENDBRANCH  34  35
ENDBRANCH  33  34
ENDBRANCH   1  33
BRANCH   1  40
HETATM   40  O1  UNL     1      16.187   1.869  29.073  1.00  0.00    -0.386 OA
ATOM     41  H1  UNL     1      17.105   1.648  28.965  1.00  0.00     0.210 HD
ENDBRANCH   1  40
BRANCH   2  42
HETATM   42  O2  UNL     1      17.276  -0.105  30.972  1.00  0.00    -0.312 OA
BRANCH  42  43
HETATM   43  C7  UNL     1      17.520  -0.971  32.033  1.00  0.00     0.255 C 
HETATM   44  C8  UNL     1      16.544  -2.068  32.217  1.00  0.00     0.126 C 
HETATM   45  O3  UNL     1      18.513  -0.735  32.700  1.00  0.00    -0.266 OA
ENDBRANCH  42  43
ENDBRANCH   2  42
TORSDOF 15
ENDMDL
MODEL 2
REMARK VINA RESULT: -7.064840205      0.984      1.274
REMARK  15 active torsions:
REMARK  status: ('A' for Active; 'I' for Inactive)
REMARK    1  A    between atoms: C2_2  and  C3_3 
REMARK    2  A    between atoms: C2_2  and  C34_43 
REMARK    3  A    between atoms: C3_3  and  C4_4 
REMARK    4  A    between atoms: C4_4  and  C5_5 
REMARK    5  A    between atoms: C5_5  and  O1_6 
REMARK    6  A    between atoms: C6_8  and  O2_9 
REMARK    7  A    between atoms: O2_9  and  C7_10 
REMARK    8  A    between atoms: C14_19  and  C16_21 
REMARK    9  A    between atoms: C17_22  and  C18_23 
REMARK   10  A    between atoms: C22_27  and  O5_28 
REMARK   11  A    between atoms: C22_27  and  C23_30 
REMARK   12  A    between atoms: C23_30  and  O7_32 
REMARK   13  A    between atoms: C26_35  and  C28_37 
REMARK   14  A    between atoms: C28_37  and  C29_38 
REMARK   15  A    between atoms: C29_38  and  C30_39 
ROOT
HETATM    1  C5  UNL     1      14.947   0.103  29.991  1.00  0.00     0.097 C 
HETATM    2  C6  UNL     1      15.940  -1.067  30.350  1.00  0.00     0.182 C 
HETATM    3  C9  UNL     1      16.991  -1.297  29.336  1.00  0.00     0.043 C 
HETATM    4  C10 UNL     1      16.960  -2.743  28.796  1.00  0.00     0.026 C 
HETATM    5  C11 UNL     1      18.406  -1.085  29.808  1.00  0.00     0.026 C 
HETATM    6  C12 UNL     1      16.800  -0.444  28.136  1.00  0.00     0.138 C 
HETATM    7  O4  UNL     1      17.730   0.195  27.622  1.00  0.00    -0.297 OA
HETATM    8  C13 UNL     1      15.433  -0.415  27.605  1.00  0.00     0.095 C 
HETATM    9  C14 UNL     1      14.364  -0.221  28.688  1.00  0.00     0.014 C 
HETATM   10  C15 UNL     1      13.488  -1.443  28.645  1.00  0.00     0.023 C 
ENDROOT
BRANCH   9  11
HETATM   11  C16 UNL     1      13.480   0.842  28.057  1.00  0.00    -0.017 C 
HETATM   12  C17 UNL     1      12.276   0.452  27.720  1.00  0.00    -0.020 C 
BRANCH  12  13
HETATM   13  C18 UNL     1      11.121   1.064  27.116  1.00  0.00     0.044 C 
HETATM   14  C19 UNL     1      10.402   2.159  27.754  1.00  0.00    -0.076 C 
HETATM   15  C20 UNL     1      10.665   2.830  29.033  1.00  0.00     0.044 C 
HETATM   16  C21 UNL     1       9.336   2.633  27.059  1.00  0.00     0.024 C 
HETATM   17  C22 UNL     1       9.002   2.020  25.757  1.00  0.00     0.164 C 
HETATM   18  C25 UNL     1       9.061   0.514  25.802  1.00  0.00     0.062 C 
HETATM   19  C26 UNL     1      10.098   0.001  26.756  1.00  0.00    -0.030 C 
HETATM   20  C27 UNL     1       9.446  -0.475  28.014  1.00  0.00     0.016 C 
BRANCH  17  21
HETATM   21  O5  UNL     1       9.738   2.569  24.708  1.00  0.00    -0.375 OA
ATOM     22  H5  UNL     1      10.675   2.504  24.851  1.00  0.00     0.211 HD
ENDBRANCH  17  21
BRANCH  17  23
HETATM   23  C23 UNL     1       7.566   2.379  25.473  1.00  0.00     0.297 C 
HETATM   24  O6  UNL     1       6.746   2.631  26.386  1.00  0.00    -0.261 OA
BRANCH  23  25
HETATM   25  O7  UNL     1       7.094   2.444  24.168  1.00  0.00    -0.324 OA
HETATM   26  C24 UNL     1       6.127   1.543  23.668  1.00  0.00     0.213 C 
ENDBRANCH  23  25
ENDBRANCH  17  23
BRANCH  19  27
HETATM   27  C28 UNL     1      10.726  -1.200  26.040  1.00  0.00     0.014 C 
BRANCH  27  28
HETATM   28  C29 UNL     1      11.173  -0.710  24.703  1.00  0.00     0.028 C 
BRANCH  28  29
HETATM   29  C30 UNL     1      12.578  -0.718  24.375  1.00  0.00    -0.025 C 
HETATM   30  C31 UNL     1      13.388   0.202  24.011  1.00  0.00    -0.091 C 
HETATM   31  C32 UNL     1      14.846  -0.222  23.751  1.00  0.00     0.042 C 
HETATM   32  C33 UNL     1      13.111   1.623  23.795  1.00  0.00     0.042 C 
ENDBRANCH  28  29
ENDBRANCH  27  28
ENDBRANCH  19  27
ENDBRANCH  12  13
ENDBRANCH   9  11
BRANCH   1  33
HETATM   33  C4  UNL     1      14.031   0.056  31.177  1.00  0.00     0.046 C 
BRANCH  33  34
HETATM   34  C3  UNL     1      13.118   1.160  31.478  1.00  0.00     0.037 C 
BRANCH  34  35
HETATM   35  C2  UNL     1      11.778   0.815  32.046  1.00  0.00    -0.086 C 
HETATM   36  C1  UNL     1      10.956  -0.012  31.410  1.00  0.00     0.014 C 
BRANCH  35  37
HETATM   37  C34 UNL     1      11.338   1.278  33.392  1.00  0.00     0.005 C 
HETATM   38  C35 UNL     1      10.579   0.165  34.113  1.00  0.00     0.014 C 
HETATM   39  C36 UNL     1      12.356   1.873  34.280  1.00  0.00     0.014 C 
ENDBRANCH  35  37
ENDBRANCH  34  35
ENDBRANCH  33  34
ENDBRANCH   1  33
BRANCH   1  40
HETATM   40  O1  UNL     1      15.647   1.267  30.009  1.00  0.00    -0.386 OA
ATOM     41  H1  UNL     1      15.937   1.474  29.129  1.00  0.00     0.210 HD
ENDBRANCH   1  40
BRANCH   2  42
HETATM   42  O2  UNL     1      16.358  -1.073  31.654  1.00  0.00    -0.312 OA
BRANCH  42  43
HETATM   43  C7  UNL     1      16.457  -2.164  32.512  1.00  0.00     0.255 C 
HETATM   44  C8  UNL     1      17.718  -2.280  33.278  1.00  0.00     0.126 C 
HETATM   45  O3  UNL     1      15.494  -2.911  32.542  1.00  0.00    -0.266 OA
ENDBRANCH  42  43
ENDBRANCH   2  42
TORSDOF 15
ENDMDL
MODEL 3
REMARK VINA RESULT: -7.000861013      1.537      3.857
REMARK  15 active torsions:
REMARK  status: ('A' for Active; 'I' for Inactive)
REMARK    1  A    between atoms: C2_2  and  C3_3 
REMARK    2  A    between atoms: C2_2  and  C34_43 
REMARK    3  A    between atoms: C3_3  and  C4_4 
REMARK    4  A    between atoms: C4_4  and  C5_5 
REMARK    5  A    between atoms: C5_5  and  O1_6 
REMARK    6  A    between atoms: C6_8  and  O2_9 
REMARK    7  A    between atoms: O2_9  and  C7_10 
REMARK    8  A    between atoms: C14_19  and  C16_21 
REMARK    9  A    between atoms: C17_22  and  C18_23 
REMARK   10  A    between atoms: C22_27  and  O5_28 
REMARK   11  A    between atoms: C22_27  and  C23_30 
REMARK   12  A    between atoms: C23_30  and  O7_32 
REMARK   13  A    between atoms: C26_35  and  C28_37 
REMARK   14  A    between atoms: C28_37  and  C29_38 
REMARK   15  A    between atoms: C29_38  and  C30_39 
ROOT
HETATM    1  C5  UNL     1      15.119   0.065  28.919  1.00  0.00     0.097 C 
HETATM    2  C6  UNL     1      15.554  -0.232  30.404  1.00  0.00     0.182 C 
HETATM    3  C9  UNL     1      14.500  -0.865  31.225  1.00  0.00     0.043 C 
HETATM    4  C10 UNL     1      14.169  -0.026  32.478  1.00  0.00     0.026 C 
HETATM    5  C11 UNL     1      14.823  -2.240  31.748  1.00  0.00     0.026 C 
HETATM    6  C12 UNL     1      13.214  -0.969  30.492  1.00  0.00     0.138 C 
HETATM    7  O4  UNL     1      12.543  -2.011  30.473  1.00  0.00    -0.297 OA
HETATM    8  C13 UNL     1      12.796   0.251  29.793  1.00  0.00     0.095 C 
HETATM    9  C14 UNL     1      13.925   0.908  28.988  1.00  0.00     0.014 C 
HETATM   10  C15 UNL     1      14.121   2.280  29.572  1.00  0.00     0.023 C 
ENDROOT
BRANCH   9  11
HETATM   11  C16 UNL     1      13.227   1.206  27.672  1.00  0.00    -0.017 C 
HETATM   12  C17 UNL     1      11.919   1.149  27.698  1.00  0.00    -0.020 C 
BRANCH  12  13
HETATM   13  C18 UNL     1      10.856   1.342  26.746  1.00  0.00     0.044 C 
HETATM   14  C19 UNL     1       9.812   2.339  26.942  1.00  0.00    -0.076 C 
HETATM   15  C20 UNL     1       9.623   3.290  28.045  1.00  0.00     0.044 C 
HETATM   16  C21 UNL     1       8.881   2.403  25.955  1.00  0.00     0.024 C 
HETATM   17  C22 UNL     1       8.997   1.486  24.802  1.00  0.00     0.164 C 
HETATM   18  C25 UNL     1       9.321   0.075  25.223  1.00  0.00     0.062 C 
HETATM   19  C26 UNL     1      10.168   0.018  26.460  1.00  0.00    -0.030 C 
HETATM   20  C27 UNL     1       9.325  -0.344  27.641  1.00  0.00     0.016 C 
BRANCH  17  21
HETATM   21  O5  UNL     1       9.855   1.978  23.819  1.00  0.00    -0.375 OA
ATOM     22  H5  UNL     1       9.441   2.016  22.964  1.00  0.00     0.211 HD
ENDBRANCH  17  21
BRANCH  17  23
HETATM   23  C23 UNL     1       7.635   1.434  24.160  1.00  0.00     0.297 C 
HETATM   24  O6  UNL     1       6.864   2.422  24.145  1.00  0.00    -0.261 OA
BRANCH  23  25
HETATM   25  O7  UNL     1       7.179   0.270  23.553  1.00  0.00    -0.324 OA
HETATM   26  C24 UNL     1       5.805  -0.043  23.456  1.00  0.00     0.213 C 
ENDBRANCH  23  25
ENDBRANCH  17  23
BRANCH  19  27
HETATM   27  C28 UNL     1      11.163  -1.117  26.198  1.00  0.00     0.014 C 
BRANCH  27  28
HETATM   28  C29 UNL     1      11.596  -0.981  24.776  1.00  0.00     0.028 C 
BRANCH  28  29
HETATM   29  C30 UNL     1      12.994  -0.791  24.472  1.00  0.00    -0.025 C 
HETATM   30  C31 UNL     1      13.661   0.217  24.057  1.00  0.00    -0.091 C 
HETATM   31  C32 UNL     1      15.174   0.010  23.851  1.00  0.00     0.042 C 
HETATM   32  C33 UNL     1      13.173   1.559  23.737  1.00  0.00     0.042 C 
ENDBRANCH  28  29
ENDBRANCH  27  28
ENDBRANCH  19  27
ENDBRANCH  12  13
ENDBRANCH   9  11
BRANCH   1  33
HETATM   33  C4  UNL     1      16.370   0.700  28.391  1.00  0.00     0.046 C 
BRANCH  33  34
HETATM   34  C3  UNL     1      16.959   0.280  27.118  1.00  0.00     0.037 C 
BRANCH  34  35
HETATM   35  C2  UNL     1      18.216  -0.529  27.170  1.00  0.00    -0.086 C 
HETATM   36  C1  UNL     1      19.378   0.030  27.484  1.00  0.00     0.014 C 
BRANCH  35  37
HETATM   37  C34 UNL     1      18.221  -2.009  26.990  1.00  0.00     0.005 C 
HETATM   38  C35 UNL     1      19.502  -2.451  26.286  1.00  0.00     0.014 C 
HETATM   39  C36 UNL     1      17.965  -2.846  28.178  1.00  0.00     0.014 C 
ENDBRANCH  35  37
ENDBRANCH  34  35
ENDBRANCH  33  34
ENDBRANCH   1  33
BRANCH   1  40
HETATM   40  O1  UNL     1      14.920  -1.125  28.295  1.00  0.00    -0.386 OA
ATOM     41  H1  UNL     1      14.173  -1.564  28.683  1.00  0.00     0.210 HD
ENDBRANCH   1  40
BRANCH   2  42
HETATM   42  O2  UNL     1      16.808  -0.767  30.529  1.00  0.00    -0.312 OA
BRANCH  42  43
HETATM   43  C7  UNL     1      17.868  -0.286  31.292  1.00  0.00     0.255 C 
HETATM   44  C8  UNL     1      19.142  -1.032  31.183  1.00  0.00     0.126 C 
HETATM   45  O3  UNL     1      17.636   0.700  31.971  1.00  0.00    -0.266 OA
ENDBRANCH  42  43
ENDBRANCH   2  42
TORSDOF 15
ENDMDL
MODEL 4
REMARK VINA RESULT: -6.994748836      1.602      3.909
REMARK  15 active torsions:
REMARK  status: ('A' for Active; 'I' for Inactive)
REMARK    1  A    between atoms: C2_2  and  C3_3 
REMARK    2  A    between atoms: C2_2  and  C34_43 
REMARK    3  A    between atoms: C3_3  and  C4_4 
REMARK    4  A    between atoms: C4_4  and  C5_5 
REMARK    5  A    between atoms: C5_5  and  O1_6 
REMARK    6  A    between atoms: C6_8  and  O2_9 
REMARK    7  A    between atoms: O2_9  and  C7_10 
REMARK    8  A    between atoms: C14_19  and  C16_21 
REMARK    9  A    between atoms: C17_22  and  C18_23 
REMARK   10  A    between atoms: C22_27  and  O5_28 
REMARK   11  A    between atoms: C22_27  and  C23_30 
REMARK   12  A    between atoms: C23_30  and  O7_32 
REMARK   13  A    between atoms: C26_35  and  C28_37 
REMARK   14  A    between atoms: C28_37  and  C29_38 
REMARK   15  A    between atoms: C29_38  and  C30_39 
ROOT
HETATM    1  C5  UNL     1      14.788   0.302  28.997  1.00  0.00     0.097 C 
HETATM    2  C6  UNL     1      15.296  -0.333  30.346  1.00  0.00     0.182 C 
HETATM    3  C9  UNL     1      14.253  -1.062  31.100  1.00  0.00     0.043 C 
HETATM    4  C10 UNL     1      14.071  -0.493  32.523  1.00  0.00     0.026 C 
HETATM    5  C11 UNL     1      14.504  -2.534  31.295  1.00  0.00     0.026 C 
HETATM    6  C12 UNL     1      12.917  -0.927  30.468  1.00  0.00     0.138 C 
HETATM    7  O4  UNL     1      12.169  -1.899  30.286  1.00  0.00    -0.297 OA
HETATM    8  C13 UNL     1      12.548   0.438  30.076  1.00  0.00     0.095 C 
HETATM    9  C14 UNL     1      13.668   1.182  29.338  1.00  0.00     0.014 C 
HETATM   10  C15 UNL     1      14.008   2.382  30.179  1.00  0.00     0.023 C 
ENDROOT
BRANCH   9  11
HETATM   11  C16 UNL     1      12.910   1.797  28.175  1.00  0.00    -0.017 C 
HETATM   12  C17 UNL     1      11.790   1.201  27.849  1.00  0.00    -0.020 C 
BRANCH  12  13
HETATM   13  C18 UNL     1      10.762   1.399  26.860  1.00  0.00     0.044 C 
HETATM   14  C19 UNL     1       9.697   2.379  27.035  1.00  0.00    -0.076 C 
HETATM   15  C20 UNL     1       9.452   3.304  28.148  1.00  0.00     0.044 C 
HETATM   16  C21 UNL     1       8.805   2.450  26.014  1.00  0.00     0.024 C 
HETATM   17  C22 UNL     1       8.978   1.558  24.848  1.00  0.00     0.164 C 
HETATM   18  C25 UNL     1       9.305   0.143  25.255  1.00  0.00     0.062 C 
HETATM   19  C26 UNL     1      10.104   0.072  26.522  1.00  0.00    -0.030 C 
HETATM   20  C27 UNL     1       9.222  -0.324  27.661  1.00  0.00     0.016 C 
BRANCH  17  21
HETATM   21  O5  UNL     1       9.866   2.081  23.909  1.00  0.00    -0.375 OA
ATOM     22  H5  UNL     1       9.671   2.985  23.692  1.00  0.00     0.211 HD
ENDBRANCH  17  21
BRANCH  17  23
HETATM   23  C23 UNL     1       7.642   1.501  24.153  1.00  0.00     0.297 C 
HETATM   24  O6  UNL     1       6.852   2.473  24.140  1.00  0.00    -0.261 OA
BRANCH  23  25
HETATM   25  O7  UNL     1       7.235   0.350  23.490  1.00  0.00    -0.324 OA
HETATM   26  C24 UNL     1       5.878  -0.035  23.409  1.00  0.00     0.213 C 
ENDBRANCH  23  25
ENDBRANCH  17  23
BRANCH  19  27
HETATM   27  C28 UNL     1      11.125  -1.044  26.277  1.00  0.00     0.014 C 
BRANCH  27  28
HETATM   28  C29 UNL     1      11.542  -0.930  24.848  1.00  0.00     0.028 C 
BRANCH  28  29
HETATM   29  C30 UNL     1      12.939  -0.780  24.524  1.00  0.00    -0.025 C 
HETATM   30  C31 UNL     1      13.627   0.206  24.086  1.00  0.00    -0.091 C 
HETATM   31  C32 UNL     1      15.131  -0.043  23.864  1.00  0.00     0.042 C 
HETATM   32  C33 UNL     1      13.168   1.554  23.752  1.00  0.00     0.042 C 
ENDBRANCH  28  29
ENDBRANCH  27  28
ENDBRANCH  19  27
ENDBRANCH  12  13
ENDBRANCH   9  11
BRANCH   1  33
HETATM   33  C4  UNL     1      16.046   0.959  28.514  1.00  0.00     0.046 C 
BRANCH  33  34
HETATM   34  C3  UNL     1      16.565   0.711  27.168  1.00  0.00     0.037 C 
BRANCH  34  35
HETATM   35  C2  UNL     1      17.768  -0.170  27.041  1.00  0.00    -0.086 C 
HETATM   36  C1  UNL     1      17.706  -1.324  26.389  1.00  0.00     0.014 C 
BRANCH  35  37
HETATM   37  C34 UNL     1      19.114   0.242  27.531  1.00  0.00     0.005 C 
HETATM   38  C35 UNL     1      20.162  -0.795  27.133  1.00  0.00     0.014 C 
HETATM   39  C36 UNL     1      19.578   1.604  27.201  1.00  0.00     0.014 C 
ENDBRANCH  35  37
ENDBRANCH  34  35
ENDBRANCH  33  34
ENDBRANCH   1  33
BRANCH   1  40
HETATM   40  O1  UNL     1      14.457  -0.711  28.155  1.00  0.00    -0.386 OA
ATOM     41  H1  UNL     1      14.163  -1.459  28.662  1.00  0.00     0.210 HD
ENDBRANCH   1  40
BRANCH   2  42
HETATM   42  O2  UNL     1      16.511  -0.957  30.254  1.00  0.00    -0.312 OA
BRANCH  42  43
HETATM   43  C7  UNL     1      17.638  -0.752  31.045  1.00  0.00     0.255 C 
HETATM   44  C8  UNL     1      18.799  -1.626  30.766  1.00  0.00     0.126 C 
HETATM   45  O3  UNL     1      17.549   0.127  31.886  1.00  0.00    -0.266 OA
ENDBRANCH  42  43
ENDBRANCH   2  42
TORSDOF 15
ENDMDL
MODEL 5
REMARK VINA RESULT: -6.863922995      1.703      3.838
REMARK  15 active torsions:
REMARK  status: ('A' for Active; 'I' for Inactive)
REMARK    1  A    between atoms: C2_2  and  C3_3 
REMARK    2  A    between atoms: C2_2  and  C34_43 
REMARK    3  A    between atoms: C3_3  and  C4_4 
REMARK    4  A    between atoms: C4_4  and  C5_5 
REMARK    5  A    between atoms: C5_5  and  O1_6 
REMARK    6  A    between atoms: C6_8  and  O2_9 
REMARK    7  A    between atoms: O2_9  and  C7_10 
REMARK    8  A    between atoms: C14_19  and  C16_21 
REMARK    9  A    between atoms: C17_22  and  C18_23 
REMARK   10  A    between atoms: C22_27  and  O5_28 
REMARK   11  A    between atoms: C22_27  and  C23_30 
REMARK   12  A    between atoms: C23_30  and  O7_32 
REMARK   13  A    between atoms: C26_35  and  C28_37 
REMARK   14  A    between atoms: C28_37  and  C29_38 
REMARK   15  A    between atoms: C29_38  and  C30_39 
ROOT
HETATM    1  C5  UNL     1      15.357   0.381  28.724  1.00  0.00     0.097 C 
HETATM    2  C6  UNL     1      15.845  -0.186  30.111  1.00  0.00     0.182 C 
HETATM    3  C9  UNL     1      14.971  -1.239  30.672  1.00  0.00     0.043 C 
HETATM    4  C10 UNL     1      14.441  -0.858  32.071  1.00  0.00     0.026 C 
HETATM    5  C11 UNL     1      15.616  -2.589  30.850  1.00  0.00     0.026 C 
HETATM    6  C12 UNL     1      13.752  -1.443  29.851  1.00  0.00     0.138 C 
HETATM    7  O4  UNL     1      13.355  -2.571  29.524  1.00  0.00    -0.297 OA
HETATM    8  C13 UNL     1      13.054  -0.215  29.457  1.00  0.00     0.095 C 
HETATM    9  C14 UNL     1      13.993   0.874  28.923  1.00  0.00     0.014 C 
HETATM   10  C15 UNL     1      13.848   2.052  29.847  1.00  0.00     0.023 C 
ENDROOT
BRANCH   9  11
HETATM   11  C16 UNL     1      13.250   1.335  27.681  1.00  0.00    -0.017 C 
HETATM   12  C17 UNL     1      11.972   1.048  27.645  1.00  0.00    -0.020 C 
BRANCH  12  13
HETATM   13  C18 UNL     1      10.889   1.264  26.721  1.00  0.00     0.044 C 
HETATM   14  C19 UNL     1       9.862   2.272  26.954  1.00  0.00    -0.076 C 
HETATM   15  C20 UNL     1       9.710   3.212  28.071  1.00  0.00     0.044 C 
HETATM   16  C21 UNL     1       8.908   2.357  25.991  1.00  0.00     0.024 C 
HETATM   17  C22 UNL     1       8.986   1.452  24.825  1.00  0.00     0.164 C 
HETATM   18  C25 UNL     1       9.303   0.033  25.223  1.00  0.00     0.062 C 
HETATM   19  C26 UNL     1      10.179  -0.048  26.438  1.00  0.00    -0.030 C 
HETATM   20  C27 UNL     1       9.361  -0.413  27.635  1.00  0.00     0.016 C 
BRANCH  17  21
HETATM   21  O5  UNL     1       9.825   1.945  23.827  1.00  0.00    -0.375 OA
ATOM     22  H5  UNL     1       9.352   2.438  23.167  1.00  0.00     0.211 HD
ENDBRANCH  17  21
BRANCH  17  23
HETATM   23  C23 UNL     1       7.608   1.422  24.215  1.00  0.00     0.297 C 
HETATM   24  O6  UNL     1       6.766   2.327  24.422  1.00  0.00    -0.261 OA
BRANCH  23  25
HETATM   25  O7  UNL     1       7.218   0.375  23.390  1.00  0.00    -0.324 OA
HETATM   26  C24 UNL     1       5.904  -0.144  23.398  1.00  0.00     0.213 C 
ENDBRANCH  23  25
ENDBRANCH  17  23
BRANCH  19  27
HETATM   27  C28 UNL     1      11.155  -1.192  26.140  1.00  0.00     0.014 C 
BRANCH  27  28
HETATM   28  C29 UNL     1      11.639  -0.981  24.743  1.00  0.00     0.028 C 
BRANCH  28  29
HETATM   29  C30 UNL     1      13.046  -0.779  24.500  1.00  0.00    -0.025 C 
HETATM   30  C31 UNL     1      13.721   0.236  24.111  1.00  0.00    -0.091 C 
HETATM   31  C32 UNL     1      15.243   0.044  23.973  1.00  0.00     0.042 C 
HETATM   32  C33 UNL     1      13.233   1.571  23.764  1.00  0.00     0.042 C 
ENDBRANCH  28  29
ENDBRANCH  27  28
ENDBRANCH  19  27
ENDBRANCH  12  13
ENDBRANCH   9  11
BRANCH   1  33
HETATM   33  C4  UNL     1      16.419   1.405  28.460  1.00  0.00     0.046 C 
BRANCH  33  34
HETATM   34  C3  UNL     1      17.157   1.428  27.196  1.00  0.00     0.037 C 
BRANCH  34  35
HETATM   35  C2  UNL     1      18.596   1.020  27.227  1.00  0.00    -0.086 C 
HETATM   36  C1  UNL     1      18.945  -0.260  27.200  1.00  0.00     0.014 C 
BRANCH  35  37
HETATM   37  C34 UNL     1      19.708   2.011  27.174  1.00  0.00     0.005 C 
HETATM   38  C35 UNL     1      19.149   3.432  27.133  1.00  0.00     0.014 C 
HETATM   39  C36 UNL     1      20.775   1.901  28.187  1.00  0.00     0.014 C 
ENDBRANCH  35  37
ENDBRANCH  34  35
ENDBRANCH  33  34
ENDBRANCH   1  33
BRANCH   1  40
HETATM   40  O1  UNL     1      15.455  -0.616  27.806  1.00  0.00    -0.386 OA
ATOM     41  H1  UNL     1      14.778  -1.263  27.969  1.00  0.00     0.210 HD
ENDBRANCH   1  40
BRANCH   2  42
HETATM   42  O2  UNL     1      17.190  -0.427  30.181  1.00  0.00    -0.312 OA
BRANCH  42  43
HETATM   43  C7  UNL     1      18.094   0.048  31.127  1.00  0.00     0.255 C 
HETATM   44  C8  UNL     1      19.502  -0.370  30.952  1.00  0.00     0.126 C 
HETATM   45  O3  UNL     1      17.629   0.760  32.001  1.00  0.00    -0.266 OA
ENDBRANCH  42  43
ENDBRANCH   2  42
TORSDOF 15
ENDMDL
