MODEL 1
REMARK VINA RESULT: -7.120344755      0.000      0.000
REMARK  14 active torsions:
REMARK  status: ('A' for Active; 'I' for Inactive)
REMARK    1  A    between atoms: O1_2  and  C2_3 
REMARK    2  A    between atoms: C2_3  and  C3_4 
REMARK    3  A    between atoms: C3_4  and  C5_6 
REMARK    4  A    between atoms: C5_6  and  O2_7 
REMARK    5  A    between atoms: C5_6  and  C6_9 
REMARK    6  A    between atoms: C6_9  and  C7_10 
REMARK    7  A    between atoms: C7_10  and  O3_13 
REMARK    8  A    between atoms: C25_32  and  C26_33 
REMARK    9  A    between atoms: C26_33  and  C28_35 
REMARK   10  A    between atoms: C28_35  and  C29_36 
REMARK   11  A    between atoms: C29_36  and  C30_37 
REMARK   12  A    between atoms: C30_37  and  C31_38 
REMARK   13  A    between atoms: C31_38  and  O6_41 
REMARK   14  A    between atoms: O6_41  and  C34_42 
ROOT
HETATM    1  C2  UNL     1      12.742   0.544  30.461  1.00  0.00     0.158 C 
HETATM    2  C10 UNL     1      11.209   0.568  30.471  1.00  0.00     0.295 C 
HETATM    3  O4  UNL     1      10.510   0.334  31.457  1.00  0.00    -0.262 OA
HETATM    4  O5  UNL     1      10.523   0.871  29.294  1.00  0.00    -0.312 OA
HETATM    5  C11 UNL     1      11.238   0.871  28.109  1.00  0.00     0.149 C 
HETATM    6  C12 UNL     1      10.267   1.012  26.967  1.00  0.00    -0.012 C 
HETATM    7  C13 UNL     1       9.068   0.181  27.135  1.00  0.00     0.018 C 
HETATM    8  C14 UNL     1       9.768   2.480  27.121  1.00  0.00     0.012 C 
HETATM    9  C15 UNL     1       9.014   2.966  25.955  1.00  0.00     0.002 C 
HETATM   10  C16 UNL     1       8.879   2.062  24.797  1.00  0.00     0.009 C 
HETATM   11  C17 UNL     1      10.132   1.267  24.473  1.00  0.00    -0.043 C 
HETATM   12  C18 UNL     1       9.707   0.049  23.722  1.00  0.00     0.015 C 
HETATM   13  C19 UNL     1      10.908   2.122  23.450  1.00  0.00     0.015 C 
HETATM   14  C20 UNL     1      10.987   1.033  25.679  1.00  0.00     0.004 C 
HETATM   15  C21 UNL     1      11.942  -0.078  25.564  1.00  0.00     0.007 C 
HETATM   16  C22 UNL     1      12.892  -0.195  26.731  1.00  0.00     0.012 C 
HETATM   17  C23 UNL     1      12.148  -0.289  28.086  1.00  0.00    -0.009 C 
HETATM   18  C24 UNL     1      11.492  -1.622  27.984  1.00  0.00     0.018 C 
HETATM   19  C25 UNL     1      13.167  -0.136  29.189  1.00  0.00     0.049 C 
ENDROOT
BRANCH   1  20
HETATM   20  O1  UNL     1      13.206  -0.208  31.481  1.00  0.00    -0.374 OA
HETATM   21  C1  UNL     1      13.435   0.124  32.727  1.00  0.00     0.203 C 
ENDBRANCH   1  20
BRANCH   1  22
HETATM   22  C3  UNL     1      13.229   1.938  30.704  1.00  0.00     0.056 C 
HETATM   23  C4  UNL     1      12.263   3.058  30.656  1.00  0.00     0.016 C 
BRANCH  22  24
HETATM   24  C5  UNL     1      14.588   2.304  30.200  1.00  0.00     0.128 C 
BRANCH  24  25
HETATM   25  O2  UNL     1      15.468   2.606  31.252  1.00  0.00    -0.395 OA
ATOM     26  H2  UNL     1      15.419   1.960  31.947  1.00  0.00     0.210 HD
ENDBRANCH  24  25
BRANCH  24  27
HETATM   27  C6  UNL     1      14.624   3.465  29.251  1.00  0.00     0.069 C 
BRANCH  27  28
HETATM   28  C7  UNL     1      15.796   3.385  28.308  1.00  0.00     0.053 C 
HETATM   29  C8  UNL     1      15.436   2.378  27.188  1.00  0.00     0.045 C 
HETATM   30  C9  UNL     1      16.088   4.667  27.564  1.00  0.00     0.045 C 
BRANCH  28  31
HETATM   31  O3  UNL     1      16.965   2.957  28.884  1.00  0.00    -0.391 OA
ATOM     32  H3  UNL     1      17.741   3.096  28.354  1.00  0.00     0.210 HD
ENDBRANCH  28  31
ENDBRANCH  27  28
ENDBRANCH  24  27
ENDBRANCH  22  24
ENDBRANCH   1  22
BRANCH  19  33
HETATM   33  C26 UNL     1      14.054  -1.359  29.319  1.00  0.00     0.012 C 
HETATM   34  C27 UNL     1      13.423  -2.433  30.165  1.00  0.00     0.015 C 
BRANCH  33  35
HETATM   35  C28 UNL     1      15.467  -1.123  29.678  1.00  0.00    -0.026 C 
BRANCH  35  36
HETATM   36  C29 UNL     1      16.506  -0.884  28.657  1.00  0.00    -0.027 C 
BRANCH  36  37
HETATM   37  C30 UNL     1      17.258  -1.956  28.012  1.00  0.00     0.065 C 
BRANCH  37  38
HETATM   38  C31 UNL     1      17.887  -1.411  26.700  1.00  0.00     0.066 C 
HETATM   39  C32 UNL     1      19.016  -0.475  26.974  1.00  0.00     0.046 C 
HETATM   40  C33 UNL     1      16.853  -0.729  25.859  1.00  0.00     0.046 C 
BRANCH  38  41
HETATM   41  O6  UNL     1      18.395  -2.578  26.043  1.00  0.00    -0.311 OA
BRANCH  41  42
HETATM   42  C34 UNL     1      19.683  -3.036  26.348  1.00  0.00     0.255 C 
HETATM   43  C35 UNL     1      19.932  -3.896  27.544  1.00  0.00     0.126 C 
HETATM   44  O7  UNL     1      20.603  -2.682  25.565  1.00  0.00    -0.266 OA
ENDBRANCH  41  42
ENDBRANCH  38  41
ENDBRANCH  37  38
ENDBRANCH  36  37
ENDBRANCH  35  36
ENDBRANCH  33  35
ENDBRANCH  19  33
TORSDOF 14
ENDMDL
MODEL 2
REMARK VINA RESULT: -7.028275643      0.934      1.427
REMARK  14 active torsions:
REMARK  status: ('A' for Active; 'I' for Inactive)
REMARK    1  A    between atoms: O1_2  and  C2_3 
REMARK    2  A    between atoms: C2_3  and  C3_4 
REMARK    3  A    between atoms: C3_4  and  C5_6 
REMARK    4  A    between atoms: C5_6  and  O2_7 
REMARK    5  A    between atoms: C5_6  and  C6_9 
REMARK    6  A    between atoms: C6_9  and  C7_10 
REMARK    7  A    between atoms: C7_10  and  O3_13 
REMARK    8  A    between atoms: C25_32  and  C26_33 
REMARK    9  A    between atoms: C26_33  and  C28_35 
REMARK   10  A    between atoms: C28_35  and  C29_36 
REMARK   11  A    between atoms: C29_36  and  C30_37 
REMARK   12  A    between atoms: C30_37  and  C31_38 
REMARK   13  A    between atoms: C31_38  and  O6_41 
REMARK   14  A    between atoms: O6_41  and  C34_42 
ROOT
HETATM    1  C2  UNL     1      12.689   0.378  30.693  1.00  0.00     0.158 C 
HETATM    2  C10 UNL     1      11.166   0.544  30.747  1.00  0.00     0.295 C 
HETATM    3  O4  UNL     1      10.479   0.394  31.757  1.00  0.00    -0.262 OA
HETATM    4  O5  UNL     1      10.475   0.889  29.585  1.00  0.00    -0.312 OA
HETATM    5  C11 UNL     1      11.150   0.802  28.379  1.00  0.00     0.149 C 
HETATM    6  C12 UNL     1      10.162   1.013  27.264  1.00  0.00    -0.012 C 
HETATM    7  C13 UNL     1       8.897   0.299  27.483  1.00  0.00     0.018 C 
HETATM    8  C14 UNL     1       9.805   2.524  27.402  1.00  0.00     0.012 C 
HETATM    9  C15 UNL     1       9.063   3.056  26.249  1.00  0.00     0.002 C 
HETATM   10  C16 UNL     1       8.810   2.149  25.114  1.00  0.00     0.009 C 
HETATM   11  C17 UNL     1       9.974   1.236  24.770  1.00  0.00    -0.043 C 
HETATM   12  C18 UNL     1       9.416   0.050  24.056  1.00  0.00     0.015 C 
HETATM   13  C19 UNL     1      10.793   1.997  23.708  1.00  0.00     0.015 C 
HETATM   14  C20 UNL     1      10.840   0.945  25.955  1.00  0.00     0.004 C 
HETATM   15  C21 UNL     1      11.684  -0.252  25.835  1.00  0.00     0.007 C 
HETATM   16  C22 UNL     1      12.655  -0.436  26.975  1.00  0.00     0.012 C 
HETATM   17  C23 UNL     1      11.948  -0.437  28.354  1.00  0.00    -0.009 C 
HETATM   18  C24 UNL     1      11.169  -1.705  28.297  1.00  0.00     0.018 C 
HETATM   19  C25 UNL     1      13.010  -0.360  29.423  1.00  0.00     0.049 C 
ENDROOT
BRANCH   1  20
HETATM   20  O1  UNL     1      13.113  -0.396  31.714  1.00  0.00    -0.374 OA
HETATM   21  C1  UNL     1      13.574  -0.049  32.890  1.00  0.00     0.203 C 
ENDBRANCH   1  20
BRANCH   1  22
HETATM   22  C3  UNL     1      13.310   1.724  30.893  1.00  0.00     0.056 C 
HETATM   23  C4  UNL     1      12.434   2.909  31.029  1.00  0.00     0.016 C 
BRANCH  22  24
HETATM   24  C5  UNL     1      14.597   2.015  30.191  1.00  0.00     0.128 C 
BRANCH  24  25
HETATM   25  O2  UNL     1      15.503   2.689  31.026  1.00  0.00    -0.395 OA
ATOM     26  H2  UNL     1      16.352   2.263  31.039  1.00  0.00     0.210 HD
ENDBRANCH  24  25
BRANCH  24  27
HETATM   27  C6  UNL     1      14.469   2.828  28.937  1.00  0.00     0.069 C 
BRANCH  27  28
HETATM   28  C7  UNL     1      15.711   2.752  28.088  1.00  0.00     0.053 C 
HETATM   29  C8  UNL     1      15.359   1.966  26.801  1.00  0.00     0.045 C 
HETATM   30  C9  UNL     1      16.201   4.087  27.577  1.00  0.00     0.045 C 
BRANCH  28  31
HETATM   31  O3  UNL     1      16.771   2.114  28.681  1.00  0.00    -0.391 OA
ATOM     32  H3  UNL     1      17.548   2.050  28.138  1.00  0.00     0.210 HD
ENDBRANCH  28  31
ENDBRANCH  27  28
ENDBRANCH  24  27
ENDBRANCH  22  24
ENDBRANCH   1  22
BRANCH  19  33
HETATM   33  C26 UNL     1      13.784  -1.658  29.552  1.00  0.00     0.012 C 
HETATM   34  C27 UNL     1      13.155  -2.600  30.544  1.00  0.00     0.015 C 
BRANCH  33  35
HETATM   35  C28 UNL     1      15.246  -1.547  29.735  1.00  0.00    -0.026 C 
BRANCH  35  36
HETATM   36  C29 UNL     1      16.156  -1.260  28.609  1.00  0.00    -0.027 C 
BRANCH  36  37
HETATM   37  C30 UNL     1      17.276  -2.122  28.242  1.00  0.00     0.065 C 
BRANCH  37  38
HETATM   38  C31 UNL     1      18.139  -1.398  27.173  1.00  0.00     0.066 C 
HETATM   39  C32 UNL     1      17.312  -0.903  26.035  1.00  0.00     0.046 C 
HETATM   40  C33 UNL     1      19.220  -2.300  26.663  1.00  0.00     0.046 C 
BRANCH  38  41
HETATM   41  O6  UNL     1      18.694  -0.276  27.871  1.00  0.00    -0.311 OA
BRANCH  41  42
HETATM   42  C34 UNL     1      19.489   0.645  27.177  1.00  0.00     0.255 C 
HETATM   43  C35 UNL     1      20.930   0.364  26.903  1.00  0.00     0.126 C 
HETATM   44  O7  UNL     1      18.923   1.707  26.808  1.00  0.00    -0.266 OA
ENDBRANCH  41  42
ENDBRANCH  38  41
ENDBRANCH  37  38
ENDBRANCH  36  37
ENDBRANCH  35  36
ENDBRANCH  33  35
ENDBRANCH  19  33
TORSDOF 14
ENDMDL
MODEL 3
REMARK VINA RESULT: -6.777952851      0.782      1.444
REMARK  14 active torsions:
REMARK  status: ('A' for Active; 'I' for Inactive)
REMARK    1  A    between atoms: O1_2  and  C2_3 
REMARK    2  A    between atoms: C2_3  and  C3_4 
REMARK    3  A    between atoms: C3_4  and  C5_6 
REMARK    4  A    between atoms: C5_6  and  O2_7 
REMARK    5  A    between atoms: C5_6  and  C6_9 
REMARK    6  A    between atoms: C6_9  and  C7_10 
REMARK    7  A    between atoms: C7_10  and  O3_13 
REMARK    8  A    between atoms: C25_32  and  C26_33 
REMARK    9  A    between atoms: C26_33  and  C28_35 
REMARK   10  A    between atoms: C28_35  and  C29_36 
REMARK   11  A    between atoms: C29_36  and  C30_37 
REMARK   12  A    between atoms: C30_37  and  C31_38 
REMARK   13  A    between atoms: C31_38  and  O6_41 
REMARK   14  A    between atoms: O6_41  and  C34_42 
ROOT
HETATM    1  C2  UNL     1      12.798   0.727  30.348  1.00  0.00     0.158 C 
HETATM    2  C10 UNL     1      11.266   0.670  30.380  1.00  0.00     0.295 C 
HETATM    3  O4  UNL     1      10.595   0.399  31.375  1.00  0.00    -0.262 OA
HETATM    4  O5  UNL     1      10.549   0.937  29.214  1.00  0.00    -0.312 OA
HETATM    5  C11 UNL     1      11.245   0.976  28.018  1.00  0.00     0.149 C 
HETATM    6  C12 UNL     1      10.252   1.067  26.891  1.00  0.00    -0.012 C 
HETATM    7  C13 UNL     1       9.101   0.173  27.074  1.00  0.00     0.018 C 
HETATM    8  C14 UNL     1       9.678   2.507  27.054  1.00  0.00     0.012 C 
HETATM    9  C15 UNL     1       8.883   2.952  25.900  1.00  0.00     0.002 C 
HETATM   10  C16 UNL     1       8.779   2.044  24.742  1.00  0.00     0.009 C 
HETATM   11  C17 UNL     1      10.067   1.316  24.399  1.00  0.00    -0.043 C 
HETATM   12  C18 UNL     1       9.696   0.078  23.652  1.00  0.00     0.015 C 
HETATM   13  C19 UNL     1      10.782   2.211  23.367  1.00  0.00     0.015 C 
HETATM   14  C20 UNL     1      10.950   1.127  25.592  1.00  0.00     0.004 C 
HETATM   15  C21 UNL     1      11.961   0.067  25.462  1.00  0.00     0.007 C 
HETATM   16  C22 UNL     1      12.932  -0.000  26.614  1.00  0.00     0.012 C 
HETATM   17  C23 UNL     1      12.214  -0.134  27.981  1.00  0.00    -0.009 C 
HETATM   18  C24 UNL     1      11.628  -1.500  27.886  1.00  0.00     0.018 C 
HETATM   19  C25 UNL     1      13.240   0.071  29.069  1.00  0.00     0.049 C 
ENDROOT
BRANCH   1  20
HETATM   20  O1  UNL     1      13.315  -0.001  31.360  1.00  0.00    -0.374 OA
HETATM   21  C1  UNL     1      13.572   0.351  32.595  1.00  0.00     0.203 C 
ENDBRANCH   1  20
BRANCH   1  22
HETATM   22  C3  UNL     1      13.215   2.144  30.585  1.00  0.00     0.056 C 
HETATM   23  C4  UNL     1      12.205   3.220  30.478  1.00  0.00     0.016 C 
BRANCH  22  24
HETATM   24  C5  UNL     1      14.576   2.561  30.131  1.00  0.00     0.128 C 
BRANCH  24  25
HETATM   25  O2  UNL     1      15.326   3.118  31.181  1.00  0.00    -0.395 OA
ATOM     26  H2  UNL     1      16.256   2.959  31.071  1.00  0.00     0.210 HD
ENDBRANCH  24  25
BRANCH  24  27
HETATM   27  C6  UNL     1      14.597   3.550  29.005  1.00  0.00     0.069 C 
BRANCH  27  28
HETATM   28  C7  UNL     1      15.874   3.470  28.209  1.00  0.00     0.053 C 
HETATM   29  C8  UNL     1      15.720   2.323  27.180  1.00  0.00     0.045 C 
HETATM   30  C9  UNL     1      16.158   4.685  27.359  1.00  0.00     0.045 C 
BRANCH  28  31
HETATM   31  O3  UNL     1      16.996   3.206  28.953  1.00  0.00    -0.391 OA
ATOM     32  H3  UNL     1      17.599   2.589  28.554  1.00  0.00     0.210 HD
ENDBRANCH  28  31
ENDBRANCH  27  28
ENDBRANCH  24  27
ENDBRANCH  22  24
ENDBRANCH   1  22
BRANCH  19  33
HETATM   33  C26 UNL     1      14.191  -1.104  29.184  1.00  0.00     0.012 C 
HETATM   34  C27 UNL     1      13.648  -2.191  30.073  1.00  0.00     0.015 C 
BRANCH  33  35
HETATM   35  C28 UNL     1      15.604  -0.791  29.482  1.00  0.00    -0.026 C 
BRANCH  35  36
HETATM   36  C29 UNL     1      16.546  -1.813  29.976  1.00  0.00    -0.027 C 
BRANCH  36  37
HETATM   37  C30 UNL     1      17.993  -1.622  30.010  1.00  0.00     0.065 C 
BRANCH  37  38
HETATM   38  C31 UNL     1      18.656  -2.619  29.021  1.00  0.00     0.066 C 
HETATM   39  C32 UNL     1      17.684  -3.634  28.521  1.00  0.00     0.046 C 
HETATM   40  C33 UNL     1      19.824  -3.305  29.662  1.00  0.00     0.046 C 
BRANCH  38  41
HETATM   41  O6  UNL     1      19.080  -1.798  27.926  1.00  0.00    -0.311 OA
BRANCH  41  42
HETATM   42  C34 UNL     1      18.448  -1.924  26.683  1.00  0.00     0.255 C 
HETATM   43  C35 UNL     1      17.286  -1.058  26.320  1.00  0.00     0.126 C 
HETATM   44  O7  UNL     1      18.909  -2.800  25.906  1.00  0.00    -0.266 OA
ENDBRANCH  41  42
ENDBRANCH  38  41
ENDBRANCH  37  38
ENDBRANCH  36  37
ENDBRANCH  35  36
ENDBRANCH  33  35
ENDBRANCH  19  33
TORSDOF 14
ENDMDL
MODEL 4
REMARK VINA RESULT: -6.754348127      2.497      6.917
REMARK  14 active torsions:
REMARK  status: ('A' for Active; 'I' for Inactive)
REMARK    1  A    between atoms: O1_2  and  C2_3 
REMARK    2  A    between atoms: C2_3  and  C3_4 
REMARK    3  A    between atoms: C3_4  and  C5_6 
REMARK    4  A    between atoms: C5_6  and  O2_7 
REMARK    5  A    between atoms: C5_6  and  C6_9 
REMARK    6  A    between atoms: C6_9  and  C7_10 
REMARK    7  A    between atoms: C7_10  and  O3_13 
REMARK    8  A    between atoms: C25_32  and  C26_33 
REMARK    9  A    between atoms: C26_33  and  C28_35 
REMARK   10  A    between atoms: C28_35  and  C29_36 
REMARK   11  A    between atoms: C29_36  and  C30_37 
REMARK   12  A    between atoms: C30_37  and  C31_38 
REMARK   13  A    between atoms: C31_38  and  O6_41 
REMARK   14  A    between atoms: O6_41  and  C34_42 
ROOT
HETATM    1  C2  UNL     1      13.633  -0.563  30.345  1.00  0.00     0.158 C 
HETATM    2  C10 UNL     1      14.190   0.529  31.266  1.00  0.00     0.295 C 
HETATM    3  O4  UNL     1      13.630   0.945  32.281  1.00  0.00    -0.262 OA
HETATM    4  O5  UNL     1      15.417   1.118  30.961  1.00  0.00    -0.312 OA
HETATM    5  C11 UNL     1      15.952   0.891  29.705  1.00  0.00     0.149 C 
HETATM    6  C12 UNL     1      17.152   1.782  29.529  1.00  0.00    -0.012 C 
HETATM    7  C13 UNL     1      16.925   3.145  30.026  1.00  0.00     0.018 C 
HETATM    8  C14 UNL     1      18.189   1.159  30.511  1.00  0.00     0.012 C 
HETATM    9  C15 UNL     1      19.553   1.677  30.326  1.00  0.00     0.002 C 
HETATM   10  C16 UNL     1      19.782   2.641  29.233  1.00  0.00     0.009 C 
HETATM   11  C17 UNL     1      19.029   2.326  27.952  1.00  0.00    -0.043 C 
HETATM   12  C18 UNL     1      18.884   3.603  27.193  1.00  0.00     0.015 C 
HETATM   13  C19 UNL     1      19.992   1.464  27.112  1.00  0.00     0.015 C 
HETATM   14  C20 UNL     1      17.766   1.563  28.205  1.00  0.00     0.004 C 
HETATM   15  C21 UNL     1      16.774   1.617  27.122  1.00  0.00     0.007 C 
HETATM   16  C22 UNL     1      15.581   0.719  27.338  1.00  0.00     0.012 C 
HETATM   17  C23 UNL     1      14.882   0.986  28.694  1.00  0.00    -0.009 C 
HETATM   18  C24 UNL     1      14.313   2.345  28.483  1.00  0.00     0.018 C 
HETATM   19  C25 UNL     1      13.883  -0.121  28.930  1.00  0.00     0.049 C 
ENDROOT
BRANCH   1  20
HETATM   20  O1  UNL     1      12.295  -0.663  30.493  1.00  0.00    -0.374 OA
HETATM   21  C1  UNL     1      11.588  -1.590  31.090  1.00  0.00     0.203 C 
ENDBRANCH   1  20
BRANCH   1  22
HETATM   22  C3  UNL     1      14.208  -1.874  30.779  1.00  0.00     0.056 C 
HETATM   23  C4  UNL     1      14.645  -2.040  32.183  1.00  0.00     0.016 C 
BRANCH  22  24
HETATM   24  C5  UNL     1      15.051  -2.627  29.802  1.00  0.00     0.128 C 
BRANCH  24  25
HETATM   25  O2  UNL     1      14.534  -3.909  29.550  1.00  0.00    -0.395 OA
ATOM     26  H2  UNL     1      15.058  -4.586  29.962  1.00  0.00     0.210 HD
ENDBRANCH  24  25
BRANCH  24  27
HETATM   27  C6  UNL     1      16.485  -2.804  30.202  1.00  0.00     0.069 C 
BRANCH  27  28
HETATM   28  C7  UNL     1      17.342  -3.246  29.044  1.00  0.00     0.053 C 
HETATM   29  C8  UNL     1      17.285  -2.139  27.961  1.00  0.00     0.045 C 
HETATM   30  C9  UNL     1      18.814  -3.365  29.364  1.00  0.00     0.045 C 
BRANCH  28  31
HETATM   31  O3  UNL     1      16.945  -4.418  28.453  1.00  0.00    -0.391 OA
ATOM     32  H3  UNL     1      17.603  -5.103  28.448  1.00  0.00     0.210 HD
ENDBRANCH  28  31
ENDBRANCH  27  28
ENDBRANCH  24  27
ENDBRANCH  22  24
ENDBRANCH   1  22
BRANCH  19  33
HETATM   33  C26 UNL     1      12.678  -0.005  28.016  1.00  0.00     0.012 C 
HETATM   34  C27 UNL     1      11.645   0.948  28.553  1.00  0.00     0.015 C 
BRANCH  33  35
HETATM   35  C28 UNL     1      12.080  -1.269  27.540  1.00  0.00    -0.026 C 
BRANCH  35  36
HETATM   36  C29 UNL     1      11.061  -1.301  26.472  1.00  0.00    -0.027 C 
BRANCH  36  37
HETATM   37  C30 UNL     1      11.380  -1.523  25.065  1.00  0.00     0.065 C 
BRANCH  37  38
HETATM   38  C31 UNL     1      10.627  -0.471  24.206  1.00  0.00     0.066 C 
HETATM   39  C32 UNL     1      10.101   0.650  25.038  1.00  0.00     0.046 C 
HETATM   40  C33 UNL     1       9.508  -1.110  23.444  1.00  0.00     0.046 C 
BRANCH  38  41
HETATM   41  O6  UNL     1      11.630   0.037  23.317  1.00  0.00    -0.311 OA
BRANCH  41  42
HETATM   42  C34 UNL     1      12.260   1.253  23.610  1.00  0.00     0.255 C 
HETATM   43  C35 UNL     1      13.565   1.287  24.337  1.00  0.00     0.126 C 
HETATM   44  O7  UNL     1      11.668   2.297  23.231  1.00  0.00    -0.266 OA
ENDBRANCH  41  42
ENDBRANCH  38  41
ENDBRANCH  37  38
ENDBRANCH  36  37
ENDBRANCH  35  36
ENDBRANCH  33  35
ENDBRANCH  19  33
TORSDOF 14
ENDMDL
MODEL 5
REMARK VINA RESULT: -6.710451321      2.400      5.924
REMARK  14 active torsions:
REMARK  status: ('A' for Active; 'I' for Inactive)
REMARK    1  A    between atoms: O1_2  and  C2_3 
REMARK    2  A    between atoms: C2_3  and  C3_4 
REMARK    3  A    between atoms: C3_4  and  C5_6 
REMARK    4  A    between atoms: C5_6  and  O2_7 
REMARK    5  A    between atoms: C5_6  and  C6_9 
REMARK    6  A    between atoms: C6_9  and  C7_10 
REMARK    7  A    between atoms: C7_10  and  O3_13 
REMARK    8  A    between atoms: C25_32  and  C26_33 
REMARK    9  A    between atoms: C26_33  and  C28_35 
REMARK   10  A    between atoms: C28_35  and  C29_36 
REMARK   11  A    between atoms: C29_36  and  C30_37 
REMARK   12  A    between atoms: C30_37  and  C31_38 
REMARK   13  A    between atoms: C31_38  and  O6_41 
REMARK   14  A    between atoms: O6_41  and  C34_42 
ROOT
HETATM    1  C2  UNL     1      13.862  -0.818  30.609  1.00  0.00     0.158 C 
HETATM    2  C10 UNL     1      14.008  -0.085  31.948  1.00  0.00     0.295 C 
HETATM    3  O4  UNL     1      14.091  -0.636  33.044  1.00  0.00    -0.262 OA
HETATM    4  O5  UNL     1      14.050   1.310  31.961  1.00  0.00    -0.312 OA
HETATM    5  C11 UNL     1      13.689   1.981  30.805  1.00  0.00     0.149 C 
HETATM    6  C12 UNL     1      13.607   3.452  31.114  1.00  0.00    -0.012 C 
HETATM    7  C13 UNL     1      12.943   3.727  32.395  1.00  0.00     0.018 C 
HETATM    8  C14 UNL     1      15.100   3.839  31.339  1.00  0.00     0.012 C 
HETATM    9  C15 UNL     1      15.326   5.291  31.382  1.00  0.00     0.002 C 
HETATM   10  C16 UNL     1      14.168   6.177  31.153  1.00  0.00     0.009 C 
HETATM   11  C17 UNL     1      13.221   5.700  30.065  1.00  0.00    -0.043 C 
HETATM   12  C18 UNL     1      11.888   6.316  30.332  1.00  0.00     0.015 C 
HETATM   13  C19 UNL     1      13.720   6.365  28.767  1.00  0.00     0.015 C 
HETATM   14  C20 UNL     1      13.239   4.212  29.905  1.00  0.00     0.004 C 
HETATM   15  C21 UNL     1      12.065   3.641  29.231  1.00  0.00     0.007 C 
HETATM   16  C22 UNL     1      12.178   2.163  28.947  1.00  0.00     0.012 C 
HETATM   17  C23 UNL     1      12.495   1.342  30.222  1.00  0.00    -0.009 C 
HETATM   18  C24 UNL     1      11.236   1.493  31.003  1.00  0.00     0.018 C 
HETATM   19  C25 UNL     1      12.847  -0.063  29.797  1.00  0.00     0.049 C 
ENDROOT
BRANCH   1  20
HETATM   20  O1  UNL     1      13.364  -2.057  30.805  1.00  0.00    -0.374 OA
HETATM   21  C1  UNL     1      13.979  -3.213  30.812  1.00  0.00     0.203 C 
ENDBRANCH   1  20
BRANCH   1  22
HETATM   22  C3  UNL     1      15.229  -0.996  30.026  1.00  0.00     0.056 C 
HETATM   23  C4  UNL     1      16.407  -0.923  30.918  1.00  0.00     0.016 C 
BRANCH  22  24
HETATM   24  C5  UNL     1      15.485  -0.450  28.659  1.00  0.00     0.128 C 
BRANCH  24  25
HETATM   25  O2  UNL     1      16.303  -1.306  27.903  1.00  0.00    -0.395 OA
ATOM     26  H2  UNL     1      17.184  -0.962  27.814  1.00  0.00     0.210 HD
ENDBRANCH  24  25
BRANCH  24  27
HETATM   27  C6  UNL     1      16.121   0.907  28.623  1.00  0.00     0.069 C 
BRANCH  27  28
HETATM   28  C7  UNL     1      15.896   1.600  27.304  1.00  0.00     0.053 C 
HETATM   29  C8  UNL     1      14.518   1.148  26.760  1.00  0.00     0.045 C 
HETATM   30  C9  UNL     1      15.774   3.103  27.400  1.00  0.00     0.045 C 
BRANCH  28  31
HETATM   31  O3  UNL     1      16.831   1.314  26.342  1.00  0.00    -0.391 OA
ATOM     32  H3  UNL     1      16.508   1.362  25.450  1.00  0.00     0.210 HD
ENDBRANCH  28  31
ENDBRANCH  27  28
ENDBRANCH  24  27
ENDBRANCH  22  24
ENDBRANCH   1  22
BRANCH  19  33
HETATM   33  C26 UNL     1      11.632  -0.832  29.315  1.00  0.00     0.012 C 
HETATM   34  C27 UNL     1      10.934  -1.556  30.435  1.00  0.00     0.015 C 
BRANCH  33  35
HETATM   35  C28 UNL     1      11.816  -1.688  28.124  1.00  0.00    -0.026 C 
BRANCH  35  36
HETATM   36  C29 UNL     1      11.246  -1.333  26.809  1.00  0.00    -0.027 C 
BRANCH  36  37
HETATM   37  C30 UNL     1      10.196  -0.335  26.632  1.00  0.00     0.065 C 
BRANCH  37  38
HETATM   38  C31 UNL     1      10.202   0.144  25.154  1.00  0.00     0.066 C 
HETATM   39  C32 UNL     1       8.939   0.852  24.796  1.00  0.00     0.046 C 
HETATM   40  C33 UNL     1      10.422  -1.008  24.224  1.00  0.00     0.046 C 
BRANCH  38  41
HETATM   41  O6  UNL     1      11.292   1.072  25.090  1.00  0.00    -0.311 OA
BRANCH  41  42
HETATM   42  C34 UNL     1      11.893   1.347  23.855  1.00  0.00     0.255 C 
HETATM   43  C35 UNL     1      13.041   0.529  23.359  1.00  0.00     0.126 C 
HETATM   44  O7  UNL     1      11.415   2.311  23.203  1.00  0.00    -0.266 OA
ENDBRANCH  41  42
ENDBRANCH  38  41
ENDBRANCH  37  38
ENDBRANCH  36  37
ENDBRANCH  35  36
ENDBRANCH  33  35
ENDBRANCH  19  33
TORSDOF 14
ENDMDL
