MODEL 1
REMARK VINA RESULT: -6.802992581      0.000      0.000
REMARK  7 active torsions:
REMARK  status: ('A' for Active; 'I' for Inactive)
REMARK    1  A    between atoms: C2_2  and  C3_3 
REMARK    2  A    between atoms: C3_3  and  N1_5 
REMARK    3  A    between atoms: C3_3  and  N2_9 
REMARK    4  A    between atoms: N2_9  and  C5_11 
REMARK    5  A    between atoms: C6_16  and  N5_17 
REMARK    6  A    between atoms: N5_17  and  C7_19 
REMARK    7  A    between atoms: C7_19  and  C8_20 
ROOT
HETATM    1  C5  UNL     1       4.580   5.917   1.808  1.00  0.00     0.709 A 
HETATM    2  N3  UNL     1       3.516   6.711   1.669  1.00  0.00    -0.117 N 
ATOM      3  H3  UNL     1       2.548   6.400   1.601  1.00  0.00     0.206 HD
HETATM    4  N4  UNL     1       3.926   7.968   1.633  1.00  0.00    -0.117 N 
ATOM      5  H4  UNL     1       3.313   8.778   1.533  1.00  0.00     0.206 HD
HETATM    6  C6  UNL     1       5.260   8.028   1.747  1.00  0.00     0.707 A 
HETATM    7  N6  UNL     1       5.658   6.729   1.856  1.00  0.00    -0.020 N 
ATOM      8  H6  UNL     1       6.624   6.418   1.958  1.00  0.00     0.203 HD
ENDROOT
BRANCH   6   9
HETATM    9  N5  UNL     1       5.999   9.077   1.754  1.00  0.00    -0.224 N 
ATOM     10  H5  UNL     1       5.626   9.934   1.345  1.00  0.00     0.177 HD
BRANCH   9  11
HETATM   11  C7  UNL     1       7.311   9.106   2.301  1.00  0.00     0.148 C 
BRANCH  11  12
HETATM   12  C8  UNL     1       8.231  10.093   1.657  1.00  0.00    -0.019 C 
HETATM   13  C9  UNL     1       7.824  10.423   0.229  1.00  0.00     0.016 C 
HETATM   14  C10 UNL     1       9.202  10.807  -0.336  1.00  0.00    -0.013 C 
HETATM   15  C11 UNL     1       9.728  12.000   0.392  1.00  0.00     0.009 C 
HETATM   16  C15 UNL     1       9.988   9.551   0.069  1.00  0.00     0.010 C 
HETATM   17  C12 UNL     1       9.775  11.817   1.873  1.00  0.00    -0.013 C 
HETATM   18  C13 UNL     1      10.556  10.538   2.212  1.00  0.00     0.010 C 
HETATM   19  C16 UNL     1       8.390  11.390   2.386  1.00  0.00     0.016 C 
HETATM   20  C14 UNL     1       9.624   9.508   1.559  1.00  0.00    -0.004 C 
ENDBRANCH  11  12
ENDBRANCH   9  11
ENDBRANCH   6   9
BRANCH   1  21
HETATM   21  N2  UNL     1       4.577   4.646   1.879  1.00  0.00    -0.190 N 
ATOM     22  H2  UNL     1       5.044   4.206   2.672  1.00  0.00     0.180 HD
BRANCH  21  23
HETATM   23  C3  UNL     1       3.956   3.802   0.911  1.00  0.00     0.206 C 
HETATM   24  C4  UNL     1       2.466   3.715   1.234  1.00  0.00     0.071 C 
BRANCH  23  25
HETATM   25  C2  UNL     1       4.514   2.396   0.965  1.00  0.00     0.057 C 
HETATM   26  C1  UNL     1       3.816   1.457   0.032  1.00  0.00     0.009 C 
ENDBRANCH  23  25
BRANCH  23  27
HETATM   27  N1  UNL     1       4.175   4.281  -0.447  1.00  0.00    -0.053 N 
ATOM     28  H13 UNL     1       4.989   3.861  -0.897  1.00  0.00     0.277 HD
ATOM     29  H12 UNL     1       3.477   3.945  -1.111  1.00  0.00     0.277 HD
ATOM     30  H11 UNL     1       4.224   5.298  -0.390  1.00  0.00     0.277 HD
ENDBRANCH  23  27
ENDBRANCH  21  23
ENDBRANCH   1  21
TORSDOF 7
ENDMDL
MODEL 2
REMARK VINA RESULT: -6.791661631      0.607      1.674
REMARK  7 active torsions:
REMARK  status: ('A' for Active; 'I' for Inactive)
REMARK    1  A    between atoms: C2_2  and  C3_3 
REMARK    2  A    between atoms: C3_3  and  N1_5 
REMARK    3  A    between atoms: C3_3  and  N2_9 
REMARK    4  A    between atoms: N2_9  and  C5_11 
REMARK    5  A    between atoms: C6_16  and  N5_17 
REMARK    6  A    between atoms: N5_17  and  C7_19 
REMARK    7  A    between atoms: C7_19  and  C8_20 
ROOT
HETATM    1  C5  UNL     1       4.563   5.868   1.837  1.00  0.00     0.709 A 
HETATM    2  N3  UNL     1       3.561   6.726   1.631  1.00  0.00    -0.117 N 
ATOM      3  H3  UNL     1       2.580   6.476   1.514  1.00  0.00     0.206 HD
HETATM    4  N4  UNL     1       4.052   7.954   1.602  1.00  0.00    -0.117 N 
ATOM      5  H4  UNL     1       3.499   8.799   1.459  1.00  0.00     0.206 HD
HETATM    6  C6  UNL     1       5.379   7.930   1.787  1.00  0.00     0.707 A 
HETATM    7  N6  UNL     1       5.686   6.610   1.934  1.00  0.00    -0.020 N 
ATOM      8  H6  UNL     1       6.623   6.240   2.092  1.00  0.00     0.203 HD
ENDROOT
BRANCH   6   9
HETATM    9  N5  UNL     1       6.183   8.930   1.821  1.00  0.00    -0.224 N 
ATOM     10  H5  UNL     1       5.909   9.787   1.342  1.00  0.00     0.177 HD
BRANCH   9  11
HETATM   11  C7  UNL     1       7.437   8.903   2.492  1.00  0.00     0.148 C 
BRANCH  11  12
HETATM   12  C8  UNL     1       8.475   9.802   1.902  1.00  0.00    -0.019 C 
HETATM   13  C9  UNL     1       9.340  10.469   2.961  1.00  0.00     0.016 C 
HETATM   14  C10 UNL     1       9.738  11.738   2.189  1.00  0.00    -0.013 C 
HETATM   15  C11 UNL     1      10.522  11.362   0.975  1.00  0.00     0.009 C 
HETATM   16  C15 UNL     1       8.339  12.225   1.787  1.00  0.00     0.010 C 
HETATM   17  C12 UNL     1       9.815  10.385   0.094  1.00  0.00    -0.013 C 
HETATM   18  C13 UNL     1       8.418  10.920  -0.257  1.00  0.00     0.010 C 
HETATM   19  C16 UNL     1       9.397   9.155   0.917  1.00  0.00     0.016 C 
HETATM   20  C14 UNL     1       7.806  10.934   1.151  1.00  0.00    -0.004 C 
ENDBRANCH  11  12
ENDBRANCH   9  11
ENDBRANCH   6   9
BRANCH   1  21
HETATM   21  N2  UNL     1       4.473   4.601   1.924  1.00  0.00    -0.190 N 
ATOM     22  H2  UNL     1       4.824   4.150   2.769  1.00  0.00     0.180 HD
BRANCH  21  23
HETATM   23  C3  UNL     1       3.911   3.777   0.905  1.00  0.00     0.206 C 
HETATM   24  C4  UNL     1       2.414   3.637   1.172  1.00  0.00     0.071 C 
BRANCH  23  25
HETATM   25  C2  UNL     1       4.507   2.386   0.927  1.00  0.00     0.057 C 
HETATM   26  C1  UNL     1       3.837   1.450  -0.029  1.00  0.00     0.009 C 
ENDBRANCH  23  25
BRANCH  23  27
HETATM   27  N1  UNL     1       4.162   4.312  -0.427  1.00  0.00    -0.053 N 
ATOM     28  H13 UNL     1       4.780   3.726  -0.988  1.00  0.00     0.277 HD
ATOM     29  H12 UNL     1       3.350   4.263  -1.041  1.00  0.00     0.277 HD
ATOM     30  H11 UNL     1       4.514   5.260  -0.295  1.00  0.00     0.277 HD
ENDBRANCH  23  27
ENDBRANCH  21  23
ENDBRANCH   1  21
TORSDOF 7
ENDMDL
MODEL 3
REMARK VINA RESULT: -6.774214032      1.090      1.979
REMARK  7 active torsions:
REMARK  status: ('A' for Active; 'I' for Inactive)
REMARK    1  A    between atoms: C2_2  and  C3_3 
REMARK    2  A    between atoms: C3_3  and  N1_5 
REMARK    3  A    between atoms: C3_3  and  N2_9 
REMARK    4  A    between atoms: N2_9  and  C5_11 
REMARK    5  A    between atoms: C6_16  and  N5_17 
REMARK    6  A    between atoms: N5_17  and  C7_19 
REMARK    7  A    between atoms: C7_19  and  C8_20 
ROOT
HETATM    1  C5  UNL     1       3.788   7.155   1.810  1.00  0.00     0.709 A 
HETATM    2  N3  UNL     1       3.090   8.253   1.512  1.00  0.00    -0.117 N 
ATOM      3  H3  UNL     1       2.082   8.294   1.364  1.00  0.00     0.206 HD
HETATM    4  N4  UNL     1       3.921   9.280   1.441  1.00  0.00    -0.117 N 
ATOM      5  H4  UNL     1       3.646  10.238   1.227  1.00  0.00     0.206 HD
HETATM    6  C6  UNL     1       5.176   8.881   1.689  1.00  0.00     0.707 A 
HETATM    7  N6  UNL     1       5.077   7.541   1.919  1.00  0.00    -0.020 N 
ATOM      8  H6  UNL     1       5.859   6.924   2.141  1.00  0.00     0.203 HD
ENDROOT
BRANCH   6   9
HETATM    9  N5  UNL     1       6.238   9.602   1.706  1.00  0.00    -0.224 N 
ATOM     10  H5  UNL     1       6.220  10.501   1.224  1.00  0.00     0.177 HD
BRANCH   9  11
HETATM   11  C7  UNL     1       7.438   9.213   2.363  1.00  0.00     0.148 C 
BRANCH  11  12
HETATM   12  C8  UNL     1       8.641  10.014   1.983  1.00  0.00    -0.019 C 
HETATM   13  C9  UNL     1       9.337  10.628   3.188  1.00  0.00     0.016 C 
HETATM   14  C10 UNL     1       9.980  11.847   2.506  1.00  0.00    -0.013 C 
HETATM   15  C11 UNL     1      10.949  11.388   1.467  1.00  0.00     0.009 C 
HETATM   16  C15 UNL     1       8.729  12.438   1.840  1.00  0.00     0.010 C 
HETATM   17  C12 UNL     1      10.348  10.455   0.468  1.00  0.00    -0.013 C 
HETATM   18  C13 UNL     1       9.094  11.094  -0.148  1.00  0.00     0.010 C 
HETATM   19  C16 UNL     1       9.679   9.278   1.196  1.00  0.00     0.016 C 
HETATM   20  C14 UNL     1       8.225  11.183   1.114  1.00  0.00    -0.004 C 
ENDBRANCH  11  12
ENDBRANCH   9  11
ENDBRANCH   6   9
BRANCH   1  21
HETATM   21  N2  UNL     1       3.327   5.978   1.961  1.00  0.00    -0.190 N 
ATOM     22  H2  UNL     1       2.655   5.816   2.711  1.00  0.00     0.180 HD
BRANCH  21  23
HETATM   23  C3  UNL     1       3.698   4.873   1.139  1.00  0.00     0.206 C 
HETATM   24  C4  UNL     1       2.643   3.781   1.296  1.00  0.00     0.071 C 
BRANCH  23  25
HETATM   25  C2  UNL     1       5.025   4.286   1.570  1.00  0.00     0.057 C 
HETATM   26  C1  UNL     1       5.014   2.790   1.609  1.00  0.00     0.009 C 
ENDBRANCH  23  25
BRANCH  23  27
HETATM   27  N1  UNL     1       3.853   5.262  -0.257  1.00  0.00    -0.053 N 
ATOM     28  H13 UNL     1       4.332   6.154  -0.377  1.00  0.00     0.277 HD
ATOM     29  H12 UNL     1       4.527   4.688  -0.763  1.00  0.00     0.277 HD
ATOM     30  H11 UNL     1       2.919   5.246  -0.666  1.00  0.00     0.277 HD
ENDBRANCH  23  27
ENDBRANCH  21  23
ENDBRANCH   1  21
TORSDOF 7
ENDMDL
MODEL 4
REMARK VINA RESULT: -6.759519939      1.214      1.594
REMARK  7 active torsions:
REMARK  status: ('A' for Active; 'I' for Inactive)
REMARK    1  A    between atoms: C2_2  and  C3_3 
REMARK    2  A    between atoms: C3_3  and  N1_5 
REMARK    3  A    between atoms: C3_3  and  N2_9 
REMARK    4  A    between atoms: N2_9  and  C5_11 
REMARK    5  A    between atoms: C6_16  and  N5_17 
REMARK    6  A    between atoms: N5_17  and  C7_19 
REMARK    7  A    between atoms: C7_19  and  C8_20 
ROOT
HETATM    1  C5  UNL     1       3.779   7.388   1.811  1.00  0.00     0.709 A 
HETATM    2  N3  UNL     1       3.010   8.446   1.545  1.00  0.00    -0.117 N 
ATOM      3  H3  UNL     1       1.995   8.434   1.452  1.00  0.00     0.206 HD
HETATM    4  N4  UNL     1       3.783   9.513   1.420  1.00  0.00    -0.117 N 
ATOM      5  H4  UNL     1       3.448  10.454   1.215  1.00  0.00     0.206 HD
HETATM    6  C6  UNL     1       5.068   9.181   1.601  1.00  0.00     0.707 A 
HETATM    7  N6  UNL     1       5.051   7.841   1.846  1.00  0.00    -0.020 N 
ATOM      8  H6  UNL     1       5.874   7.266   2.028  1.00  0.00     0.203 HD
ENDROOT
BRANCH   6   9
HETATM    9  N5  UNL     1       6.091   9.955   1.554  1.00  0.00    -0.224 N 
ATOM     10  H5  UNL     1       6.009  10.835   1.044  1.00  0.00     0.177 HD
BRANCH   9  11
HETATM   11  C7  UNL     1       7.332   9.651   2.178  1.00  0.00     0.148 C 
BRANCH  11  12
HETATM   12  C8  UNL     1       8.482  10.485   1.712  1.00  0.00    -0.019 C 
HETATM   13  C9  UNL     1       8.091  11.935   1.473  1.00  0.00     0.016 C 
HETATM   14  C10 UNL     1       9.143  12.302   0.414  1.00  0.00    -0.013 C 
HETATM   15  C11 UNL     1      10.511  12.175   1.000  1.00  0.00     0.009 C 
HETATM   16  C15 UNL     1       8.887  11.165  -0.585  1.00  0.00     0.010 C 
HETATM   17  C12 UNL     1      10.777  10.832   1.594  1.00  0.00    -0.013 C 
HETATM   18  C13 UNL     1      10.486   9.738   0.555  1.00  0.00     0.010 C 
HETATM   19  C16 UNL     1       9.677  10.488   2.612  1.00  0.00     0.016 C 
HETATM   20  C14 UNL     1       8.979   9.972   0.377  1.00  0.00    -0.004 C 
ENDBRANCH  11  12
ENDBRANCH   9  11
ENDBRANCH   6   9
BRANCH   1  21
HETATM   21  N2  UNL     1       3.388   6.190   1.995  1.00  0.00    -0.190 N 
ATOM     22  H2  UNL     1       2.764   6.003   2.780  1.00  0.00     0.180 HD
BRANCH  21  23
HETATM   23  C3  UNL     1       3.774   5.097   1.165  1.00  0.00     0.206 C 
HETATM   24  C4  UNL     1       2.803   3.944   1.406  1.00  0.00     0.071 C 
BRANCH  23  25
HETATM   25  C2  UNL     1       5.161   4.602   1.513  1.00  0.00     0.057 C 
HETATM   26  C1  UNL     1       5.189   3.147   1.864  1.00  0.00     0.009 C 
ENDBRANCH  23  25
BRANCH  23  27
HETATM   27  N1  UNL     1       3.811   5.471  -0.243  1.00  0.00    -0.053 N 
ATOM     28  H13 UNL     1       3.842   6.479  -0.393  1.00  0.00     0.277 HD
ATOM     29  H12 UNL     1       4.697   5.248  -0.697  1.00  0.00     0.277 HD
ATOM     30  H11 UNL     1       3.008   5.021  -0.682  1.00  0.00     0.277 HD
ENDBRANCH  23  27
ENDBRANCH  21  23
ENDBRANCH   1  21
TORSDOF 7
ENDMDL
MODEL 5
REMARK VINA RESULT: -6.753216342      4.189      5.610
REMARK  7 active torsions:
REMARK  status: ('A' for Active; 'I' for Inactive)
REMARK    1  A    between atoms: C2_2  and  C3_3 
REMARK    2  A    between atoms: C3_3  and  N1_5 
REMARK    3  A    between atoms: C3_3  and  N2_9 
REMARK    4  A    between atoms: N2_9  and  C5_11 
REMARK    5  A    between atoms: C6_16  and  N5_17 
REMARK    6  A    between atoms: N5_17  and  C7_19 
REMARK    7  A    between atoms: C7_19  and  C8_20 
ROOT
HETATM    1  C5  UNL     1       4.201   4.231   0.406  1.00  0.00     0.709 A 
HETATM    2  N3  UNL     1       5.257   4.439   1.197  1.00  0.00    -0.117 N 
ATOM      3  H3  UNL     1       6.088   3.851   1.245  1.00  0.00     0.206 HD
HETATM    4  N4  UNL     1       5.045   5.534   1.909  1.00  0.00    -0.117 N 
ATOM      5  H4  UNL     1       5.696   5.918   2.593  1.00  0.00     0.206 HD
HETATM    6  C6  UNL     1       3.854   6.066   1.603  1.00  0.00     0.707 A 
HETATM    7  N6  UNL     1       3.334   5.235   0.656  1.00  0.00    -0.020 N 
ATOM      8  H6  UNL     1       2.427   5.354   0.205  1.00  0.00     0.203 HD
ENDROOT
BRANCH   6   9
HETATM    9  N5  UNL     1       3.320   7.125   2.094  1.00  0.00    -0.224 N 
ATOM     10  H5  UNL     1       2.855   7.057   2.998  1.00  0.00     0.177 HD
BRANCH   9  11
HETATM   11  C7  UNL     1       3.346   8.388   1.441  1.00  0.00     0.148 C 
BRANCH  11  12
HETATM   12  C8  UNL     1       2.627   9.478   2.170  1.00  0.00    -0.019 C 
HETATM   13  C9  UNL     1       2.094   9.023   3.519  1.00  0.00     0.016 C 
HETATM   14  C10 UNL     1       0.911   9.996   3.656  1.00  0.00    -0.013 C 
HETATM   15  C11 UNL     1       1.417  11.400   3.693  1.00  0.00     0.009 C 
HETATM   16  C15 UNL     1       0.214   9.719   2.316  1.00  0.00     0.010 C 
HETATM   17  C12 UNL     1       2.280  11.748   2.526  1.00  0.00    -0.013 C 
HETATM   18  C13 UNL     1       1.536  11.432   1.218  1.00  0.00     0.010 C 
HETATM   19  C16 UNL     1       3.421  10.725   2.402  1.00  0.00     0.016 C 
HETATM   20  C14 UNL     1       1.412   9.910   1.376  1.00  0.00    -0.004 C 
ENDBRANCH  11  12
ENDBRANCH   9  11
ENDBRANCH   6   9
BRANCH   1  21
HETATM   21  N2  UNL     1       4.046   3.274  -0.419  1.00  0.00    -0.190 N 
ATOM     22  H2  UNL     1       4.380   3.402  -1.374  1.00  0.00     0.180 HD
BRANCH  21  23
HETATM   23  C3  UNL     1       3.430   2.033  -0.082  1.00  0.00     0.206 C 
HETATM   24  C4  UNL     1       4.494   0.938  -0.134  1.00  0.00     0.071 C 
BRANCH  23  25
HETATM   25  C2  UNL     1       2.352   1.663  -1.077  1.00  0.00     0.057 C 
HETATM   26  C1  UNL     1       1.063   1.276  -0.423  1.00  0.00     0.009 C 
ENDBRANCH  23  25
BRANCH  23  27
HETATM   27  N1  UNL     1       2.786   2.082   1.224  1.00  0.00    -0.053 N 
ATOM     28  H13 UNL     1       3.279   1.547   1.939  1.00  0.00     0.277 HD
ATOM     29  H12 UNL     1       2.859   2.994   1.676  1.00  0.00     0.277 HD
ATOM     30  H11 UNL     1       1.823   1.777   1.082  1.00  0.00     0.277 HD
ENDBRANCH  23  27
ENDBRANCH  21  23
ENDBRANCH   1  21
TORSDOF 7
ENDMDL
