MODEL 1
REMARK VINA RESULT: -6.939624984      0.000      0.000
REMARK  10 active torsions:
REMARK  status: ('A' for Active; 'I' for Inactive)
REMARK    1  A    between atoms: C2_2  and  C3_3 
REMARK    2  A    between atoms: C3_3  and  C4_4 
REMARK    3  A    between atoms: C4_4  and  C5_5 
REMARK    4  A    between atoms: C6_6  and  C7_7 
REMARK    5  A    between atoms: C7_7  and  C8_8 
REMARK    6  A    between atoms: C8_8  and  N1_9 
REMARK    7  A    between atoms: C8_8  and  N2_12 
REMARK    8  A    between atoms: N2_12  and  C9_14 
REMARK    9  A    between atoms: C13_27  and  C14_28 
REMARK   10  A    between atoms: N8_35  and  C18_36 
ROOT
HETATM    1  C9  UNL     1       4.069   8.090   1.350  1.00  0.00     0.153 A 
HETATM    2  N3  UNL     1       2.897   8.435   1.911  1.00  0.00    -0.174 N 
ATOM      3  H3  UNL     1       2.148   7.743   1.936  1.00  0.00     0.186 HD
HETATM    4  C10 UNL     1       2.662   9.653   2.444  1.00  0.00     0.679 A 
HETATM    5  N4  UNL     1       1.502   9.940   2.979  1.00  0.00    -0.234 N 
ATOM      6  H41 UNL     1       1.324  10.860   3.382  1.00  0.00     0.174 HD
ATOM      7  H42 UNL     1       0.749   9.251   3.005  1.00  0.00     0.174 HD
HETATM    8  N5  UNL     1       3.654  10.561   2.410  1.00  0.00    -0.174 N 
ATOM      9  H5  UNL     1       3.487  11.484   2.810  1.00  0.00     0.186 HD
HETATM   10  C11 UNL     1       4.855  10.300   1.870  1.00  0.00     0.155 A 
HETATM   11  C12 UNL     1       5.071   9.037   1.326  1.00  0.00     0.124 A 
HETATM   12  N6  UNL     1       6.330   9.013   0.851  1.00  0.00    -0.338 N 
ATOM     13  H6  UNL     1       6.773   8.214   0.395  1.00  0.00     0.167 HD
HETATM   14  C13 UNL     1       6.921  10.214   1.073  1.00  0.00     0.117 A 
HETATM   15  N8  UNL     1       6.010  10.967   1.686  1.00  0.00    -0.314 N 
ENDROOT
BRANCH   1  16
HETATM   16  N2  UNL     1       4.328   6.942   0.834  1.00  0.00    -0.330 N 
ATOM     17  H2  UNL     1       4.173   6.830  -0.168  1.00  0.00     0.168 HD
BRANCH  16  18
HETATM   18  C8  UNL     1       4.808   5.830   1.546  1.00  0.00     0.079 C 
BRANCH  18  19
HETATM   19  C7  UNL     1       3.925   4.610   1.578  1.00  0.00     0.103 C 
BRANCH  19  20
HETATM   20  C6  UNL     1       4.716   3.375   1.648  1.00  0.00    -0.023 C 
HETATM   21  C5  UNL     1       4.588   2.311   0.890  1.00  0.00    -0.030 C 
BRANCH  21  22
HETATM   22  C4  UNL     1       3.606   2.143  -0.205  1.00  0.00     0.027 C 
BRANCH  22  23
HETATM   23  C3  UNL     1       2.348   1.524   0.384  1.00  0.00     0.003 C 
BRANCH  23  24
HETATM   24  C2  UNL     1       1.464   1.129  -0.781  1.00  0.00    -0.004 C 
HETATM   25  C1  UNL     1       2.227   1.422  -2.053  1.00  0.00     0.005 C 
ENDBRANCH  23  24
ENDBRANCH  22  23
ENDBRANCH  21  22
ENDBRANCH  19  20
ENDBRANCH  18  19
BRANCH  18  26
HETATM   26  N1  UNL     1       5.942   5.856   2.138  1.00  0.00    -0.389 N 
ATOM     27  H12 UNL     1       6.118   5.298   2.973  1.00  0.00     0.157 HD
ATOM     28  H11 UNL     1       6.711   6.433   1.799  1.00  0.00     0.157 HD
ENDBRANCH  18  26
ENDBRANCH  16  18
ENDBRANCH   1  16
BRANCH  15  29
HETATM   29  C18 UNL     1       6.194  12.335   2.121  1.00  0.00     0.093 A 
HETATM   30  C19 UNL     1       5.299  13.406   1.425  1.00  0.00     0.028 A 
HETATM   31  C20 UNL     1       6.713  13.293   1.016  1.00  0.00     0.028 A 
ENDBRANCH  15  29
BRANCH  14  32
HETATM   32  C14 UNL     1       8.312  10.555   0.683  1.00  0.00     0.253 C 
HETATM   33  C15 UNL     1       9.235  10.367   1.890  1.00  0.00     0.042 C 
HETATM   34  C16 UNL     1       9.843   8.997   1.559  1.00  0.00     0.030 C 
HETATM   35  C17 UNL     1      10.074   9.151   0.071  1.00  0.00     0.233 C 
HETATM   36  N7  UNL     1       8.818   9.733  -0.367  1.00  0.00    -0.064 N 
ATOM     37  H72 UNL     1       8.146   9.030  -0.673  1.00  0.00     0.278 HD
ATOM     38  H71 UNL     1       8.907  10.236  -1.250  1.00  0.00     0.278 HD
ENDBRANCH  14  32
TORSDOF 10
ENDMDL
MODEL 2
REMARK VINA RESULT: -6.642068073      1.937      4.862
REMARK  10 active torsions:
REMARK  status: ('A' for Active; 'I' for Inactive)
REMARK    1  A    between atoms: C2_2  and  C3_3 
REMARK    2  A    between atoms: C3_3  and  C4_4 
REMARK    3  A    between atoms: C4_4  and  C5_5 
REMARK    4  A    between atoms: C6_6  and  C7_7 
REMARK    5  A    between atoms: C7_7  and  C8_8 
REMARK    6  A    between atoms: C8_8  and  N1_9 
REMARK    7  A    between atoms: C8_8  and  N2_12 
REMARK    8  A    between atoms: N2_12  and  C9_14 
REMARK    9  A    between atoms: C13_27  and  C14_28 
REMARK   10  A    between atoms: N8_35  and  C18_36 
ROOT
HETATM    1  C9  UNL     1       8.133   9.220   1.503  1.00  0.00     0.153 A 
HETATM    2  N3  UNL     1       8.976   8.380   0.876  1.00  0.00    -0.174 N 
ATOM      3  H3  UNL     1       8.878   7.379   1.046  1.00  0.00     0.186 HD
HETATM    4  C10 UNL     1       9.944   8.797   0.033  1.00  0.00     0.679 A 
HETATM    5  N4  UNL     1      10.741   7.937  -0.552  1.00  0.00    -0.234 N 
ATOM      6  H41 UNL     1      11.472   8.252  -1.190  1.00  0.00     0.174 HD
ATOM      7  H42 UNL     1      10.648   6.935  -0.385  1.00  0.00     0.174 HD
HETATM    8  N5  UNL     1      10.067  10.118  -0.187  1.00  0.00    -0.174 N 
ATOM      9  H5  UNL     1      10.796  10.443  -0.822  1.00  0.00     0.186 HD
HETATM   10  C11 UNL     1       9.269  11.026   0.396  1.00  0.00     0.155 A 
HETATM   11  C12 UNL     1       8.278  10.570   1.262  1.00  0.00     0.124 A 
HETATM   12  N6  UNL     1       7.614  11.649   1.718  1.00  0.00    -0.338 N 
ATOM     13  H6  UNL     1       6.831  11.625   2.372  1.00  0.00     0.167 HD
HETATM   14  C13 UNL     1       8.147  12.772   1.174  1.00  0.00     0.117 A 
HETATM   15  N8  UNL     1       9.139  12.366   0.385  1.00  0.00    -0.314 N 
ENDROOT
BRANCH   1  16
HETATM   16  N2  UNL     1       7.201   8.860   2.310  1.00  0.00    -0.330 N 
ATOM     17  H2  UNL     1       7.356   9.011   3.307  1.00  0.00     0.168 HD
BRANCH  16  18
HETATM   18  C8  UNL     1       5.984   8.273   1.923  1.00  0.00     0.079 C 
BRANCH  18  19
HETATM   19  C7  UNL     1       5.907   6.769   1.975  1.00  0.00     0.103 C 
BRANCH  19  20
HETATM   20  C6  UNL     1       4.572   6.286   1.602  1.00  0.00    -0.023 C 
HETATM   21  C5  UNL     1       4.199   5.036   1.450  1.00  0.00    -0.030 C 
BRANCH  21  22
HETATM   22  C4  UNL     1       5.064   3.848   1.628  1.00  0.00     0.027 C 
BRANCH  22  23
HETATM   23  C3  UNL     1       4.485   2.717   0.792  1.00  0.00     0.003 C 
BRANCH  23  24
HETATM   24  C2  UNL     1       2.978   2.848   0.858  1.00  0.00    -0.004 C 
HETATM   25  C1  UNL     1       2.384   1.629   0.189  1.00  0.00     0.005 C 
ENDBRANCH  23  24
ENDBRANCH  22  23
ENDBRANCH  21  22
ENDBRANCH  19  20
ENDBRANCH  18  19
BRANCH  18  26
HETATM   26  N1  UNL     1       4.991   8.986   1.546  1.00  0.00    -0.389 N 
ATOM     27  H12 UNL     1       4.183   8.569   1.083  1.00  0.00     0.157 HD
ATOM     28  H11 UNL     1       4.968   9.995   1.693  1.00  0.00     0.157 HD
ENDBRANCH  18  26
ENDBRANCH  16  18
ENDBRANCH   1  16
BRANCH  15  29
HETATM   29  C18 UNL     1       9.997  13.221  -0.407  1.00  0.00     0.093 A 
HETATM   30  C19 UNL     1       9.300  14.045  -1.533  1.00  0.00     0.028 A 
HETATM   31  C20 UNL     1      10.068  12.841  -1.910  1.00  0.00     0.028 A 
ENDBRANCH  15  29
BRANCH  14  32
HETATM   32  C14 UNL     1       7.670  14.150   1.448  1.00  0.00     0.253 C 
HETATM   33  C15 UNL     1       6.401  14.416   0.634  1.00  0.00     0.042 C 
HETATM   34  C16 UNL     1       5.332  14.199   1.713  1.00  0.00     0.030 C 
HETATM   35  C17 UNL     1       5.989  14.884   2.893  1.00  0.00     0.233 C 
HETATM   36  N7  UNL     1       7.344  14.369   2.819  1.00  0.00    -0.064 N 
ATOM     37  H72 UNL     1       7.478  13.536   3.392  1.00  0.00     0.278 HD
ATOM     38  H71 UNL     1       8.018  14.973   3.290  1.00  0.00     0.278 HD
ENDBRANCH  14  32
TORSDOF 10
ENDMDL
MODEL 3
REMARK VINA RESULT: -6.493865971      3.070      7.350
REMARK  10 active torsions:
REMARK  status: ('A' for Active; 'I' for Inactive)
REMARK    1  A    between atoms: C2_2  and  C3_3 
REMARK    2  A    between atoms: C3_3  and  C4_4 
REMARK    3  A    between atoms: C4_4  and  C5_5 
REMARK    4  A    between atoms: C6_6  and  C7_7 
REMARK    5  A    between atoms: C7_7  and  C8_8 
REMARK    6  A    between atoms: C8_8  and  N1_9 
REMARK    7  A    between atoms: C8_8  and  N2_12 
REMARK    8  A    between atoms: N2_12  and  C9_14 
REMARK    9  A    between atoms: C13_27  and  C14_28 
REMARK   10  A    between atoms: N8_35  and  C18_36 
ROOT
HETATM    1  C9  UNL     1       7.309   8.489   1.932  1.00  0.00     0.153 A 
HETATM    2  N3  UNL     1       7.009   7.178   1.914  1.00  0.00    -0.174 N 
ATOM      3  H3  UNL     1       7.775   6.505   1.918  1.00  0.00     0.186 HD
HETATM    4  C10 UNL     1       5.743   6.710   1.892  1.00  0.00     0.679 A 
HETATM    5  N4  UNL     1       5.503   5.422   1.874  1.00  0.00    -0.234 N 
ATOM      6  H41 UNL     1       4.547   5.068   1.858  1.00  0.00     0.174 HD
ATOM      7  H42 UNL     1       6.266   4.744   1.877  1.00  0.00     0.174 HD
HETATM    8  N5  UNL     1       4.737   7.603   1.888  1.00  0.00    -0.174 N 
ATOM      9  H5  UNL     1       3.777   7.259   1.871  1.00  0.00     0.186 HD
HETATM   10  C11 UNL     1       4.947   8.928   1.905  1.00  0.00     0.155 A 
HETATM   11  C12 UNL     1       6.261   9.386   1.927  1.00  0.00     0.124 A 
HETATM   12  N6  UNL     1       6.220  10.731   1.941  1.00  0.00    -0.338 N 
ATOM     13  H6  UNL     1       7.035  11.346   1.959  1.00  0.00     0.167 HD
HETATM   14  C13 UNL     1       4.928  11.145   1.928  1.00  0.00     0.117 A 
HETATM   15  N8  UNL     1       4.186  10.039   1.907  1.00  0.00    -0.314 N 
ENDROOT
BRANCH   1  16
HETATM   16  N2  UNL     1       8.500   8.970   1.953  1.00  0.00    -0.330 N 
ATOM     17  H2  UNL     1       8.899   9.202   2.863  1.00  0.00     0.168 HD
BRANCH  16  18
HETATM   18  C8  UNL     1       9.294   9.201   0.817  1.00  0.00     0.079 C 
BRANCH  18  19
HETATM   19  C7  UNL     1       9.519  10.638   0.425  1.00  0.00     0.103 C 
BRANCH  19  20
HETATM   20  C6  UNL     1      10.805  11.138   0.925  1.00  0.00    -0.023 C 
HETATM   21  C5  UNL     1      11.017  12.251   1.588  1.00  0.00    -0.030 C 
BRANCH  21  22
HETATM   22  C4  UNL     1       9.982  13.239   1.969  1.00  0.00     0.027 C 
BRANCH  22  23
HETATM   23  C3  UNL     1       9.818  13.186   3.480  1.00  0.00     0.003 C 
BRANCH  23  24
HETATM   24  C2  UNL     1       8.736  12.166   3.770  1.00  0.00    -0.004 C 
HETATM   25  C1  UNL     1       9.322  11.131   4.702  1.00  0.00     0.005 C 
ENDBRANCH  23  24
ENDBRANCH  22  23
ENDBRANCH  21  22
ENDBRANCH  19  20
ENDBRANCH  18  19
BRANCH  18  26
HETATM   26  N1  UNL     1       9.801   8.234   0.150  1.00  0.00    -0.389 N 
ATOM     27  H12 UNL     1      10.336   8.400  -0.702  1.00  0.00     0.157 HD
ATOM     28  H11 UNL     1       9.690   7.263   0.443  1.00  0.00     0.157 HD
ENDBRANCH  18  26
ENDBRANCH  16  18
ENDBRANCH   1  16
BRANCH  15  29
HETATM   29  C18 UNL     1       2.740   9.989   1.887  1.00  0.00     0.093 A 
HETATM   30  C19 UNL     1       2.014  10.497   3.171  1.00  0.00     0.028 A 
HETATM   31  C20 UNL     1       2.119   9.041   2.947  1.00  0.00     0.028 A 
ENDBRANCH  15  29
BRANCH  14  32
HETATM   32  C14 UNL     1       4.496  12.564   1.937  1.00  0.00     0.253 C 
HETATM   33  C15 UNL     1       5.724  13.464   2.106  1.00  0.00     0.042 C 
HETATM   34  C16 UNL     1       5.948  13.898   0.652  1.00  0.00     0.030 C 
HETATM   35  C17 UNL     1       4.519  14.138   0.213  1.00  0.00     0.233 C 
HETATM   36  N7  UNL     1       3.846  12.962   0.731  1.00  0.00    -0.064 N 
ATOM     37  H72 UNL     1       3.795  12.206   0.047  1.00  0.00     0.278 HD
ATOM     38  H71 UNL     1       2.844  13.106   0.856  1.00  0.00     0.278 HD
ENDBRANCH  14  32
TORSDOF 10
ENDMDL
MODEL 4
REMARK VINA RESULT: -6.489336864      2.870      6.678
REMARK  10 active torsions:
REMARK  status: ('A' for Active; 'I' for Inactive)
REMARK    1  A    between atoms: C2_2  and  C3_3 
REMARK    2  A    between atoms: C3_3  and  C4_4 
REMARK    3  A    between atoms: C4_4  and  C5_5 
REMARK    4  A    between atoms: C6_6  and  C7_7 
REMARK    5  A    between atoms: C7_7  and  C8_8 
REMARK    6  A    between atoms: C8_8  and  N1_9 
REMARK    7  A    between atoms: C8_8  and  N2_12 
REMARK    8  A    between atoms: N2_12  and  C9_14 
REMARK    9  A    between atoms: C13_27  and  C14_28 
REMARK   10  A    between atoms: N8_35  and  C18_36 
ROOT
HETATM    1  C9  UNL     1       5.985   8.289   1.701  1.00  0.00     0.153 A 
HETATM    2  N3  UNL     1       5.506   7.033   1.717  1.00  0.00    -0.174 N 
ATOM      3  H3  UNL     1       6.169   6.260   1.664  1.00  0.00     0.186 HD
HETATM    4  C10 UNL     1       4.190   6.745   1.802  1.00  0.00     0.679 A 
HETATM    5  N4  UNL     1       3.774   5.503   1.814  1.00  0.00    -0.234 N 
ATOM      6  H41 UNL     1       2.779   5.285   1.878  1.00  0.00     0.174 HD
ATOM      7  H42 UNL     1       4.433   4.726   1.759  1.00  0.00     0.174 HD
HETATM    8  N5  UNL     1       3.321   7.769   1.873  1.00  0.00    -0.174 N 
ATOM      9  H5  UNL     1       2.324   7.561   1.937  1.00  0.00     0.186 HD
HETATM   10  C11 UNL     1       3.712   9.052   1.863  1.00  0.00     0.155 A 
HETATM   11  C12 UNL     1       5.075   9.323   1.775  1.00  0.00     0.124 A 
HETATM   12  N6  UNL     1       5.221  10.661   1.782  1.00  0.00    -0.338 N 
ATOM     13  H6  UNL     1       6.112  11.157   1.729  1.00  0.00     0.167 HD
HETATM   14  C13 UNL     1       4.002  11.249   1.872  1.00  0.00     0.117 A 
HETATM   15  N8  UNL     1       3.115  10.258   1.919  1.00  0.00    -0.314 N 
ENDROOT
BRANCH   1  16
HETATM   16  N2  UNL     1       7.229   8.601   1.621  1.00  0.00    -0.330 N 
ATOM     17  H2  UNL     1       7.578   8.924   0.719  1.00  0.00     0.168 HD
BRANCH  16  18
HETATM   18  C8  UNL     1       8.145   8.530   2.685  1.00  0.00     0.079 C 
BRANCH  18  19
HETATM   19  C7  UNL     1       8.268   9.752   3.559  1.00  0.00     0.103 C 
BRANCH  19  20
HETATM   20  C6  UNL     1       9.666  10.180   3.692  1.00  0.00    -0.023 C 
HETATM   21  C5  UNL     1      10.317  11.007   2.907  1.00  0.00    -0.030 C 
BRANCH  21  22
HETATM   22  C4  UNL     1       9.760  11.685   1.714  1.00  0.00     0.027 C 
BRANCH  22  23
HETATM   23  C3  UNL     1      10.596  11.277   0.511  1.00  0.00     0.003 C 
BRANCH  23  24
HETATM   24  C2  UNL     1       9.778  10.271  -0.272  1.00  0.00    -0.004 C 
HETATM   25  C1  UNL     1      10.416   8.914  -0.078  1.00  0.00     0.005 C 
ENDBRANCH  23  24
ENDBRANCH  22  23
ENDBRANCH  21  22
ENDBRANCH  19  20
ENDBRANCH  18  19
BRANCH  18  26
HETATM   26  N1  UNL     1       8.838   7.477   2.899  1.00  0.00    -0.389 N 
ATOM     27  H12 UNL     1       8.531   6.764   3.560  1.00  0.00     0.157 HD
ATOM     28  H11 UNL     1       9.723   7.310   2.419  1.00  0.00     0.157 HD
ENDBRANCH  18  26
ENDBRANCH  16  18
ENDBRANCH   1  16
BRANCH  15  29
HETATM   29  C18 UNL     1       1.679  10.408   2.018  1.00  0.00     0.093 A 
HETATM   30  C19 UNL     1       1.134  10.948   3.376  1.00  0.00     0.028 A 
HETATM   31  C20 UNL     1       1.014   9.505   3.089  1.00  0.00     0.028 A 
ENDBRANCH  15  29
BRANCH  14  32
HETATM   32  C14 UNL     1       3.773  12.715   1.905  1.00  0.00     0.253 C 
HETATM   33  C15 UNL     1       5.114  13.431   2.094  1.00  0.00     0.042 C 
HETATM   34  C16 UNL     1       5.405  13.855   0.649  1.00  0.00     0.030 C 
HETATM   35  C17 UNL     1       4.026  14.301   0.210  1.00  0.00     0.233 C 
HETATM   36  N7  UNL     1       3.192  13.221   0.705  1.00  0.00    -0.064 N 
ATOM     37  H72 UNL     1       3.040  12.493   0.007  1.00  0.00     0.278 HD
ATOM     38  H71 UNL     1       2.220  13.502   0.829  1.00  0.00     0.278 HD
ENDBRANCH  14  32
TORSDOF 10
ENDMDL
MODEL 5
REMARK VINA RESULT: -6.458676567      4.800      7.222
REMARK  10 active torsions:
REMARK  status: ('A' for Active; 'I' for Inactive)
REMARK    1  A    between atoms: C2_2  and  C3_3 
REMARK    2  A    between atoms: C3_3  and  C4_4 
REMARK    3  A    between atoms: C4_4  and  C5_5 
REMARK    4  A    between atoms: C6_6  and  C7_7 
REMARK    5  A    between atoms: C7_7  and  C8_8 
REMARK    6  A    between atoms: C8_8  and  N1_9 
REMARK    7  A    between atoms: C8_8  and  N2_12 
REMARK    8  A    between atoms: N2_12  and  C9_14 
REMARK    9  A    between atoms: C13_27  and  C14_28 
REMARK   10  A    between atoms: N8_35  and  C18_36 
ROOT
HETATM    1  C9  UNL     1       9.251  10.723   3.573  1.00  0.00     0.153 A 
HETATM    2  N3  UNL     1       9.305  11.647   2.598  1.00  0.00    -0.174 N 
ATOM      3  H3  UNL     1       9.201  11.339   1.631  1.00  0.00     0.186 HD
HETATM    4  C10 UNL     1       9.491  12.962   2.835  1.00  0.00     0.679 A 
HETATM    5  N4  UNL     1       9.536  13.823   1.849  1.00  0.00    -0.234 N 
ATOM      6  H41 UNL     1       9.676  14.818   2.028  1.00  0.00     0.174 HD
ATOM      7  H42 UNL     1       9.433  13.520   0.880  1.00  0.00     0.174 HD
HETATM    8  N5  UNL     1       9.627  13.363   4.112  1.00  0.00    -0.174 N 
ATOM      9  H5  UNL     1       9.767  14.355   4.302  1.00  0.00     0.186 HD
HETATM   10  C11 UNL     1       9.585  12.508   5.146  1.00  0.00     0.155 A 
HETATM   11  C12 UNL     1       9.393  11.157   4.875  1.00  0.00     0.124 A 
HETATM   12  N6  UNL     1       9.387  10.506   6.053  1.00  0.00    -0.338 N 
ATOM     13  H6  UNL     1       9.265   9.499   6.169  1.00  0.00     0.167 HD
HETATM   14  C13 UNL     1       9.568  11.394   7.062  1.00  0.00     0.117 A 
HETATM   15  N8  UNL     1       9.684  12.589   6.486  1.00  0.00    -0.314 N 
ENDROOT
BRANCH   1  16
HETATM   16  N2  UNL     1       9.076   9.464   3.385  1.00  0.00    -0.330 N 
ATOM     17  H2  UNL     1       9.412   8.828   4.108  1.00  0.00     0.168 HD
BRANCH  16  18
HETATM   18  C8  UNL     1       8.457   8.898   2.258  1.00  0.00     0.079 C 
BRANCH  18  19
HETATM   19  C7  UNL     1       6.962   9.057   2.152  1.00  0.00     0.103 C 
BRANCH  19  20
HETATM   20  C6  UNL     1       6.288   7.756   2.059  1.00  0.00    -0.023 C 
HETATM   21  C5  UNL     1       5.048   7.534   1.690  1.00  0.00    -0.030 C 
BRANCH  21  22
HETATM   22  C4  UNL     1       4.068   8.567   1.286  1.00  0.00     0.027 C 
BRANCH  22  23
HETATM   23  C3  UNL     1       3.044   8.704   2.402  1.00  0.00     0.003 C 
BRANCH  23  24
HETATM   24  C2  UNL     1       2.585  10.148   2.404  1.00  0.00    -0.004 C 
HETATM   25  C1  UNL     1       3.766  11.003   2.006  1.00  0.00     0.005 C 
ENDBRANCH  23  24
ENDBRANCH  22  23
ENDBRANCH  21  22
ENDBRANCH  19  20
ENDBRANCH  18  19
BRANCH  18  26
HETATM   26  N1  UNL     1       9.133   8.280   1.365  1.00  0.00    -0.389 N 
ATOM     27  H12 UNL     1       8.776   7.435   0.918  1.00  0.00     0.157 HD
ATOM     28  H11 UNL     1      10.053   8.605   1.067  1.00  0.00     0.157 HD
ENDBRANCH  18  26
ENDBRANCH  16  18
ENDBRANCH   1  16
BRANCH  15  29
HETATM   29  C18 UNL     1       9.891  13.846   7.175  1.00  0.00     0.093 A 
HETATM   30  C19 UNL     1      11.176  14.640   6.788  1.00  0.00     0.028 A 
HETATM   31  C20 UNL     1      11.165  13.888   8.059  1.00  0.00     0.028 A 
ENDBRANCH  15  29
BRANCH  14  32
HETATM   32  C14 UNL     1       9.618  11.037   8.502  1.00  0.00     0.253 C 
HETATM   33  C15 UNL     1       8.229  11.226   9.117  1.00  0.00     0.042 C 
HETATM   34  C16 UNL     1       7.733   9.774   9.126  1.00  0.00     0.030 C 
HETATM   35  C17 UNL     1       8.991   9.057   9.568  1.00  0.00     0.233 C 
HETATM   36  N7  UNL     1       9.999   9.683   8.732  1.00  0.00    -0.064 N 
ATOM     37  H72 UNL     1      10.164   9.169   7.866  1.00  0.00     0.278 HD
ATOM     38  H71 UNL     1      10.938   9.601   9.123  1.00  0.00     0.278 HD
ENDBRANCH  14  32
TORSDOF 10
ENDMDL
