MODEL 1
REMARK VINA RESULT: -6.918635953      0.000      0.000
REMARK  8 active torsions:
REMARK  status: ('A' for Active; 'I' for Inactive)
REMARK    1  A    between atoms: C2_2  and  C3_3 
REMARK    2  A    between atoms: C3_3  and  N1_4 
REMARK    3  A    between atoms: N1_4  and  C4_6 
REMARK    4  A    between atoms: C6_10  and  C7_11 
REMARK    5  A    between atoms: C9_13  and  O1_14 
REMARK    6  A    between atoms: O1_14  and  C10_15 
REMARK    7  A    between atoms: C13_18  and  O2_19 
REMARK    8  A    between atoms: C19_25  and  N3_26 
ROOT
HETATM    1  C4  UNL     1       3.807   9.239   1.834  1.00  0.00     0.129 A 
HETATM    2  N2  UNL     1       4.117  10.541   1.905  1.00  0.00    -0.350 N 
ATOM      3  H2  UNL     1       3.372  11.226   2.029  1.00  0.00     0.166 HD
HETATM    4  C5  UNL     1       5.375  10.958   1.817  1.00  0.00     0.103 A 
HETATM    5  C6  UNL     1       6.440  10.054   1.648  1.00  0.00     0.006 A 
HETATM    6  C18 UNL     1       6.179   8.730   1.575  1.00  0.00     0.051 A 
HETATM    7  C19 UNL     1       7.163   7.787   1.452  1.00  0.00     0.116 A 
HETATM    8  N4  UNL     1       6.808   6.473   1.416  1.00  0.00    -0.294 N 
ATOM      9  H4  UNL     1       7.532   5.760   1.322  1.00  0.00     0.172 HD
HETATM   10  C20 UNL     1       5.524   6.100   1.502  1.00  0.00     0.326 A 
HETATM   11  O3  UNL     1       5.239   4.855   1.462  1.00  0.00    -0.247 OA
HETATM   12  N5  UNL     1       4.542   7.009   1.628  1.00  0.00    -0.304 N 
ATOM     13  H5  UNL     1       3.572   6.699   1.693  1.00  0.00     0.171 HD
HETATM   14  C21 UNL     1       4.826   8.327   1.670  1.00  0.00     0.095 A 
ENDROOT
BRANCH   5  15
HETATM   15  C7  UNL     1       7.772  10.610   1.405  1.00  0.00    -0.015 A 
HETATM   16  C8  UNL     1       8.148  11.051   0.170  1.00  0.00     0.052 A 
HETATM   17  C9  UNL     1       9.388  11.725  -0.051  1.00  0.00     0.103 A 
HETATM   18  C13 UNL     1      10.225  11.933   1.013  1.00  0.00     0.102 A 
HETATM   19  C15 UNL     1       9.806  11.466   2.266  1.00  0.00     0.047 A 
HETATM   20  C16 UNL     1       8.613  10.820   2.471  1.00  0.00    -0.048 A 
HETATM   21  C17 UNL     1       8.304  10.367   3.866  1.00  0.00     0.049 C 
BRANCH  17  22
HETATM   22  O1  UNL     1       9.670  12.127  -1.308  1.00  0.00    -0.344 OA
BRANCH  22  23
HETATM   23  C10 UNL     1       9.463  13.217  -2.050  1.00  0.00     0.121 C 
HETATM   24  C11 UNL     1       8.278  14.082  -1.570  1.00  0.00     0.040 C 
HETATM   25  C12 UNL     1      10.649  14.213  -2.008  1.00  0.00     0.040 C 
ENDBRANCH  22  23
ENDBRANCH  17  22
BRANCH  18  26
HETATM   26  O2  UNL     1      11.426  12.570   0.875  1.00  0.00    -0.353 OA
HETATM   27  C14 UNL     1      11.830  13.780   1.426  1.00  0.00     0.210 C 
ENDBRANCH  18  26
ENDBRANCH   5  15
BRANCH   7  28
HETATM   28  N3  UNL     1       8.395   8.116   1.428  1.00  0.00    -0.385 N 
ATOM     29  H32 UNL     1       8.667   9.051   1.126  1.00  0.00     0.157 HD
ATOM     30  H31 UNL     1       9.127   7.445   1.664  1.00  0.00     0.157 HD
ENDBRANCH   7  28
BRANCH   1  31
HETATM   31  N1  UNL     1       2.616   8.787   1.916  1.00  0.00    -0.374 N 
ATOM     32  H1  UNL     1       2.447   7.870   1.503  1.00  0.00     0.161 HD
BRANCH  31  33
HETATM   33  C3  UNL     1       1.497   9.426   2.522  1.00  0.00     0.121 C 
BRANCH  33  34
HETATM   34  C2  UNL     1       1.374   8.875   3.948  1.00  0.00     0.015 C 
HETATM   35  C1  UNL     1       1.048   9.998   4.889  1.00  0.00     0.006 C 
ENDBRANCH  33  34
ENDBRANCH  31  33
ENDBRANCH   1  31
TORSDOF 8
ENDMDL
MODEL 2
REMARK VINA RESULT: -6.747313690      2.261      4.635
REMARK  8 active torsions:
REMARK  status: ('A' for Active; 'I' for Inactive)
REMARK    1  A    between atoms: C2_2  and  C3_3 
REMARK    2  A    between atoms: C3_3  and  N1_4 
REMARK    3  A    between atoms: N1_4  and  C4_6 
REMARK    4  A    between atoms: C6_10  and  C7_11 
REMARK    5  A    between atoms: C9_13  and  O1_14 
REMARK    6  A    between atoms: O1_14  and  C10_15 
REMARK    7  A    between atoms: C13_18  and  O2_19 
REMARK    8  A    between atoms: C19_25  and  N3_26 
ROOT
HETATM    1  C4  UNL     1       4.729   6.336   1.616  1.00  0.00     0.129 A 
HETATM    2  N2  UNL     1       6.038   6.082   1.470  1.00  0.00    -0.350 N 
ATOM      3  H2  UNL     1       6.353   5.117   1.378  1.00  0.00     0.166 HD
HETATM    4  C5  UNL     1       6.933   7.063   1.444  1.00  0.00     0.103 A 
HETATM    5  C6  UNL     1       6.552   8.412   1.565  1.00  0.00     0.006 A 
HETATM    6  C18 UNL     1       5.243   8.719   1.709  1.00  0.00     0.051 A 
HETATM    7  C19 UNL     1       4.791  10.007   1.791  1.00  0.00     0.116 A 
HETATM    8  N4  UNL     1       3.451  10.224   1.905  1.00  0.00    -0.294 N 
ATOM      9  H4  UNL     1       3.101  11.179   1.970  1.00  0.00     0.172 HD
HETATM   10  C20 UNL     1       2.586   9.201   1.934  1.00  0.00     0.326 A 
HETATM   11  O3  UNL     1       1.337   9.453   2.044  1.00  0.00    -0.247 OA
HETATM   12  N5  UNL     1       3.008   7.928   1.850  1.00  0.00    -0.304 N 
ATOM     13  H5  UNL     1       2.328   7.167   1.873  1.00  0.00     0.171 HD
HETATM   14  C21 UNL     1       4.322   7.646   1.735  1.00  0.00     0.095 A 
ENDROOT
BRANCH   5  15
HETATM   15  C7  UNL     1       7.615   9.411   1.681  1.00  0.00    -0.015 A 
HETATM   16  C8  UNL     1       8.085   9.816   2.897  1.00  0.00     0.052 A 
HETATM   17  C9  UNL     1       9.215  10.680   3.024  1.00  0.00     0.103 A 
HETATM   18  C13 UNL     1       9.844  11.117   1.888  1.00  0.00     0.102 A 
HETATM   19  C15 UNL     1       9.332  10.681   0.659  1.00  0.00     0.047 A 
HETATM   20  C16 UNL     1       8.247   9.850   0.543  1.00  0.00    -0.048 A 
HETATM   21  C17 UNL     1       7.808   9.476  -0.840  1.00  0.00     0.049 C 
BRANCH  17  22
HETATM   22  O1  UNL     1       9.607  11.023   4.269  1.00  0.00    -0.344 OA
BRANCH  22  23
HETATM   23  C10 UNL     1       9.137  11.779   5.263  1.00  0.00     0.121 C 
HETATM   24  C11 UNL     1       9.819  11.517   6.622  1.00  0.00     0.040 C 
HETATM   25  C12 UNL     1       9.386  13.292   5.044  1.00  0.00     0.040 C 
ENDBRANCH  22  23
ENDBRANCH  17  22
BRANCH  18  26
HETATM   26  O2  UNL     1      10.930  11.946   1.935  1.00  0.00    -0.353 OA
HETATM   27  C14 UNL     1      11.383  12.831   0.965  1.00  0.00     0.210 C 
ENDBRANCH  18  26
ENDBRANCH   5  15
BRANCH   7  28
HETATM   28  N3  UNL     1       5.591  10.997   1.706  1.00  0.00    -0.385 N 
ATOM     29  H32 UNL     1       5.445  11.821   2.288  1.00  0.00     0.157 HD
ATOM     30  H31 UNL     1       6.355  11.004   1.030  1.00  0.00     0.157 HD
ENDBRANCH   7  28
BRANCH   1  31
HETATM   31  N1  UNL     1       3.830   5.431   1.644  1.00  0.00    -0.374 N 
ATOM     32  H1  UNL     1       3.255   5.386   2.485  1.00  0.00     0.161 HD
BRANCH  31  33
HETATM   33  C3  UNL     1       3.543   4.476   0.627  1.00  0.00     0.121 C 
BRANCH  33  34
HETATM   34  C2  UNL     1       4.096   3.126   1.099  1.00  0.00     0.015 C 
HETATM   35  C1  UNL     1       3.428   2.020   0.334  1.00  0.00     0.006 C 
ENDBRANCH  33  34
ENDBRANCH  31  33
ENDBRANCH   1  31
TORSDOF 8
ENDMDL
MODEL 3
REMARK VINA RESULT: -6.532452106      1.710      3.318
REMARK  8 active torsions:
REMARK  status: ('A' for Active; 'I' for Inactive)
REMARK    1  A    between atoms: C2_2  and  C3_3 
REMARK    2  A    between atoms: C3_3  and  N1_4 
REMARK    3  A    between atoms: N1_4  and  C4_6 
REMARK    4  A    between atoms: C6_10  and  C7_11 
REMARK    5  A    between atoms: C9_13  and  O1_14 
REMARK    6  A    between atoms: O1_14  and  C10_15 
REMARK    7  A    between atoms: C13_18  and  O2_19 
REMARK    8  A    between atoms: C19_25  and  N3_26 
ROOT
HETATM    1  C4  UNL     1       5.290   7.175   1.508  1.00  0.00     0.129 A 
HETATM    2  N2  UNL     1       6.556   6.844   1.215  1.00  0.00    -0.350 N 
ATOM      3  H2  UNL     1       6.800   5.861   1.097  1.00  0.00     0.166 HD
HETATM    4  C5  UNL     1       7.498   7.770   1.075  1.00  0.00     0.103 A 
HETATM    5  C6  UNL     1       7.213   9.139   1.225  1.00  0.00     0.006 A 
HETATM    6  C18 UNL     1       5.950   9.524   1.516  1.00  0.00     0.051 A 
HETATM    7  C19 UNL     1       5.586  10.837   1.637  1.00  0.00     0.116 A 
HETATM    8  N4  UNL     1       4.284  11.133   1.903  1.00  0.00    -0.294 N 
ATOM      9  H4  UNL     1       4.000  12.108   1.998  1.00  0.00     0.172 HD
HETATM   10  C20 UNL     1       3.369  10.164   2.043  1.00  0.00     0.326 A 
HETATM   11  O3  UNL     1       2.159  10.490   2.293  1.00  0.00    -0.247 OA
HETATM   12  N5  UNL     1       3.704   8.868   1.923  1.00  0.00    -0.304 N 
ATOM     13  H5  UNL     1       2.987   8.149   2.032  1.00  0.00     0.171 HD
HETATM   14  C21 UNL     1       4.977   8.508   1.660  1.00  0.00     0.095 A 
ENDROOT
BRANCH   5  15
HETATM   15  C7  UNL     1       8.339  10.074   1.208  1.00  0.00    -0.015 A 
HETATM   16  C8  UNL     1       8.682  10.759   0.078  1.00  0.00     0.052 A 
HETATM   17  C9  UNL     1       9.683  11.777   0.083  1.00  0.00     0.103 A 
HETATM   18  C13 UNL     1      10.320  12.072   1.259  1.00  0.00     0.102 A 
HETATM   19  C15 UNL     1       9.942  11.348   2.398  1.00  0.00     0.047 A 
HETATM   20  C16 UNL     1       8.978  10.372   2.387  1.00  0.00    -0.048 A 
HETATM   21  C17 UNL     1       8.687   9.674   3.681  1.00  0.00     0.049 C 
BRANCH  17  22
HETATM   22  O1  UNL     1       9.951  12.401  -1.084  1.00  0.00    -0.344 OA
BRANCH  22  23
HETATM   23  C10 UNL     1       9.512  13.483  -1.730  1.00  0.00     0.121 C 
HETATM   24  C11 UNL     1       8.424  14.267  -0.966  1.00  0.00     0.040 C 
HETATM   25  C12 UNL     1      10.614  14.551  -1.941  1.00  0.00     0.040 C 
ENDBRANCH  22  23
ENDBRANCH  17  22
BRANCH  18  26
HETATM   26  O2  UNL     1      11.288  13.034   1.337  1.00  0.00    -0.353 OA
HETATM   27  C14 UNL     1      11.170  14.344   1.784  1.00  0.00     0.210 C 
ENDBRANCH  18  26
ENDBRANCH   5  15
BRANCH   7  28
HETATM   28  N3  UNL     1       6.428  11.777   1.450  1.00  0.00    -0.385 N 
ATOM     29  H32 UNL     1       7.010  11.780   0.613  1.00  0.00     0.157 HD
ATOM     30  H31 UNL     1       6.567  12.511   2.145  1.00  0.00     0.157 HD
ENDBRANCH   7  28
BRANCH   1  31
HETATM   31  N1  UNL     1       4.348   6.325   1.649  1.00  0.00    -0.374 N 
ATOM     32  H1  UNL     1       3.838   6.353   2.532  1.00  0.00     0.161 HD
BRANCH  31  33
HETATM   33  C3  UNL     1       3.933   5.342   0.707  1.00  0.00     0.121 C 
BRANCH  33  34
HETATM   34  C2  UNL     1       3.909   3.993   1.435  1.00  0.00     0.015 C 
HETATM   35  C1  UNL     1       5.282   3.388   1.406  1.00  0.00     0.006 C 
ENDBRANCH  33  34
ENDBRANCH  31  33
ENDBRANCH   1  31
TORSDOF 8
ENDMDL
MODEL 4
REMARK VINA RESULT: -6.313920995      2.130      4.271
REMARK  8 active torsions:
REMARK  status: ('A' for Active; 'I' for Inactive)
REMARK    1  A    between atoms: C2_2  and  C3_3 
REMARK    2  A    between atoms: C3_3  and  N1_4 
REMARK    3  A    between atoms: N1_4  and  C4_6 
REMARK    4  A    between atoms: C6_10  and  C7_11 
REMARK    5  A    between atoms: C9_13  and  O1_14 
REMARK    6  A    between atoms: O1_14  and  C10_15 
REMARK    7  A    between atoms: C13_18  and  O2_19 
REMARK    8  A    between atoms: C19_25  and  N3_26 
ROOT
HETATM    1  C4  UNL     1       5.152   6.924   1.633  1.00  0.00     0.129 A 
HETATM    2  N2  UNL     1       6.469   6.761   1.443  1.00  0.00    -0.350 N 
ATOM      3  H2  UNL     1       6.849   5.818   1.358  1.00  0.00     0.166 HD
HETATM    4  C5  UNL     1       7.290   7.802   1.363  1.00  0.00     0.103 A 
HETATM    5  C6  UNL     1       6.818   9.123   1.472  1.00  0.00     0.006 A 
HETATM    6  C18 UNL     1       5.496   9.339   1.659  1.00  0.00     0.051 A 
HETATM    7  C19 UNL     1       4.955  10.594   1.734  1.00  0.00     0.116 A 
HETATM    8  N4  UNL     1       3.609  10.717   1.894  1.00  0.00    -0.294 N 
ATOM      9  H4  UNL     1       3.193  11.646   1.953  1.00  0.00     0.172 HD
HETATM   10  C20 UNL     1       2.821   9.636   1.976  1.00  0.00     0.326 A 
HETATM   11  O3  UNL     1       1.562   9.801   2.127  1.00  0.00    -0.247 OA
HETATM   12  N5  UNL     1       3.330   8.395   1.901  1.00  0.00    -0.304 N 
ATOM     13  H5  UNL     1       2.708   7.588   1.964  1.00  0.00     0.171 HD
HETATM   14  C21 UNL     1       4.656   8.204   1.742  1.00  0.00     0.095 A 
ENDROOT
BRANCH   5  15
HETATM   15  C7  UNL     1       7.809  10.197   1.529  1.00  0.00    -0.015 A 
HETATM   16  C8  UNL     1       8.101  10.840   2.697  1.00  0.00     0.052 A 
HETATM   17  C9  UNL     1       9.164  11.789   2.797  1.00  0.00     0.103 A 
HETATM   18  C13 UNL     1       9.912  12.062   1.682  1.00  0.00     0.102 A 
HETATM   19  C15 UNL     1       9.583  11.383   0.501  1.00  0.00     0.047 A 
HETATM   20  C16 UNL     1       8.561  10.472   0.412  1.00  0.00    -0.048 A 
HETATM   21  C17 UNL     1       8.320   9.833  -0.922  1.00  0.00     0.049 C 
BRANCH  17  22
HETATM   22  O1  UNL     1       9.378  12.370   3.996  1.00  0.00    -0.344 OA
BRANCH  22  23
HETATM   23  C10 UNL     1       8.979  13.478   4.623  1.00  0.00     0.121 C 
HETATM   24  C11 UNL     1      10.134  14.425   5.011  1.00  0.00     0.040 C 
HETATM   25  C12 UNL     1       8.079  14.382   3.745  1.00  0.00     0.040 C 
ENDBRANCH  22  23
ENDBRANCH  17  22
BRANCH  18  26
HETATM   26  O2  UNL     1      10.944  12.958   1.704  1.00  0.00    -0.353 OA
HETATM   27  C14 UNL     1      10.929  14.301   1.348  1.00  0.00     0.210 C 
ENDBRANCH  18  26
ENDBRANCH   5  15
BRANCH   7  28
HETATM   28  N3  UNL     1       5.679  11.636   1.598  1.00  0.00    -0.385 N 
ATOM     29  H32 UNL     1       6.459  11.632   0.942  1.00  0.00     0.157 HD
ATOM     30  H31 UNL     1       5.523  12.466   2.170  1.00  0.00     0.157 HD
ENDBRANCH   7  28
BRANCH   1  31
HETATM   31  N1  UNL     1       4.321   5.958   1.713  1.00  0.00    -0.374 N 
ATOM     32  H1  UNL     1       3.894   5.799   2.626  1.00  0.00     0.161 HD
BRANCH  31  33
HETATM   33  C3  UNL     1       3.927   5.078   0.665  1.00  0.00     0.121 C 
BRANCH  33  34
HETATM   34  C2  UNL     1       3.872   3.663   1.253  1.00  0.00     0.015 C 
HETATM   35  C1  UNL     1       5.266   3.195   1.554  1.00  0.00     0.006 C 
ENDBRANCH  33  34
ENDBRANCH  31  33
ENDBRANCH   1  31
TORSDOF 8
ENDMDL
MODEL 5
REMARK VINA RESULT: -6.260987514      2.165      4.599
REMARK  8 active torsions:
REMARK  status: ('A' for Active; 'I' for Inactive)
REMARK    1  A    between atoms: C2_2  and  C3_3 
REMARK    2  A    between atoms: C3_3  and  N1_4 
REMARK    3  A    between atoms: N1_4  and  C4_6 
REMARK    4  A    between atoms: C6_10  and  C7_11 
REMARK    5  A    between atoms: C9_13  and  O1_14 
REMARK    6  A    between atoms: O1_14  and  C10_15 
REMARK    7  A    between atoms: C13_18  and  O2_19 
REMARK    8  A    between atoms: C19_25  and  N3_26 
ROOT
HETATM    1  C4  UNL     1       5.938   6.820   1.687  1.00  0.00     0.129 A 
HETATM    2  N2  UNL     1       7.269   6.962   1.610  1.00  0.00    -0.350 N 
ATOM      3  H2  UNL     1       7.857   6.132   1.538  1.00  0.00     0.166 HD
HETATM    4  C5  UNL     1       7.838   8.163   1.624  1.00  0.00     0.103 A 
HETATM    5  C6  UNL     1       7.073   9.339   1.720  1.00  0.00     0.006 A 
HETATM    6  C18 UNL     1       5.726   9.248   1.796  1.00  0.00     0.051 A 
HETATM    7  C19 UNL     1       4.912  10.346   1.850  1.00  0.00     0.116 A 
HETATM    8  N4  UNL     1       3.564  10.160   1.894  1.00  0.00    -0.294 N 
ATOM      9  H4  UNL     1       2.946  10.970   1.937  1.00  0.00     0.172 HD
HETATM   10  C20 UNL     1       3.036   8.928   1.883  1.00  0.00     0.326 A 
HETATM   11  O3  UNL     1       1.765   8.802   1.928  1.00  0.00    -0.247 OA
HETATM   12  N5  UNL     1       3.816   7.836   1.826  1.00  0.00    -0.304 N 
ATOM     13  H5  UNL     1       3.389   6.909   1.817  1.00  0.00     0.171 HD
HETATM   14  C21 UNL     1       5.160   7.952   1.780  1.00  0.00     0.095 A 
ENDROOT
BRANCH   5  15
HETATM   15  C7  UNL     1       7.789  10.604   1.886  1.00  0.00    -0.015 A 
HETATM   16  C8  UNL     1       7.953  11.177   3.115  1.00  0.00     0.052 A 
HETATM   17  C9  UNL     1       8.769  12.332   3.311  1.00  0.00     0.103 A 
HETATM   18  C13 UNL     1       9.404  12.884   2.229  1.00  0.00     0.102 A 
HETATM   19  C15 UNL     1       9.211  12.270   0.985  1.00  0.00     0.047 A 
HETATM   20  C16 UNL     1       8.427  11.159   0.803  1.00  0.00    -0.048 A 
HETATM   21  C17 UNL     1       8.306  10.618  -0.589  1.00  0.00     0.049 C 
BRANCH  17  22
HETATM   22  O1  UNL     1       8.873  12.824   4.564  1.00  0.00    -0.344 OA
BRANCH  22  23
HETATM   23  C10 UNL     1       9.754  12.759   5.563  1.00  0.00     0.121 C 
HETATM   24  C11 UNL     1       9.632  13.914   6.579  1.00  0.00     0.040 C 
HETATM   25  C12 UNL     1       9.571  11.504   6.453  1.00  0.00     0.040 C 
ENDBRANCH  22  23
ENDBRANCH  17  22
BRANCH  18  26
HETATM   26  O2  UNL     1      10.199  13.989   2.343  1.00  0.00    -0.353 OA
HETATM   27  C14 UNL     1      11.405  14.256   1.705  1.00  0.00     0.210 C 
ENDBRANCH  18  26
ENDBRANCH   5  15
BRANCH   7  28
HETATM   28  N3  UNL     1       5.390  11.528   1.801  1.00  0.00    -0.385 N 
ATOM     29  H32 UNL     1       6.227  11.761   2.335  1.00  0.00     0.157 HD
ATOM     30  H31 UNL     1       4.926  12.266   1.272  1.00  0.00     0.157 HD
ENDBRANCH   7  28
BRANCH   1  31
HETATM   31  N1  UNL     1       5.343   5.691   1.673  1.00  0.00    -0.374 N 
ATOM     32  H1  UNL     1       4.363   5.689   1.957  1.00  0.00     0.161 HD
BRANCH  31  33
HETATM   33  C3  UNL     1       5.900   4.433   1.304  1.00  0.00     0.121 C 
BRANCH  33  34
HETATM   34  C2  UNL     1       4.777   3.393   1.393  1.00  0.00     0.015 C 
HETATM   35  C1  UNL     1       3.458   4.060   1.130  1.00  0.00     0.006 C 
ENDBRANCH  33  34
ENDBRANCH  31  33
ENDBRANCH   1  31
TORSDOF 8
ENDMDL
