MODEL 1
REMARK VINA RESULT: -6.955130826      0.000      0.000
REMARK  5 active torsions:
REMARK  status: ('A' for Active; 'I' for Inactive)
REMARK       I    between atoms: C1_2  and  N1_3 
REMARK       I    between atoms: C1_2  and  N2_11 
REMARK    1  A    between atoms: N1_3  and  C2_5 
REMARK    2  A    between atoms: C2_5  and  C3_6 
REMARK    3  A    between atoms: C3_6  and  C4_7 
REMARK    4  A    between atoms: C4_7  and  C5_8 
REMARK    5  A    between atoms: N2_11  and  C8_13 
ROOT
HETATM    1  C8  UNL     1       4.653  54.440  71.519  1.00  0.00     0.108 C 
HETATM    2  C9  UNL     1       4.048  54.228  70.199  1.00  0.00     0.032 C 
HETATM    3  C10 UNL     1       3.357  55.383  69.570  1.00  0.00    -0.010 C 
HETATM    4  C11 UNL     1       2.353  56.069  70.431  1.00  0.00     0.009 C 
HETATM    5  C12 UNL     1       2.890  57.138  71.318  1.00  0.00    -0.010 C 
HETATM    6  C13 UNL     1       3.773  58.128  70.583  1.00  0.00     0.029 C 
HETATM    7  C14 UNL     1       4.891  57.327  69.957  1.00  0.00     0.077 C 
HETATM    8  C15 UNL     1       4.307  56.381  68.944  1.00  0.00     0.029 C 
HETATM    9  N3  UNL     1       5.672  56.591  70.884  1.00  0.00    -0.411 N 
ATOM     10  H3  UNL     1       6.691  56.585  70.836  1.00  0.00     0.154 HD
HETATM   11  C16 UNL     1       4.973  55.865  71.879  1.00  0.00     0.100 C 
HETATM   12  C17 UNL     1       3.729  56.513  72.397  1.00  0.00     0.031 C 
ENDROOT
BRANCH   1  13
HETATM   13  N2  UNL     1       5.885  53.675  71.681  1.00  0.00    -0.337 N 
HETATM   14  C1  UNL     1       5.918  52.440  72.381  1.00  0.00     0.316 C 
HETATM   15  O1  UNL     1       4.820  52.016  72.871  1.00  0.00    -0.247 OA
HETATM   16  N1  UNL     1       7.129  51.712  72.526  1.00  0.00    -0.343 N 
ATOM     17  H1  UNL     1       8.002  52.060  72.131  1.00  0.00     0.164 HD
ATOM     18  H2  UNL     1       6.748  54.038  71.279  1.00  0.00     0.164 HD
BRANCH  16  19
HETATM   19  C2  UNL     1       7.084  50.465  73.253  1.00  0.00     0.124 C 
BRANCH  19  20
HETATM   20  C3  UNL     1       8.143  49.495  72.830  1.00  0.00     0.020 C 
BRANCH  20  21
HETATM   21  C4  UNL     1       7.661  48.076  72.729  1.00  0.00     0.006 C 
BRANCH  21  22
HETATM   22  C5  UNL     1       8.525  47.198  71.894  1.00  0.00    -0.014 A 
HETATM   23  C6  UNL     1       8.045  46.328  70.836  1.00  0.00     0.005 A 
HETATM   24  C7  UNL     1       8.404  45.684  72.149  1.00  0.00     0.005 A 
ENDBRANCH  21  22
ENDBRANCH  20  21
ENDBRANCH  19  20
ENDBRANCH  16  19
ENDBRANCH   1  13
TORSDOF 5
ENDMDL
MODEL 2
REMARK VINA RESULT: -6.756927133      1.241      1.796
REMARK  5 active torsions:
REMARK  status: ('A' for Active; 'I' for Inactive)
REMARK       I    between atoms: C1_2  and  N1_3 
REMARK       I    between atoms: C1_2  and  N2_11 
REMARK    1  A    between atoms: N1_3  and  C2_5 
REMARK    2  A    between atoms: C2_5  and  C3_6 
REMARK    3  A    between atoms: C3_6  and  C4_7 
REMARK    4  A    between atoms: C4_7  and  C5_8 
REMARK    5  A    between atoms: N2_11  and  C8_13 
ROOT
HETATM    1  C8  UNL     1       5.357  53.920  72.402  1.00  0.00     0.108 C 
HETATM    2  C9  UNL     1       4.051  53.257  72.479  1.00  0.00     0.032 C 
HETATM    3  C10 UNL     1       2.843  54.102  72.291  1.00  0.00    -0.010 C 
HETATM    4  C11 UNL     1       2.787  55.328  73.136  1.00  0.00     0.009 C 
HETATM    5  C12 UNL     1       3.461  56.529  72.570  1.00  0.00    -0.010 C 
HETATM    6  C13 UNL     1       3.059  56.813  71.136  1.00  0.00     0.029 C 
HETATM    7  C14 UNL     1       3.396  55.574  70.339  1.00  0.00     0.077 C 
HETATM    8  C15 UNL     1       2.560  54.428  70.840  1.00  0.00     0.029 C 
HETATM    9  N3  UNL     1       4.764  55.205  70.384  1.00  0.00    -0.411 N 
ATOM     10  H3  UNL     1       5.273  54.938  69.542  1.00  0.00     0.154 HD
HETATM   11  C16 UNL     1       5.393  55.225  71.654  1.00  0.00     0.100 C 
HETATM   12  C17 UNL     1       4.948  56.313  72.578  1.00  0.00     0.031 C 
ENDROOT
BRANCH   1  13
HETATM   13  N2  UNL     1       6.369  53.058  71.799  1.00  0.00    -0.337 N 
HETATM   14  C1  UNL     1       6.900  51.930  72.480  1.00  0.00     0.316 C 
HETATM   15  O1  UNL     1       6.457  51.693  73.652  1.00  0.00    -0.247 OA
HETATM   16  N1  UNL     1       7.883  51.105  71.874  1.00  0.00    -0.343 N 
ATOM     17  H1  UNL     1       8.231  51.303  70.936  1.00  0.00     0.164 HD
ATOM     18  H2  UNL     1       6.704  53.272  70.860  1.00  0.00     0.164 HD
BRANCH  16  19
HETATM   19  C2  UNL     1       8.376  49.977  72.629  1.00  0.00     0.124 C 
BRANCH  19  20
HETATM   20  C3  UNL     1       8.742  48.805  71.771  1.00  0.00     0.020 C 
BRANCH  20  21
HETATM   21  C4  UNL     1       8.030  47.536  72.143  1.00  0.00     0.006 C 
BRANCH  21  22
HETATM   22  C5  UNL     1       8.290  46.400  71.218  1.00  0.00    -0.014 A 
HETATM   23  C6  UNL     1       7.695  46.252  69.902  1.00  0.00     0.005 A 
HETATM   24  C7  UNL     1       7.128  45.410  71.013  1.00  0.00     0.005 A 
ENDBRANCH  21  22
ENDBRANCH  20  21
ENDBRANCH  19  20
ENDBRANCH  16  19
ENDBRANCH   1  13
TORSDOF 5
ENDMDL
MODEL 3
REMARK VINA RESULT: -6.678774736      1.329      2.289
REMARK  5 active torsions:
REMARK  status: ('A' for Active; 'I' for Inactive)
REMARK       I    between atoms: C1_2  and  N1_3 
REMARK       I    between atoms: C1_2  and  N2_11 
REMARK    1  A    between atoms: N1_3  and  C2_5 
REMARK    2  A    between atoms: C2_5  and  C3_6 
REMARK    3  A    between atoms: C3_6  and  C4_7 
REMARK    4  A    between atoms: C4_7  and  C5_8 
REMARK    5  A    between atoms: N2_11  and  C8_13 
ROOT
HETATM    1  C8  UNL     1       5.243  54.223  71.683  1.00  0.00     0.108 C 
HETATM    2  C9  UNL     1       5.465  55.470  72.424  1.00  0.00     0.032 C 
HETATM    3  C10 UNL     1       4.681  56.662  72.009  1.00  0.00    -0.010 C 
HETATM    4  C11 UNL     1       4.728  56.978  70.553  1.00  0.00     0.009 C 
HETATM    5  C12 UNL     1       3.719  56.278  69.711  1.00  0.00    -0.010 C 
HETATM    6  C13 UNL     1       2.312  56.381  70.266  1.00  0.00     0.029 C 
HETATM    7  C14 UNL     1       2.353  55.801  71.660  1.00  0.00     0.077 C 
HETATM    8  C15 UNL     1       3.255  56.648  72.516  1.00  0.00     0.029 C 
HETATM    9  N3  UNL     1       2.789  54.453  71.719  1.00  0.00    -0.411 N 
ATOM     10  H3  UNL     1       2.303  53.759  72.287  1.00  0.00     0.154 HD
HETATM   11  C16 UNL     1       3.932  54.113  70.953  1.00  0.00     0.100 C 
HETATM   12  C17 UNL     1       4.061  54.816  69.640  1.00  0.00     0.031 C 
ENDROOT
BRANCH   1  13
HETATM   13  N2  UNL     1       5.346  53.052  72.547  1.00  0.00    -0.337 N 
HETATM   14  C1  UNL     1       6.440  52.150  72.465  1.00  0.00     0.316 C 
HETATM   15  O1  UNL     1       7.342  52.402  71.598  1.00  0.00    -0.247 OA
HETATM   16  N1  UNL     1       6.521  51.016  73.316  1.00  0.00    -0.343 N 
ATOM     17  H1  UNL     1       5.796  50.824  74.006  1.00  0.00     0.164 HD
ATOM     18  H2  UNL     1       4.611  52.876  73.231  1.00  0.00     0.164 HD
BRANCH  16  19
HETATM   19  C2  UNL     1       7.664  50.144  73.172  1.00  0.00     0.124 C 
BRANCH  19  20
HETATM   20  C3  UNL     1       7.308  48.690  73.216  1.00  0.00     0.020 C 
BRANCH  20  21
HETATM   21  C4  UNL     1       8.076  47.849  72.238  1.00  0.00     0.006 C 
BRANCH  21  22
HETATM   22  C5  UNL     1       7.281  46.751  71.625  1.00  0.00    -0.014 A 
HETATM   23  C6  UNL     1       7.688  45.358  71.582  1.00  0.00     0.005 A 
HETATM   24  C7  UNL     1       7.835  46.159  70.315  1.00  0.00     0.005 A 
ENDBRANCH  21  22
ENDBRANCH  20  21
ENDBRANCH  19  20
ENDBRANCH  16  19
ENDBRANCH   1  13
TORSDOF 5
ENDMDL
MODEL 4
REMARK VINA RESULT: -6.525218101      1.318      2.336
REMARK  5 active torsions:
REMARK  status: ('A' for Active; 'I' for Inactive)
REMARK       I    between atoms: C1_2  and  N1_3 
REMARK       I    between atoms: C1_2  and  N2_11 
REMARK    1  A    between atoms: N1_3  and  C2_5 
REMARK    2  A    between atoms: C2_5  and  C3_6 
REMARK    3  A    between atoms: C3_6  and  C4_7 
REMARK    4  A    between atoms: C4_7  and  C5_8 
REMARK    5  A    between atoms: N2_11  and  C8_13 
ROOT
HETATM    1  C8  UNL     1       4.978  55.481  71.389  1.00  0.00     0.108 C 
HETATM    2  C9  UNL     1       4.879  56.463  72.474  1.00  0.00     0.032 C 
HETATM    3  C10 UNL     1       4.200  57.749  72.173  1.00  0.00    -0.010 C 
HETATM    4  C11 UNL     1       4.690  58.457  70.956  1.00  0.00     0.009 C 
HETATM    5  C12 UNL     1       4.045  58.055  69.676  1.00  0.00    -0.010 C 
HETATM    6  C13 UNL     1       2.530  58.047  69.753  1.00  0.00     0.029 C 
HETATM    7  C14 UNL     1       2.159  57.101  70.870  1.00  0.00     0.077 C 
HETATM    8  C15 UNL     1       2.690  57.644  72.168  1.00  0.00     0.029 C 
HETATM    9  N3  UNL     1       2.632  55.775  70.693  1.00  0.00    -0.411 N 
ATOM     10  H3  UNL     1       2.031  54.968  70.861  1.00  0.00     0.154 HD
HETATM   11  C16 UNL     1       3.977  55.623  70.275  1.00  0.00     0.100 C 
HETATM   12  C17 UNL     1       4.476  56.660  69.319  1.00  0.00     0.031 C 
ENDROOT
BRANCH   1  13
HETATM   13  N2  UNL     1       4.869  54.112  71.883  1.00  0.00    -0.337 N 
HETATM   14  C1  UNL     1       6.013  53.339  72.219  1.00  0.00     0.316 C 
HETATM   15  O1  UNL     1       7.154  53.890  72.071  1.00  0.00    -0.247 OA
HETATM   16  N1  UNL     1       5.883  52.010  72.698  1.00  0.00    -0.343 N 
ATOM     17  H1  UNL     1       4.966  51.578  72.813  1.00  0.00     0.164 HD
ATOM     18  H2  UNL     1       3.944  53.698  71.991  1.00  0.00     0.164 HD
BRANCH  16  19
HETATM   19  C2  UNL     1       7.092  51.287  73.018  1.00  0.00     0.124 C 
BRANCH  19  20
HETATM   20  C3  UNL     1       6.857  49.834  73.297  1.00  0.00     0.020 C 
BRANCH  20  21
HETATM   21  C4  UNL     1       8.023  48.954  72.949  1.00  0.00     0.006 C 
BRANCH  21  22
HETATM   22  C5  UNL     1       7.639  47.618  72.419  1.00  0.00    -0.014 A 
HETATM   23  C6  UNL     1       8.487  46.439  72.452  1.00  0.00     0.005 A 
HETATM   24  C7  UNL     1       8.361  47.161  71.137  1.00  0.00     0.005 A 
ENDBRANCH  21  22
ENDBRANCH  20  21
ENDBRANCH  19  20
ENDBRANCH  16  19
ENDBRANCH   1  13
TORSDOF 5
ENDMDL
MODEL 5
REMARK VINA RESULT: -6.488012141      2.389      3.365
REMARK  5 active torsions:
REMARK  status: ('A' for Active; 'I' for Inactive)
REMARK       I    between atoms: C1_2  and  N1_3 
REMARK       I    between atoms: C1_2  and  N2_11 
REMARK    1  A    between atoms: N1_3  and  C2_5 
REMARK    2  A    between atoms: C2_5  and  C3_6 
REMARK    3  A    between atoms: C3_6  and  C4_7 
REMARK    4  A    between atoms: C4_7  and  C5_8 
REMARK    5  A    between atoms: N2_11  and  C8_13 
ROOT
HETATM    1  C8  UNL     1       5.177  53.186  72.772  1.00  0.00     0.108 C 
HETATM    2  C9  UNL     1       4.712  51.899  73.300  1.00  0.00     0.032 C 
HETATM    3  C10 UNL     1       3.245  51.705  73.436  1.00  0.00    -0.010 C 
HETATM    4  C11 UNL     1       2.526  52.788  74.165  1.00  0.00     0.009 C 
HETATM    5  C12 UNL     1       2.087  53.941  73.332  1.00  0.00    -0.010 C 
HETATM    6  C13 UNL     1       1.348  53.518  72.078  1.00  0.00     0.029 C 
HETATM    7  C14 UNL     1       2.284  52.616  71.308  1.00  0.00     0.077 C 
HETATM    8  C15 UNL     1       2.559  51.384  72.126  1.00  0.00     0.029 C 
HETATM    9  N3  UNL     1       3.516  53.221  70.951  1.00  0.00    -0.411 N 
ATOM     10  H3  UNL     1       3.906  53.124  70.014  1.00  0.00     0.154 HD
HETATM   11  C16 UNL     1       4.181  53.965  71.957  1.00  0.00     0.100 C 
HETATM   12  C17 UNL     1       3.293  54.723  72.892  1.00  0.00     0.031 C 
ENDROOT
BRANCH   1  13
HETATM   13  N2  UNL     1       6.372  53.035  71.948  1.00  0.00    -0.337 N 
HETATM   14  C1  UNL     1       7.344  52.033  72.208  1.00  0.00     0.316 C 
HETATM   15  O1  UNL     1       7.135  51.259  73.200  1.00  0.00    -0.247 OA
HETATM   16  N1  UNL     1       8.500  51.905  71.394  1.00  0.00    -0.343 N 
ATOM     17  H1  UNL     1       8.658  52.529  70.603  1.00  0.00     0.164 HD
ATOM     18  H2  UNL     1       6.514  53.669  71.162  1.00  0.00     0.164 HD
BRANCH  16  19
HETATM   19  C2  UNL     1       9.444  50.862  71.721  1.00  0.00     0.124 C 
BRANCH  19  20
HETATM   20  C3  UNL     1       9.229  49.602  70.941  1.00  0.00     0.020 C 
BRANCH  20  21
HETATM   21  C4  UNL     1       8.747  48.448  71.774  1.00  0.00     0.006 C 
BRANCH  21  22
HETATM   22  C5  UNL     1       8.962  47.116  71.147  1.00  0.00    -0.014 A 
HETATM   23  C6  UNL     1       7.973  46.404  70.357  1.00  0.00     0.005 A 
HETATM   24  C7  UNL     1       8.190  45.938  71.772  1.00  0.00     0.005 A 
ENDBRANCH  21  22
ENDBRANCH  20  21
ENDBRANCH  19  20
ENDBRANCH  16  19
ENDBRANCH   1  13
TORSDOF 5
ENDMDL
