MODEL 1
REMARK VINA RESULT: -6.624246863      0.000      0.000
REMARK  10 active torsions:
REMARK  status: ('A' for Active; 'I' for Inactive)
REMARK    1  A    between atoms: C4_7  and  N3_8 
REMARK    2  A    between atoms: C5_13  and  N5_14 
REMARK    3  A    between atoms: N7_20  and  C7_21 
REMARK    4  A    between atoms: C7_21  and  O1_22 
REMARK    5  A    between atoms: O1_22  and  C8_23 
REMARK    6  A    between atoms: C8_23  and  C9_24 
REMARK    7  A    between atoms: C8_23  and  C10_27 
REMARK    8  A    between atoms: C9_24  and  O2_25 
REMARK    9  A    between atoms: C10_27  and  O3_28 
REMARK   10  A    between atoms: C11_30  and  N8_31 
ROOT
HETATM    1  N1  UNL     1     128.559-114.760 105.672  1.00  0.00    -0.190 NA
HETATM    2  C1  UNL     1     128.097-114.319 104.692  1.00  0.00     0.121 C 
HETATM    3  C2  UNL     1     127.526-113.793 103.490  1.00  0.00     0.159 A 
HETATM    4  N2  UNL     1     128.135-113.850 102.307  1.00  0.00    -0.339 N 
ATOM      5  H2  UNL     1     129.054-114.284 102.227  1.00  0.00     0.167 HD
HETATM    6  C3  UNL     1     127.540-113.337 101.220  1.00  0.00     0.123 A 
HETATM    7  C4  UNL     1     128.173-113.393 100.000  1.00  0.00     0.145 A 
HETATM    8  N4  UNL     1     127.577-112.876  98.920  1.00  0.00    -0.175 N 
ATOM      9  H4  UNL     1     128.032-112.907  98.008  1.00  0.00     0.186 HD
HETATM   10  C5  UNL     1     126.372-112.318  99.064  1.00  0.00     0.679 A 
HETATM   11  N6  UNL     1     125.720-112.243 100.237  1.00  0.00    -0.174 N 
ATOM     12  H6  UNL     1     124.800-111.804 100.285  1.00  0.00     0.186 HD
HETATM   13  C6  UNL     1     126.284-112.747 101.339  1.00  0.00     0.157 A 
HETATM   14  N7  UNL     1     125.641-112.674 102.510  1.00  0.00    -0.292 N 
HETATM   15  C11 UNL     1     126.272-113.203 103.593  1.00  0.00     0.142 A 
ENDROOT
BRANCH  15  16
HETATM   16  N8  UNL     1     125.649-113.128 104.719  1.00  0.00    -0.383 N 
ATOM     17  H82 UNL     1     125.320-114.007 105.118  1.00  0.00     0.157 HD
ATOM     18  H81 UNL     1     125.492-112.235 105.187  1.00  0.00     0.157 HD
ENDBRANCH  15  16
BRANCH  14  19
HETATM   19  C7  UNL     1     124.343-112.087 102.682  1.00  0.00     0.302 C 
BRANCH  19  20
HETATM   20  O1  UNL     1     123.385-113.051 102.289  1.00  0.00    -0.362 OA
BRANCH  20  21
HETATM   21  C8  UNL     1     122.352-113.158 103.174  1.00  0.00     0.170 C 
BRANCH  21  22
HETATM   22  C9  UNL     1     122.529-112.333 104.425  1.00  0.00     0.198 C 
BRANCH  22  23
HETATM   23  O2  UNL     1     121.777-112.852 105.470  1.00  0.00    -0.398 OA
ATOM     24  H2  UNL     1     122.312-112.966 106.247  1.00  0.00     0.209 HD
ENDBRANCH  22  23
ENDBRANCH  21  22
BRANCH  21  25
HETATM   25  C10 UNL     1     122.236-114.615 103.628  1.00  0.00     0.198 C 
BRANCH  25  26
HETATM   26  O3  UNL     1     123.290-114.909 104.521  1.00  0.00    -0.398 OA
ATOM     27  H3  UNL     1     123.429-115.848 104.542  1.00  0.00     0.209 HD
ENDBRANCH  25  26
ENDBRANCH  21  25
ENDBRANCH  20  21
ENDBRANCH  19  20
ENDBRANCH  14  19
BRANCH   7  28
HETATM   28  N3  UNL     1     129.339-113.932  99.852  1.00  0.00    -0.383 N 
ATOM     29  H32 UNL     1     129.433-114.931 100.036  1.00  0.00     0.157 HD
ATOM     30  H31 UNL     1     130.155-113.393  99.559  1.00  0.00     0.157 HD
ENDBRANCH   7  28
BRANCH  10  31
HETATM   31  N5  UNL     1     125.803-111.816  97.996  1.00  0.00    -0.234 N 
ATOM     32  H52 UNL     1     126.386-111.599  97.187  1.00  0.00     0.174 HD
ATOM     33  H51 UNL     1     124.794-111.667  98.023  1.00  0.00     0.174 HD
ENDBRANCH  10  31
TORSDOF 10
ENDMDL
MODEL 2
REMARK VINA RESULT: -6.449477009      3.645      6.680
REMARK  10 active torsions:
REMARK  status: ('A' for Active; 'I' for Inactive)
REMARK    1  A    between atoms: C4_7  and  N3_8 
REMARK    2  A    between atoms: C5_13  and  N5_14 
REMARK    3  A    between atoms: N7_20  and  C7_21 
REMARK    4  A    between atoms: C7_21  and  O1_22 
REMARK    5  A    between atoms: O1_22  and  C8_23 
REMARK    6  A    between atoms: C8_23  and  C9_24 
REMARK    7  A    between atoms: C8_23  and  C10_27 
REMARK    8  A    between atoms: C9_24  and  O2_25 
REMARK    9  A    between atoms: C10_27  and  O3_28 
REMARK   10  A    between atoms: C11_30  and  N8_31 
ROOT
HETATM    1  N1  UNL     1     124.775-110.752  97.309  1.00  0.00    -0.190 NA
HETATM    2  C1  UNL     1     125.296-111.141  98.281  1.00  0.00     0.121 C 
HETATM    3  C2  UNL     1     125.935-111.632  99.463  1.00  0.00     0.159 A 
HETATM    4  N2  UNL     1     125.273-112.209 100.465  1.00  0.00    -0.339 N 
ATOM      5  H2  UNL     1     124.261-112.318 100.410  1.00  0.00     0.167 HD
HETATM    6  C3  UNL     1     125.937-112.646 101.544  1.00  0.00     0.123 A 
HETATM    7  C4  UNL     1     125.250-113.238 102.579  1.00  0.00     0.145 A 
HETATM    8  N4  UNL     1     125.917-113.670 103.656  1.00  0.00    -0.175 N 
ATOM      9  H4  UNL     1     125.424-114.109 104.433  1.00  0.00     0.186 HD
HETATM   10  C5  UNL     1     127.243-113.511 103.689  1.00  0.00     0.679 A 
HETATM   11  N6  UNL     1     127.951-112.939 102.701  1.00  0.00    -0.174 N 
ATOM     12  H6  UNL     1     128.964-112.844 102.783  1.00  0.00     0.186 HD
HETATM   13  C6  UNL     1     127.320-112.494 101.609  1.00  0.00     0.157 A 
HETATM   14  N7  UNL     1     128.019-111.921 100.622  1.00  0.00    -0.292 N 
HETATM   15  C11 UNL     1     127.315-111.487  99.541  1.00  0.00     0.142 A 
ENDROOT
BRANCH  15  16
HETATM   16  N8  UNL     1     127.993-110.935  98.594  1.00  0.00    -0.383 N 
ATOM     17  H82 UNL     1     127.464-110.406  97.902  1.00  0.00     0.157 HD
ATOM     18  H81 UNL     1     129.008-111.023  98.540  1.00  0.00     0.157 HD
ENDBRANCH  15  16
BRANCH  14  19
HETATM   19  C7  UNL     1     129.443-111.751 100.636  1.00  0.00     0.302 C 
BRANCH  19  20
HETATM   20  O1  UNL     1     129.764-110.950 101.757  1.00  0.00    -0.362 OA
BRANCH  20  21
HETATM   21  C8  UNL     1     129.737-109.615 101.477  1.00  0.00     0.170 C 
BRANCH  21  22
HETATM   22  C9  UNL     1     131.098-109.016 101.218  1.00  0.00     0.198 C 
BRANCH  22  23
HETATM   23  O2  UNL     1     131.034-107.630 101.205  1.00  0.00    -0.398 OA
ATOM     24  H2  UNL     1     131.901-107.250 101.288  1.00  0.00     0.209 HD
ENDBRANCH  22  23
ENDBRANCH  21  22
BRANCH  21  25
HETATM   25  C10 UNL     1     129.156-108.866 102.678  1.00  0.00     0.198 C 
BRANCH  25  26
HETATM   26  O3  UNL     1     128.367-107.789 102.217  1.00  0.00    -0.398 OA
ATOM     27  H3  UNL     1     127.452-108.045 102.226  1.00  0.00     0.209 HD
ENDBRANCH  25  26
ENDBRANCH  21  25
ENDBRANCH  20  21
ENDBRANCH  19  20
ENDBRANCH  14  19
BRANCH   7  28
HETATM   28  N3  UNL     1     123.967-113.397 102.554  1.00  0.00    -0.383 N 
ATOM     29  H32 UNL     1     123.601-114.293 102.234  1.00  0.00     0.157 HD
ATOM     30  H31 UNL     1     123.321-112.661 102.844  1.00  0.00     0.157 HD
ENDBRANCH   7  28
BRANCH  10  31
HETATM   31  N5  UNL     1     127.880-113.939 104.751  1.00  0.00    -0.234 N 
ATOM     32  H52 UNL     1     128.587-113.337 105.174  1.00  0.00     0.174 HD
ATOM     33  H51 UNL     1     127.635-114.862 105.109  1.00  0.00     0.174 HD
ENDBRANCH  10  31
TORSDOF 10
ENDMDL
MODEL 3
REMARK VINA RESULT: -6.424582787      1.346      4.019
REMARK  10 active torsions:
REMARK  status: ('A' for Active; 'I' for Inactive)
REMARK    1  A    between atoms: C4_7  and  N3_8 
REMARK    2  A    between atoms: C5_13  and  N5_14 
REMARK    3  A    between atoms: N7_20  and  C7_21 
REMARK    4  A    between atoms: C7_21  and  O1_22 
REMARK    5  A    between atoms: O1_22  and  C8_23 
REMARK    6  A    between atoms: C8_23  and  C9_24 
REMARK    7  A    between atoms: C8_23  and  C10_27 
REMARK    8  A    between atoms: C9_24  and  O2_25 
REMARK    9  A    between atoms: C10_27  and  O3_28 
REMARK   10  A    between atoms: C11_30  and  N8_31 
ROOT
HETATM    1  N1  UNL     1     124.967-110.727  97.758  1.00  0.00    -0.190 NA
HETATM    2  C1  UNL     1     125.267-111.235  98.768  1.00  0.00     0.121 C 
HETATM    3  C2  UNL     1     125.642-111.842 100.008  1.00  0.00     0.159 A 
HETATM    4  N2  UNL     1     126.768-112.534 100.170  1.00  0.00    -0.339 N 
ATOM      5  H2  UNL     1     127.412-112.651  99.388  1.00  0.00     0.167 HD
HETATM    6  C3  UNL     1     127.057-113.078 101.361  1.00  0.00     0.123 A 
HETATM    7  C4  UNL     1     128.219-113.795 101.525  1.00  0.00     0.145 A 
HETATM    8  N4  UNL     1     128.500-114.338 102.715  1.00  0.00    -0.175 N 
ATOM      9  H4  UNL     1     129.356-114.874 102.854  1.00  0.00     0.186 HD
HETATM   10  C5  UNL     1     127.633-114.161 103.716  1.00  0.00     0.679 A 
HETATM   11  N6  UNL     1     126.488-113.468 103.598  1.00  0.00    -0.174 N 
ATOM     12  H6  UNL     1     125.864-113.367 104.399  1.00  0.00     0.186 HD
HETATM   13  C6  UNL     1     126.172-112.911 102.424  1.00  0.00     0.157 A 
HETATM   14  N7  UNL     1     125.032-112.221 102.299  1.00  0.00    -0.292 N 
HETATM   15  C11 UNL     1     124.769-111.685 101.077  1.00  0.00     0.142 A 
ENDROOT
BRANCH  15  16
HETATM   16  N8  UNL     1     123.669-111.022 100.962  1.00  0.00    -0.383 N 
ATOM     17  H82 UNL     1     123.750-110.050 100.665  1.00  0.00     0.157 HD
ATOM     18  H81 UNL     1     122.763-111.448 101.158  1.00  0.00     0.157 HD
ENDBRANCH  15  16
BRANCH  14  19
HETATM   19  C7  UNL     1     124.095-112.014 103.365  1.00  0.00     0.302 C 
BRANCH  19  20
HETATM   20  O1  UNL     1     123.268-113.159 103.434  1.00  0.00    -0.362 OA
BRANCH  20  21
HETATM   21  C8  UNL     1     122.692-113.320 104.660  1.00  0.00     0.170 C 
BRANCH  21  22
HETATM   22  C9  UNL     1     123.606-113.937 105.690  1.00  0.00     0.198 C 
BRANCH  22  23
HETATM   23  O2  UNL     1     124.266-115.040 105.168  1.00  0.00    -0.398 OA
ATOM     24  H2  UNL     1     125.142-114.807 104.883  1.00  0.00     0.209 HD
ENDBRANCH  22  23
ENDBRANCH  21  22
BRANCH  21  25
HETATM   25  C10 UNL     1     121.493-114.261 104.526  1.00  0.00     0.198 C 
BRANCH  25  26
HETATM   26  O3  UNL     1     121.392-115.056 105.689  1.00  0.00    -0.398 OA
ATOM     27  H3  UNL     1     120.762-114.664 106.282  1.00  0.00     0.209 HD
ENDBRANCH  25  26
ENDBRANCH  21  25
ENDBRANCH  20  21
ENDBRANCH  19  20
ENDBRANCH  14  19
BRANCH   7  28
HETATM   28  N3  UNL     1     129.064-113.970 100.562  1.00  0.00    -0.383 N 
ATOM     29  H32 UNL     1     129.586-113.160 100.229  1.00  0.00     0.157 HD
ATOM     30  H31 UNL     1     129.220-114.883 100.134  1.00  0.00     0.157 HD
ENDBRANCH   7  28
BRANCH  10  31
HETATM   31  N5  UNL     1     127.925-114.700 104.875  1.00  0.00    -0.234 N 
ATOM     32  H52 UNL     1     128.672-114.286 105.433  1.00  0.00     0.174 HD
ATOM     33  H51 UNL     1     127.384-115.514 105.167  1.00  0.00     0.174 HD
ENDBRANCH  10  31
TORSDOF 10
ENDMDL
MODEL 4
REMARK VINA RESULT: -6.237422762      3.611      5.081
REMARK  10 active torsions:
REMARK  status: ('A' for Active; 'I' for Inactive)
REMARK    1  A    between atoms: C4_7  and  N3_8 
REMARK    2  A    between atoms: C5_13  and  N5_14 
REMARK    3  A    between atoms: N7_20  and  C7_21 
REMARK    4  A    between atoms: C7_21  and  O1_22 
REMARK    5  A    between atoms: O1_22  and  C8_23 
REMARK    6  A    between atoms: C8_23  and  C9_24 
REMARK    7  A    between atoms: C8_23  and  C10_27 
REMARK    8  A    between atoms: C9_24  and  O2_25 
REMARK    9  A    between atoms: C10_27  and  O3_28 
REMARK   10  A    between atoms: C11_30  and  N8_31 
ROOT
HETATM    1  N1  UNL     1     130.273-114.714  98.229  1.00  0.00    -0.190 NA
HETATM    2  C1  UNL     1     130.111-113.776  98.909  1.00  0.00     0.121 C 
HETATM    3  C2  UNL     1     129.907-112.621  99.729  1.00  0.00     0.159 A 
HETATM    4  N2  UNL     1     130.839-111.688  99.920  1.00  0.00    -0.339 N 
ATOM      5  H2  UNL     1     131.750-111.779  99.471  1.00  0.00     0.167 HD
HETATM    6  C3  UNL     1     130.580-110.631 100.702  1.00  0.00     0.123 A 
HETATM    7  C4  UNL     1     131.545-109.671 100.900  1.00  0.00     0.145 A 
HETATM    8  N4  UNL     1     131.283-108.619 101.684  1.00  0.00    -0.175 N 
ATOM      9  H4  UNL     1     131.986-107.899 101.844  1.00  0.00     0.186 HD
HETATM   10  C5  UNL     1     130.077-108.535 102.254  1.00  0.00     0.679 A 
HETATM   11  N6  UNL     1     129.107-109.450 102.086  1.00  0.00    -0.174 N 
ATOM     12  H6  UNL     1     128.204-109.332 102.547  1.00  0.00     0.186 HD
HETATM   13  C6  UNL     1     129.332-110.515 101.310  1.00  0.00     0.157 A 
HETATM   14  N7  UNL     1     128.371-111.432 101.140  1.00  0.00    -0.292 N 
HETATM   15  C11 UNL     1     128.667-112.493 100.342  1.00  0.00     0.142 A 
ENDROOT
BRANCH  15  16
HETATM   16  N8  UNL     1     127.738-113.373 100.183  1.00  0.00    -0.383 N 
ATOM     17  H82 UNL     1     126.910-113.075  99.669  1.00  0.00     0.157 HD
ATOM     18  H81 UNL     1     127.828-114.320 100.553  1.00  0.00     0.157 HD
ENDBRANCH  15  16
BRANCH  14  19
HETATM   19  C7  UNL     1     127.069-111.353 101.736  1.00  0.00     0.302 C 
BRANCH  19  20
HETATM   20  O1  UNL     1     127.244-111.316 103.139  1.00  0.00    -0.362 OA
BRANCH  20  21
HETATM   21  C8  UNL     1     126.688-112.392 103.768  1.00  0.00     0.170 C 
BRANCH  21  22
HETATM   22  C9  UNL     1     127.630-113.561 103.928  1.00  0.00     0.198 C 
BRANCH  22  23
HETATM   23  O2  UNL     1     127.367-114.540 102.980  1.00  0.00    -0.398 OA
ATOM     24  H2  UNL     1     128.028-114.536 102.297  1.00  0.00     0.209 HD
ENDBRANCH  22  23
ENDBRANCH  21  22
BRANCH  21  25
HETATM   25  C10 UNL     1     125.507-112.898 102.937  1.00  0.00     0.198 C 
BRANCH  25  26
HETATM   26  O3  UNL     1     124.688-113.718 103.745  1.00  0.00    -0.398 OA
ATOM     27  H3  UNL     1     123.786-113.640 103.457  1.00  0.00     0.209 HD
ENDBRANCH  25  26
ENDBRANCH  21  25
ENDBRANCH  20  21
ENDBRANCH  19  20
ENDBRANCH  14  19
BRANCH   7  28
HETATM   28  N3  UNL     1     132.714-109.744 100.352  1.00  0.00    -0.383 N 
ATOM     29  H32 UNL     1     133.529-109.550 100.934  1.00  0.00     0.157 HD
ATOM     30  H31 UNL     1     132.841-109.988  99.369  1.00  0.00     0.157 HD
ENDBRANCH   7  28
BRANCH  10  31
HETATM   31  N5  UNL     1     129.837-107.499 103.019  1.00  0.00    -0.234 N 
ATOM     32  H52 UNL     1     130.615-106.892 103.280  1.00  0.00     0.174 HD
ATOM     33  H51 UNL     1     128.874-107.345 103.319  1.00  0.00     0.174 HD
ENDBRANCH  10  31
TORSDOF 10
ENDMDL
MODEL 5
REMARK VINA RESULT: -6.211694341      3.495      6.974
REMARK  10 active torsions:
REMARK  status: ('A' for Active; 'I' for Inactive)
REMARK    1  A    between atoms: C4_7  and  N3_8 
REMARK    2  A    between atoms: C5_13  and  N5_14 
REMARK    3  A    between atoms: N7_20  and  C7_21 
REMARK    4  A    between atoms: C7_21  and  O1_22 
REMARK    5  A    between atoms: O1_22  and  C8_23 
REMARK    6  A    between atoms: C8_23  and  C9_24 
REMARK    7  A    between atoms: C8_23  and  C10_27 
REMARK    8  A    between atoms: C9_24  and  O2_25 
REMARK    9  A    between atoms: C10_27  and  O3_28 
REMARK   10  A    between atoms: C11_30  and  N8_31 
ROOT
HETATM    1  N1  UNL     1     124.866-110.734  98.084  1.00  0.00    -0.190 NA
HETATM    2  C1  UNL     1     125.385-111.277  98.982  1.00  0.00     0.121 C 
HETATM    3  C2  UNL     1     126.011-111.954 100.075  1.00  0.00     0.159 A 
HETATM    4  N2  UNL     1     125.523-111.945 101.315  1.00  0.00    -0.339 N 
ATOM      5  H2  UNL     1     124.662-111.437 101.520  1.00  0.00     0.167 HD
HETATM    6  C3  UNL     1     126.162-112.602 102.293  1.00  0.00     0.123 A 
HETATM    7  C4  UNL     1     125.658-112.588 103.572  1.00  0.00     0.145 A 
HETATM    8  N4  UNL     1     126.301-113.242 104.546  1.00  0.00    -0.175 N 
ATOM      9  H4  UNL     1     125.943-113.241 105.501  1.00  0.00     0.186 HD
HETATM   10  C5  UNL     1     127.425-113.898 104.237  1.00  0.00     0.679 A 
HETATM   11  N6  UNL     1     127.950-113.937 103.001  1.00  0.00    -0.174 N 
ATOM     12  H6  UNL     1     128.811-114.455 102.826  1.00  0.00     0.186 HD
HETATM   13  C6  UNL     1     127.336-113.294 102.003  1.00  0.00     0.157 A 
HETATM   14  N7  UNL     1     127.854-113.327 100.769  1.00  0.00    -0.292 N 
HETATM   15  C11 UNL     1     127.182-112.649  99.800  1.00  0.00     0.142 A 
ENDROOT
BRANCH  15  16
HETATM   16  N8  UNL     1     127.687-112.684  98.615  1.00  0.00    -0.383 N 
ATOM     17  H82 UNL     1     127.353-111.981  97.955  1.00  0.00     0.157 HD
ATOM     18  H81 UNL     1     128.386-113.378  98.350  1.00  0.00     0.157 HD
ENDBRANCH  15  16
BRANCH  14  19
HETATM   19  C7  UNL     1     129.053-114.033 100.418  1.00  0.00     0.302 C 
BRANCH  19  20
HETATM   20  O1  UNL     1     130.149-113.225 100.799  1.00  0.00    -0.362 OA
BRANCH  20  21
HETATM   21  C8  UNL     1     130.925-112.855  99.739  1.00  0.00     0.170 C 
BRANCH  21  22
HETATM   22  C9  UNL     1     132.235-113.599  99.650  1.00  0.00     0.198 C 
BRANCH  22  23
HETATM   23  O2  UNL     1     132.989-113.413 100.800  1.00  0.00    -0.398 OA
ATOM     24  H2  UNL     1     133.609-112.702 100.686  1.00  0.00     0.209 HD
ENDBRANCH  22  23
ENDBRANCH  21  22
BRANCH  21  25
HETATM   25  C10 UNL     1     131.277-111.372  99.874  1.00  0.00     0.198 C 
BRANCH  25  26
HETATM   26  O3  UNL     1     131.305-111.023 101.242  1.00  0.00    -0.398 OA
ATOM     27  H3  UNL     1     131.204-110.083 101.327  1.00  0.00     0.209 HD
ENDBRANCH  25  26
ENDBRANCH  21  25
ENDBRANCH  20  21
ENDBRANCH  19  20
ENDBRANCH  14  19
BRANCH   7  28
HETATM   28  N3  UNL     1     124.571-111.957 103.880  1.00  0.00    -0.383 N 
ATOM     29  H32 UNL     1     124.025-112.300 104.669  1.00  0.00     0.157 HD
ATOM     30  H31 UNL     1     124.252-111.138 103.362  1.00  0.00     0.157 HD
ENDBRANCH   7  28
BRANCH  10  31
HETATM   31  N5  UNL     1     128.042-114.533 105.203  1.00  0.00    -0.234 N 
ATOM     32  H52 UNL     1     127.518-115.213 105.754  1.00  0.00     0.174 HD
ATOM     33  H51 UNL     1     129.027-114.317 105.357  1.00  0.00     0.174 HD
ENDBRANCH  10  31
TORSDOF 10
ENDMDL
