MODEL 1
REMARK VINA RESULT: -8.459125755      0.000      0.000
REMARK  7 active torsions:
REMARK  status: ('A' for Active; 'I' for Inactive)
REMARK    1  A    between atoms: N1_1  and  N2_4 
REMARK    2  A    between atoms: C2_11  and  C3_12 
REMARK    3  A    between atoms: N5_13  and  N6_15 
REMARK    4  A    between atoms: N6_15  and  C4_17 
REMARK    5  A    between atoms: C4_17  and  O2_18 
REMARK    6  A    between atoms: C4_17  and  C5_20 
REMARK    7  A    between atoms: C7_27  and  O4_28 
ROOT
HETATM    1  C3  UNL     1     124.153-112.454 102.393  1.00  0.00     0.143 C 
HETATM    2  N5  UNL     1     124.106-113.742 102.375  1.00  0.00    -0.311 N 
ATOM      3  H5  UNL     1     124.726-114.261 101.754  1.00  0.00     0.185 HD
ENDROOT
BRANCH   2   4
HETATM    4  N6  UNL     1     123.217-114.431 103.195  1.00  0.00    -0.302 N 
ATOM      5  H6  UNL     1     122.506-115.032 102.781  1.00  0.00     0.183 HD
BRANCH   4   6
HETATM    6  C4  UNL     1     123.300-114.297 104.633  1.00  0.00     0.288 C 
BRANCH   6   7
HETATM    7  O2  UNL     1     124.274-115.106 105.196  1.00  0.00    -0.370 OA
ATOM      8  H2  UNL     1     124.554-114.808 106.054  1.00  0.00     0.212 HD
ENDBRANCH   6   7
BRANCH   6   9
HETATM    9  C5  UNL     1     121.965-114.484 105.257  1.00  0.00     0.114 A 
HETATM   10  N7  UNL     1     120.766-114.625 104.643  1.00  0.00    -0.304 N 
HETATM   11  C6  UNL     1     119.809-114.770 105.578  1.00  0.00     0.326 A 
ATOM     12  H7  UNL     1     120.613-114.620 103.635  1.00  0.00     0.170 HD
HETATM   13  O3  UNL     1     118.572-114.924 105.299  1.00  0.00    -0.247 OA
HETATM   14  N8  UNL     1     120.363-114.728 106.803  1.00  0.00    -0.287 N 
HETATM   15  C7  UNL     1     121.693-114.551 106.604  1.00  0.00     0.171 A 
ATOM     16  H8  UNL     1     119.882-114.813 107.698  1.00  0.00     0.172 HD
BRANCH  15  17
HETATM   17  O4  UNL     1     122.640-114.454 107.630  1.00  0.00    -0.344 OA
ATOM     18  H4  UNL     1     122.460-114.554 108.558  1.00  0.00     0.219 HD
ENDBRANCH  15  17
ENDBRANCH   6   9
ENDBRANCH   4   6
ENDBRANCH   2   4
BRANCH   1  19
HETATM   19  C2  UNL     1     125.071-111.718 101.547  1.00  0.00     0.135 A 
HETATM   20  N4  UNL     1     124.629-111.053 100.466  1.00  0.00    -0.290 N 
HETATM   21  N3  UNL     1     125.447-110.376  99.680  1.00  0.00    -0.249 N 
ATOM     22  H4  UNL     1     123.633-111.071 100.245  1.00  0.00     0.187 HD
HETATM   23  C1  UNL     1     126.754-110.370  99.996  1.00  0.00     0.362 A 
ATOM     24  H3  UNL     1     125.100-109.875  98.862  1.00  0.00     0.192 HD
HETATM   25  N2  UNL     1     127.254-111.017 101.064  1.00  0.00    -0.172 N 
HETATM   26  O1  UNL     1     127.556-109.723  99.250  1.00  0.00    -0.243 OA
HETATM   27  C8  UNL     1     126.431-111.708 101.869  1.00  0.00     0.299 A 
HETATM   28  O5  UNL     1     126.841-112.335 102.887  1.00  0.00    -0.263 OA
BRANCH  25  29
HETATM   29  N1  UNL     1     128.619-111.000 101.378  1.00  0.00    -0.331 N 
ATOM     30  H12 UNL     1     129.285-111.183 100.628  1.00  0.00     0.177 HD
ATOM     31  H11 UNL     1     128.959-110.814 102.321  1.00  0.00     0.177 HD
ENDBRANCH  25  29
ENDBRANCH   1  19
TORSDOF 7
ENDMDL
MODEL 2
REMARK VINA RESULT: -8.424930582      1.710      2.522
REMARK  7 active torsions:
REMARK  status: ('A' for Active; 'I' for Inactive)
REMARK    1  A    between atoms: N1_1  and  N2_4 
REMARK    2  A    between atoms: C2_11  and  C3_12 
REMARK    3  A    between atoms: N5_13  and  N6_15 
REMARK    4  A    between atoms: N6_15  and  C4_17 
REMARK    5  A    between atoms: C4_17  and  O2_18 
REMARK    6  A    between atoms: C4_17  and  C5_20 
REMARK    7  A    between atoms: C7_27  and  O4_28 
ROOT
HETATM    1  C3  UNL     1     125.400-112.987 104.405  1.00  0.00     0.143 C 
HETATM    2  N5  UNL     1     124.739-114.040 104.066  1.00  0.00    -0.311 N 
ATOM      3  H5  UNL     1     124.782-114.375 103.104  1.00  0.00     0.185 HD
ENDROOT
BRANCH   2   4
HETATM    4  N6  UNL     1     123.967-114.725 104.999  1.00  0.00    -0.302 N 
ATOM      5  H6  UNL     1     124.126-115.720 105.159  1.00  0.00     0.183 HD
BRANCH   4   6
HETATM    6  C4  UNL     1     122.940-114.032 105.744  1.00  0.00     0.288 C 
BRANCH   6   7
HETATM    7  O2  UNL     1     122.993-114.285 107.105  1.00  0.00    -0.370 OA
ATOM      8  H2  UNL     1     122.237-114.762 107.424  1.00  0.00     0.212 HD
ENDBRANCH   6   7
BRANCH   6   9
HETATM    9  C5  UNL     1     121.598-114.295 105.162  1.00  0.00     0.114 A 
HETATM   10  N7  UNL     1     120.488-114.753 105.789  1.00  0.00    -0.304 N 
HETATM   11  C6  UNL     1     119.487-114.850 104.895  1.00  0.00     0.326 A 
ATOM     12  H7  UNL     1     120.422-114.987 106.780  1.00  0.00     0.170 HD
HETATM   13  O3  UNL     1     118.314-115.255 105.194  1.00  0.00    -0.247 OA
HETATM   14  N8  UNL     1     119.924-114.460 103.684  1.00  0.00    -0.287 N 
HETATM   15  C7  UNL     1     121.226-114.118 103.849  1.00  0.00     0.171 A 
ATOM     16  H8  UNL     1     119.386-114.427 102.818  1.00  0.00     0.172 HD
BRANCH  15  17
HETATM   17  O4  UNL     1     122.059-113.654 102.825  1.00  0.00    -0.344 OA
ATOM     18  H4  UNL     1     121.991-112.806 102.400  1.00  0.00     0.219 HD
ENDBRANCH  15  17
ENDBRANCH   6   9
ENDBRANCH   4   6
ENDBRANCH   2   4
BRANCH   1  19
HETATM   19  C2  UNL     1     126.209-112.260 103.448  1.00  0.00     0.135 A 
HETATM   20  N4  UNL     1     127.486-111.944 103.725  1.00  0.00    -0.290 N 
HETATM   21  N3  UNL     1     128.242-111.281 102.868  1.00  0.00    -0.249 N 
ATOM     22  H4  UNL     1     127.883-112.223 104.622  1.00  0.00     0.187 HD
HETATM   23  C1  UNL     1     127.692-110.927 101.694  1.00  0.00     0.362 A 
ATOM     24  H3  UNL     1     129.210-111.047 103.089  1.00  0.00     0.192 HD
HETATM   25  N2  UNL     1     126.421-111.214 101.362  1.00  0.00    -0.172 N 
HETATM   26  O1  UNL     1     128.406-110.288 100.856  1.00  0.00    -0.243 OA
HETATM   27  C8  UNL     1     125.644-111.888 102.225  1.00  0.00     0.299 A 
HETATM   28  O5  UNL     1     124.442-112.188 101.971  1.00  0.00    -0.263 OA
BRANCH  25  29
HETATM   29  N1  UNL     1     125.864-110.837 100.133  1.00  0.00    -0.331 N 
ATOM     30  H12 UNL     1     126.383-111.060  99.284  1.00  0.00     0.177 HD
ATOM     31  H11 UNL     1     124.970-110.352 100.065  1.00  0.00     0.177 HD
ENDBRANCH  25  29
ENDBRANCH   1  19
TORSDOF 7
ENDMDL
MODEL 3
REMARK VINA RESULT: -8.380896383      1.064      1.659
REMARK  7 active torsions:
REMARK  status: ('A' for Active; 'I' for Inactive)
REMARK    1  A    between atoms: N1_1  and  N2_4 
REMARK    2  A    between atoms: C2_11  and  C3_12 
REMARK    3  A    between atoms: N5_13  and  N6_15 
REMARK    4  A    between atoms: N6_15  and  C4_17 
REMARK    5  A    between atoms: C4_17  and  O2_18 
REMARK    6  A    between atoms: C4_17  and  C5_20 
REMARK    7  A    between atoms: C7_27  and  O4_28 
ROOT
HETATM    1  C3  UNL     1     124.714-112.545 102.808  1.00  0.00     0.143 C 
HETATM    2  N5  UNL     1     124.213-113.671 102.431  1.00  0.00    -0.311 N 
ATOM      3  H5  UNL     1     124.519-114.092 101.555  1.00  0.00     0.185 HD
ENDROOT
BRANCH   2   4
HETATM    4  N6  UNL     1     123.258-114.318 103.209  1.00  0.00    -0.302 N 
ATOM      5  H6  UNL     1     122.503-114.836 102.760  1.00  0.00     0.183 HD
BRANCH   4   6
HETATM    6  C4  UNL     1     123.333-114.260 104.652  1.00  0.00     0.288 C 
BRANCH   6   7
HETATM    7  O2  UNL     1     124.293-115.109 105.180  1.00  0.00    -0.370 OA
ATOM      8  H2  UNL     1     124.172-116.014 104.919  1.00  0.00     0.212 HD
ENDBRANCH   6   7
BRANCH   6   9
HETATM    9  C5  UNL     1     121.992-114.460 105.258  1.00  0.00     0.114 A 
HETATM   10  N7  UNL     1     120.800-114.593 104.629  1.00  0.00    -0.304 N 
HETATM   11  C6  UNL     1     119.832-114.757 105.549  1.00  0.00     0.326 A 
ATOM     12  H7  UNL     1     120.658-114.573 103.618  1.00  0.00     0.170 HD
HETATM   13  O3  UNL     1     118.599-114.908 105.254  1.00  0.00    -0.247 OA
HETATM   14  N8  UNL     1     120.373-114.733 106.781  1.00  0.00    -0.287 N 
HETATM   15  C7  UNL     1     121.704-114.550 106.601  1.00  0.00     0.171 A 
ATOM     16  H8  UNL     1     119.882-114.834 107.670  1.00  0.00     0.172 HD
BRANCH  15  17
HETATM   17  O4  UNL     1     122.639-114.467 107.639  1.00  0.00    -0.344 OA
ATOM     18  H4  UNL     1     122.483-114.081 108.493  1.00  0.00     0.219 HD
ENDBRANCH  15  17
ENDBRANCH   6   9
ENDBRANCH   4   6
ENDBRANCH   2   4
BRANCH   1  19
HETATM   19  C2  UNL     1     125.709-111.855 102.012  1.00  0.00     0.135 A 
HETATM   20  N4  UNL     1     127.000-111.832 102.390  1.00  0.00    -0.290 N 
HETATM   21  N3  UNL     1     127.924-111.209 101.681  1.00  0.00    -0.249 N 
ATOM     22  H4  UNL     1     127.273-112.309 103.249  1.00  0.00     0.187 HD
HETATM   23  C1  UNL     1     127.534-110.590 100.553  1.00  0.00     0.362 A 
ATOM     24  H3  UNL     1     128.899-111.198 101.978  1.00  0.00     0.192 HD
HETATM   25  N2  UNL     1     126.258-110.579 100.125  1.00  0.00    -0.172 N 
HETATM   26  O1  UNL     1     128.411-109.985  99.857  1.00  0.00    -0.243 OA
HETATM   27  C8  UNL     1     125.312-111.209 100.838  1.00  0.00     0.299 A 
HETATM   28  O5  UNL     1     124.097-111.234 100.488  1.00  0.00    -0.263 OA
BRANCH  25  29
HETATM   29  N1  UNL     1     125.870-109.929  98.947  1.00  0.00    -0.331 N 
ATOM     30  H12 UNL     1     126.145-108.954  98.825  1.00  0.00     0.177 HD
ATOM     31  H11 UNL     1     125.328-110.395  98.220  1.00  0.00     0.177 HD
ENDBRANCH  25  29
ENDBRANCH   1  19
TORSDOF 7
ENDMDL
MODEL 4
REMARK VINA RESULT: -8.379405188      1.931      7.653
REMARK  7 active torsions:
REMARK  status: ('A' for Active; 'I' for Inactive)
REMARK    1  A    between atoms: N1_1  and  N2_4 
REMARK    2  A    between atoms: C2_11  and  C3_12 
REMARK    3  A    between atoms: N5_13  and  N6_15 
REMARK    4  A    between atoms: N6_15  and  C4_17 
REMARK    5  A    between atoms: C4_17  and  O2_18 
REMARK    6  A    between atoms: C4_17  and  C5_20 
REMARK    7  A    between atoms: C7_27  and  O4_28 
ROOT
HETATM    1  C3  UNL     1     124.648-113.317 104.976  1.00  0.00     0.143 C 
HETATM    2  N5  UNL     1     125.474-114.204 104.538  1.00  0.00    -0.311 N 
ATOM      3  H5  UNL     1     125.222-115.191 104.577  1.00  0.00     0.185 HD
ENDROOT
BRANCH   2   4
HETATM    4  N6  UNL     1     126.706-113.828 104.012  1.00  0.00    -0.302 N 
ATOM      5  H6  UNL     1     127.476-113.594 104.638  1.00  0.00     0.183 HD
BRANCH   4   6
HETATM    6  C4  UNL     1     126.898-113.768 102.580  1.00  0.00     0.288 C 
BRANCH   6   7
HETATM    7  O2  UNL     1     127.750-114.752 102.106  1.00  0.00    -0.370 OA
ATOM      8  H2  UNL     1     128.489-114.912 102.680  1.00  0.00     0.212 HD
ENDBRANCH   6   7
BRANCH   6   9
HETATM    9  C5  UNL     1     127.305-112.402 102.160  1.00  0.00     0.114 A 
HETATM   10  N7  UNL     1     127.084-111.790 100.972  1.00  0.00    -0.304 N 
HETATM   11  C6  UNL     1     127.620-110.556 101.007  1.00  0.00     0.326 A 
ATOM     12  H7  UNL     1     126.591-112.199 100.178  1.00  0.00     0.170 HD
HETATM   13  O3  UNL     1     127.569-109.740 100.027  1.00  0.00    -0.247 OA
HETATM   14  N8  UNL     1     128.192-110.346 102.206  1.00  0.00    -0.287 N 
HETATM   15  C7  UNL     1     127.999-111.485 102.916  1.00  0.00     0.171 A 
ATOM     16  H8  UNL     1     128.674-109.502 102.518  1.00  0.00     0.172 HD
BRANCH  15  17
HETATM   17  O4  UNL     1     128.443-111.685 104.228  1.00  0.00    -0.344 OA
ATOM     18  H4  UNL     1     129.311-111.983 104.477  1.00  0.00     0.219 HD
ENDBRANCH  15  17
ENDBRANCH   6   9
ENDBRANCH   4   6
ENDBRANCH   2   4
BRANCH   1  19
HETATM   19  C2  UNL     1     123.361-113.688 105.528  1.00  0.00     0.135 A 
HETATM   20  N4  UNL     1     123.105-113.543 106.840  1.00  0.00    -0.290 N 
HETATM   21  N3  UNL     1     121.939-113.876 107.365  1.00  0.00    -0.249 N 
ATOM     22  H4  UNL     1     123.832-113.166 107.448  1.00  0.00     0.187 HD
HETATM   23  C1  UNL     1     121.001-114.369 106.539  1.00  0.00     0.362 A 
ATOM     24  H3  UNL     1     121.757-113.761 108.362  1.00  0.00     0.192 HD
HETATM   25  N2  UNL     1     121.198-114.537 105.219  1.00  0.00    -0.172 N 
HETATM   26  O1  UNL     1     119.872-114.695 107.028  1.00  0.00    -0.243 OA
HETATM   27  C8  UNL     1     122.380-114.203 104.676  1.00  0.00     0.299 A 
HETATM   28  O5  UNL     1     122.625-114.337 103.443  1.00  0.00    -0.263 OA
BRANCH  25  29
HETATM   29  N1  UNL     1     120.208-115.053 104.374  1.00  0.00    -0.331 N 
ATOM     30  H12 UNL     1     120.091-116.066 104.336  1.00  0.00     0.177 HD
ATOM     31  H11 UNL     1     119.613-114.454 103.802  1.00  0.00     0.177 HD
ENDBRANCH  25  29
ENDBRANCH   1  19
TORSDOF 7
ENDMDL
MODEL 5
REMARK VINA RESULT: -8.333989347      2.362      7.610
REMARK  7 active torsions:
REMARK  status: ('A' for Active; 'I' for Inactive)
REMARK    1  A    between atoms: N1_1  and  N2_4 
REMARK    2  A    between atoms: C2_11  and  C3_12 
REMARK    3  A    between atoms: N5_13  and  N6_15 
REMARK    4  A    between atoms: N6_15  and  C4_17 
REMARK    5  A    between atoms: C4_17  and  O2_18 
REMARK    6  A    between atoms: C4_17  and  C5_20 
REMARK    7  A    between atoms: C7_27  and  O4_28 
ROOT
HETATM    1  C3  UNL     1     123.616-112.975 104.849  1.00  0.00     0.143 C 
HETATM    2  N5  UNL     1     124.677-113.704 104.899  1.00  0.00    -0.311 N 
ATOM      3  H5  UNL     1     124.590-114.717 104.976  1.00  0.00     0.185 HD
ENDROOT
BRANCH   2   4
HETATM    4  N6  UNL     1     125.941-113.124 104.848  1.00  0.00    -0.302 N 
ATOM      5  H6  UNL     1     126.058-112.140 105.088  1.00  0.00     0.183 HD
BRANCH   4   6
HETATM    6  C4  UNL     1     127.088-113.912 104.458  1.00  0.00     0.288 C 
BRANCH   6   7
HETATM    7  O2  UNL     1     128.072-113.958 105.433  1.00  0.00    -0.370 OA
ATOM      8  H2  UNL     1     128.922-114.209 105.092  1.00  0.00     0.212 HD
ENDBRANCH   6   7
BRANCH   6   9
HETATM    9  C5  UNL     1     127.607-113.469 103.138  1.00  0.00     0.114 A 
HETATM   10  N7  UNL     1     127.676-114.176 101.985  1.00  0.00    -0.304 N 
HETATM   11  C6  UNL     1     128.212-113.401 101.025  1.00  0.00     0.326 A 
ATOM     12  H7  UNL     1     127.371-115.142 101.863  1.00  0.00     0.170 HD
HETATM   13  O3  UNL     1     128.403-113.796  99.826  1.00  0.00    -0.247 OA
HETATM   14  N8  UNL     1     128.498-112.187 101.532  1.00  0.00    -0.287 N 
HETATM   15  C7  UNL     1     128.125-112.231 102.835  1.00  0.00     0.171 A 
ATOM     16  H8  UNL     1     128.911-111.396 101.037  1.00  0.00     0.172 HD
BRANCH  15  17
HETATM   17  O4  UNL     1     128.253-111.163 103.731  1.00  0.00    -0.344 OA
ATOM     18  H4  UNL     1     127.697-110.393 103.753  1.00  0.00     0.219 HD
ENDBRANCH  15  17
ENDBRANCH   6   9
ENDBRANCH   4   6
ENDBRANCH   2   4
BRANCH   1  19
HETATM   19  C2  UNL     1     122.291-113.560 104.901  1.00  0.00     0.135 A 
HETATM   20  N4  UNL     1     121.434-113.415 103.875  1.00  0.00    -0.290 N 
HETATM   21  N3  UNL     1     120.221-113.940 103.901  1.00  0.00    -0.249 N 
ATOM     22  H4  UNL     1     121.727-112.886 103.054  1.00  0.00     0.187 HD
HETATM   23  C1  UNL     1     119.863-114.632 104.995  1.00  0.00     0.362 A 
ATOM     24  H3  UNL     1     119.580-113.823 103.116  1.00  0.00     0.192 HD
HETATM   25  N2  UNL     1     120.677-114.809 106.052  1.00  0.00    -0.172 N 
HETATM   26  O1  UNL     1     118.699-115.143 105.037  1.00  0.00    -0.243 OA
HETATM   27  C8  UNL     1     121.911-114.280 106.036  1.00  0.00     0.299 A 
HETATM   28  O5  UNL     1     122.722-114.413 106.997  1.00  0.00    -0.263 OA
BRANCH  25  29
HETATM   29  N1  UNL     1     120.286-115.534 107.184  1.00  0.00    -0.331 N 
ATOM     30  H12 UNL     1     119.449-116.112 107.117  1.00  0.00     0.177 HD
ATOM     31  H11 UNL     1     120.807-115.499 108.060  1.00  0.00     0.177 HD
ENDBRANCH  25  29
ENDBRANCH   1  19
TORSDOF 7
ENDMDL
