MODEL 1
REMARK VINA RESULT: -10.309381483      0.000      0.000
REMARK  2 active torsions:
REMARK  status: ('A' for Active; 'I' for Inactive)
REMARK    1  A    between atoms: C5_12  and  C6_13 
REMARK    2  A    between atoms: C13_28  and  N6_29 
ROOT
HETATM    1  C1  UNL     1       9.724  13.601  13.314  1.00  0.00     0.175 C 
HETATM    2  N1  UNL     1      10.543  12.825  12.437  1.00  0.00    -0.184 N 
HETATM    3  C2  UNL     1      10.017  12.426  11.233  1.00  0.00     0.681 A 
HETATM    4  N2  UNL     1       8.960  13.021  10.828  1.00  0.00    -0.234 N 
ATOM      5  H21 UNL     1       8.570  12.724   9.934  1.00  0.00     0.174 HD
ATOM      6  H22 UNL     1       8.525  13.726  11.422  1.00  0.00     0.174 HD
HETATM    7  N3  UNL     1      10.589  11.497  10.451  1.00  0.00    -0.155 N 
ATOM      8  H3  UNL     1      10.147  11.247   9.567  1.00  0.00     0.187 HD
HETATM    9  C3  UNL     1      11.721  10.896  10.805  1.00  0.00     0.273 A 
HETATM   10  O1  UNL     1      12.245  10.008  10.045  1.00  0.00    -0.267 OA
HETATM   11  C4  UNL     1      12.286  11.272  12.005  1.00  0.00     0.074 A 
HETATM   12  C5  UNL     1      13.436  10.617  12.385  1.00  0.00     0.005 A 
HETATM   13  C11 UNL     1      14.001  10.953  13.592  1.00  0.00     0.047 A 
HETATM   14 CL1  UNL     1      15.497  10.185  14.169  1.00  0.00    -0.083 Cl
HETATM   15  C12 UNL     1      13.452  11.910  14.398  1.00  0.00     0.063 A 
HETATM   16  C13 UNL     1      12.269  12.601  14.023  1.00  0.00     0.133 A 
HETATM   17  C14 UNL     1      11.691  12.262  12.837  1.00  0.00     0.101 A 
ENDROOT
BRANCH  12  18
HETATM   18  C6  UNL     1      14.110   9.601  11.601  1.00  0.00     0.037 C 
HETATM   19  C7  UNL     1      14.174   8.316  11.858  1.00  0.00     0.101 A 
HETATM   20  C8  UNL     1      13.555   7.669  13.002  1.00  0.00     0.265 A 
HETATM   21  C10 UNL     1      14.935   7.458  10.941  1.00  0.00     0.265 A 
HETATM   22  O2  UNL     1      12.883   8.328  13.833  1.00  0.00    -0.267 OA
HETATM   23  N4  UNL     1      13.653   6.266  13.271  1.00  0.00    -0.275 N 
HETATM   24  C9  UNL     1      14.401   5.482  12.354  1.00  0.00     0.329 A 
ATOM     25  H4  UNL     1      13.204   5.848  14.087  1.00  0.00     0.173 HD
HETATM   26  O3  UNL     1      14.498   4.239  12.579  1.00  0.00    -0.246 OA
HETATM   27  N5  UNL     1      15.022   6.074  11.220  1.00  0.00    -0.275 N 
ATOM     28  H5  UNL     1      15.550   5.477  10.583  1.00  0.00     0.173 HD
HETATM   29  O4  UNL     1      15.507   7.951   9.915  1.00  0.00    -0.267 OA
ENDBRANCH  12  18
BRANCH  16  30
HETATM   30  N6  UNL     1      11.962  13.622  14.905  1.00  0.00    -0.113 N 
HETATM   31  O5  UNL     1      11.735  13.263  16.138  1.00  0.00    -0.532 OA
HETATM   32  O6  UNL     1      11.819  14.937  14.738  1.00  0.00    -0.532 OA
ENDBRANCH  16  30
TORSDOF 2
ENDMDL
MODEL 2
REMARK VINA RESULT: -9.329071643      2.359      3.774
REMARK  2 active torsions:
REMARK  status: ('A' for Active; 'I' for Inactive)
REMARK    1  A    between atoms: C5_12  and  C6_13 
REMARK    2  A    between atoms: C13_28  and  N6_29 
ROOT
HETATM    1  C1  UNL     1      11.637  13.296  13.596  1.00  0.00     0.175 C 
HETATM    2  N1  UNL     1      12.412  12.190  14.064  1.00  0.00    -0.184 N 
HETATM    3  C2  UNL     1      12.849  12.201  15.366  1.00  0.00     0.681 A 
HETATM    4  N2  UNL     1      12.289  13.026  16.166  1.00  0.00    -0.234 N 
ATOM      5  H21 UNL     1      12.613  13.034  17.133  1.00  0.00     0.174 HD
ATOM      6  H22 UNL     1      11.582  13.668  15.808  1.00  0.00     0.174 HD
HETATM    7  N3  UNL     1      13.779  11.356  15.838  1.00  0.00    -0.155 N 
ATOM      8  H3  UNL     1      14.059  11.418  16.817  1.00  0.00     0.187 HD
HETATM    9  C3  UNL     1      14.345  10.442  15.056  1.00  0.00     0.273 A 
HETATM   10  O1  UNL     1      15.235   9.652  15.527  1.00  0.00    -0.267 OA
HETATM   11  C4  UNL     1      13.930  10.393  13.742  1.00  0.00     0.074 A 
HETATM   12  C5  UNL     1      14.549   9.472  12.927  1.00  0.00     0.005 A 
HETATM   13  C11 UNL     1      14.173   9.424  11.605  1.00  0.00     0.047 A 
HETATM   14 CL1  UNL     1      14.892   8.259  10.472  1.00  0.00    -0.083 Cl
HETATM   15  C12 UNL     1      13.213  10.257  11.104  1.00  0.00     0.063 A 
HETATM   16  C13 UNL     1      12.560  11.211  11.928  1.00  0.00     0.133 A 
HETATM   17  C14 UNL     1      12.937  11.278  13.235  1.00  0.00     0.101 A 
ENDROOT
BRANCH  12  18
HETATM   18  C6  UNL     1      15.563   8.531  13.358  1.00  0.00     0.037 C 
HETATM   19  C7  UNL     1      15.417   7.240  13.543  1.00  0.00     0.101 A 
HETATM   20  C8  UNL     1      14.179   6.509  13.335  1.00  0.00     0.265 A 
HETATM   21  C10 UNL     1      16.574   6.466  14.009  1.00  0.00     0.265 A 
HETATM   22  O2  UNL     1      13.143   7.092  12.933  1.00  0.00    -0.267 OA
HETATM   23  N4  UNL     1      14.038   5.102  13.560  1.00  0.00    -0.275 N 
HETATM   24  C9  UNL     1      15.187   4.402  14.012  1.00  0.00     0.329 A 
ATOM     25  H4  UNL     1      13.151   4.624  13.403  1.00  0.00     0.173 HD
HETATM   26  O3  UNL     1      15.079   3.156  14.218  1.00  0.00    -0.246 OA
HETATM   27  N5  UNL     1      16.421   5.077  14.227  1.00  0.00    -0.275 N 
ATOM     28  H5  UNL     1      17.224   4.539  14.551  1.00  0.00     0.173 HD
HETATM   29  O4  UNL     1      17.695   7.035  14.216  1.00  0.00    -0.267 OA
ENDBRANCH  12  18
BRANCH  16  30
HETATM   30  N6  UNL     1      11.529  11.852  11.263  1.00  0.00    -0.113 N 
HETATM   31  O5  UNL     1      11.881  12.656  10.300  1.00  0.00    -0.532 OA
HETATM   32  O6  UNL     1      10.206  11.834  11.433  1.00  0.00    -0.532 OA
ENDBRANCH  16  30
TORSDOF 2
ENDMDL
MODEL 3
REMARK VINA RESULT: -8.875395728      1.549      2.108
REMARK  2 active torsions:
REMARK  status: ('A' for Active; 'I' for Inactive)
REMARK    1  A    between atoms: C5_12  and  C6_13 
REMARK    2  A    between atoms: C13_28  and  N6_29 
ROOT
HETATM    1  C1  UNL     1       8.789  12.539  10.427  1.00  0.00     0.175 C 
HETATM    2  N1  UNL     1       9.868  11.684  10.044  1.00  0.00    -0.184 N 
HETATM    3  C2  UNL     1       9.679  10.822   8.992  1.00  0.00     0.681 A 
HETATM    4  N2  UNL     1       8.681  11.043   8.224  1.00  0.00    -0.234 N 
ATOM      5  H21 UNL     1       8.541  10.403   7.443  1.00  0.00     0.174 HD
ATOM      6  H22 UNL     1       8.045  11.810   8.439  1.00  0.00     0.174 HD
HETATM    7  N3  UNL     1      10.517   9.812   8.708  1.00  0.00    -0.155 N 
ATOM      8  H3  UNL     1      10.318   9.209   7.910  1.00  0.00     0.187 HD
HETATM    9  C3  UNL     1      11.600   9.583   9.444  1.00  0.00     0.273 A 
HETATM   10  O1  UNL     1      12.380   8.609   9.157  1.00  0.00    -0.267 OA
HETATM   11  C4  UNL     1      11.830  10.430  10.507  1.00  0.00     0.074 A 
HETATM   12  C5  UNL     1      12.930  10.162  11.291  1.00  0.00     0.005 A 
HETATM   13  C11 UNL     1      13.164  10.974  12.374  1.00  0.00     0.047 A 
HETATM   14 CL1  UNL     1      14.567  10.731  13.438  1.00  0.00    -0.083 Cl
HETATM   15  C12 UNL     1      12.341  12.023  12.674  1.00  0.00     0.063 A 
HETATM   16  C13 UNL     1      11.203  12.319  11.877  1.00  0.00     0.133 A 
HETATM   17  C14 UNL     1      10.953  11.509  10.811  1.00  0.00     0.101 A 
ENDROOT
BRANCH  12  18
HETATM   18  C6  UNL     1      13.877   9.091  11.053  1.00  0.00     0.037 C 
HETATM   19  C7  UNL     1      14.073   8.028  11.799  1.00  0.00     0.101 A 
HETATM   20  C8  UNL     1      13.349   7.731  13.022  1.00  0.00     0.265 A 
HETATM   21  C10 UNL     1      15.106   7.069  11.388  1.00  0.00     0.265 A 
HETATM   22  O2  UNL     1      12.446   8.496  13.442  1.00  0.00    -0.267 OA
HETATM   23  N4  UNL     1      13.592   6.574  13.829  1.00  0.00    -0.275 N 
HETATM   24  C9  UNL     1      14.602   5.679  13.388  1.00  0.00     0.329 A 
ATOM     25  H4  UNL     1      13.062   6.399  14.683  1.00  0.00     0.173 HD
HETATM   26  O3  UNL     1      14.831   4.650  14.092  1.00  0.00    -0.246 OA
HETATM   27  N5  UNL     1      15.335   5.930  12.195  1.00  0.00    -0.275 N 
ATOM     28  H5  UNL     1      16.052   5.263  11.911  1.00  0.00     0.173 HD
HETATM   29  O4  UNL     1      15.785   7.260  10.328  1.00  0.00    -0.267 OA
ENDBRANCH  12  18
BRANCH  16  30
HETATM   30  N6  UNL     1      10.588  13.496  12.266  1.00  0.00    -0.113 N 
HETATM   31  O5  UNL     1      10.829  14.540  11.524  1.00  0.00    -0.532 OA
HETATM   32  O6  UNL     1       9.796  13.794  13.297  1.00  0.00    -0.532 OA
ENDBRANCH  16  30
TORSDOF 2
ENDMDL
MODEL 4
REMARK VINA RESULT: -8.833830132      2.064      6.578
REMARK  2 active torsions:
REMARK  status: ('A' for Active; 'I' for Inactive)
REMARK    1  A    between atoms: C5_12  and  C6_13 
REMARK    2  A    between atoms: C13_28  and  N6_29 
ROOT
HETATM    1  C1  UNL     1      13.954   4.321  10.783  1.00  0.00     0.175 C 
HETATM    2  N1  UNL     1      13.245   5.542  10.565  1.00  0.00    -0.184 N 
HETATM    3  C2  UNL     1      12.285   5.576   9.583  1.00  0.00     0.681 A 
HETATM    4  N2  UNL     1      11.862   4.455   9.137  1.00  0.00    -0.234 N 
ATOM      5  H21 UNL     1      11.149   4.480   8.408  1.00  0.00     0.174 HD
ATOM      6  H22 UNL     1      12.274   3.590   9.486  1.00  0.00     0.174 HD
HETATM    7  N3  UNL     1      11.742   6.714   9.123  1.00  0.00    -0.155 N 
ATOM      8  H3  UNL     1      11.032   6.669   8.392  1.00  0.00     0.187 HD
HETATM    9  C3  UNL     1      12.109   7.899   9.601  1.00  0.00     0.273 A 
HETATM   10  O1  UNL     1      11.580   8.971   9.142  1.00  0.00    -0.267 OA
HETATM   11  C4  UNL     1      13.066   7.909  10.593  1.00  0.00     0.074 A 
HETATM   12  C5  UNL     1      13.473   9.141  11.054  1.00  0.00     0.005 A 
HETATM   13  C11 UNL     1      14.448   9.179  12.022  1.00  0.00     0.047 A 
HETATM   14 CL1  UNL     1      15.029  10.714  12.703  1.00  0.00    -0.083 Cl
HETATM   15  C12 UNL     1      15.003   8.035  12.524  1.00  0.00     0.063 A 
HETATM   16  C13 UNL     1      14.595   6.755  12.065  1.00  0.00     0.133 A 
HETATM   17  C14 UNL     1      13.642   6.707  11.093  1.00  0.00     0.101 A 
ENDROOT
BRANCH  12  18
HETATM   18  C6  UNL     1      12.939  10.413  10.606  1.00  0.00     0.037 C 
HETATM   19  C7  UNL     1      12.196  11.246  11.297  1.00  0.00     0.101 A 
HETATM   20  C8  UNL     1      11.773  11.034  12.670  1.00  0.00     0.265 A 
HETATM   21  C10 UNL     1      11.737  12.477  10.643  1.00  0.00     0.265 A 
HETATM   22  O2  UNL     1      12.125  10.010  13.305  1.00  0.00    -0.267 OA
HETATM   23  N4  UNL     1      10.947  11.949  13.398  1.00  0.00    -0.275 N 
HETATM   24  C9  UNL     1      10.530  13.124  12.718  1.00  0.00     0.329 A 
ATOM     25  H4  UNL     1      10.670  11.766  14.362  1.00  0.00     0.173 HD
HETATM   26  O3  UNL     1       9.797  13.944  13.348  1.00  0.00    -0.246 OA
HETATM   27  N5  UNL     1      10.922  13.373  11.374  1.00  0.00    -0.275 N 
ATOM     28  H5  UNL     1      10.603  14.228  10.921  1.00  0.00     0.173 HD
HETATM   29  O4  UNL     1      12.065  12.734   9.439  1.00  0.00    -0.267 OA
ENDBRANCH  12  18
BRANCH  16  30
HETATM   30  N6  UNL     1      15.174   5.732  12.797  1.00  0.00    -0.113 N 
HETATM   31  O5  UNL     1      16.410   5.446  12.500  1.00  0.00    -0.532 OA
HETATM   32  O6  UNL     1      14.698   4.937  13.756  1.00  0.00    -0.532 OA
ENDBRANCH  16  30
TORSDOF 2
ENDMDL
MODEL 5
REMARK VINA RESULT: -8.564959457      2.269      3.708
REMARK  2 active torsions:
REMARK  status: ('A' for Active; 'I' for Inactive)
REMARK    1  A    between atoms: C5_12  and  C6_13 
REMARK    2  A    between atoms: C13_28  and  N6_29 
ROOT
HETATM    1  C1  UNL     1      10.970  13.168  11.767  1.00  0.00     0.175 C 
HETATM    2  N1  UNL     1      11.755  12.224  12.498  1.00  0.00    -0.184 N 
HETATM    3  C2  UNL     1      12.085  12.515  13.799  1.00  0.00     0.681 A 
HETATM    4  N2  UNL     1      11.426  13.445  14.378  1.00  0.00    -0.234 N 
ATOM      5  H21 UNL     1      11.672  13.661  15.344  1.00  0.00     0.174 HD
ATOM      6  H22 UNL     1      10.721  13.960  13.851  1.00  0.00     0.174 HD
HETATM    7  N3  UNL     1      13.013  11.837  14.492  1.00  0.00    -0.155 N 
ATOM      8  H3  UNL     1      13.211  12.104  15.456  1.00  0.00     0.187 HD
HETATM    9  C3  UNL     1      13.681  10.823  13.949  1.00  0.00     0.273 A 
HETATM   10  O1  UNL     1      14.566  10.195  14.629  1.00  0.00    -0.267 OA
HETATM   11  C4  UNL     1      13.374  10.494  12.646  1.00  0.00     0.074 A 
HETATM   12  C5  UNL     1      14.098   9.471  12.075  1.00  0.00     0.005 A 
HETATM   13  C11 UNL     1      13.832   9.144  10.767  1.00  0.00     0.047 A 
HETATM   14 CL1  UNL     1      14.691   7.825   9.941  1.00  0.00    -0.083 Cl
HETATM   15  C12 UNL     1      12.877   9.803  10.044  1.00  0.00     0.063 A 
HETATM   16  C13 UNL     1      12.117  10.858  10.615  1.00  0.00     0.133 A 
HETATM   17  C14 UNL     1      12.386  11.201  11.905  1.00  0.00     0.101 A 
ENDROOT
BRANCH  12  18
HETATM   18  C6  UNL     1      15.117   8.695  12.754  1.00  0.00     0.037 C 
HETATM   19  C7  UNL     1      15.050   7.430  13.096  1.00  0.00     0.101 A 
HETATM   20  C8  UNL     1      13.915   6.561  12.840  1.00  0.00     0.265 A 
HETATM   21  C10 UNL     1      16.192   6.838  13.804  1.00  0.00     0.265 A 
HETATM   22  O2  UNL     1      12.899   6.986  12.236  1.00  0.00    -0.267 OA
HETATM   23  N4  UNL     1      13.858   5.188  13.238  1.00  0.00    -0.275 N 
HETATM   24  C9  UNL     1      14.988   4.665  13.920  1.00  0.00     0.329 A 
ATOM     25  H4  UNL     1      13.041   4.609  13.040  1.00  0.00     0.173 HD
HETATM   26  O3  UNL     1      14.953   3.451  14.281  1.00  0.00    -0.246 OA
HETATM   27  N5  UNL     1      16.122   5.479  14.191  1.00  0.00    -0.275 N 
ATOM     28  H5  UNL     1      16.915   5.067  14.683  1.00  0.00     0.173 HD
HETATM   29  O4  UNL     1      17.226   7.535  14.067  1.00  0.00    -0.267 OA
ENDBRANCH  12  18
BRANCH  16  30
HETATM   30  N6  UNL     1      11.114  11.293   9.766  1.00  0.00    -0.113 N 
HETATM   31  O5  UNL     1      11.451  12.213   8.907  1.00  0.00    -0.532 OA
HETATM   32  O6  UNL     1       9.824  10.970   9.665  1.00  0.00    -0.532 OA
ENDBRANCH  16  30
TORSDOF 2
ENDMDL
