MODEL 1
REMARK VINA RESULT: -8.861583407      0.000      0.000
REMARK  3 active torsions:
REMARK  status: ('A' for Active; 'I' for Inactive)
REMARK    1  A    between atoms: C4_9  and  N4_10 
REMARK    2  A    between atoms: C6_20  and  N8_21 
REMARK    3  A    between atoms: C10_28  and  N9_29 
ROOT
HETATM    1  C1  UNL     1      11.897  10.519   9.156  1.00  0.00     0.179 C 
HETATM    2  N1  UNL     1      11.938  10.838  10.569  1.00  0.00    -0.279 N 
HETATM    3  N2  UNL     1      12.775  10.307  11.436  1.00  0.00    -0.295 N 
ATOM      4  H2  UNL     1      13.419   9.628  11.029  1.00  0.00     0.187 HD
HETATM    5  C2  UNL     1      12.932  10.481  12.693  1.00  0.00     0.079 A 
HETATM    6  C3  UNL     1      13.822   9.879  13.656  1.00  0.00     0.095 A 
HETATM    7  N3  UNL     1      14.002  10.539  14.847  1.00  0.00    -0.189 N 
ATOM      8  H3  UNL     1      13.421  11.361  15.020  1.00  0.00     0.184 HD
HETATM    9  C4  UNL     1      14.863  10.200  15.786  1.00  0.00     0.678 A 
HETATM   10  N5  UNL     1      15.642   9.121  15.588  1.00  0.00    -0.175 N 
ATOM     11  H5  UNL     1      16.323   8.830  16.289  1.00  0.00     0.186 HD
HETATM   12  C5  UNL     1      15.496   8.445  14.448  1.00  0.00     0.152 A 
HETATM   13  N6  UNL     1      16.129   7.333  14.005  1.00  0.00    -0.282 N 
ATOM     14  H6  UNL     1      16.864   6.840  14.512  1.00  0.00     0.188 HD
HETATM   15  N7  UNL     1      15.671   6.983  12.849  1.00  0.00    -0.278 N 
ATOM     16  H7  UNL     1      15.996   6.176  12.316  1.00  0.00     0.189 HD
HETATM   17  C6  UNL     1      14.667   7.863  12.429  1.00  0.00     0.204 A 
HETATM   18  C7  UNL     1      14.580   8.784  13.437  1.00  0.00     0.091 A 
HETATM   19  C8  UNL     1      12.021  11.430  13.253  1.00  0.00     0.079 A 
HETATM   20  C9  UNL     1      11.117  12.030  12.424  1.00  0.00     0.163 A 
HETATM   21  F1  UNL     1      10.227  12.957  12.950  1.00  0.00    -0.202 F 
HETATM   22  C10 UNL     1      11.061  11.748  11.086  1.00  0.00     0.154 A 
ENDROOT
BRANCH   9  23
HETATM   23  N4  UNL     1      14.993  10.863  16.907  1.00  0.00    -0.234 N 
ATOM     24  H42 UNL     1      14.534  10.498  17.742  1.00  0.00     0.174 HD
ATOM     25  H41 UNL     1      15.528  11.729  16.980  1.00  0.00     0.174 HD
ENDBRANCH   9  23
BRANCH  17  26
HETATM   26  N8  UNL     1      13.977   7.637  11.234  1.00  0.00    -0.095 N 
HETATM   27  O1  UNL     1      14.240   7.950  10.067  1.00  0.00    -0.530 OA
HETATM   28  O2  UNL     1      12.657   7.176  11.373  1.00  0.00    -0.530 OA
ENDBRANCH  17  26
BRANCH  22  29
HETATM   29  N9  UNL     1      10.206  12.324  10.311  1.00  0.00    -0.382 N 
ATOM     30  H92 UNL     1       9.885  11.882   9.450  1.00  0.00     0.157 HD
ATOM     31  H91 UNL     1       9.835  13.241  10.560  1.00  0.00     0.157 HD
ENDBRANCH  22  29
TORSDOF 3
ENDMDL
MODEL 2
REMARK VINA RESULT: -8.832430020      1.713      2.385
REMARK  3 active torsions:
REMARK  status: ('A' for Active; 'I' for Inactive)
REMARK    1  A    between atoms: C4_9  and  N4_10 
REMARK    2  A    between atoms: C6_20  and  N8_21 
REMARK    3  A    between atoms: C10_28  and  N9_29 
ROOT
HETATM    1  C1  UNL     1      11.029  12.098   9.325  1.00  0.00     0.179 C 
HETATM    2  N1  UNL     1      11.550  11.706  10.620  1.00  0.00    -0.279 N 
HETATM    3  N2  UNL     1      12.338  10.673  10.832  1.00  0.00    -0.295 N 
ATOM      4  H2  UNL     1      12.567  10.146   9.989  1.00  0.00     0.187 HD
HETATM    5  C2  UNL     1      12.872  10.206  11.896  1.00  0.00     0.079 A 
HETATM    6  C3  UNL     1      13.706   9.055  12.143  1.00  0.00     0.095 A 
HETATM    7  N3  UNL     1      14.416   9.032  13.319  1.00  0.00    -0.189 N 
ATOM      8  H3  UNL     1      14.234   9.779  13.991  1.00  0.00     0.184 HD
HETATM    9  C4  UNL     1      15.313   8.125  13.652  1.00  0.00     0.678 A 
HETATM   10  N5  UNL     1      15.574   7.129  12.788  1.00  0.00    -0.175 N 
ATOM     11  H5  UNL     1      16.265   6.411  13.008  1.00  0.00     0.186 HD
HETATM   12  C5  UNL     1      14.904   7.106  11.636  1.00  0.00     0.152 A 
HETATM   13  N6  UNL     1      14.958   6.225  10.610  1.00  0.00    -0.282 N 
ATOM     14  H6  UNL     1      15.574   5.413  10.572  1.00  0.00     0.188 HD
HETATM   15  N7  UNL     1      14.119   6.557   9.685  1.00  0.00    -0.278 N 
ATOM     16  H7  UNL     1      13.983   6.043   8.814  1.00  0.00     0.189 HD
HETATM   17  C6  UNL     1      13.423   7.717  10.043  1.00  0.00     0.204 A 
HETATM   18  C7  UNL     1      13.938   8.059  11.263  1.00  0.00     0.091 A 
HETATM   19  C8  UNL     1      12.540  10.950  13.070  1.00  0.00     0.079 A 
HETATM   20  C9  UNL     1      11.727  12.039  12.942  1.00  0.00     0.163 A 
HETATM   21  F1  UNL     1      11.397  12.776  14.072  1.00  0.00    -0.202 F 
HETATM   22  C10 UNL     1      11.224  12.430  11.731  1.00  0.00     0.154 A 
ENDROOT
BRANCH   9  23
HETATM   23  N4  UNL     1      15.960   8.148  14.790  1.00  0.00    -0.234 N 
ATOM     24  H42 UNL     1      15.796   7.393  15.456  1.00  0.00     0.174 HD
ATOM     25  H41 UNL     1      16.618   8.888  15.039  1.00  0.00     0.174 HD
ENDBRANCH   9  23
BRANCH  17  26
HETATM   26  N8  UNL     1      12.410   8.221   9.221  1.00  0.00    -0.095 N 
HETATM   27  O1  UNL     1      12.406   9.152   8.407  1.00  0.00    -0.530 OA
HETATM   28  O2  UNL     1      11.113   7.760   9.502  1.00  0.00    -0.530 OA
ENDBRANCH  17  26
BRANCH  22  29
HETATM   29  N9  UNL     1      10.460  13.463  11.619  1.00  0.00    -0.382 N 
ATOM     30  H92 UNL     1      10.797  14.334  11.209  1.00  0.00     0.157 HD
ATOM     31  H91 UNL     1       9.494  13.415  11.943  1.00  0.00     0.157 HD
ENDBRANCH  22  29
TORSDOF 3
ENDMDL
MODEL 3
REMARK VINA RESULT: -8.527411405      3.095      5.172
REMARK  3 active torsions:
REMARK  status: ('A' for Active; 'I' for Inactive)
REMARK    1  A    between atoms: C4_9  and  N4_10 
REMARK    2  A    between atoms: C6_20  and  N8_21 
REMARK    3  A    between atoms: C10_28  and  N9_29 
ROOT
HETATM    1  C1  UNL     1      11.814   8.139   8.833  1.00  0.00     0.179 C 
HETATM    2  N1  UNL     1      12.547   8.639   9.980  1.00  0.00    -0.279 N 
HETATM    3  N2  UNL     1      12.155   9.635  10.748  1.00  0.00    -0.295 N 
ATOM      4  H2  UNL     1      11.265  10.047  10.469  1.00  0.00     0.187 HD
HETATM    5  C2  UNL     1      12.681  10.182  11.777  1.00  0.00     0.079 A 
HETATM    6  C3  UNL     1      12.277  11.294  12.602  1.00  0.00     0.095 A 
HETATM    7  N3  UNL     1      12.857  11.401  13.843  1.00  0.00    -0.189 N 
ATOM      8  H3  UNL     1      13.609  10.749  14.067  1.00  0.00     0.184 HD
HETATM    9  C4  UNL     1      12.522  12.278  14.769  1.00  0.00     0.678 A 
HETATM   10  N5  UNL     1      11.535  13.152  14.503  1.00  0.00    -0.175 N 
ATOM     11  H5  UNL     1      11.244  13.842  15.196  1.00  0.00     0.186 HD
HETATM   12  C5  UNL     1      10.948  13.089  13.308  1.00  0.00     0.152 A 
HETATM   13  N6  UNL     1       9.955  13.844  12.780  1.00  0.00    -0.282 N 
ATOM     14  H6  UNL     1       9.480  14.603  13.269  1.00  0.00     0.188 HD
HETATM   15  N7  UNL     1       9.694  13.468  11.573  1.00  0.00    -0.278 N 
ATOM     16  H7  UNL     1       8.982  13.888  10.975  1.00  0.00     0.189 HD
HETATM   17  C6  UNL     1      10.523  12.404  11.198  1.00  0.00     0.204 A 
HETATM   18  C7  UNL     1      11.293  12.168  12.303  1.00  0.00     0.091 A 
HETATM   19  C8  UNL     1      13.930   9.598  12.153  1.00  0.00     0.079 A 
HETATM   20  C9  UNL     1      14.412   8.558  11.412  1.00  0.00     0.163 A 
HETATM   21  F1  UNL     1      15.622   7.977  11.766  1.00  0.00    -0.202 F 
HETATM   22  C10 UNL     1      13.738   8.068  10.327  1.00  0.00     0.154 A 
ENDROOT
BRANCH   9  23
HETATM   23  N4  UNL     1      13.110  12.340  15.937  1.00  0.00    -0.234 N 
ATOM     24  H42 UNL     1      13.797  11.624  16.172  1.00  0.00     0.174 HD
ATOM     25  H41 UNL     1      12.908  13.070  16.621  1.00  0.00     0.174 HD
ENDBRANCH   9  23
BRANCH  17  26
HETATM   26  N8  UNL     1      10.465  11.879   9.902  1.00  0.00    -0.095 N 
HETATM   27  O1  UNL     1       9.719  11.033   9.397  1.00  0.00    -0.530 OA
HETATM   28  O2  UNL     1      11.560  12.180   9.076  1.00  0.00    -0.530 OA
ENDBRANCH  17  26
BRANCH  22  29
HETATM   29  N9  UNL     1      14.200   7.082   9.634  1.00  0.00    -0.382 N 
ATOM     30  H92 UNL     1      13.646   6.640   8.901  1.00  0.00     0.157 HD
ATOM     31  H91 UNL     1      15.141   6.733   9.817  1.00  0.00     0.157 HD
ENDBRANCH  22  29
TORSDOF 3
ENDMDL
MODEL 4
REMARK VINA RESULT: -8.490990844      2.802      5.672
REMARK  3 active torsions:
REMARK  status: ('A' for Active; 'I' for Inactive)
REMARK    1  A    between atoms: C4_9  and  N4_10 
REMARK    2  A    between atoms: C6_20  and  N8_21 
REMARK    3  A    between atoms: C10_28  and  N9_29 
ROOT
HETATM    1  C1  UNL     1      16.260   7.063  13.680  1.00  0.00     0.179 C 
HETATM    2  N1  UNL     1      15.264   7.565  12.754  1.00  0.00    -0.279 N 
HETATM    3  N2  UNL     1      14.576   8.676  12.917  1.00  0.00    -0.295 N 
ATOM      4  H2  UNL     1      14.802   9.180  13.775  1.00  0.00     0.187 HD
HETATM    5  C2  UNL     1      13.679   9.242  12.203  1.00  0.00     0.079 A 
HETATM    6  C3  UNL     1      12.897  10.439  12.392  1.00  0.00     0.095 A 
HETATM    7  N3  UNL     1      12.290  10.976  11.282  1.00  0.00    -0.189 N 
ATOM      8  H3  UNL     1      12.345  10.443  10.414  1.00  0.00     0.184 HD
HETATM    9  C4  UNL     1      11.642  12.124  11.247  1.00  0.00     0.678 A 
HETATM   10  N5  UNL     1      11.551  12.849  12.376  1.00  0.00    -0.175 N 
ATOM     11  H5  UNL     1      11.062  13.744  12.387  1.00  0.00     0.186 HD
HETATM   12  C5  UNL     1      12.120  12.363  13.479  1.00  0.00     0.152 A 
HETATM   13  N6  UNL     1      12.168  12.870  14.734  1.00  0.00    -0.282 N 
ATOM     14  H6  UNL     1      11.760  13.761  15.017  1.00  0.00     0.188 HD
HETATM   15  N7  UNL     1      12.802  12.067  15.522  1.00  0.00    -0.278 N 
ATOM     16  H7  UNL     1      12.966  12.237  16.514  1.00  0.00     0.189 HD
HETATM   17  C6  UNL     1      13.232  10.931  14.827  1.00  0.00     0.204 A 
HETATM   18  C7  UNL     1      12.810  11.139  13.542  1.00  0.00     0.091 A 
HETATM   19  C8  UNL     1      13.369   8.523  11.008  1.00  0.00     0.079 A 
HETATM   20  C9  UNL     1      14.035   7.358  10.758  1.00  0.00     0.163 A 
HETATM   21  F1  UNL     1      13.749   6.649   9.599  1.00  0.00    -0.202 F 
HETATM   22  C10 UNL     1      14.981   6.865  11.616  1.00  0.00     0.154 A 
ENDROOT
BRANCH   9  23
HETATM   23  N4  UNL     1      11.077  12.589  10.162  1.00  0.00    -0.234 N 
ATOM     24  H42 UNL     1      10.120  12.305   9.953  1.00  0.00     0.174 HD
ATOM     25  H41 UNL     1      11.553  13.220   9.515  1.00  0.00     0.174 HD
ENDBRANCH   9  23
BRANCH  17  26
HETATM   26  N8  UNL     1      13.880   9.889  15.498  1.00  0.00    -0.095 N 
HETATM   27  O1  UNL     1      13.461   9.054  16.307  1.00  0.00    -0.530 OA
HETATM   28  O2  UNL     1      15.283   9.905  15.432  1.00  0.00    -0.530 OA
ENDBRANCH  17  26
BRANCH  22  29
HETATM   29  N9  UNL     1      15.609   5.766  11.368  1.00  0.00    -0.382 N 
ATOM     30  H92 UNL     1      15.870   5.122  12.115  1.00  0.00     0.157 HD
ATOM     31  H91 UNL     1      15.848   5.526  10.407  1.00  0.00     0.157 HD
ENDBRANCH  22  29
TORSDOF 3
ENDMDL
MODEL 5
REMARK VINA RESULT: -8.441139127      1.530      1.998
REMARK  3 active torsions:
REMARK  status: ('A' for Active; 'I' for Inactive)
REMARK    1  A    between atoms: C4_9  and  N4_10 
REMARK    2  A    between atoms: C6_20  and  N8_21 
REMARK    3  A    between atoms: C10_28  and  N9_29 
ROOT
HETATM    1  C1  UNL     1      12.162   9.894   8.432  1.00  0.00     0.179 C 
HETATM    2  N1  UNL     1      11.666  10.546   9.628  1.00  0.00    -0.279 N 
HETATM    3  N2  UNL     1      12.270  10.532  10.798  1.00  0.00    -0.295 N 
ATOM      4  H2  UNL     1      13.146  10.010  10.806  1.00  0.00     0.187 HD
HETATM    5  C2  UNL     1      11.964  11.050  11.927  1.00  0.00     0.079 A 
HETATM    6  C3  UNL     1      12.601  11.009  13.221  1.00  0.00     0.095 A 
HETATM    7  N3  UNL     1      12.229  11.965  14.136  1.00  0.00    -0.189 N 
ATOM      8  H3  UNL     1      11.455  12.580  13.883  1.00  0.00     0.184 HD
HETATM    9  C4  UNL     1      12.789  12.151  15.315  1.00  0.00     0.678 A 
HETATM   10  N5  UNL     1      13.810  11.355  15.678  1.00  0.00    -0.175 N 
ATOM     11  H5  UNL     1      14.272  11.472  16.580  1.00  0.00     0.186 HD
HETATM   12  C5  UNL     1      14.201  10.410  14.823  1.00  0.00     0.152 A 
HETATM   13  N6  UNL     1      15.176   9.477  14.937  1.00  0.00    -0.282 N 
ATOM     14  H6  UNL     1      15.796   9.379  15.742  1.00  0.00     0.188 HD
HETATM   15  N7  UNL     1      15.212   8.730  13.885  1.00  0.00    -0.278 N 
ATOM     16  H7  UNL     1      15.866   7.960  13.742  1.00  0.00     0.189 HD
HETATM   17  C6  UNL     1      14.231   9.122  12.968  1.00  0.00     0.204 A 
HETATM   18  C7  UNL     1      13.615  10.188  13.564  1.00  0.00     0.091 A 
HETATM   19  C8  UNL     1      10.732  11.773  11.904  1.00  0.00     0.079 A 
HETATM   20  C9  UNL     1      10.039  11.840  10.730  1.00  0.00     0.163 A 
HETATM   21  F1  UNL     1       8.842  12.542  10.688  1.00  0.00    -0.202 F 
HETATM   22  C10 UNL     1      10.488  11.235   9.588  1.00  0.00     0.154 A 
ENDROOT
BRANCH   9  23
HETATM   23  N4  UNL     1      12.393  13.076  16.153  1.00  0.00    -0.234 N 
ATOM     24  H42 UNL     1      11.468  13.486  16.020  1.00  0.00     0.174 HD
ATOM     25  H41 UNL     1      12.969  13.406  16.928  1.00  0.00     0.174 HD
ENDBRANCH   9  23
BRANCH  17  26
HETATM   26  N8  UNL     1      14.038   8.406  11.781  1.00  0.00    -0.095 N 
HETATM   27  O1  UNL     1      14.598   8.483  10.682  1.00  0.00    -0.530 OA
HETATM   28  O2  UNL     1      12.878   7.616  11.730  1.00  0.00    -0.530 OA
ENDBRANCH  17  26
BRANCH  22  29
HETATM   29  N9  UNL     1       9.827  11.307   8.482  1.00  0.00    -0.382 N 
ATOM     30  H92 UNL     1      10.301  11.362   7.581  1.00  0.00     0.157 HD
ATOM     31  H91 UNL     1       8.807  11.306   8.501  1.00  0.00     0.157 HD
ENDBRANCH  22  29
TORSDOF 3
ENDMDL
