MODEL 1
REMARK VINA RESULT: -8.175254000      0.000      0.000
REMARK  4 active torsions:
REMARK  status: ('A' for Active; 'I' for Inactive)
REMARK    1  A    between atoms: N1_1  and  C1_4 
REMARK    2  A    between atoms: C2_7  and  N3_8 
REMARK    3  A    between atoms: N3_8  and  C3_10 
REMARK    4  A    between atoms: C5_23  and  C6_24 
REMARK       I    between atoms: C6_24  and  N9_26 
ROOT
HETATM    1  C1  UNL     1      13.368   7.725  12.852  1.00  0.00     0.135 A 
HETATM    2  N2  UNL     1      13.819   6.490  13.133  1.00  0.00    -0.175 N 
ATOM      3  H2  UNL     1      13.524   6.051  14.005  1.00  0.00     0.186 HD
HETATM    4  C2  UNL     1      14.642   5.806  12.314  1.00  0.00     0.700 A 
HETATM    5  N8  UNL     1      15.010   6.412  11.172  1.00  0.00    -0.164 N 
ATOM      6  H8  UNL     1      15.632   5.919  10.532  1.00  0.00     0.186 HD
HETATM    7  C4  UNL     1      14.578   7.664  10.841  1.00  0.00     0.222 A 
HETATM    8  F1  UNL     1      14.969   8.202   9.652  1.00  0.00    -0.184 F 
HETATM    9  C5  UNL     1      13.742   8.361  11.674  1.00  0.00     0.133 A 
ENDROOT
BRANCH   4  10
HETATM   10  N3  UNL     1      15.106   4.494  12.638  1.00  0.00    -0.019 N 
ATOM     11  H3  UNL     1      15.067   3.773  11.918  1.00  0.00     0.203 HD
BRANCH  10  12
HETATM   12  C3  UNL     1      15.572   4.182  13.794  1.00  0.00     0.728 A 
HETATM   13  N4  UNL     1      16.571   4.864  14.415  1.00  0.00    -0.115 N 
HETATM   14  N5  UNL     1      16.801   4.279  15.580  1.00  0.00    -0.213 N 
ATOM     15  H4  UNL     1      17.057   5.682  14.049  1.00  0.00     0.207 HD
HETATM   16  N6  UNL     1      15.996   3.246  15.746  1.00  0.00    -0.213 N 
ATOM     17  H5  UNL     1      17.502   4.583  16.255  1.00  0.00     0.210 HD
HETATM   18  N7  UNL     1      15.247   3.197  14.642  1.00  0.00    -0.115 N 
ATOM     19  H6  UNL     1      15.956   2.617  16.548  1.00  0.00     0.210 HD
ATOM     20  H7  UNL     1      14.522   2.501  14.467  1.00  0.00     0.207 HD
ENDBRANCH  10  12
ENDBRANCH   4  10
BRANCH   1  21
HETATM   21  N1  UNL     1      12.582   8.319  13.686  1.00  0.00    -0.384 N 
ATOM     22  H12 UNL     1      12.752   8.243  14.689  1.00  0.00     0.157 HD
ATOM     23  H11 UNL     1      11.794   8.863  13.333  1.00  0.00     0.157 HD
ENDBRANCH   1  21
BRANCH   9  24
HETATM   24  C6  UNL     1      13.199   9.678  11.412  1.00  0.00     0.271 C 
HETATM   25  O1  UNL     1      13.632  10.599  12.202  1.00  0.00    -0.266 OA
HETATM   26  N9  UNL     1      12.279  10.031  10.416  1.00  0.00    -0.283 N 
HETATM   27  C7  UNL     1      11.688   9.316   9.463  1.00  0.00     0.118 A 
HETATM   28  C9  UNL     1      11.795  11.298  10.277  1.00  0.00     0.191 A 
HETATM   29  C8  UNL     1      10.826  10.109   8.714  1.00  0.00     0.106 A 
HETATM   30  N10 UNL     1      10.925  11.332   9.256  1.00  0.00    -0.360 N 
ATOM     31  H10 UNL     1      10.419  12.159   8.940  1.00  0.00     0.166 HD
ENDBRANCH   9  24
TORSDOF 4
ENDMDL
MODEL 2
REMARK VINA RESULT: -7.892105505      3.827      4.682
REMARK  4 active torsions:
REMARK  status: ('A' for Active; 'I' for Inactive)
REMARK    1  A    between atoms: N1_1  and  C1_4 
REMARK    2  A    between atoms: C2_7  and  N3_8 
REMARK    3  A    between atoms: N3_8  and  C3_10 
REMARK    4  A    between atoms: C5_23  and  C6_24 
REMARK       I    between atoms: C6_24  and  N9_26 
ROOT
HETATM    1  C1  UNL     1      12.102  11.180  13.146  1.00  0.00     0.135 A 
HETATM    2  N2  UNL     1      12.525  11.232  14.421  1.00  0.00    -0.175 N 
ATOM      3  H2  UNL     1      11.911  11.646  15.121  1.00  0.00     0.186 HD
HETATM    4  C2  UNL     1      13.723  10.760  14.815  1.00  0.00     0.700 A 
HETATM    5  N8  UNL     1      14.509  10.218  13.868  1.00  0.00    -0.164 N 
ATOM      6  H8  UNL     1      15.422   9.851  14.136  1.00  0.00     0.186 HD
HETATM    7  C4  UNL     1      14.124  10.141  12.560  1.00  0.00     0.222 A 
HETATM    8  F1  UNL     1      14.961   9.550  11.662  1.00  0.00    -0.184 F 
HETATM    9  C5  UNL     1      12.906  10.622  12.158  1.00  0.00     0.133 A 
ENDROOT
BRANCH   4  10
HETATM   10  N3  UNL     1      14.149  10.827  16.178  1.00  0.00    -0.019 N 
ATOM     11  H3  UNL     1      13.458  11.053  16.893  1.00  0.00     0.203 HD
BRANCH  10  12
HETATM   12  C3  UNL     1      15.363  10.615  16.543  1.00  0.00     0.728 A 
HETATM   13  N4  UNL     1      16.094  11.493  17.279  1.00  0.00    -0.115 N 
HETATM   14  N5  UNL     1      17.291  10.963  17.473  1.00  0.00    -0.213 N 
ATOM     15  H4  UNL     1      15.777  12.400  17.621  1.00  0.00     0.207 HD
HETATM   16  N6  UNL     1      17.373   9.779  16.897  1.00  0.00    -0.213 N 
ATOM     17  H5  UNL     1      18.046  11.409  17.996  1.00  0.00     0.210 HD
HETATM   18  N7  UNL     1      16.183   9.577  16.328  1.00  0.00    -0.115 N 
ATOM     19  H6  UNL     1      18.177   9.151  16.887  1.00  0.00     0.210 HD
ATOM     20  H7  UNL     1      15.930   8.742  15.800  1.00  0.00     0.207 HD
ENDBRANCH  10  12
ENDBRANCH   4  10
BRANCH   1  21
HETATM   21  N1  UNL     1      10.940  11.654  12.843  1.00  0.00    -0.384 N 
ATOM     22  H12 UNL     1      10.096  11.155  13.123  1.00  0.00     0.157 HD
ATOM     23  H11 UNL     1      10.875  12.529  12.322  1.00  0.00     0.157 HD
ENDBRANCH   1  21
BRANCH   9  24
HETATM   24  C6  UNL     1      12.382  10.567  10.809  1.00  0.00     0.271 C 
HETATM   25  O1  UNL     1      12.100  11.716  10.300  1.00  0.00    -0.266 OA
HETATM   26  N9  UNL     1      12.161   9.421  10.033  1.00  0.00    -0.283 N 
HETATM   27  C7  UNL     1      12.374   8.131  10.278  1.00  0.00     0.118 A 
HETATM   28  C9  UNL     1      11.623   9.472   8.781  1.00  0.00     0.191 A 
HETATM   29  C8  UNL     1      11.976   7.352   9.199  1.00  0.00     0.106 A 
HETATM   30  N10 UNL     1      11.516   8.228   8.293  1.00  0.00    -0.360 N 
ATOM     31  H10 UNL     1      11.143   7.985   7.375  1.00  0.00     0.166 HD
ENDBRANCH   9  24
TORSDOF 4
ENDMDL
MODEL 3
REMARK VINA RESULT: -7.760819826      2.136      2.961
REMARK  4 active torsions:
REMARK  status: ('A' for Active; 'I' for Inactive)
REMARK    1  A    between atoms: N1_1  and  C1_4 
REMARK    2  A    between atoms: C2_7  and  N3_8 
REMARK    3  A    between atoms: N3_8  and  C3_10 
REMARK    4  A    between atoms: C5_23  and  C6_24 
REMARK       I    between atoms: C6_24  and  N9_26 
ROOT
HETATM    1  C1  UNL     1      14.793   7.471  11.140  1.00  0.00     0.135 A 
HETATM    2  N2  UNL     1      15.615   6.593  11.739  1.00  0.00    -0.175 N 
ATOM      3  H2  UNL     1      16.397   6.215  11.205  1.00  0.00     0.186 HD
HETATM    4  C2  UNL     1      15.452   6.189  13.014  1.00  0.00     0.700 A 
HETATM    5  N8  UNL     1      14.413   6.706  13.691  1.00  0.00    -0.164 N 
ATOM      6  H8  UNL     1      14.263   6.420  14.658  1.00  0.00     0.186 HD
HETATM    7  C4  UNL     1      13.550   7.602  13.127  1.00  0.00     0.222 A 
HETATM    8  F1  UNL     1      12.536   8.107  13.885  1.00  0.00    -0.184 F 
HETATM    9  C5  UNL     1      13.714   8.012  11.830  1.00  0.00     0.133 A 
ENDROOT
BRANCH   4  10
HETATM   10  N3  UNL     1      16.341   5.254  13.628  1.00  0.00    -0.019 N 
ATOM     11  H3  UNL     1      16.054   4.277  13.688  1.00  0.00     0.203 HD
BRANCH  10  12
HETATM   12  C3  UNL     1      17.486   5.588  14.107  1.00  0.00     0.728 A 
HETATM   13  N4  UNL     1      17.828   6.864  14.426  1.00  0.00    -0.115 N 
HETATM   14  N5  UNL     1      19.067   6.851  14.888  1.00  0.00    -0.213 N 
ATOM     15  H4  UNL     1      17.234   7.688  14.325  1.00  0.00     0.207 HD
HETATM   16  N6  UNL     1      19.549   5.622  14.886  1.00  0.00    -0.213 N 
ATOM     17  H5  UNL     1      19.580   7.675  15.203  1.00  0.00     0.210 HD
HETATM   18  N7  UNL     1      18.568   4.856  14.404  1.00  0.00    -0.115 N 
ATOM     19  H6  UNL     1      20.476   5.322  15.189  1.00  0.00     0.210 HD
ATOM     20  H7  UNL     1      18.634   3.846  14.278  1.00  0.00     0.207 HD
ENDBRANCH  10  12
ENDBRANCH   4  10
BRANCH   1  21
HETATM   21  N1  UNL     1      15.011   7.810   9.913  1.00  0.00    -0.384 N 
ATOM     22  H12 UNL     1      15.729   7.330   9.371  1.00  0.00     0.157 HD
ATOM     23  H11 UNL     1      14.461   8.560   9.494  1.00  0.00     0.157 HD
ENDBRANCH   1  21
BRANCH   9  24
HETATM   24  C6  UNL     1      12.883   8.977  11.140  1.00  0.00     0.271 C 
HETATM   25  O1  UNL     1      12.363   8.544  10.044  1.00  0.00    -0.266 OA
HETATM   26  N9  UNL     1      12.602  10.290  11.539  1.00  0.00    -0.283 N 
HETATM   27  C7  UNL     1      12.970  10.989  12.610  1.00  0.00     0.118 A 
HETATM   28  C9  UNL     1      11.836  11.138  10.794  1.00  0.00     0.191 A 
HETATM   29  C8  UNL     1      12.452  12.277  12.560  1.00  0.00     0.106 A 
HETATM   30  N10 UNL     1      11.754  12.324  11.415  1.00  0.00    -0.360 N 
ATOM     31  H10 UNL     1      11.241  13.136  11.070  1.00  0.00     0.166 HD
ENDBRANCH   9  24
TORSDOF 4
ENDMDL
MODEL 4
REMARK VINA RESULT: -7.668886333      3.388      4.329
REMARK  4 active torsions:
REMARK  status: ('A' for Active; 'I' for Inactive)
REMARK    1  A    between atoms: N1_1  and  C1_4 
REMARK    2  A    between atoms: C2_7  and  N3_8 
REMARK    3  A    between atoms: N3_8  and  C3_10 
REMARK    4  A    between atoms: C5_23  and  C6_24 
REMARK       I    between atoms: C6_24  and  N9_26 
ROOT
HETATM    1  C1  UNL     1      13.182   8.687  13.246  1.00  0.00     0.135 A 
HETATM    2  N2  UNL     1      13.544   8.584  14.536  1.00  0.00    -0.175 N 
ATOM      3  H2  UNL     1      13.617   7.655  14.949  1.00  0.00     0.186 HD
HETATM    4  C2  UNL     1      13.814   9.654  15.309  1.00  0.00     0.700 A 
HETATM    5  N8  UNL     1      13.710  10.865  14.734  1.00  0.00    -0.164 N 
ATOM      6  H8  UNL     1      13.909  11.694  15.293  1.00  0.00     0.186 HD
HETATM    7  C4  UNL     1      13.347  11.021  13.427  1.00  0.00     0.222 A 
HETATM    8  F1  UNL     1      13.293  12.279  12.905  1.00  0.00    -0.184 F 
HETATM    9  C5  UNL     1      13.071   9.934  12.641  1.00  0.00     0.133 A 
ENDROOT
BRANCH   4  10
HETATM   10  N3  UNL     1      14.197   9.517  16.678  1.00  0.00    -0.019 N 
ATOM     11  H3  UNL     1      13.471   9.330  17.370  1.00  0.00     0.203 HD
BRANCH  10  12
HETATM   12  C3  UNL     1      15.414   9.619  17.078  1.00  0.00     0.728 A 
HETATM   13  N4  UNL     1      16.471   9.802  16.243  1.00  0.00    -0.115 N 
HETATM   14  N5  UNL     1      17.568   9.863  16.980  1.00  0.00    -0.213 N 
ATOM     15  H4  UNL     1      16.426   9.878  15.226  1.00  0.00     0.207 HD
HETATM   16  N6  UNL     1      17.274   9.729  18.260  1.00  0.00    -0.213 N 
ATOM     17  H5  UNL     1      18.510   9.996  16.611  1.00  0.00     0.210 HD
HETATM   18  N7  UNL     1      15.948   9.579  18.307  1.00  0.00    -0.115 N 
ATOM     19  H6  UNL     1      17.923   9.737  19.047  1.00  0.00     0.210 HD
ATOM     20  H7  UNL     1      15.412   9.451  19.165  1.00  0.00     0.207 HD
ENDBRANCH  10  12
ENDBRANCH   4  10
BRANCH   1  21
HETATM   21  N1  UNL     1      12.937   7.616  12.568  1.00  0.00    -0.384 N 
ATOM     22  H12 UNL     1      12.382   6.866  12.981  1.00  0.00     0.157 HD
ATOM     23  H11 UNL     1      13.302   7.527  11.619  1.00  0.00     0.157 HD
ENDBRANCH   1  21
BRANCH   9  24
HETATM   24  C6  UNL     1      12.708   9.978  11.240  1.00  0.00     0.271 C 
HETATM   25  O1  UNL     1      13.448   9.250  10.475  1.00  0.00    -0.266 OA
HETATM   26  N9  UNL     1      11.665  10.710  10.658  1.00  0.00    -0.283 N 
HETATM   27  C7  UNL     1      10.744  11.511  11.185  1.00  0.00     0.118 A 
HETATM   28  C9  UNL     1      11.430  10.716   9.314  1.00  0.00     0.191 A 
HETATM   29  C8  UNL     1       9.921  12.035  10.196  1.00  0.00     0.106 A 
HETATM   30  N10 UNL     1      10.384  11.513   9.050  1.00  0.00    -0.360 N 
ATOM     31  H10 UNL     1      10.001  11.694   8.122  1.00  0.00     0.166 HD
ENDBRANCH   9  24
TORSDOF 4
ENDMDL
MODEL 5
REMARK VINA RESULT: -7.649407330      1.674      2.224
REMARK  4 active torsions:
REMARK  status: ('A' for Active; 'I' for Inactive)
REMARK    1  A    between atoms: N1_1  and  C1_4 
REMARK    2  A    between atoms: C2_7  and  N3_8 
REMARK    3  A    between atoms: N3_8  and  C3_10 
REMARK    4  A    between atoms: C5_23  and  C6_24 
REMARK       I    between atoms: C6_24  and  N9_26 
ROOT
HETATM    1  C1  UNL     1      12.567   6.847  10.348  1.00  0.00     0.135 A 
HETATM    2  N2  UNL     1      13.141   5.728  10.822  1.00  0.00    -0.175 N 
ATOM      3  H2  UNL     1      12.647   4.843  10.710  1.00  0.00     0.186 HD
HETATM    4  C2  UNL     1      14.338   5.723  11.439  1.00  0.00     0.700 A 
HETATM    5  N8  UNL     1      14.963   6.906  11.570  1.00  0.00    -0.164 N 
ATOM      6  H8  UNL     1      15.871   6.935  12.032  1.00  0.00     0.186 HD
HETATM    7  C4  UNL     1      14.422   8.070  11.104  1.00  0.00     0.222 A 
HETATM    8  F1  UNL     1      15.129   9.227  11.245  1.00  0.00    -0.184 F 
HETATM    9  C5  UNL     1      13.204   8.076  10.477  1.00  0.00     0.133 A 
ENDROOT
BRANCH   4  10
HETATM   10  N3  UNL     1      14.925   4.519  11.935  1.00  0.00    -0.019 N 
ATOM     11  H3  UNL     1      14.991   3.716  11.310  1.00  0.00     0.203 HD
BRANCH  10  12
HETATM   12  C3  UNL     1      15.375   4.402  13.134  1.00  0.00     0.728 A 
HETATM   13  N4  UNL     1      15.144   3.321  13.925  1.00  0.00    -0.115 N 
HETATM   14  N5  UNL     1      15.748   3.529  15.084  1.00  0.00    -0.213 N 
ATOM     15  H4  UNL     1      14.601   2.496  13.671  1.00  0.00     0.207 HD
HETATM   16  N6  UNL     1      16.363   4.697  15.084  1.00  0.00    -0.213 N 
ATOM     17  H5  UNL     1      15.739   2.877  15.869  1.00  0.00     0.210 HD
HETATM   18  N7  UNL     1      16.126   5.223  13.880  1.00  0.00    -0.115 N 
ATOM     19  H6  UNL     1      16.904   5.110  15.843  1.00  0.00     0.210 HD
ATOM     20  H7  UNL     1      16.472   6.131  13.570  1.00  0.00     0.207 HD
ENDBRANCH  10  12
ENDBRANCH   4  10
BRANCH   1  21
HETATM   21  N1  UNL     1      11.415   6.774   9.768  1.00  0.00    -0.384 N 
ATOM     22  H12 UNL     1      10.650   6.271  10.217  1.00  0.00     0.157 HD
ATOM     23  H11 UNL     1      11.280   7.222   8.862  1.00  0.00     0.157 HD
ENDBRANCH   1  21
BRANCH   9  24
HETATM   24  C6  UNL     1      12.550   9.241   9.917  1.00  0.00     0.271 C 
HETATM   25  O1  UNL     1      12.282   9.148   8.660  1.00  0.00    -0.266 OA
HETATM   26  N9  UNL     1      12.194  10.417  10.590  1.00  0.00    -0.283 N 
HETATM   27  C7  UNL     1      12.321  10.782  11.863  1.00  0.00     0.118 A 
HETATM   28  C9  UNL     1      11.615  11.479   9.960  1.00  0.00     0.191 A 
HETATM   29  C8  UNL     1      11.832  12.068  12.058  1.00  0.00     0.106 A 
HETATM   30  N10 UNL     1      11.404  12.462  10.849  1.00  0.00    -0.360 N 
ATOM     31  H10 UNL     1      10.984  13.367  10.638  1.00  0.00     0.166 HD
ENDBRANCH   9  24
TORSDOF 4
ENDMDL
