MODEL 1
REMARK VINA RESULT: -9.176088867      0.000      0.000
REMARK  3 active torsions:
REMARK  status: ('A' for Active; 'I' for Inactive)
REMARK    1  A    between atoms: N1_1  and  C1_4 
REMARK    2  A    between atoms: C2_7  and  C3_8 
REMARK    3  A    between atoms: C5_21  and  C6_22 
ROOT
HETATM    1  C1  UNL     1      11.611  11.527  10.097  1.00  0.00     0.679 A 
HETATM    2  N2  UNL     1      12.229  11.181  11.240  1.00  0.00    -0.187 N 
ATOM      3  H2  UNL     1      12.304  11.881  11.978  1.00  0.00     0.184 HD
HETATM    4  C2  UNL     1      12.759   9.951  11.467  1.00  0.00     0.112 A 
HETATM    5  C5  UNL     1      12.633   9.045  10.447  1.00  0.00     0.078 A 
HETATM    6  C11 UNL     1      11.990   9.398   9.248  1.00  0.00     0.273 A 
HETATM    7  O1  UNL     1      11.863   8.585   8.300  1.00  0.00    -0.267 OA
HETATM    8  N10 UNL     1      11.490  10.637   9.098  1.00  0.00    -0.156 N 
ATOM      9  H10 UNL     1      11.021  10.900   8.232  1.00  0.00     0.187 HD
ENDROOT
BRANCH   4  10
HETATM   10  C3  UNL     1      13.422   9.679  12.743  1.00  0.00     0.166 A 
HETATM   11  N3  UNL     1      14.718   9.387  12.974  1.00  0.00    -0.245 N 
HETATM   12  N4  UNL     1      14.941   9.197  14.268  1.00  0.00    -0.001 N 
ATOM     13  H3  UNL     1      15.432   9.321  12.249  1.00  0.00     0.191 HD
HETATM   14  N5  UNL     1      15.816   8.912  15.226  1.00  0.00    -0.191 N 
HETATM   15  C4  UNL     1      13.766   9.371  14.883  1.00  0.00     0.737 A 
HETATM   16  N6  UNL     1      15.198   8.910  16.391  1.00  0.00    -0.212 N 
ATOM     17  H5  UNL     1      16.808   8.723  15.083  1.00  0.00     0.212 HD
HETATM   18  N7  UNL     1      13.920   9.193  16.206  1.00  0.00    -0.113 N 
ATOM     19  H6  UNL     1      15.636   8.720  17.292  1.00  0.00     0.210 HD
ATOM     20  H7  UNL     1      13.198   9.261  16.923  1.00  0.00     0.207 HD
HETATM   21  N8  UNL     1      12.844   9.663  13.953  1.00  0.00    -0.168 N 
ATOM     22  H8  UNL     1      11.857   9.845  14.137  1.00  0.00     0.186 HD
ENDBRANCH   4  10
BRANCH   5  23
HETATM   23  C6  UNL     1      13.131   7.692  10.582  1.00  0.00     0.038 A 
HETATM   24  C7  UNL     1      12.342   6.682  11.100  1.00  0.00     0.018 A 
HETATM   25  C8  UNL     1      12.811   5.384  11.228  1.00  0.00     0.018 A 
HETATM   26  C9  UNL     1      14.113   5.110  10.817  1.00  0.00     0.090 A 
HETATM   27  N9  UNL     1      14.859   6.102  10.318  1.00  0.00    -0.342 N 
HETATM   28  C10 UNL     1      14.411   7.377  10.189  1.00  0.00     0.199 A 
ATOM     29  H9  UNL     1      15.811   5.890  10.021  1.00  0.00     0.167 HD
HETATM   30  F1  UNL     1      15.273   8.308   9.658  1.00  0.00    -0.185 F 
ENDBRANCH   5  23
BRANCH   1  31
HETATM   31  N1  UNL     1      11.137  12.741   9.998  1.00  0.00    -0.234 N 
ATOM     32  H12 UNL     1      10.978  13.324  10.820  1.00  0.00     0.174 HD
ATOM     33  H11 UNL     1      10.928  13.100   9.066  1.00  0.00     0.174 HD
ENDBRANCH   1  31
TORSDOF 3
ENDMDL
MODEL 2
REMARK VINA RESULT: -8.926599872      2.122      4.365
REMARK  3 active torsions:
REMARK  status: ('A' for Active; 'I' for Inactive)
REMARK    1  A    between atoms: N1_1  and  C1_4 
REMARK    2  A    between atoms: C2_7  and  C3_8 
REMARK    3  A    between atoms: C5_21  and  C6_22 
ROOT
HETATM    1  C1  UNL     1      11.462  11.318  10.158  1.00  0.00     0.679 A 
HETATM    2  N2  UNL     1      12.032  10.104  10.264  1.00  0.00    -0.187 N 
ATOM      3  H2  UNL     1      11.949   9.463   9.475  1.00  0.00     0.184 HD
HETATM    4  C2  UNL     1      12.712   9.685  11.362  1.00  0.00     0.112 A 
HETATM    5  C5  UNL     1      12.797  10.582  12.395  1.00  0.00     0.078 A 
HETATM    6  C11 UNL     1      12.204  11.852  12.294  1.00  0.00     0.273 A 
HETATM    7  O1  UNL     1      12.268  12.689  13.227  1.00  0.00    -0.267 OA
HETATM    8  N10 UNL     1      11.546  12.195  11.172  1.00  0.00    -0.156 N 
ATOM      9  H10 UNL     1      11.114  13.115  11.091  1.00  0.00     0.187 HD
ENDROOT
BRANCH   4  10
HETATM   10  C3  UNL     1      13.286   8.339  11.381  1.00  0.00     0.166 A 
HETATM   11  N3  UNL     1      14.445   7.910  10.843  1.00  0.00    -0.245 N 
HETATM   12  N4  UNL     1      14.623   6.613  11.064  1.00  0.00    -0.001 N 
ATOM     13  H3  UNL     1      15.099   8.504  10.332  1.00  0.00     0.191 HD
HETATM   14  N5  UNL     1      15.392   5.542  10.901  1.00  0.00    -0.191 N 
HETATM   15  C4  UNL     1      13.557   6.200  11.759  1.00  0.00     0.737 A 
HETATM   16  N6  UNL     1      14.817   4.505  11.478  1.00  0.00    -0.212 N 
ATOM     17  H5  UNL     1      16.285   5.525  10.409  1.00  0.00     0.212 HD
HETATM   18  N7  UNL     1      13.673   4.887  12.020  1.00  0.00    -0.113 N 
ATOM     19  H6  UNL     1      15.195   3.558  11.502  1.00  0.00     0.210 HD
ATOM     20  H7  UNL     1      13.013   4.302  12.532  1.00  0.00     0.207 HD
HETATM   21  N8  UNL     1      12.746   7.251  11.950  1.00  0.00    -0.168 N 
ATOM     22  H8  UNL     1      11.857   7.227  12.450  1.00  0.00     0.186 HD
ENDBRANCH   4  10
BRANCH   5  23
HETATM   23  C6  UNL     1      13.522  10.261  13.607  1.00  0.00     0.038 A 
HETATM   24  C7  UNL     1      12.861   9.937  14.777  1.00  0.00     0.018 A 
HETATM   25  C8  UNL     1      13.550   9.624  15.939  1.00  0.00     0.018 A 
HETATM   26  C9  UNL     1      14.942   9.642  15.905  1.00  0.00     0.090 A 
HETATM   27  N9  UNL     1      15.560   9.958  14.763  1.00  0.00    -0.342 N 
HETATM   28  C10 UNL     1      14.897  10.266  13.619  1.00  0.00     0.199 A 
ATOM     29  H9  UNL     1      16.580   9.968  14.749  1.00  0.00     0.167 HD
HETATM   30  F1  UNL     1      15.647  10.571  12.507  1.00  0.00    -0.185 F 
ENDBRANCH   5  23
BRANCH   1  31
HETATM   31  N1  UNL     1      10.837  11.609   9.047  1.00  0.00    -0.234 N 
ATOM     32  H12 UNL     1      10.285  12.461   8.950  1.00  0.00     0.174 HD
ATOM     33  H11 UNL     1      10.917  10.958   8.267  1.00  0.00     0.174 HD
ENDBRANCH   1  31
TORSDOF 3
ENDMDL
MODEL 3
REMARK VINA RESULT: -8.424242425      1.820      2.065
REMARK  3 active torsions:
REMARK  status: ('A' for Active; 'I' for Inactive)
REMARK    1  A    between atoms: N1_1  and  C1_4 
REMARK    2  A    between atoms: C2_7  and  C3_8 
REMARK    3  A    between atoms: C5_21  and  C6_22 
ROOT
HETATM    1  C1  UNL     1      11.800  12.090  11.430  1.00  0.00     0.679 A 
HETATM    2  N2  UNL     1      12.507  11.798  12.537  1.00  0.00    -0.187 N 
ATOM      3  H2  UNL     1      12.568  12.505  13.269  1.00  0.00     0.184 HD
HETATM    4  C2  UNL     1      13.144  10.615  12.733  1.00  0.00     0.112 A 
HETATM    5  C5  UNL     1      13.032   9.697  11.721  1.00  0.00     0.078 A 
HETATM    6  C11 UNL     1      12.296   9.994  10.561  1.00  0.00     0.273 A 
HETATM    7  O1  UNL     1      12.181   9.169   9.621  1.00  0.00    -0.267 OA
HETATM    8  N10 UNL     1      11.693  11.189  10.440  1.00  0.00    -0.156 N 
ATOM      9  H10 UNL     1      11.157  11.411   9.601  1.00  0.00     0.187 HD
ENDROOT
BRANCH   4  10
HETATM   10  C3  UNL     1      13.897  10.400  13.970  1.00  0.00     0.166 A 
HETATM   11  N3  UNL     1      15.214  10.159  14.122  1.00  0.00    -0.245 N 
HETATM   12  N4  UNL     1      15.527  10.013  15.404  1.00  0.00    -0.001 N 
ATOM     13  H3  UNL     1      15.882  10.096  13.354  1.00  0.00     0.191 HD
HETATM   14  N5  UNL     1      16.471   9.783  16.309  1.00  0.00    -0.191 N 
HETATM   15  C4  UNL     1      14.388  10.164  16.090  1.00  0.00     0.737 A 
HETATM   16  N6  UNL     1      15.930   9.793  17.511  1.00  0.00    -0.212 N 
ATOM     17  H5  UNL     1      17.458   9.624  16.106  1.00  0.00     0.212 HD
HETATM   18  N7  UNL     1      14.634  10.028  17.403  1.00  0.00    -0.113 N 
ATOM     19  H6  UNL     1      16.432   9.643  18.386  1.00  0.00     0.210 HD
ATOM     20  H7  UNL     1      13.958  10.092  18.164  1.00  0.00     0.207 HD
HETATM   21  N8  UNL     1      13.399  10.399  15.215  1.00  0.00    -0.168 N 
ATOM     22  H8  UNL     1      12.420  10.552  15.458  1.00  0.00     0.186 HD
ENDBRANCH   4  10
BRANCH   5  23
HETATM   23  C6  UNL     1      13.642   8.388  11.827  1.00  0.00     0.038 A 
HETATM   24  C7  UNL     1      14.676   8.006  10.994  1.00  0.00     0.018 A 
HETATM   25  C8  UNL     1      15.268   6.756  11.095  1.00  0.00     0.018 A 
HETATM   26  C9  UNL     1      14.793   5.878  12.065  1.00  0.00     0.090 A 
HETATM   27  N9  UNL     1      13.792   6.268  12.861  1.00  0.00    -0.342 N 
HETATM   28  C10 UNL     1      13.204   7.490  12.772  1.00  0.00     0.199 A 
ATOM     29  H9  UNL     1      13.452   5.617  13.568  1.00  0.00     0.167 HD
HETATM   30  F1  UNL     1      12.184   7.774  13.650  1.00  0.00    -0.185 F 
ENDBRANCH   5  23
BRANCH   1  31
HETATM   31  N1  UNL     1      11.227  13.263  11.358  1.00  0.00    -0.234 N 
ATOM     32  H12 UNL     1      11.770  14.127  11.370  1.00  0.00     0.174 HD
ATOM     33  H11 UNL     1      10.211  13.297  11.286  1.00  0.00     0.174 HD
ENDBRANCH   1  31
TORSDOF 3
ENDMDL
MODEL 4
REMARK VINA RESULT: -8.412873604      2.695      4.603
REMARK  3 active torsions:
REMARK  status: ('A' for Active; 'I' for Inactive)
REMARK    1  A    between atoms: N1_1  and  C1_4 
REMARK    2  A    between atoms: C2_7  and  C3_8 
REMARK    3  A    between atoms: C5_21  and  C6_22 
ROOT
HETATM    1  C1  UNL     1      12.336   5.212   9.175  1.00  0.00     0.679 A 
HETATM    2  N2  UNL     1      13.111   4.897  10.228  1.00  0.00    -0.187 N 
ATOM      3  H2  UNL     1      13.418   3.930  10.328  1.00  0.00     0.184 HD
HETATM    4  C2  UNL     1      13.506   5.796  11.167  1.00  0.00     0.112 A 
HETATM    5  C5  UNL     1      13.068   7.082  10.990  1.00  0.00     0.078 A 
HETATM    6  C11 UNL     1      12.258   7.420   9.893  1.00  0.00     0.273 A 
HETATM    7  O1  UNL     1      11.845   8.591   9.710  1.00  0.00    -0.267 OA
HETATM    8  N10 UNL     1      11.908   6.474   9.004  1.00  0.00    -0.156 N 
ATOM      9  H10 UNL     1      11.321   6.712   8.205  1.00  0.00     0.187 HD
ENDROOT
BRANCH   4  10
HETATM   10  C3  UNL     1      14.341   5.348  12.283  1.00  0.00     0.166 A 
HETATM   11  N3  UNL     1      15.434   5.938  12.806  1.00  0.00    -0.245 N 
HETATM   12  N4  UNL     1      15.925   5.225  13.812  1.00  0.00    -0.001 N 
ATOM     13  H3  UNL     1      15.831   6.817  12.473  1.00  0.00     0.191 HD
HETATM   14  N5  UNL     1      16.857   5.104  14.751  1.00  0.00    -0.191 N 
HETATM   15  C4  UNL     1      15.133   4.155  13.939  1.00  0.00     0.737 A 
HETATM   16  N6  UNL     1      16.643   3.995  15.432  1.00  0.00    -0.212 N 
ATOM     17  H5  UNL     1      17.617   5.763  14.919  1.00  0.00     0.212 HD
HETATM   18  N7  UNL     1      15.576   3.385  14.947  1.00  0.00    -0.113 N 
ATOM     19  H6  UNL     1      17.212   3.660  16.210  1.00  0.00     0.210 HD
ATOM     20  H7  UNL     1      15.171   2.508  15.272  1.00  0.00     0.207 HD
HETATM   21  N8  UNL     1      14.171   4.232  13.007  1.00  0.00    -0.168 N 
ATOM     22  H8  UNL     1      13.425   3.549  12.870  1.00  0.00     0.186 HD
ENDBRANCH   4  10
BRANCH   5  23
HETATM   23  C6  UNL     1      13.449   8.135  11.908  1.00  0.00     0.038 A 
HETATM   24  C7  UNL     1      12.781   8.324  13.103  1.00  0.00     0.018 A 
HETATM   25  C8  UNL     1      13.144   9.328  13.989  1.00  0.00     0.018 A 
HETATM   26  C9  UNL     1      14.211  10.154  13.648  1.00  0.00     0.090 A 
HETATM   27  N9  UNL     1      14.844   9.952  12.487  1.00  0.00    -0.342 N 
HETATM   28  C10 UNL     1      14.498   8.974  11.611  1.00  0.00     0.199 A 
ATOM     29  H9  UNL     1      15.624  10.563  12.247  1.00  0.00     0.167 HD
HETATM   30  F1  UNL     1      15.228   8.866  10.451  1.00  0.00    -0.185 F 
ENDBRANCH   5  23
BRANCH   1  31
HETATM   31  N1  UNL     1      12.025   4.260   8.334  1.00  0.00    -0.234 N 
ATOM     32  H12 UNL     1      11.075   4.147   7.981  1.00  0.00     0.174 HD
ATOM     33  H11 UNL     1      12.763   3.626   8.033  1.00  0.00     0.174 HD
ENDBRANCH   1  31
TORSDOF 3
ENDMDL
MODEL 5
REMARK VINA RESULT: -8.380541645      2.121      4.389
REMARK  3 active torsions:
REMARK  status: ('A' for Active; 'I' for Inactive)
REMARK    1  A    between atoms: N1_1  and  C1_4 
REMARK    2  A    between atoms: C2_7  and  C3_8 
REMARK    3  A    between atoms: C5_21  and  C6_22 
ROOT
HETATM    1  C1  UNL     1      11.873   9.798   9.600  1.00  0.00     0.679 A 
HETATM    2  N2  UNL     1      12.541   8.702   9.999  1.00  0.00    -0.187 N 
ATOM      3  H2  UNL     1      12.597   7.912   9.357  1.00  0.00     0.184 HD
HETATM    4  C2  UNL     1      13.145   8.588  11.210  1.00  0.00     0.112 A 
HETATM    5  C5  UNL     1      13.043   9.675  12.037  1.00  0.00     0.078 A 
HETATM    6  C11 UNL     1      12.346  10.825  11.630  1.00  0.00     0.273 A 
HETATM    7  O1  UNL     1      12.239  11.832  12.371  1.00  0.00    -0.267 OA
HETATM    8  N10 UNL     1      11.773  10.863  10.413  1.00  0.00    -0.156 N 
ATOM      9  H10 UNL     1      11.267  11.694  10.110  1.00  0.00     0.187 HD
ENDROOT
BRANCH   4  10
HETATM   10  C3  UNL     1      13.839   7.344  11.553  1.00  0.00     0.166 A 
HETATM   11  N3  UNL     1      13.438   6.357  12.377  1.00  0.00    -0.245 N 
HETATM   12  N4  UNL     1      14.345   5.389  12.438  1.00  0.00    -0.001 N 
ATOM     13  H3  UNL     1      12.555   6.353  12.887  1.00  0.00     0.191 HD
HETATM   14  N5  UNL     1      14.698   4.212  12.943  1.00  0.00    -0.191 N 
HETATM   15  C4  UNL     1      15.349   5.762  11.637  1.00  0.00     0.737 A 
HETATM   16  N6  UNL     1      15.880   3.874  12.467  1.00  0.00    -0.212 N 
ATOM     17  H5  UNL     1      14.143   3.659  13.596  1.00  0.00     0.212 HD
HETATM   18  N7  UNL     1      16.308   4.822  11.651  1.00  0.00    -0.113 N 
ATOM     19  H6  UNL     1      16.385   3.017  12.693  1.00  0.00     0.210 HD
ATOM     20  H7  UNL     1      17.189   4.836  11.137  1.00  0.00     0.207 HD
HETATM   21  N8  UNL     1      15.039   6.952  11.100  1.00  0.00    -0.168 N 
ATOM     22  H8  UNL     1      15.624   7.477  10.449  1.00  0.00     0.186 HD
ENDBRANCH   4  10
BRANCH   5  23
HETATM   23  C6  UNL     1      13.672   9.684  13.342  1.00  0.00     0.038 A 
HETATM   24  C7  UNL     1      12.996   9.257  14.470  1.00  0.00     0.018 A 
HETATM   25  C8  UNL     1      13.595   9.258  15.721  1.00  0.00     0.018 A 
HETATM   26  C9  UNL     1      14.909   9.705  15.822  1.00  0.00     0.090 A 
HETATM   27  N9  UNL     1      15.544  10.114  14.718  1.00  0.00    -0.342 N 
HETATM   28  C10 UNL     1      14.969  10.117  13.488  1.00  0.00     0.199 A 
ATOM     29  H9  UNL     1      16.506  10.439  14.804  1.00  0.00     0.167 HD
HETATM   30  F1  UNL     1      15.727  10.558  12.429  1.00  0.00    -0.185 F 
ENDBRANCH   5  23
BRANCH   1  31
HETATM   31  N1  UNL     1      11.336   9.791   8.408  1.00  0.00    -0.234 N 
ATOM     32  H12 UNL     1      11.891   9.615   7.570  1.00  0.00     0.174 HD
ATOM     33  H11 UNL     1      10.335   9.967   8.331  1.00  0.00     0.174 HD
ENDBRANCH   1  31
TORSDOF 3
ENDMDL
