MODEL 1
REMARK VINA RESULT: -7.681461121      0.000      0.000
REMARK  5 active torsions:
REMARK  status: ('A' for Active; 'I' for Inactive)
REMARK    1  A    between atoms: N1_1  and  C1_4 
REMARK    2  A    between atoms: C2_7  and  O1_8 
REMARK    3  A    between atoms: O1_8  and  N3_9 
REMARK    4  A    between atoms: N3_9  and  O2_10 
REMARK    5  A    between atoms: N3_9  and  N4_12 
ROOT
HETATM    1  C1  UNL     1      14.972   9.647  15.609  1.00  0.00     0.133 A 
HETATM    2  N2  UNL     1      15.717   8.593  15.243  1.00  0.00    -0.305 N 
ATOM      3  H2  UNL     1      16.282   8.130  15.954  1.00  0.00     0.171 HD
HETATM    4  C2  UNL     1      15.755   8.117  13.987  1.00  0.00     0.255 A 
HETATM    5  N5  UNL     1      15.004   8.740  13.070  1.00  0.00    -0.304 N 
ATOM      6  H5  UNL     1      15.017   8.393  12.111  1.00  0.00     0.171 HD
HETATM    7  C3  UNL     1      14.220   9.818  13.363  1.00  0.00     0.141 A 
HETATM    8  N6  UNL     1      13.486  10.399  12.380  1.00  0.00    -0.325 N 
ATOM      9  H6  UNL     1      13.506  10.049  11.422  1.00  0.00     0.169 HD
HETATM   10  C4  UNL     1      12.719  11.476  12.731  1.00  0.00     0.134 A 
HETATM   11  C5  UNL     1      12.696  11.944  14.019  1.00  0.00     0.125 A 
HETATM   12  N7  UNL     1      13.442  11.347  14.997  1.00  0.00    -0.344 N 
ATOM     13  H7  UNL     1      13.428  11.693  15.956  1.00  0.00     0.166 HD
HETATM   14  C6  UNL     1      14.192  10.294  14.653  1.00  0.00     0.121 A 
HETATM   15  C7  UNL     1      11.787  13.096  14.075  1.00  0.00     0.197 C 
HETATM   16  O3  UNL     1      11.736  13.958  14.990  1.00  0.00    -0.289 OA
HETATM   17  C8  UNL     1      10.961  13.017  12.833  1.00  0.00     0.207 C 
HETATM   18  N8  UNL     1      11.853  12.284  11.935  1.00  0.00    -0.367 N 
ATOM     19  H8  UNL     1      11.856  12.340  10.917  1.00  0.00     0.161 HD
ENDROOT
BRANCH   4  20
HETATM   20  O1  UNL     1      16.549   7.009  13.641  1.00  0.00    -0.156 OA
BRANCH  20  21
HETATM   21  N3  UNL     1      17.437   6.450  14.495  1.00  0.00    -0.022 N 
BRANCH  21  22
HETATM   22  O2  UNL     1      17.124   5.585  15.332  1.00  0.00    -0.246 OA
ATOM     23  H2  UNL     1      17.416   4.682  15.280  1.00  0.00     0.249 HD
ENDBRANCH  21  22
BRANCH  21  24
HETATM   24  N4  UNL     1      18.772   6.854  14.447  1.00  0.00    -0.116 N 
HETATM   25  F1  UNL     1      19.486   6.911  15.592  1.00  0.00    -0.081 F 
ATOM     26  H4  UNL     1      19.203   7.102  13.557  1.00  0.00     0.226 HD
ENDBRANCH  21  24
ENDBRANCH  20  21
ENDBRANCH   4  20
BRANCH   1  27
HETATM   27  N1  UNL     1      14.964  10.072  16.824  1.00  0.00    -0.383 N 
ATOM     28  H12 UNL     1      15.699   9.772  17.463  1.00  0.00     0.157 HD
ATOM     29  H11 UNL     1      14.237  10.703  17.160  1.00  0.00     0.157 HD
ENDBRANCH   1  27
TORSDOF 5
ENDMDL
MODEL 2
REMARK VINA RESULT: -7.617167111      3.484      6.700
REMARK  5 active torsions:
REMARK  status: ('A' for Active; 'I' for Inactive)
REMARK    1  A    between atoms: N1_1  and  C1_4 
REMARK    2  A    between atoms: C2_7  and  O1_8 
REMARK    3  A    between atoms: O1_8  and  N3_9 
REMARK    4  A    between atoms: N3_9  and  O2_10 
REMARK    5  A    between atoms: N3_9  and  N4_12 
ROOT
HETATM    1  C1  UNL     1      13.570   9.837  14.923  1.00  0.00     0.133 A 
HETATM    2  N2  UNL     1      13.165  11.103  14.742  1.00  0.00    -0.305 N 
ATOM      3  H2  UNL     1      13.124  11.719  15.554  1.00  0.00     0.171 HD
HETATM    4  C2  UNL     1      12.810  11.599  13.545  1.00  0.00     0.255 A 
HETATM    5  N5  UNL     1      12.873  10.773  12.493  1.00  0.00    -0.304 N 
ATOM      6  H5  UNL     1      12.610  11.131  11.575  1.00  0.00     0.171 HD
HETATM    7  C3  UNL     1      13.274   9.473  12.596  1.00  0.00     0.141 A 
HETATM    8  N6  UNL     1      13.311   8.694  11.485  1.00  0.00    -0.325 N 
ATOM      9  H6  UNL     1      13.045   9.057  10.570  1.00  0.00     0.169 HD
HETATM   10  C4  UNL     1      13.722   7.399  11.647  1.00  0.00     0.134 A 
HETATM   11  C5  UNL     1      14.078   6.914  12.878  1.00  0.00     0.125 A 
HETATM   12  N7  UNL     1      14.035   7.713  13.987  1.00  0.00    -0.344 N 
ATOM     13  H7  UNL     1      14.299   7.355  14.905  1.00  0.00     0.166 HD
HETATM   14  C6  UNL     1      13.634   8.979  13.828  1.00  0.00     0.121 A 
HETATM   15  C7  UNL     1      14.468   5.507  12.724  1.00  0.00     0.197 C 
HETATM   16  O3  UNL     1      14.565   4.658  13.648  1.00  0.00    -0.289 OA
HETATM   17  C8  UNL     1      14.715   5.315  11.264  1.00  0.00     0.207 C 
HETATM   18  N8  UNL     1      13.865   6.354  10.685  1.00  0.00    -0.367 N 
ATOM     19  H8  UNL     1      13.445   6.336   9.755  1.00  0.00     0.161 HD
ENDROOT
BRANCH   4  20
HETATM   20  O1  UNL     1      12.390  12.933  13.393  1.00  0.00    -0.156 OA
BRANCH  20  21
HETATM   21  N3  UNL     1      11.544  13.536  14.260  1.00  0.00    -0.022 N 
BRANCH  21  22
HETATM   22  O2  UNL     1      11.785  13.653  15.475  1.00  0.00    -0.246 OA
ATOM     23  H2  UNL     1      12.339  13.049  15.955  1.00  0.00     0.249 HD
ENDBRANCH  21  22
BRANCH  21  24
HETATM   24  N4  UNL     1      10.340  14.058  13.783  1.00  0.00    -0.116 N 
HETATM   25  F1  UNL     1       9.634  13.356  12.871  1.00  0.00    -0.081 F 
ATOM     26  H4  UNL     1       9.999  14.957  14.120  1.00  0.00     0.226 HD
ENDBRANCH  21  24
ENDBRANCH  20  21
ENDBRANCH   4  20
BRANCH   1  27
HETATM   27  N1  UNL     1      13.900   9.400  16.088  1.00  0.00    -0.383 N 
ATOM     28  H12 UNL     1      14.627   8.690  16.168  1.00  0.00     0.157 HD
ATOM     29  H11 UNL     1      13.449   9.751  16.933  1.00  0.00     0.157 HD
ENDBRANCH   1  27
TORSDOF 5
ENDMDL
MODEL 3
REMARK VINA RESULT: -7.531285822      2.429      3.519
REMARK  5 active torsions:
REMARK  status: ('A' for Active; 'I' for Inactive)
REMARK    1  A    between atoms: N1_1  and  C1_4 
REMARK    2  A    between atoms: C2_7  and  O1_8 
REMARK    3  A    between atoms: O1_8  and  N3_9 
REMARK    4  A    between atoms: N3_9  and  O2_10 
REMARK    5  A    between atoms: N3_9  and  N4_12 
ROOT
HETATM    1  C1  UNL     1      14.942   7.246  11.156  1.00  0.00     0.133 A 
HETATM    2  N2  UNL     1      15.567   6.169  11.655  1.00  0.00    -0.305 N 
ATOM      3  H2  UNL     1      15.961   5.492  11.002  1.00  0.00     0.171 HD
HETATM    4  C2  UNL     1      15.699   5.937  12.972  1.00  0.00     0.255 A 
HETATM    5  N5  UNL     1      15.175   6.840  13.811  1.00  0.00    -0.304 N 
ATOM      6  H5  UNL     1      15.266   6.684  14.815  1.00  0.00     0.171 HD
HETATM    7  C3  UNL     1      14.525   7.960  13.382  1.00  0.00     0.141 A 
HETATM    8  N6  UNL     1      14.018   8.831  14.292  1.00  0.00    -0.325 N 
ATOM      9  H6  UNL     1      14.111   8.667  15.295  1.00  0.00     0.169 HD
HETATM   10  C4  UNL     1      13.377   9.937  13.805  1.00  0.00     0.134 A 
HETATM   11  C5  UNL     1      13.254  10.152  12.457  1.00  0.00     0.125 A 
HETATM   12  N7  UNL     1      13.770   9.264  11.554  1.00  0.00    -0.344 N 
ATOM     13  H7  UNL     1      13.680   9.421  10.550  1.00  0.00     0.166 HD
HETATM   14  C6  UNL     1      14.397   8.183  12.030  1.00  0.00     0.121 A 
HETATM   15  C7  UNL     1      12.524  11.410  12.256  1.00  0.00     0.197 C 
HETATM   16  O3  UNL     1      11.966  11.783  11.192  1.00  0.00    -0.289 OA
HETATM   17  C8  UNL     1      12.591  12.128  13.564  1.00  0.00     0.207 C 
HETATM   18  N8  UNL     1      12.751  11.015  14.499  1.00  0.00    -0.367 N 
ATOM     19  H8  UNL     1      12.465  11.009  15.478  1.00  0.00     0.161 HD
ENDROOT
BRANCH   4  20
HETATM   20  O1  UNL     1      16.361   4.796  13.459  1.00  0.00    -0.156 OA
BRANCH  20  21
HETATM   21  N3  UNL     1      16.648   4.621  14.770  1.00  0.00    -0.022 N 
BRANCH  21  22
HETATM   22  O2  UNL     1      17.392   5.384  15.411  1.00  0.00    -0.246 OA
ATOM     23  H2  UNL     1      18.026   5.958  14.998  1.00  0.00     0.249 HD
ENDBRANCH  21  22
BRANCH  21  24
HETATM   24  N4  UNL     1      16.090   3.537  15.448  1.00  0.00    -0.116 N 
HETATM   25  F1  UNL     1      16.635   3.139  16.618  1.00  0.00    -0.081 F 
ATOM     26  H4  UNL     1      15.279   3.051  15.065  1.00  0.00     0.226 HD
ENDBRANCH  21  24
ENDBRANCH  20  21
ENDBRANCH   4  20
BRANCH   1  27
HETATM   27  N1  UNL     1      14.836   7.430   9.887  1.00  0.00    -0.383 N 
ATOM     28  H12 UNL     1      15.653   7.294   9.292  1.00  0.00     0.157 HD
ATOM     29  H11 UNL     1      13.952   7.711   9.463  1.00  0.00     0.157 HD
ENDBRANCH   1  27
TORSDOF 5
ENDMDL
MODEL 4
REMARK VINA RESULT: -7.528116080      3.069      4.133
REMARK  5 active torsions:
REMARK  status: ('A' for Active; 'I' for Inactive)
REMARK    1  A    between atoms: N1_1  and  C1_4 
REMARK    2  A    between atoms: C2_7  and  O1_8 
REMARK    3  A    between atoms: O1_8  and  N3_9 
REMARK    4  A    between atoms: N3_9  and  O2_10 
REMARK    5  A    between atoms: N3_9  and  N4_12 
ROOT
HETATM    1  C1  UNL     1      14.054   8.686  13.461  1.00  0.00     0.133 A 
HETATM    2  N2  UNL     1      14.304   8.704  14.779  1.00  0.00    -0.305 N 
ATOM      3  H2  UNL     1      14.829   7.928  15.182  1.00  0.00     0.171 HD
HETATM    4  C2  UNL     1      13.898   9.692  15.593  1.00  0.00     0.255 A 
HETATM    5  N5  UNL     1      13.211  10.701  15.041  1.00  0.00    -0.304 N 
ATOM      6  H5  UNL     1      12.896  11.462  15.642  1.00  0.00     0.171 HD
HETATM    7  C3  UNL     1      12.917  10.755  13.710  1.00  0.00     0.141 A 
HETATM    8  N6  UNL     1      12.215  11.810  13.222  1.00  0.00    -0.325 N 
ATOM      9  H6  UNL     1      11.900  12.567  13.829  1.00  0.00     0.169 HD
HETATM   10  C4  UNL     1      11.949  11.812  11.880  1.00  0.00     0.134 A 
HETATM   11  C5  UNL     1      12.373  10.793  11.069  1.00  0.00     0.125 A 
HETATM   12  N7  UNL     1      13.078   9.738  11.577  1.00  0.00    -0.344 N 
ATOM     13  H7  UNL     1      13.395   8.977  10.976  1.00  0.00     0.166 HD
HETATM   14  C6  UNL     1      13.339   9.736  12.889  1.00  0.00     0.121 A 
HETATM   15  C7  UNL     1      11.936  11.082   9.698  1.00  0.00     0.197 C 
HETATM   16  O3  UNL     1      11.873  10.259   8.748  1.00  0.00    -0.289 OA
HETATM   17  C8  UNL     1      11.591  12.535   9.683  1.00  0.00     0.207 C 
HETATM   18  N8  UNL     1      11.245  12.766  11.086  1.00  0.00    -0.367 N 
ATOM     19  H8  UNL     1      10.611  13.485  11.436  1.00  0.00     0.161 HD
ENDROOT
BRANCH   4  20
HETATM   20  O1  UNL     1      14.179   9.677  16.971  1.00  0.00    -0.156 OA
BRANCH  20  21
HETATM   21  N3  UNL     1      15.243  10.319  17.507  1.00  0.00    -0.022 N 
BRANCH  21  22
HETATM   22  O2  UNL     1      16.167   9.730  18.095  1.00  0.00    -0.246 OA
ATOM     23  H2  UNL     1      16.818  10.180  18.620  1.00  0.00     0.249 HD
ENDBRANCH  21  22
BRANCH  21  24
HETATM   24  N4  UNL     1      15.321  11.709  17.403  1.00  0.00    -0.116 N 
HETATM   25  F1  UNL     1      16.457  12.336  17.777  1.00  0.00    -0.081 F 
ATOM     26  H4  UNL     1      14.529  12.244  17.048  1.00  0.00     0.226 HD
ENDBRANCH  21  24
ENDBRANCH  20  21
ENDBRANCH   4  20
BRANCH   1  27
HETATM   27  N1  UNL     1      14.460   7.719  12.715  1.00  0.00    -0.383 N 
ATOM     28  H12 UNL     1      14.085   6.782  12.862  1.00  0.00     0.157 HD
ATOM     29  H11 UNL     1      15.151   7.870  11.981  1.00  0.00     0.157 HD
ENDBRANCH   1  27
TORSDOF 5
ENDMDL
MODEL 5
REMARK VINA RESULT: -7.498246954      1.890      2.085
REMARK  5 active torsions:
REMARK  status: ('A' for Active; 'I' for Inactive)
REMARK    1  A    between atoms: N1_1  and  C1_4 
REMARK    2  A    between atoms: C2_7  and  O1_8 
REMARK    3  A    between atoms: O1_8  and  N3_9 
REMARK    4  A    between atoms: N3_9  and  O2_10 
REMARK    5  A    between atoms: N3_9  and  N4_12 
ROOT
HETATM    1  C1  UNL     1      14.140   9.846  15.321  1.00  0.00     0.133 A 
HETATM    2  N2  UNL     1      14.968   8.827  15.043  1.00  0.00    -0.305 N 
ATOM      3  H2  UNL     1      15.433   8.356  15.819  1.00  0.00     0.171 HD
HETATM    4  C2  UNL     1      15.214   8.396  13.795  1.00  0.00     0.255 A 
HETATM    5  N5  UNL     1      14.591   9.029  12.792  1.00  0.00    -0.304 N 
ATOM      6  H5  UNL     1      14.763   8.715  11.837  1.00  0.00     0.171 HD
HETATM    7  C3  UNL     1      13.736  10.073  12.992  1.00  0.00     0.141 A 
HETATM    8  N6  UNL     1      13.142  10.666  11.926  1.00  0.00    -0.325 N 
ATOM      9  H6  UNL     1      13.319  10.350  10.972  1.00  0.00     0.169 HD
HETATM   10  C4  UNL     1      12.293  11.707  12.186  1.00  0.00     0.134 A 
HETATM   11  C5  UNL     1      12.058  12.130  13.468  1.00  0.00     0.125 A 
HETATM   12  N7  UNL     1      12.666  11.521  14.531  1.00  0.00    -0.344 N 
ATOM     13  H7  UNL     1      12.493  11.833  15.487  1.00  0.00     0.166 HD
HETATM   14  C6  UNL     1      13.494  10.503  14.277  1.00  0.00     0.121 A 
HETATM   15  C7  UNL     1      11.113  13.252  13.418  1.00  0.00     0.197 C 
HETATM   16  O3  UNL     1      10.893  14.080  14.339  1.00  0.00    -0.289 OA
HETATM   17  C8  UNL     1      10.490  13.193  12.062  1.00  0.00     0.207 C 
HETATM   18  N8  UNL     1      11.533  12.517  11.291  1.00  0.00    -0.367 N 
ATOM     19  H8  UNL     1      11.690  12.609  10.287  1.00  0.00     0.161 HD
ENDROOT
BRANCH   4  20
HETATM   20  O1  UNL     1      16.088   7.324  13.542  1.00  0.00    -0.156 OA
BRANCH  20  21
HETATM   21  N3  UNL     1      15.844   6.390  12.593  1.00  0.00    -0.022 N 
BRANCH  21  22
HETATM   22  O2  UNL     1      16.032   6.589  11.379  1.00  0.00    -0.246 OA
ATOM     23  H2  UNL     1      16.885   6.786  11.012  1.00  0.00     0.249 HD
ENDBRANCH  21  22
BRANCH  21  24
HETATM   24  N4  UNL     1      15.359   5.140  12.979  1.00  0.00    -0.116 N 
HETATM   25  F1  UNL     1      14.180   5.063  13.634  1.00  0.00    -0.081 F 
ATOM     26  H4  UNL     1      15.889   4.294  12.769  1.00  0.00     0.226 HD
ENDBRANCH  21  24
ENDBRANCH  20  21
ENDBRANCH   4  20
BRANCH   1  27
HETATM   27  N1  UNL     1      13.933  10.228  16.532  1.00  0.00    -0.383 N 
ATOM     28  H12 UNL     1      14.218   9.625  17.303  1.00  0.00     0.157 HD
ATOM     29  H11 UNL     1      13.488  11.123  16.737  1.00  0.00     0.157 HD
ENDBRANCH   1  27
TORSDOF 5
ENDMDL
