MODEL 1
REMARK VINA RESULT: -6.750724926      0.000      0.000
REMARK  9 active torsions:
REMARK  status: ('A' for Active; 'I' for Inactive)
REMARK    1  A    between atoms: C2_2  and  O1_4 
REMARK    2  A    between atoms: C2_2  and  C4_6 
REMARK    3  A    between atoms: C4_6  and  C5_7 
REMARK    4  A    between atoms: C5_7  and  C6_8 
REMARK    5  A    between atoms: C6_8  and  O2_11 
REMARK    6  A    between atoms: O2_11  and  C9_12 
REMARK    7  A    between atoms: C11_14  and  N1_16 
REMARK    8  A    between atoms: C13_20  and  C14_21 
REMARK    9  A    between atoms: C14_21  and  O3_22 
ROOT
HETATM    1  C9  UNL     1      -4.352   2.109  12.600  1.00  0.00     0.264 C 
HETATM    2  C10 UNL     1      -4.928   1.335  11.437  1.00  0.00     0.102 C 
HETATM    3  C11 UNL     1      -3.845   0.253  11.323  1.00  0.00     0.152 C 
HETATM    4  C12 UNL     1      -4.170  -0.933  12.191  1.00  0.00     0.049 C 
HETATM    5  C13 UNL     1      -2.644   1.002  11.807  1.00  0.00     0.183 C 
HETATM    6  O4  UNL     1      -3.052   2.298  12.120  1.00  0.00    -0.351 OA
ENDROOT
BRANCH   1   7
HETATM    7  O2  UNL     1      -4.930   3.309  12.829  1.00  0.00    -0.351 OA
BRANCH   7   8
HETATM    8  C6  UNL     1      -5.001   3.713  14.140  1.00  0.00     0.057 C 
HETATM    9  C7  UNL     1      -3.775   4.590  14.411  1.00  0.00     0.045 C 
HETATM   10  C8  UNL     1      -6.225   4.457  14.516  1.00  0.00     0.045 C 
BRANCH   8  11
HETATM   11  C5  UNL     1      -4.895   2.524  15.076  1.00  0.00     0.040 C 
BRANCH  11  12
HETATM   12  C4  UNL     1      -6.203   2.525  15.881  1.00  0.00     0.040 C 
BRANCH  12  13
HETATM   13  C2  UNL     1      -6.241   1.361  16.843  1.00  0.00     0.051 C 
HETATM   14  C1  UNL     1      -6.214   1.823  18.268  1.00  0.00     0.045 C 
HETATM   15  C3  UNL     1      -5.009   0.525  16.571  1.00  0.00     0.045 C 
BRANCH  13  16
HETATM   16  O1  UNL     1      -7.344   0.525  16.607  1.00  0.00    -0.391 OA
ATOM     17  H1  UNL     1      -7.587   0.535  15.688  1.00  0.00     0.210 HD
ENDBRANCH  13  16
ENDBRANCH  12  13
ENDBRANCH  11  12
ENDBRANCH   8  11
ENDBRANCH   7   8
ENDBRANCH   1   7
BRANCH   3  18
HETATM   18  N1  UNL     1      -3.786  -0.159   9.964  1.00  0.00    -0.068 N 
ATOM     19  H13 UNL     1      -4.252  -1.051   9.799  1.00  0.00     0.275 HD
ATOM     20  H12 UNL     1      -4.369   0.412   9.351  1.00  0.00     0.275 HD
ATOM     21  H11 UNL     1      -2.805  -0.166   9.684  1.00  0.00     0.275 HD
ENDBRANCH   3  18
BRANCH   5  22
HETATM   22  C14 UNL     1      -1.554   0.997  10.757  1.00  0.00     0.198 C 
BRANCH  22  23
HETATM   23  O3  UNL     1      -1.577   2.150  10.006  1.00  0.00    -0.398 OA
ATOM     24  H3  UNL     1      -0.703   2.504   9.889  1.00  0.00     0.209 HD
ENDBRANCH  22  23
ENDBRANCH   5  22
TORSDOF 9
ENDMDL
MODEL 2
REMARK VINA RESULT: -6.449005927      2.290      6.304
REMARK  9 active torsions:
REMARK  status: ('A' for Active; 'I' for Inactive)
REMARK    1  A    between atoms: C2_2  and  O1_4 
REMARK    2  A    between atoms: C2_2  and  C4_6 
REMARK    3  A    between atoms: C4_6  and  C5_7 
REMARK    4  A    between atoms: C5_7  and  C6_8 
REMARK    5  A    between atoms: C6_8  and  O2_11 
REMARK    6  A    between atoms: O2_11  and  C9_12 
REMARK    7  A    between atoms: C11_14  and  N1_16 
REMARK    8  A    between atoms: C13_20  and  C14_21 
REMARK    9  A    between atoms: C14_21  and  O3_22 
ROOT
HETATM    1  C9  UNL     1      -4.323   0.568  13.912  1.00  0.00     0.264 C 
HETATM    2  C10 UNL     1      -5.204   1.797  13.935  1.00  0.00     0.102 C 
HETATM    3  C11 UNL     1      -4.949   2.234  15.385  1.00  0.00     0.152 C 
HETATM    4  C12 UNL     1      -3.766   3.159  15.471  1.00  0.00     0.049 C 
HETATM    5  C13 UNL     1      -4.691   0.914  16.039  1.00  0.00     0.183 C 
HETATM    6  O4  UNL     1      -4.806  -0.072  15.059  1.00  0.00    -0.351 OA
ENDROOT
BRANCH   1   7
HETATM    7  O2  UNL     1      -4.492  -0.235  12.839  1.00  0.00    -0.351 OA
BRANCH   7   8
HETATM    8  C6  UNL     1      -3.860   0.150  11.682  1.00  0.00     0.057 C 
HETATM    9  C7  UNL     1      -2.957  -1.008  11.251  1.00  0.00     0.045 C 
HETATM   10  C8  UNL     1      -4.751   0.519  10.558  1.00  0.00     0.045 C 
BRANCH   8  11
HETATM   11  C5  UNL     1      -2.948   1.336  11.936  1.00  0.00     0.040 C 
BRANCH  11  12
HETATM   12  C4  UNL     1      -1.848   1.237  10.870  1.00  0.00     0.040 C 
BRANCH  12  13
HETATM   13  C2  UNL     1      -1.341   2.609  10.494  1.00  0.00     0.051 C 
HETATM   14  C1  UNL     1      -0.224   3.049  11.391  1.00  0.00     0.045 C 
HETATM   15  C3  UNL     1      -2.505   3.566  10.648  1.00  0.00     0.045 C 
BRANCH  13  16
HETATM   16  O1  UNL     1      -0.956   2.671   9.145  1.00  0.00    -0.391 OA
ATOM     17  H1  UNL     1      -1.674   2.422   8.575  1.00  0.00     0.210 HD
ENDBRANCH  13  16
ENDBRANCH  12  13
ENDBRANCH  11  12
ENDBRANCH   8  11
ENDBRANCH   7   8
ENDBRANCH   1   7
BRANCH   3  18
HETATM   18  N1  UNL     1      -6.113   2.911  15.842  1.00  0.00    -0.068 N 
ATOM     19  H13 UNL     1      -5.902   3.663  16.499  1.00  0.00     0.275 HD
ATOM     20  H12 UNL     1      -6.549   3.483  15.118  1.00  0.00     0.275 HD
ATOM     21  H11 UNL     1      -6.746   2.212  16.229  1.00  0.00     0.275 HD
ENDBRANCH   3  18
BRANCH   5  22
HETATM   22  C14 UNL     1      -5.661   0.685  17.178  1.00  0.00     0.198 C 
BRANCH  22  23
HETATM   23  O3  UNL     1      -6.871   0.216  16.720  1.00  0.00    -0.398 OA
ATOM     24  H3  UNL     1      -7.492   0.924  16.597  1.00  0.00     0.209 HD
ENDBRANCH  22  23
ENDBRANCH   5  22
TORSDOF 9
ENDMDL
MODEL 3
REMARK VINA RESULT: -6.397106110      2.383      6.158
REMARK  9 active torsions:
REMARK  status: ('A' for Active; 'I' for Inactive)
REMARK    1  A    between atoms: C2_2  and  O1_4 
REMARK    2  A    between atoms: C2_2  and  C4_6 
REMARK    3  A    between atoms: C4_6  and  C5_7 
REMARK    4  A    between atoms: C5_7  and  C6_8 
REMARK    5  A    between atoms: C6_8  and  O2_11 
REMARK    6  A    between atoms: O2_11  and  C9_12 
REMARK    7  A    between atoms: C11_14  and  N1_16 
REMARK    8  A    between atoms: C13_20  and  C14_21 
REMARK    9  A    between atoms: C14_21  and  O3_22 
ROOT
HETATM    1  C9  UNL     1      -4.321   0.687  13.793  1.00  0.00     0.264 C 
HETATM    2  C10 UNL     1      -5.210   1.910  13.828  1.00  0.00     0.102 C 
HETATM    3  C11 UNL     1      -4.927   2.357  15.269  1.00  0.00     0.152 C 
HETATM    4  C12 UNL     1      -3.748   3.292  15.324  1.00  0.00     0.049 C 
HETATM    5  C13 UNL     1      -4.644   1.043  15.925  1.00  0.00     0.183 C 
HETATM    6  O4  UNL     1      -4.773   0.051  14.954  1.00  0.00    -0.351 OA
ENDROOT
BRANCH   1   7
HETATM    7  O2  UNL     1      -4.508  -0.124  12.729  1.00  0.00    -0.351 OA
BRANCH   7   8
HETATM    8  C6  UNL     1      -3.884   0.246  11.562  1.00  0.00     0.057 C 
HETATM    9  C7  UNL     1      -2.729  -0.732  11.335  1.00  0.00     0.045 C 
HETATM   10  C8  UNL     1      -4.745   0.274  10.356  1.00  0.00     0.045 C 
BRANCH   8  11
HETATM   11  C5  UNL     1      -3.262   1.624  11.698  1.00  0.00     0.040 C 
BRANCH  11  12
HETATM   12  C4  UNL     1      -1.847   1.487  11.118  1.00  0.00     0.040 C 
BRANCH  12  13
HETATM   13  C2  UNL     1      -1.111   2.804  11.184  1.00  0.00     0.051 C 
HETATM   14  C1  UNL     1      -2.059   3.961  11.269  1.00  0.00     0.045 C 
HETATM   15  C3  UNL     1      -0.302   2.921   9.909  1.00  0.00     0.045 C 
BRANCH  13  16
HETATM   16  O1  UNL     1      -0.187   2.834  12.240  1.00  0.00    -0.391 OA
ATOM     17  H1  UNL     1       0.637   2.439  11.982  1.00  0.00     0.210 HD
ENDBRANCH  13  16
ENDBRANCH  12  13
ENDBRANCH  11  12
ENDBRANCH   8  11
ENDBRANCH   7   8
ENDBRANCH   1   7
BRANCH   3  18
HETATM   18  N1  UNL     1      -6.085   3.029  15.748  1.00  0.00    -0.068 N 
ATOM     19  H13 UNL     1      -6.253   3.916  15.274  1.00  0.00     0.275 HD
ATOM     20  H12 UNL     1      -6.952   2.565  15.479  1.00  0.00     0.275 HD
ATOM     21  H11 UNL     1      -5.987   3.132  16.758  1.00  0.00     0.275 HD
ENDBRANCH   3  18
BRANCH   5  22
HETATM   22  C14 UNL     1      -5.587   0.814  17.087  1.00  0.00     0.198 C 
BRANCH  22  23
HETATM   23  O3  UNL     1      -6.752   0.209  16.675  1.00  0.00    -0.398 OA
ATOM     24  H3  UNL     1      -7.444   0.319  17.317  1.00  0.00     0.209 HD
ENDBRANCH  22  23
ENDBRANCH   5  22
TORSDOF 9
ENDMDL
MODEL 4
REMARK VINA RESULT: -6.362463265      1.348      1.778
REMARK  9 active torsions:
REMARK  status: ('A' for Active; 'I' for Inactive)
REMARK    1  A    between atoms: C2_2  and  O1_4 
REMARK    2  A    between atoms: C2_2  and  C4_6 
REMARK    3  A    between atoms: C4_6  and  C5_7 
REMARK    4  A    between atoms: C5_7  and  C6_8 
REMARK    5  A    between atoms: C6_8  and  O2_11 
REMARK    6  A    between atoms: O2_11  and  C9_12 
REMARK    7  A    between atoms: C11_14  and  N1_16 
REMARK    8  A    between atoms: C13_20  and  C14_21 
REMARK    9  A    between atoms: C14_21  and  O3_22 
ROOT
HETATM    1  C9  UNL     1      -4.858   2.329  12.549  1.00  0.00     0.264 C 
HETATM    2  C10 UNL     1      -4.093   1.134  13.070  1.00  0.00     0.102 C 
HETATM    3  C11 UNL     1      -3.444   0.685  11.752  1.00  0.00     0.152 C 
HETATM    4  C12 UNL     1      -2.117   1.363  11.544  1.00  0.00     0.049 C 
HETATM    5  C13 UNL     1      -4.474   1.129  10.763  1.00  0.00     0.183 C 
HETATM    6  O4  UNL     1      -5.516   1.720  11.475  1.00  0.00    -0.351 OA
ENDROOT
BRANCH   1   7
HETATM    7  O2  UNL     1      -5.766   2.843  13.407  1.00  0.00    -0.351 OA
BRANCH   7   8
HETATM    8  C6  UNL     1      -5.320   3.833  14.248  1.00  0.00     0.057 C 
HETATM    9  C7  UNL     1      -3.973   4.316  13.707  1.00  0.00     0.045 C 
HETATM   10  C8  UNL     1      -6.227   4.993  14.409  1.00  0.00     0.045 C 
BRANCH   8  11
HETATM   11  C5  UNL     1      -5.054   3.279  15.636  1.00  0.00     0.040 C 
BRANCH  11  12
HETATM   12  C4  UNL     1      -6.385   2.661  16.088  1.00  0.00     0.040 C 
BRANCH  12  13
HETATM   13  C2  UNL     1      -6.146   1.431  16.930  1.00  0.00     0.051 C 
HETATM   14  C1  UNL     1      -6.166   1.753  18.393  1.00  0.00     0.045 C 
HETATM   15  C3  UNL     1      -4.776   0.902  16.559  1.00  0.00     0.045 C 
BRANCH  13  16
HETATM   16  O1  UNL     1      -7.058   0.407  16.628  1.00  0.00    -0.391 OA
ATOM     17  H1  UNL     1      -6.749  -0.120  15.901  1.00  0.00     0.210 HD
ENDBRANCH  13  16
ENDBRANCH  12  13
ENDBRANCH  11  12
ENDBRANCH   8  11
ENDBRANCH   7   8
ENDBRANCH   1   7
BRANCH   3  18
HETATM   18  N1  UNL     1      -3.250  -0.721  11.824  1.00  0.00    -0.068 N 
ATOM     19  H13 UNL     1      -2.754  -1.011  12.667  1.00  0.00     0.275 HD
ATOM     20  H12 UNL     1      -4.115  -1.234  11.994  1.00  0.00     0.275 HD
ATOM     21  H11 UNL     1      -2.779  -1.013  10.967  1.00  0.00     0.275 HD
ENDBRANCH   3  18
BRANCH   5  22
HETATM   22  C14 UNL     1      -4.955  -0.041   9.933  1.00  0.00     0.198 C 
BRANCH  22  23
HETATM   23  O3  UNL     1      -3.956  -0.522   9.118  1.00  0.00    -0.398 OA
ATOM     24  H3  UNL     1      -4.312  -1.029   8.398  1.00  0.00     0.209 HD
ENDBRANCH  22  23
ENDBRANCH   5  22
TORSDOF 9
ENDMDL
MODEL 5
REMARK VINA RESULT: -6.088940140      2.814      4.038
REMARK  9 active torsions:
REMARK  status: ('A' for Active; 'I' for Inactive)
REMARK    1  A    between atoms: C2_2  and  O1_4 
REMARK    2  A    between atoms: C2_2  and  C4_6 
REMARK    3  A    between atoms: C4_6  and  C5_7 
REMARK    4  A    between atoms: C5_7  and  C6_8 
REMARK    5  A    between atoms: C6_8  and  O2_11 
REMARK    6  A    between atoms: O2_11  and  C9_12 
REMARK    7  A    between atoms: C11_14  and  N1_16 
REMARK    8  A    between atoms: C13_20  and  C14_21 
REMARK    9  A    between atoms: C14_21  and  O3_22 
ROOT
HETATM    1  C9  UNL     1      -3.264   3.987  13.618  1.00  0.00     0.264 C 
HETATM    2  C10 UNL     1      -2.826   5.254  14.317  1.00  0.00     0.102 C 
HETATM    3  C11 UNL     1      -2.482   6.092  13.078  1.00  0.00     0.152 C 
HETATM    4  C12 UNL     1      -3.685   6.853  12.589  1.00  0.00     0.049 C 
HETATM    5  C13 UNL     1      -2.055   5.024  12.122  1.00  0.00     0.183 C 
HETATM    6  O4  UNL     1      -2.157   3.801  12.783  1.00  0.00    -0.351 OA
ENDROOT
BRANCH   1   7
HETATM    7  O2  UNL     1      -3.410   2.912  14.424  1.00  0.00    -0.351 OA
BRANCH   7   8
HETATM    8  C6  UNL     1      -4.504   2.115  14.187  1.00  0.00     0.057 C 
HETATM    9  C7  UNL     1      -5.736   3.024  14.193  1.00  0.00     0.045 C 
HETATM   10  C8  UNL     1      -4.473   1.343  12.924  1.00  0.00     0.045 C 
BRANCH   8  11
HETATM   11  C5  UNL     1      -4.698   1.119  15.316  1.00  0.00     0.040 C 
BRANCH  11  12
HETATM   12  C4  UNL     1      -5.069   1.965  16.542  1.00  0.00     0.040 C 
BRANCH  12  13
HETATM   13  C2  UNL     1      -6.004   1.206  17.454  1.00  0.00     0.051 C 
HETATM   14  C1  UNL     1      -7.380   1.102  16.870  1.00  0.00     0.045 C 
HETATM   15  C3  UNL     1      -6.076   1.980  18.754  1.00  0.00     0.045 C 
BRANCH  13  16
HETATM   16  O1  UNL     1      -5.499  -0.063  17.779  1.00  0.00    -0.391 OA
ATOM     17  H1  UNL     1      -4.724  -0.262  17.267  1.00  0.00     0.210 HD
ENDBRANCH  13  16
ENDBRANCH  12  13
ENDBRANCH  11  12
ENDBRANCH   8  11
ENDBRANCH   7   8
ENDBRANCH   1   7
BRANCH   3  18
HETATM   18  N1  UNL     1      -1.461   7.009  13.446  1.00  0.00    -0.068 N 
ATOM     19  H13 UNL     1      -0.777   7.161  12.704  1.00  0.00     0.275 HD
ATOM     20  H12 UNL     1      -1.797   7.970  13.518  1.00  0.00     0.275 HD
ATOM     21  H11 UNL     1      -1.038   6.671  14.311  1.00  0.00     0.275 HD
ENDBRANCH   3  18
BRANCH   5  22
HETATM   22  C14 UNL     1      -0.647   5.280  11.632  1.00  0.00     0.198 C 
BRANCH  22  23
HETATM   23  O3  UNL     1       0.285   4.699  12.462  1.00  0.00    -0.398 OA
ATOM     24  H3  UNL     1       1.163   5.006  12.264  1.00  0.00     0.209 HD
ENDBRANCH  22  23
ENDBRANCH   5  22
TORSDOF 9
ENDMDL
