MODEL 1
REMARK VINA RESULT: -6.893017097      0.000      0.000
REMARK  13 active torsions:
REMARK  status: ('A' for Active; 'I' for Inactive)
REMARK    1  A    between atoms: C2_2  and  O1_3 
REMARK    2  A    between atoms: C2_2  and  C3_5 
REMARK    3  A    between atoms: C3_5  and  C4_6 
REMARK    4  A    between atoms: C3_5  and  N1_9 
REMARK    5  A    between atoms: C4_6  and  O2_7 
REMARK    6  A    between atoms: N1_9  and  C5_11 
REMARK    7  A    between atoms: C6_14  and  N3_15 
REMARK    8  A    between atoms: N3_15  and  C7_17 
REMARK    9  A    between atoms: C7_17  and  C8_18 
REMARK   10  A    between atoms: C8_18  and  O3_19 
REMARK   11  A    between atoms: C9_23  and  N5_24 
REMARK   12  A    between atoms: N5_24  and  C10_26 
REMARK   13  A    between atoms: C10_26  and  C11_27 
ROOT
HETATM    1  C5  UNL     1     -18.081  36.846  42.290  1.00  0.00     0.707 A 
HETATM    2  N2  UNL     1     -17.434  37.254  43.422  1.00  0.00    -0.022 N 
ATOM      3  H2  UNL     1     -16.417  37.205  43.466  1.00  0.00     0.203 HD
HETATM    4  C6  UNL     1     -18.121  37.717  44.474  1.00  0.00     0.707 A 
HETATM    5  N4  UNL     1     -19.454  37.794  44.447  1.00  0.00    -0.022 N 
ATOM      6  H4  UNL     1     -19.974  38.147  45.250  1.00  0.00     0.203 HD
HETATM    7  C9  UNL     1     -20.100  37.389  43.323  1.00  0.00     0.707 A 
HETATM    8  N6  UNL     1     -19.416  36.923  42.262  1.00  0.00    -0.021 N 
ATOM      9  H6  UNL     1     -19.921  36.625  41.428  1.00  0.00     0.203 HD
ENDROOT
BRANCH   1  10
HETATM   10  N1  UNL     1     -17.361  36.412  41.319  1.00  0.00    -0.216 N 
ATOM     11  H1  UNL     1     -16.830  37.090  40.771  1.00  0.00     0.178 HD
BRANCH  10  12
HETATM   12  C3  UNL     1     -17.261  35.019  40.961  1.00  0.00     0.151 C 
BRANCH  12  13
HETATM   13  C2  UNL     1     -16.870  34.969  39.503  1.00  0.00     0.139 C 
HETATM   14  C1  UNL     1     -16.596  36.334  38.928  1.00  0.00     0.041 C 
BRANCH  13  15
HETATM   15  O1  UNL     1     -15.803  34.097  39.273  1.00  0.00    -0.394 OA
ATOM     16  H1  UNL     1     -15.034  34.351  39.769  1.00  0.00     0.210 HD
ENDBRANCH  13  15
ENDBRANCH  12  13
BRANCH  12  17
HETATM   17  C4  UNL     1     -16.314  34.266  41.851  1.00  0.00     0.192 C 
BRANCH  17  18
HETATM   18  O2  UNL     1     -16.560  32.895  41.834  1.00  0.00    -0.399 OA
ATOM     19  H2  UNL     1     -15.982  32.438  41.235  1.00  0.00     0.209 HD
ENDBRANCH  17  18
ENDBRANCH  12  17
ENDBRANCH  10  12
ENDBRANCH   1  10
BRANCH   4  20
HETATM   20  N3  UNL     1     -17.475  38.089  45.515  1.00  0.00    -0.223 N 
ATOM     21  H3  UNL     1     -16.578  38.559  45.393  1.00  0.00     0.177 HD
BRANCH  20  22
HETATM   22  C7  UNL     1     -17.966  37.868  46.858  1.00  0.00     0.164 C 
BRANCH  22  23
HETATM   23  C8  UNL     1     -18.441  39.180  47.476  1.00  0.00     0.184 C 
BRANCH  23  24
HETATM   24  O3  UNL     1     -17.333  39.932  47.863  1.00  0.00    -0.399 OA
ATOM     25  H3  UNL     1     -17.288  40.719  47.333  1.00  0.00     0.209 HD
ENDBRANCH  23  24
ENDBRANCH  22  23
ENDBRANCH  20  22
ENDBRANCH   4  20
BRANCH   7  26
HETATM   26  N5  UNL     1     -21.407  37.476  43.324  1.00  0.00    -0.221 N 
ATOM     27  H5  UNL     1     -21.972  37.009  42.615  1.00  0.00     0.178 HD
BRANCH  26  28
HETATM   28  C10 UNL     1     -22.009  38.260  44.366  1.00  0.00     0.176 C 
BRANCH  28  29
HETATM   29  C11 UNL     1     -22.723  37.339  45.290  1.00  0.00    -0.040 A 
HETATM   30  C12 UNL     1     -22.794  35.981  45.081  1.00  0.00     0.009 A 
HETATM   31  C13 UNL     1     -23.467  35.160  45.966  1.00  0.00     0.001 A 
HETATM   32  C14 UNL     1     -24.090  35.660  47.086  1.00  0.00     0.000 A 
HETATM   33  C15 UNL     1     -24.006  37.032  47.280  1.00  0.00     0.001 A 
HETATM   34  C16 UNL     1     -23.339  37.864  46.407  1.00  0.00     0.009 A 
ENDBRANCH  28  29
ENDBRANCH  26  28
ENDBRANCH   7  26
TORSDOF 13
ENDMDL
MODEL 2
REMARK VINA RESULT: -6.892661398      0.495      1.054
REMARK  13 active torsions:
REMARK  status: ('A' for Active; 'I' for Inactive)
REMARK    1  A    between atoms: C2_2  and  O1_3 
REMARK    2  A    between atoms: C2_2  and  C3_5 
REMARK    3  A    between atoms: C3_5  and  C4_6 
REMARK    4  A    between atoms: C3_5  and  N1_9 
REMARK    5  A    between atoms: C4_6  and  O2_7 
REMARK    6  A    between atoms: N1_9  and  C5_11 
REMARK    7  A    between atoms: C6_14  and  N3_15 
REMARK    8  A    between atoms: N3_15  and  C7_17 
REMARK    9  A    between atoms: C7_17  and  C8_18 
REMARK   10  A    between atoms: C8_18  and  O3_19 
REMARK   11  A    between atoms: C9_23  and  N5_24 
REMARK   12  A    between atoms: N5_24  and  C10_26 
REMARK   13  A    between atoms: C10_26  and  C11_27 
ROOT
HETATM    1  C5  UNL     1     -18.176  36.944  42.352  1.00  0.00     0.707 A 
HETATM    2  N2  UNL     1     -17.509  37.293  43.491  1.00  0.00    -0.022 N 
ATOM      3  H2  UNL     1     -16.498  37.172  43.540  1.00  0.00     0.203 HD
HETATM    4  C6  UNL     1     -18.168  37.792  44.545  1.00  0.00     0.707 A 
HETATM    5  N4  UNL     1     -19.493  37.962  44.513  1.00  0.00    -0.022 N 
ATOM      6  H4  UNL     1     -19.991  38.342  45.317  1.00  0.00     0.203 HD
HETATM    7  C9  UNL     1     -20.158  37.616  43.380  1.00  0.00     0.707 A 
HETATM    8  N6  UNL     1     -19.503  37.115  42.318  1.00  0.00    -0.021 N 
ATOM      9  H6  UNL     1     -20.023  36.862  41.477  1.00  0.00     0.203 HD
ENDROOT
BRANCH   1  10
HETATM   10  N1  UNL     1     -17.482  36.471  41.379  1.00  0.00    -0.216 N 
ATOM     11  H1  UNL     1     -16.919  37.119  40.829  1.00  0.00     0.178 HD
BRANCH  10  12
HETATM   12  C3  UNL     1     -17.456  35.074  41.024  1.00  0.00     0.151 C 
BRANCH  12  13
HETATM   13  C2  UNL     1     -16.928  34.993  39.612  1.00  0.00     0.139 C 
HETATM   14  C1  UNL     1     -16.629  36.346  39.023  1.00  0.00     0.041 C 
BRANCH  13  15
HETATM   15  O1  UNL     1     -15.827  34.139  39.508  1.00  0.00    -0.394 OA
ATOM     16  H1  UNL     1     -15.470  34.139  38.628  1.00  0.00     0.210 HD
ENDBRANCH  13  15
ENDBRANCH  12  13
BRANCH  12  17
HETATM   17  C4  UNL     1     -16.663  34.251  41.998  1.00  0.00     0.192 C 
BRANCH  17  18
HETATM   18  O2  UNL     1     -17.070  32.920  42.009  1.00  0.00    -0.399 OA
ATOM     19  H2  UNL     1     -18.016  32.837  42.004  1.00  0.00     0.209 HD
ENDBRANCH  17  18
ENDBRANCH  12  17
ENDBRANCH  10  12
ENDBRANCH   1  10
BRANCH   4  20
HETATM   20  N3  UNL     1     -17.504  38.105  45.594  1.00  0.00    -0.223 N 
ATOM     21  H3  UNL     1     -16.599  38.563  45.482  1.00  0.00     0.177 HD
BRANCH  20  22
HETATM   22  C7  UNL     1     -17.985  37.837  46.932  1.00  0.00     0.164 C 
BRANCH  22  23
HETATM   23  C8  UNL     1     -18.425  39.131  47.612  1.00  0.00     0.184 C 
BRANCH  23  24
HETATM   24  O3  UNL     1     -17.324  39.976  47.743  1.00  0.00    -0.399 OA
ATOM     25  H3  UNL     1     -16.855  39.757  48.539  1.00  0.00     0.209 HD
ENDBRANCH  23  24
ENDBRANCH  22  23
ENDBRANCH  20  22
ENDBRANCH   4  20
BRANCH   7  26
HETATM   26  N5  UNL     1     -21.456  37.794  43.375  1.00  0.00    -0.221 N 
ATOM     27  H5  UNL     1     -21.867  38.709  43.190  1.00  0.00     0.178 HD
BRANCH  26  28
HETATM   28  C10 UNL     1     -22.275  36.646  43.644  1.00  0.00     0.176 C 
BRANCH  28  29
HETATM   29  C11 UNL     1     -22.761  36.735  45.046  1.00  0.00    -0.040 A 
HETATM   30  C12 UNL     1     -22.920  37.932  45.705  1.00  0.00     0.009 A 
HETATM   31  C13 UNL     1     -23.375  37.970  47.009  1.00  0.00     0.001 A 
HETATM   32  C14 UNL     1     -23.687  36.823  47.702  1.00  0.00     0.000 A 
HETATM   33  C15 UNL     1     -23.521  35.625  47.019  1.00  0.00     0.001 A 
HETATM   34  C16 UNL     1     -23.068  35.570  45.718  1.00  0.00     0.009 A 
ENDBRANCH  28  29
ENDBRANCH  26  28
ENDBRANCH   7  26
TORSDOF 13
ENDMDL
MODEL 3
REMARK VINA RESULT: -6.750175917      1.429      1.775
REMARK  13 active torsions:
REMARK  status: ('A' for Active; 'I' for Inactive)
REMARK    1  A    between atoms: C2_2  and  O1_3 
REMARK    2  A    between atoms: C2_2  and  C3_5 
REMARK    3  A    between atoms: C3_5  and  C4_6 
REMARK    4  A    between atoms: C3_5  and  N1_9 
REMARK    5  A    between atoms: C4_6  and  O2_7 
REMARK    6  A    between atoms: N1_9  and  C5_11 
REMARK    7  A    between atoms: C6_14  and  N3_15 
REMARK    8  A    between atoms: N3_15  and  C7_17 
REMARK    9  A    between atoms: C7_17  and  C8_18 
REMARK   10  A    between atoms: C8_18  and  O3_19 
REMARK   11  A    between atoms: C9_23  and  N5_24 
REMARK   12  A    between atoms: N5_24  and  C10_26 
REMARK   13  A    between atoms: C10_26  and  C11_27 
ROOT
HETATM    1  C5  UNL     1     -17.850  36.448  42.530  1.00  0.00     0.707 A 
HETATM    2  N2  UNL     1     -17.242  36.325  43.747  1.00  0.00    -0.022 N 
ATOM      3  H2  UNL     1     -16.298  35.945  43.803  1.00  0.00     0.203 HD
HETATM    4  C6  UNL     1     -17.873  36.697  44.868  1.00  0.00     0.707 A 
HETATM    5  N4  UNL     1     -19.110  37.198  44.830  1.00  0.00    -0.022 N 
ATOM      6  H4  UNL     1     -19.588  37.480  45.685  1.00  0.00     0.203 HD
HETATM    7  C9  UNL     1     -19.716  37.322  43.620  1.00  0.00     0.707 A 
HETATM    8  N6  UNL     1     -19.089  36.951  42.490  1.00  0.00    -0.021 N 
ATOM      9  H6  UNL     1     -19.563  37.053  41.593  1.00  0.00     0.203 HD
ENDROOT
BRANCH   1  10
HETATM   10  N1  UNL     1     -17.187  36.071  41.496  1.00  0.00    -0.216 N 
ATOM     11  H1  UNL     1     -16.617  36.763  41.010  1.00  0.00     0.178 HD
BRANCH  10  12
HETATM   12  C3  UNL     1     -17.206  34.724  40.984  1.00  0.00     0.151 C 
BRANCH  12  13
HETATM   13  C2  UNL     1     -16.904  34.813  39.507  1.00  0.00     0.139 C 
HETATM   14  C1  UNL     1     -16.715  36.231  39.037  1.00  0.00     0.041 C 
BRANCH  13  15
HETATM   15  O1  UNL     1     -15.823  34.007  39.140  1.00  0.00    -0.394 OA
ATOM     16  H1  UNL     1     -15.024  34.514  39.061  1.00  0.00     0.210 HD
ENDBRANCH  13  15
ENDBRANCH  12  13
BRANCH  12  17
HETATM   17  C4  UNL     1     -16.265  33.817  41.725  1.00  0.00     0.192 C 
BRANCH  17  18
HETATM   18  O2  UNL     1     -14.957  34.296  41.706  1.00  0.00    -0.399 OA
ATOM     19  H2  UNL     1     -14.788  34.838  40.945  1.00  0.00     0.209 HD
ENDBRANCH  17  18
ENDBRANCH  12  17
ENDBRANCH  10  12
ENDBRANCH   1  10
BRANCH   4  20
HETATM   20  N3  UNL     1     -17.267  36.563  45.989  1.00  0.00    -0.223 N 
ATOM     21  H3  UNL     1     -16.285  36.287  45.984  1.00  0.00     0.177 HD
BRANCH  20  22
HETATM   22  C7  UNL     1     -17.919  36.788  47.261  1.00  0.00     0.164 C 
BRANCH  22  23
HETATM   23  C8  UNL     1     -18.593  35.508  47.750  1.00  0.00     0.184 C 
BRANCH  23  24
HETATM   24  O3  UNL     1     -19.939  35.534  47.392  1.00  0.00    -0.399 OA
ATOM     25  H3  UNL     1     -20.103  36.292  46.843  1.00  0.00     0.209 HD
ENDBRANCH  23  24
ENDBRANCH  22  23
ENDBRANCH  20  22
ENDBRANCH   4  20
BRANCH   7  26
HETATM   26  N5  UNL     1     -20.929  37.817  43.611  1.00  0.00    -0.221 N 
ATOM     27  H5  UNL     1     -21.093  38.824  43.608  1.00  0.00     0.178 HD
BRANCH  26  28
HETATM   28  C10 UNL     1     -22.018  36.881  43.607  1.00  0.00     0.176 C 
BRANCH  28  29
HETATM   29  C11 UNL     1     -22.595  36.827  44.976  1.00  0.00    -0.040 A 
HETATM   30  C12 UNL     1     -22.760  37.947  45.759  1.00  0.00     0.009 A 
HETATM   31  C13 UNL     1     -23.301  37.853  47.027  1.00  0.00     0.001 A 
HETATM   32  C14 UNL     1     -23.696  36.647  47.559  1.00  0.00     0.000 A 
HETATM   33  C15 UNL     1     -23.522  35.530  46.753  1.00  0.00     0.001 A 
HETATM   34  C16 UNL     1     -22.984  35.606  45.487  1.00  0.00     0.009 A 
ENDBRANCH  28  29
ENDBRANCH  26  28
ENDBRANCH   7  26
TORSDOF 13
ENDMDL
MODEL 4
REMARK VINA RESULT: -6.726576357      2.742      7.521
REMARK  13 active torsions:
REMARK  status: ('A' for Active; 'I' for Inactive)
REMARK    1  A    between atoms: C2_2  and  O1_3 
REMARK    2  A    between atoms: C2_2  and  C3_5 
REMARK    3  A    between atoms: C3_5  and  C4_6 
REMARK    4  A    between atoms: C3_5  and  N1_9 
REMARK    5  A    between atoms: C4_6  and  O2_7 
REMARK    6  A    between atoms: N1_9  and  C5_11 
REMARK    7  A    between atoms: C6_14  and  N3_15 
REMARK    8  A    between atoms: N3_15  and  C7_17 
REMARK    9  A    between atoms: C7_17  and  C8_18 
REMARK   10  A    between atoms: C8_18  and  O3_19 
REMARK   11  A    between atoms: C9_23  and  N5_24 
REMARK   12  A    between atoms: N5_24  and  C10_26 
REMARK   13  A    between atoms: C10_26  and  C11_27 
ROOT
HETATM    1  C5  UNL     1     -18.375  38.510  46.751  1.00  0.00     0.707 A 
HETATM    2  N2  UNL     1     -19.506  37.766  46.929  1.00  0.00    -0.022 N 
ATOM      3  H2  UNL     1     -20.013  37.823  47.811  1.00  0.00     0.203 HD
HETATM    4  C6  UNL     1     -19.956  36.962  45.957  1.00  0.00     0.707 A 
HETATM    5  N4  UNL     1     -19.315  36.864  44.790  1.00  0.00    -0.022 N 
ATOM      6  H4  UNL     1     -19.661  36.251  44.053  1.00  0.00     0.203 HD
HETATM    7  C9  UNL     1     -18.190  37.604  44.611  1.00  0.00     0.707 A 
HETATM    8  N6  UNL     1     -17.732  38.414  45.582  1.00  0.00    -0.021 N 
ATOM      9  H6  UNL     1     -16.885  38.961  45.425  1.00  0.00     0.203 HD
ENDROOT
BRANCH   1  10
HETATM   10  N1  UNL     1     -17.998  39.260  47.724  1.00  0.00    -0.216 N 
ATOM     11  H1  UNL     1     -17.151  39.004  48.230  1.00  0.00     0.178 HD
BRANCH  10  12
HETATM   12  C3  UNL     1     -18.709  40.444  48.140  1.00  0.00     0.151 C 
BRANCH  12  13
HETATM   13  C2  UNL     1     -17.720  41.309  48.883  1.00  0.00     0.139 C 
HETATM   14  C1  UNL     1     -17.526  40.874  50.312  1.00  0.00     0.041 C 
BRANCH  13  15
HETATM   15  O1  UNL     1     -16.499  41.411  48.212  1.00  0.00    -0.394 OA
ATOM     16  H1  UNL     1     -16.199  42.311  48.174  1.00  0.00     0.210 HD
ENDBRANCH  13  15
ENDBRANCH  12  13
BRANCH  12  17
HETATM   17  C4  UNL     1     -19.363  41.153  46.987  1.00  0.00     0.192 C 
BRANCH  17  18
HETATM   18  O2  UNL     1     -18.717  42.346  46.675  1.00  0.00    -0.399 OA
ATOM     19  H2  UNL     1     -19.329  43.067  46.581  1.00  0.00     0.209 HD
ENDBRANCH  17  18
ENDBRANCH  12  17
ENDBRANCH  10  12
ENDBRANCH   1  10
BRANCH   4  20
HETATM   20  N3  UNL     1     -21.021  36.281  46.166  1.00  0.00    -0.223 N 
ATOM     21  H3  UNL     1     -21.085  35.722  47.017  1.00  0.00     0.177 HD
BRANCH  20  22
HETATM   22  C7  UNL     1     -22.136  36.273  45.244  1.00  0.00     0.164 C 
BRANCH  22  23
HETATM   23  C8  UNL     1     -22.555  37.701  44.901  1.00  0.00     0.184 C 
BRANCH  23  24
HETATM   24  O3  UNL     1     -22.036  38.043  43.654  1.00  0.00    -0.399 OA
ATOM     25  H3  UNL     1     -21.087  38.004  43.689  1.00  0.00     0.209 HD
ENDBRANCH  23  24
ENDBRANCH  22  23
ENDBRANCH  20  22
ENDBRANCH   4  20
BRANCH   7  26
HETATM   26  N5  UNL     1     -17.581  37.490  43.456  1.00  0.00    -0.221 N 
ATOM     27  H5  UNL     1     -16.564  37.449  43.392  1.00  0.00     0.178 HD
BRANCH  26  28
HETATM   28  C10 UNL     1     -18.408  37.426  42.284  1.00  0.00     0.176 C 
BRANCH  28  29
HETATM   29  C11 UNL     1     -17.795  36.465  41.330  1.00  0.00    -0.040 A 
HETATM   30  C12 UNL     1     -17.632  36.745  39.992  1.00  0.00     0.009 A 
HETATM   31  C13 UNL     1     -17.056  35.823  39.139  1.00  0.00     0.001 A 
HETATM   32  C14 UNL     1     -16.622  34.596  39.584  1.00  0.00     0.000 A 
HETATM   33  C15 UNL     1     -16.795  34.333  40.936  1.00  0.00     0.001 A 
HETATM   34  C16 UNL     1     -17.368  35.241  41.801  1.00  0.00     0.009 A 
ENDBRANCH  28  29
ENDBRANCH  26  28
ENDBRANCH   7  26
TORSDOF 13
ENDMDL
MODEL 5
REMARK VINA RESULT: -6.713187623      1.376      1.502
REMARK  13 active torsions:
REMARK  status: ('A' for Active; 'I' for Inactive)
REMARK    1  A    between atoms: C2_2  and  O1_3 
REMARK    2  A    between atoms: C2_2  and  C3_5 
REMARK    3  A    between atoms: C3_5  and  C4_6 
REMARK    4  A    between atoms: C3_5  and  N1_9 
REMARK    5  A    between atoms: C4_6  and  O2_7 
REMARK    6  A    between atoms: N1_9  and  C5_11 
REMARK    7  A    between atoms: C6_14  and  N3_15 
REMARK    8  A    between atoms: N3_15  and  C7_17 
REMARK    9  A    between atoms: C7_17  and  C8_18 
REMARK   10  A    between atoms: C8_18  and  O3_19 
REMARK   11  A    between atoms: C9_23  and  N5_24 
REMARK   12  A    between atoms: N5_24  and  C10_26 
REMARK   13  A    between atoms: C10_26  and  C11_27 
ROOT
HETATM    1  C5  UNL     1     -17.879  36.398  42.584  1.00  0.00     0.707 A 
HETATM    2  N2  UNL     1     -17.273  36.289  43.802  1.00  0.00    -0.022 N 
ATOM      3  H2  UNL     1     -16.334  35.897  43.865  1.00  0.00     0.203 HD
HETATM    4  C6  UNL     1     -17.898  36.691  44.917  1.00  0.00     0.707 A 
HETATM    5  N4  UNL     1     -19.128  37.209  44.869  1.00  0.00    -0.022 N 
ATOM      6  H4  UNL     1     -19.601  37.513  45.719  1.00  0.00     0.203 HD
HETATM    7  C9  UNL     1     -19.733  37.318  43.657  1.00  0.00     0.707 A 
HETATM    8  N6  UNL     1     -19.112  36.917  42.534  1.00  0.00    -0.021 N 
ATOM      9  H6  UNL     1     -19.584  37.009  41.635  1.00  0.00     0.203 HD
ENDROOT
BRANCH   1  10
HETATM   10  N1  UNL     1     -17.223  35.993  41.556  1.00  0.00    -0.216 N 
ATOM     11  H1  UNL     1     -16.579  36.644  41.108  1.00  0.00     0.178 HD
BRANCH  10  12
HETATM   12  C3  UNL     1     -17.347  34.668  41.002  1.00  0.00     0.151 C 
BRANCH  12  13
HETATM   13  C2  UNL     1     -16.898  34.752  39.563  1.00  0.00     0.139 C 
HETATM   14  C1  UNL     1     -16.731  36.171  39.088  1.00  0.00     0.041 C 
BRANCH  13  15
HETATM   15  O1  UNL     1     -15.747  33.997  39.325  1.00  0.00    -0.394 OA
ATOM     16  H1  UNL     1     -15.728  33.215  39.863  1.00  0.00     0.210 HD
ENDBRANCH  13  15
ENDBRANCH  12  13
BRANCH  12  17
HETATM   17  C4  UNL     1     -16.590  33.643  41.797  1.00  0.00     0.192 C 
BRANCH  17  18
HETATM   18  O2  UNL     1     -17.439  32.842  42.558  1.00  0.00    -0.399 OA
ATOM     19  H2  UNL     1     -18.078  33.356  43.038  1.00  0.00     0.209 HD
ENDBRANCH  17  18
ENDBRANCH  12  17
ENDBRANCH  10  12
ENDBRANCH   1  10
BRANCH   4  20
HETATM   20  N3  UNL     1     -17.293  36.570  46.039  1.00  0.00    -0.223 N 
ATOM     21  H3  UNL     1     -16.321  36.261  46.041  1.00  0.00     0.177 HD
BRANCH  20  22
HETATM   22  C7  UNL     1     -17.933  36.855  47.305  1.00  0.00     0.164 C 
BRANCH  22  23
HETATM   23  C8  UNL     1     -18.624  35.606  47.847  1.00  0.00     0.184 C 
BRANCH  23  24
HETATM   24  O3  UNL     1     -19.965  35.623  47.467  1.00  0.00    -0.399 OA
ATOM     25  H3  UNL     1     -20.022  35.595  46.520  1.00  0.00     0.209 HD
ENDBRANCH  23  24
ENDBRANCH  22  23
ENDBRANCH  20  22
ENDBRANCH   4  20
BRANCH   7  26
HETATM   26  N5  UNL     1     -20.939  37.830  43.639  1.00  0.00    -0.221 N 
ATOM     27  H5  UNL     1     -21.090  38.839  43.659  1.00  0.00     0.178 HD
BRANCH  26  28
HETATM   28  C10 UNL     1     -22.040  36.909  43.591  1.00  0.00     0.176 C 
BRANCH  28  29
HETATM   29  C11 UNL     1     -22.614  36.793  44.957  1.00  0.00    -0.040 A 
HETATM   30  C12 UNL     1     -22.985  35.588  45.509  1.00  0.00     0.009 A 
HETATM   31  C13 UNL     1     -23.514  35.524  46.784  1.00  0.00     0.001 A 
HETATM   32  C14 UNL     1     -23.692  36.652  47.553  1.00  0.00     0.000 A 
HETATM   33  C15 UNL     1     -23.310  37.857  46.978  1.00  0.00     0.001 A 
HETATM   34  C16 UNL     1     -22.781  37.938  45.708  1.00  0.00     0.009 A 
ENDBRANCH  28  29
ENDBRANCH  26  28
ENDBRANCH   7  26
TORSDOF 13
ENDMDL
