MODEL 1
REMARK VINA RESULT: -5.487117344      0.000      0.000
REMARK  6 active torsions:
REMARK  status: ('A' for Active; 'I' for Inactive)
REMARK    1  A    between atoms: N1_1  and  N2_4 
REMARK    2  A    between atoms: N2_4  and  C1_5 
REMARK    3  A    between atoms: C2_7  and  O1_8 
REMARK    4  A    between atoms: C2_7  and  C3_10 
REMARK    5  A    between atoms: C5_14  and  N5_15 
REMARK    6  A    between atoms: N5_15  and  N6_17 
ROOT
HETATM    1  C3  UNL     1      54.213   9.583 122.659  1.00  0.00     0.034 A 
HETATM    2  C4  UNL     1      53.803   9.914 121.390  1.00  0.00     0.122 A 
HETATM    3  N4  UNL     1      53.973   9.055 120.346  1.00  0.00    -0.200 N 
ATOM      4  H4  UNL     1      53.657   9.333 119.417  1.00  0.00     0.183 HD
HETATM    5  C5  UNL     1      54.541   7.863 120.506  1.00  0.00     0.696 A 
HETATM    6  N7  UNL     1      54.947   7.528 121.739  1.00  0.00    -0.200 N 
ATOM      7  H7  UNL     1      55.384   6.615 121.869  1.00  0.00     0.183 HD
HETATM    8  C6  UNL     1      54.812   8.320 122.808  1.00  0.00     0.122 A 
ENDROOT
BRANCH   1   9
HETATM    9  C2  UNL     1      54.032  10.440 123.802  1.00  0.00     0.136 C 
HETATM   10  C1  UNL     1      53.854  11.871 123.885  1.00  0.00     0.246 C 
HETATM   11  N3  UNL     1      53.704  12.326 125.292  1.00  0.00    -0.062 NA
BRANCH  10  12
HETATM   12  N2  UNL     1      53.802  12.724 123.074  1.00  0.00    -0.315 NA
BRANCH  12  13
HETATM   13  N1  UNL     1      53.745  13.666 122.177  1.00  0.00    -0.279 N 
ATOM     14  H12 UNL     1      53.812  12.923 122.872  1.00  0.00     0.191 HD
ATOM     15  H11 UNL     1      53.701  14.404 121.475  1.00  0.00     0.191 HD
ENDBRANCH  12  13
ENDBRANCH  10  12
BRANCH   9  16
HETATM   16  O1  UNL     1      54.033   9.776 124.938  1.00  0.00    -0.356 OA
ATOM     17  H1  UNL     1      54.533  10.154 125.652  1.00  0.00     0.218 HD
ENDBRANCH   9  16
ENDBRANCH   1   9
BRANCH   5  18
HETATM   18  N5  UNL     1      54.690   7.050 119.479  1.00  0.00    -0.139 N 
ATOM     19  H5  UNL     1      54.017   6.305 119.297  1.00  0.00     0.205 HD
BRANCH  18  20
HETATM   20  N6  UNL     1      55.791   7.236 118.652  1.00  0.00    -0.331 N 
ATOM     21  H62 UNL     1      56.379   8.062 118.763  1.00  0.00     0.177 HD
ATOM     22  H61 UNL     1      55.985   6.529 117.943  1.00  0.00     0.177 HD
ENDBRANCH  18  20
ENDBRANCH   5  18
TORSDOF 6
ENDMDL
MODEL 2
REMARK VINA RESULT: -5.432213375      3.724      5.741
REMARK  6 active torsions:
REMARK  status: ('A' for Active; 'I' for Inactive)
REMARK    1  A    between atoms: N1_1  and  N2_4 
REMARK    2  A    between atoms: N2_4  and  C1_5 
REMARK    3  A    between atoms: C2_7  and  O1_8 
REMARK    4  A    between atoms: C2_7  and  C3_10 
REMARK    5  A    between atoms: C5_14  and  N5_15 
REMARK    6  A    between atoms: N5_15  and  N6_17 
ROOT
HETATM    1  C3  UNL     1      51.917   8.732 121.703  1.00  0.00     0.034 A 
HETATM    2  C4  UNL     1      52.217  10.072 121.714  1.00  0.00     0.122 A 
HETATM    3  N4  UNL     1      52.892  10.637 122.755  1.00  0.00    -0.200 N 
ATOM      4  H4  UNL     1      53.099  11.636 122.730  1.00  0.00     0.183 HD
HETATM    5  C5  UNL     1      53.289   9.920 123.803  1.00  0.00     0.696 A 
HETATM    6  N7  UNL     1      53.000   8.611 123.806  1.00  0.00    -0.200 N 
ATOM      7  H7  UNL     1      53.300   8.055 124.607  1.00  0.00     0.183 HD
HETATM    8  C6  UNL     1      52.342   7.992 122.821  1.00  0.00     0.122 A 
ENDROOT
BRANCH   1   9
HETATM    9  C2  UNL     1      51.231   8.080 120.618  1.00  0.00     0.136 C 
HETATM   10  C1  UNL     1      49.830   7.785 120.433  1.00  0.00     0.246 C 
HETATM   11  N3  UNL     1      49.578   7.091 119.144  1.00  0.00    -0.062 NA
BRANCH  10  12
HETATM   12  N2  UNL     1      48.871   7.987 121.089  1.00  0.00    -0.315 NA
BRANCH  12  13
HETATM   13  N1  UNL     1      47.812   8.211 121.813  1.00  0.00    -0.279 N 
ATOM     14  H12 UNL     1      48.628   8.027 121.228  1.00  0.00     0.191 HD
ATOM     15  H11 UNL     1      46.983   8.386 122.380  1.00  0.00     0.191 HD
ENDBRANCH  12  13
ENDBRANCH  10  12
BRANCH   9  16
HETATM   16  O1  UNL     1      52.047   7.706 119.655  1.00  0.00    -0.356 OA
ATOM     17  H1  UNL     1      52.052   8.241 118.870  1.00  0.00     0.218 HD
ENDBRANCH   9  16
ENDBRANCH   1   9
BRANCH   5  18
HETATM   18  N5  UNL     1      53.944  10.491 124.795  1.00  0.00    -0.139 N 
ATOM     19  H5  UNL     1      54.645   9.975 125.327  1.00  0.00     0.205 HD
BRANCH  18  20
HETATM   20  N6  UNL     1      53.651  11.816 125.094  1.00  0.00    -0.331 N 
ATOM     21  H62 UNL     1      53.305  12.440 124.365  1.00  0.00     0.177 HD
ATOM     22  H61 UNL     1      53.793  12.135 126.053  1.00  0.00     0.177 HD
ENDBRANCH  18  20
ENDBRANCH   5  18
TORSDOF 6
ENDMDL
MODEL 3
REMARK VINA RESULT: -5.425837024      3.759      5.856
REMARK  6 active torsions:
REMARK  status: ('A' for Active; 'I' for Inactive)
REMARK    1  A    between atoms: N1_1  and  N2_4 
REMARK    2  A    between atoms: N2_4  and  C1_5 
REMARK    3  A    between atoms: C2_7  and  O1_8 
REMARK    4  A    between atoms: C2_7  and  C3_10 
REMARK    5  A    between atoms: C5_14  and  N5_15 
REMARK    6  A    between atoms: N5_15  and  N6_17 
ROOT
HETATM    1  C3  UNL     1      51.910   8.718 121.624  1.00  0.00     0.034 A 
HETATM    2  C4  UNL     1      52.307   7.979 122.712  1.00  0.00     0.122 A 
HETATM    3  N4  UNL     1      52.981   8.553 123.748  1.00  0.00    -0.200 N 
ATOM      4  H4  UNL     1      53.261   7.974 124.540  1.00  0.00     0.183 HD
HETATM    5  C5  UNL     1      53.283   9.849 123.754  1.00  0.00     0.696 A 
HETATM    6  N7  UNL     1      52.903  10.581 122.698  1.00  0.00    -0.200 N 
ATOM      7  H7  UNL     1      53.132  11.575 122.695  1.00  0.00     0.183 HD
HETATM    8  C6  UNL     1      52.241  10.085 121.648  1.00  0.00     0.122 A 
ENDROOT
BRANCH   1   9
HETATM    9  C2  UNL     1      51.172   8.169 120.516  1.00  0.00     0.136 C 
HETATM   10  C1  UNL     1      49.763   7.891 120.370  1.00  0.00     0.246 C 
HETATM   11  N3  UNL     1      49.449   7.319 119.035  1.00  0.00    -0.062 NA
BRANCH  10  12
HETATM   12  N2  UNL     1      48.837   8.030 121.086  1.00  0.00    -0.315 NA
BRANCH  12  13
HETATM   13  N1  UNL     1      47.814   8.185 121.877  1.00  0.00    -0.279 N 
ATOM     14  H12 UNL     1      48.606   8.080 121.243  1.00  0.00     0.191 HD
ATOM     15  H11 UNL     1      47.013   8.305 122.497  1.00  0.00     0.191 HD
ENDBRANCH  12  13
ENDBRANCH  10  12
BRANCH   9  16
HETATM   16  O1  UNL     1      51.941   7.888 119.486  1.00  0.00    -0.356 OA
ATOM     17  H1  UNL     1      52.309   7.013 119.454  1.00  0.00     0.218 HD
ENDBRANCH   9  16
ENDBRANCH   1   9
BRANCH   5  18
HETATM   18  N5  UNL     1      53.933  10.379 124.772  1.00  0.00    -0.139 N 
ATOM     19  H5  UNL     1      54.615   9.835 125.300  1.00  0.00     0.205 HD
BRANCH  18  20
HETATM   20  N6  UNL     1      53.660  11.701 125.105  1.00  0.00    -0.331 N 
ATOM     21  H62 UNL     1      52.895  11.919 125.743  1.00  0.00     0.177 HD
ATOM     22  H61 UNL     1      54.243  12.429 124.693  1.00  0.00     0.177 HD
ENDBRANCH  18  20
ENDBRANCH   5  18
TORSDOF 6
ENDMDL
MODEL 4
REMARK VINA RESULT: -5.403815012      0.414      1.292
REMARK  6 active torsions:
REMARK  status: ('A' for Active; 'I' for Inactive)
REMARK    1  A    between atoms: N1_1  and  N2_4 
REMARK    2  A    between atoms: N2_4  and  C1_5 
REMARK    3  A    between atoms: C2_7  and  O1_8 
REMARK    4  A    between atoms: C2_7  and  C3_10 
REMARK    5  A    between atoms: C5_14  and  N5_15 
REMARK    6  A    between atoms: N5_15  and  N6_17 
ROOT
HETATM    1  C3  UNL     1      54.055   9.656 122.486  1.00  0.00     0.034 A 
HETATM    2  C4  UNL     1      54.811   8.514 122.380  1.00  0.00     0.122 A 
HETATM    3  N4  UNL     1      54.900   7.831 121.203  1.00  0.00    -0.200 N 
ATOM      4  H4  UNL     1      55.471   6.987 121.160  1.00  0.00     0.183 HD
HETATM    5  C5  UNL     1      54.261   8.237 120.109  1.00  0.00     0.696 A 
HETATM    6  N7  UNL     1      53.518   9.349 120.199  1.00  0.00    -0.200 N 
ATOM      7  H7  UNL     1      53.024   9.666 119.365  1.00  0.00     0.183 HD
HETATM    8  C6  UNL     1      53.386  10.067 121.319  1.00  0.00     0.122 A 
ENDROOT
BRANCH   1   9
HETATM    9  C2  UNL     1      53.949  10.430 123.695  1.00  0.00     0.136 C 
HETATM   10  C1  UNL     1      53.856  11.857 123.893  1.00  0.00     0.246 C 
HETATM   11  N3  UNL     1      53.764  12.210 125.333  1.00  0.00    -0.062 NA
BRANCH  10  12
HETATM   12  N2  UNL     1      53.837  12.773 123.150  1.00  0.00    -0.315 NA
BRANCH  12  13
HETATM   13  N1  UNL     1      53.815  13.784 122.330  1.00  0.00    -0.279 N 
ATOM     14  H12 UNL     1      53.831  12.977 122.954  1.00  0.00     0.191 HD
ATOM     15  H11 UNL     1      53.799  14.576 121.689  1.00  0.00     0.191 HD
ENDBRANCH  12  13
ENDBRANCH  10  12
BRANCH   9  16
HETATM   16  O1  UNL     1      53.937   9.681 124.777  1.00  0.00    -0.356 OA
ATOM     17  H1  UNL     1      54.668   9.085 124.891  1.00  0.00     0.218 HD
ENDBRANCH   9  16
ENDBRANCH   1   9
BRANCH   5  18
HETATM   18  N5  UNL     1      54.367   7.559 118.983  1.00  0.00    -0.139 N 
ATOM     19  H5  UNL     1      53.544   7.159 118.532  1.00  0.00     0.205 HD
BRANCH  18  20
HETATM   20  N6  UNL     1      55.632   7.407 118.429  1.00  0.00    -0.331 N 
ATOM     21  H62 UNL     1      56.274   8.198 118.397  1.00  0.00     0.177 HD
ATOM     22  H61 UNL     1      55.888   6.490 118.062  1.00  0.00     0.177 HD
ENDBRANCH  18  20
ENDBRANCH   5  18
TORSDOF 6
ENDMDL
MODEL 5
REMARK VINA RESULT: -5.387451420      2.846      5.864
REMARK  6 active torsions:
REMARK  status: ('A' for Active; 'I' for Inactive)
REMARK    1  A    between atoms: N1_1  and  N2_4 
REMARK    2  A    between atoms: N2_4  and  C1_5 
REMARK    3  A    between atoms: C2_7  and  O1_8 
REMARK    4  A    between atoms: C2_7  and  C3_10 
REMARK    5  A    between atoms: C5_14  and  N5_15 
REMARK    6  A    between atoms: N5_15  and  N6_17 
ROOT
HETATM    1  C3  UNL     1      54.505   7.229 120.796  1.00  0.00     0.034 A 
HETATM    2  C4  UNL     1      55.026   6.590 121.895  1.00  0.00     0.122 A 
HETATM    3  N4  UNL     1      55.190   7.243 123.081  1.00  0.00    -0.200 N 
ATOM      4  H4  UNL     1      55.581   6.737 123.876  1.00  0.00     0.183 HD
HETATM    5  C5  UNL     1      54.855   8.521 123.227  1.00  0.00     0.696 A 
HETATM    6  N7  UNL     1      54.347   9.157 122.163  1.00  0.00    -0.200 N 
ATOM      7  H7  UNL     1      54.088  10.139 122.268  1.00  0.00     0.183 HD
HETATM    8  C6  UNL     1      54.159   8.581 120.971  1.00  0.00     0.122 A 
ENDROOT
BRANCH   1   9
HETATM    9  C2  UNL     1      54.284   6.581 119.530  1.00  0.00     0.136 C 
HETATM   10  C1  UNL     1      54.802   6.882 118.216  1.00  0.00     0.246 C 
HETATM   11  N3  UNL     1      54.297   5.931 117.193  1.00  0.00    -0.062 NA
BRANCH  10  12
HETATM   12  N2  UNL     1      55.533   7.714 117.811  1.00  0.00    -0.315 NA
BRANCH  12  13
HETATM   13  N1  UNL     1      56.340   8.632 117.363  1.00  0.00    -0.279 N 
ATOM     14  H12 UNL     1      55.695   7.929 117.725  1.00  0.00     0.191 HD
ATOM     15  H11 UNL     1      56.972   9.351 117.013  1.00  0.00     0.191 HD
ENDBRANCH  12  13
ENDBRANCH  10  12
BRANCH   9  16
HETATM   16  O1  UNL     1      53.474   5.548 119.624  1.00  0.00    -0.356 OA
ATOM     17  H1  UNL     1      53.812   4.780 120.070  1.00  0.00     0.218 HD
ENDBRANCH   9  16
ENDBRANCH   1   9
BRANCH   5  18
HETATM   18  N5  UNL     1      55.021   9.127 124.387  1.00  0.00    -0.139 N 
ATOM     19  H5  UNL     1      55.802   8.886 124.997  1.00  0.00     0.205 HD
BRANCH  18  20
HETATM   20  N6  UNL     1      54.101  10.103 124.753  1.00  0.00    -0.331 N 
ATOM     21  H62 UNL     1      53.111   9.973 124.547  1.00  0.00     0.177 HD
ATOM     22  H61 UNL     1      54.449  10.937 125.225  1.00  0.00     0.177 HD
ENDBRANCH  18  20
ENDBRANCH   5  18
TORSDOF 6
ENDMDL
