MODEL 1
REMARK VINA RESULT: -7.950568988      0.000      0.000
REMARK  11 active torsions:
REMARK  status: ('A' for Active; 'I' for Inactive)
REMARK    1  A    between atoms: C3_5  and  C4_6 
REMARK    2  A    between atoms: C8_12  and  C9_13 
REMARK    3  A    between atoms: C10_16  and  N4_17 
REMARK    4  A    between atoms: N4_17  and  C11_19 
REMARK    5  A    between atoms: C11_19  and  C12_20 
REMARK    6  A    between atoms: N6_27  and  C14_29 
REMARK    7  A    between atoms: C14_29  and  C16_31 
REMARK    8  A    between atoms: C22_37  and  O1_38 
REMARK    9  A    between atoms: O1_38  and  C23_39 
REMARK   10  A    between atoms: C26_42  and  O2_43 
REMARK   11  A    between atoms: O2_43  and  C27_44 
ROOT
HETATM    1  C9  UNL     1      18.549 -26.062 -52.660  1.00  0.00     0.115 A 
HETATM    2  N3  UNL     1      18.969 -24.817 -52.260  1.00  0.00    -0.187 N 
ATOM      3  H3  UNL     1      19.487 -24.721 -51.387  1.00  0.00     0.184 HD
HETATM    4  C10 UNL     1      18.706 -23.704 -53.008  1.00  0.00     0.680 A 
HETATM    5  N5  UNL     1      18.024 -23.807 -54.160  1.00  0.00    -0.174 N 
ATOM      6  H5  UNL     1      17.839 -22.961 -54.698  1.00  0.00     0.186 HD
HETATM    7  C13 UNL     1      17.579 -24.975 -54.627  1.00  0.00     0.154 A 
HETATM    8  N6  UNL     1      16.919 -25.227 -55.647  1.00  0.00    -0.365 N 
ATOM      9  H6  UNL     1      16.708 -26.217 -55.774  1.00  0.00     0.161 HD
HETATM   10  C22 UNL     1      17.876 -26.116 -53.819  1.00  0.00     0.149 A 
ENDROOT
BRANCH   1  11
HETATM   11  C8  UNL     1      18.923 -27.196 -51.801  1.00  0.00     0.086 A 
HETATM   12  C2  UNL     1      20.117 -27.697 -51.417  1.00  0.00     0.036 A 
HETATM   13  C1  UNL     1      21.493 -27.417 -51.879  1.00  0.00     0.070 C 
HETATM   14  N1  UNL     1      19.878 -28.678 -50.495  1.00  0.00    -0.347 N 
HETATM   15  C3  UNL     1      18.568 -28.808 -50.295  1.00  0.00     0.089 A 
ATOM     16  H1  UNL     1      20.598 -29.230 -50.029  1.00  0.00     0.167 HD
HETATM   17  N2  UNL     1      17.988 -27.912 -51.086  1.00  0.00    -0.342 N 
ATOM     18  H2  UNL     1      16.980 -27.773 -51.154  1.00  0.00     0.167 HD
BRANCH  15  19
HETATM   19  C4  UNL     1      17.917 -29.767 -49.341  1.00  0.00     0.007 C 
HETATM   20  C5  UNL     1      18.763 -29.848 -48.088  1.00  0.00     0.022 C 
HETATM   21  C6  UNL     1      17.802 -31.112 -49.975  1.00  0.00     0.022 C 
HETATM   22  C7  UNL     1      16.535 -29.265 -49.022  1.00  0.00     0.022 C 
ENDBRANCH  15  19
ENDBRANCH   1  11
BRANCH  10  23
HETATM   23  O1  UNL     1      17.407 -27.305 -54.379  1.00  0.00    -0.305 OA
BRANCH  23  24
HETATM   24  C23 UNL     1      16.005 -27.450 -54.273  1.00  0.00     0.076 A 
HETATM   25  C24 UNL     1      15.248 -26.891 -53.286  1.00  0.00     0.040 A 
HETATM   26  C25 UNL     1      13.862 -27.045 -53.186  1.00  0.00     0.039 A 
HETATM   27  C26 UNL     1      13.208 -27.787 -54.108  1.00  0.00     0.069 A 
HETATM   28  C30 UNL     1      13.938 -28.373 -55.130  1.00  0.00     0.039 A 
HETATM   29  C31 UNL     1      15.303 -28.212 -55.213  1.00  0.00     0.040 A 
BRANCH  27  30
HETATM   30  O2  UNL     1      11.844 -27.966 -54.047  1.00  0.00    -0.347 OA
BRANCH  30  31
HETATM   31  C27 UNL     1      10.844 -27.243 -54.676  1.00  0.00     0.120 C 
HETATM   32  C28 UNL     1      10.308 -27.993 -55.905  1.00  0.00     0.040 C 
HETATM   33  C29 UNL     1       9.668 -26.977 -53.735  1.00  0.00     0.040 C 
ENDBRANCH  30  31
ENDBRANCH  27  30
ENDBRANCH  23  24
ENDBRANCH  10  23
BRANCH   4  34
HETATM   34  N4  UNL     1      19.155 -22.613 -52.551  1.00  0.00    -0.217 N 
ATOM     35  H4  UNL     1      18.668 -22.195 -51.757  1.00  0.00     0.178 HD
BRANCH  34  36
HETATM   36  C11 UNL     1      20.289 -21.928 -53.064  1.00  0.00     0.255 C 
BRANCH  36  37
HETATM   37  C12 UNL     1      21.434 -22.214 -52.071  1.00  0.00     0.403 C 
HETATM   38  F1  UNL     1      20.930 -22.836 -50.977  1.00  0.00    -0.169 F 
HETATM   39  F2  UNL     1      22.019 -20.998 -51.801  1.00  0.00    -0.169 F 
HETATM   40  F3  UNL     1      22.308 -23.035 -52.774  1.00  0.00    -0.169 F 
ENDBRANCH  36  37
ENDBRANCH  34  36
ENDBRANCH   4  34
BRANCH   8  41
HETATM   41  C14 UNL     1      16.410 -24.392 -56.660  1.00  0.00     0.112 C 
HETATM   42  C15 UNL     1      17.388 -23.971 -57.716  1.00  0.00     0.037 C 
BRANCH  41  43
HETATM   43  C16 UNL     1      15.226 -25.028 -57.335  1.00  0.00    -0.036 A 
HETATM   44  C17 UNL     1      13.981 -25.121 -56.793  1.00  0.00     0.009 A 
HETATM   45  C18 UNL     1      12.928 -25.744 -57.488  1.00  0.00     0.001 A 
HETATM   46  C19 UNL     1      13.126 -26.280 -58.737  1.00  0.00     0.000 A 
HETATM   47  C20 UNL     1      14.387 -26.187 -59.285  1.00  0.00     0.001 A 
HETATM   48  C21 UNL     1      15.402 -25.574 -58.592  1.00  0.00     0.009 A 
ENDBRANCH  41  43
ENDBRANCH   8  41
TORSDOF 11
ENDMDL
MODEL 2
REMARK VINA RESULT: -7.886721934      3.664      6.521
REMARK  11 active torsions:
REMARK  status: ('A' for Active; 'I' for Inactive)
REMARK    1  A    between atoms: C3_5  and  C4_6 
REMARK    2  A    between atoms: C8_12  and  C9_13 
REMARK    3  A    between atoms: C10_16  and  N4_17 
REMARK    4  A    between atoms: N4_17  and  C11_19 
REMARK    5  A    between atoms: C11_19  and  C12_20 
REMARK    6  A    between atoms: N6_27  and  C14_29 
REMARK    7  A    between atoms: C14_29  and  C16_31 
REMARK    8  A    between atoms: C22_37  and  O1_38 
REMARK    9  A    between atoms: O1_38  and  C23_39 
REMARK   10  A    between atoms: C26_42  and  O2_43 
REMARK   11  A    between atoms: O2_43  and  C27_44 
ROOT
HETATM    1  C9  UNL     1      17.159 -25.588 -56.851  1.00  0.00     0.115 A 
HETATM    2  N3  UNL     1      17.778 -24.637 -57.624  1.00  0.00    -0.187 N 
ATOM      3  H3  UNL     1      17.879 -24.795 -58.626  1.00  0.00     0.184 HD
HETATM    4  C10 UNL     1      18.261 -23.482 -57.076  1.00  0.00     0.680 A 
HETATM    5  N5  UNL     1      18.140 -23.254 -55.758  1.00  0.00    -0.174 N 
ATOM      6  H5  UNL     1      18.511 -22.385 -55.375  1.00  0.00     0.186 HD
HETATM    7  C13 UNL     1      17.553 -24.121 -54.932  1.00  0.00     0.154 A 
HETATM    8  N6  UNL     1      17.390 -24.068 -53.704  1.00  0.00    -0.365 N 
ATOM      9  H6  UNL     1      16.901 -24.872 -53.312  1.00  0.00     0.161 HD
HETATM   10  C22 UNL     1      17.057 -25.315 -55.542  1.00  0.00     0.149 A 
ENDROOT
BRANCH   1  11
HETATM   11  C8  UNL     1      16.638 -26.774 -57.549  1.00  0.00     0.086 A 
HETATM   12  C2  UNL     1      15.827 -26.922 -58.619  1.00  0.00     0.036 A 
HETATM   13  C1  UNL     1      14.996 -25.951 -59.361  1.00  0.00     0.070 C 
HETATM   14  N1  UNL     1      15.786 -28.254 -58.927  1.00  0.00    -0.347 N 
HETATM   15  C3  UNL     1      16.546 -28.943 -58.079  1.00  0.00     0.089 A 
ATOM     16  H1  UNL     1      15.252 -28.659 -59.696  1.00  0.00     0.167 HD
HETATM   17  N2  UNL     1      17.062 -28.049 -57.243  1.00  0.00    -0.342 N 
ATOM     18  H2  UNL     1      17.692 -28.278 -56.474  1.00  0.00     0.167 HD
BRANCH  15  19
HETATM   19  C4  UNL     1      16.770 -30.427 -58.108  1.00  0.00     0.007 C 
HETATM   20  C5  UNL     1      15.435 -31.117 -57.919  1.00  0.00     0.022 C 
HETATM   21  C6  UNL     1      17.713 -30.819 -57.022  1.00  0.00     0.022 C 
HETATM   22  C7  UNL     1      17.379 -30.796 -59.433  1.00  0.00     0.022 C 
ENDBRANCH  15  19
ENDBRANCH   1  11
BRANCH  10  23
HETATM   23  O1  UNL     1      16.432 -26.163 -54.628  1.00  0.00    -0.305 OA
BRANCH  23  24
HETATM   24  C23 UNL     1      15.087 -26.442 -54.961  1.00  0.00     0.076 A 
HETATM   25  C24 UNL     1      14.228 -25.534 -55.506  1.00  0.00     0.040 A 
HETATM   26  C25 UNL     1      12.897 -25.816 -55.828  1.00  0.00     0.039 A 
HETATM   27  C26 UNL     1      12.407 -27.055 -55.597  1.00  0.00     0.069 A 
HETATM   28  C30 UNL     1      13.246 -28.011 -55.045  1.00  0.00     0.039 A 
HETATM   29  C31 UNL     1      14.554 -27.714 -54.733  1.00  0.00     0.040 A 
BRANCH  27  30
HETATM   30  O2  UNL     1      11.102 -27.377 -55.897  1.00  0.00    -0.347 OA
BRANCH  30  31
HETATM   31  C27 UNL     1      10.163 -28.022 -55.108  1.00  0.00     0.120 C 
HETATM   32  C28 UNL     1       9.536 -27.056 -54.092  1.00  0.00     0.040 C 
HETATM   33  C29 UNL     1       9.037 -28.619 -55.951  1.00  0.00     0.040 C 
ENDBRANCH  30  31
ENDBRANCH  27  30
ENDBRANCH  23  24
ENDBRANCH  10  23
BRANCH   4  34
HETATM   34  N4  UNL     1      18.798 -22.669 -57.885  1.00  0.00    -0.217 N 
ATOM     35  H4  UNL     1      19.269 -23.056 -58.703  1.00  0.00     0.178 HD
BRANCH  34  36
HETATM   36  C11 UNL     1      18.790 -21.257 -57.735  1.00  0.00     0.255 C 
BRANCH  36  37
HETATM   37  C12 UNL     1      17.474 -20.775 -58.381  1.00  0.00     0.403 C 
HETATM   38  F1  UNL     1      17.148 -19.562 -57.874  1.00  0.00    -0.169 F 
HETATM   39  F2  UNL     1      16.543 -21.755 -58.127  1.00  0.00    -0.169 F 
HETATM   40  F3  UNL     1      17.759 -20.707 -59.740  1.00  0.00    -0.169 F 
ENDBRANCH  36  37
ENDBRANCH  34  36
ENDBRANCH   4  34
BRANCH   8  41
HETATM   41  C14 UNL     1      17.758 -23.096 -52.754  1.00  0.00     0.112 C 
HETATM   42  C15 UNL     1      17.078 -23.191 -51.421  1.00  0.00     0.037 C 
BRANCH  41  43
HETATM   43  C16 UNL     1      19.245 -23.101 -52.529  1.00  0.00    -0.036 A 
HETATM   44  C17 UNL     1      19.985 -24.209 -52.253  1.00  0.00     0.009 A 
HETATM   45  C18 UNL     1      21.374 -24.126 -52.043  1.00  0.00     0.001 A 
HETATM   46  C19 UNL     1      22.026 -22.920 -52.109  1.00  0.00     0.000 A 
HETATM   47  C20 UNL     1      21.277 -21.796 -52.388  1.00  0.00     0.001 A 
HETATM   48  C21 UNL     1      19.923 -21.898 -52.591  1.00  0.00     0.009 A 
ENDBRANCH  41  43
ENDBRANCH   8  41
TORSDOF 11
ENDMDL
MODEL 3
REMARK VINA RESULT: -7.775758181      0.454      1.230
REMARK  11 active torsions:
REMARK  status: ('A' for Active; 'I' for Inactive)
REMARK    1  A    between atoms: C3_5  and  C4_6 
REMARK    2  A    between atoms: C8_12  and  C9_13 
REMARK    3  A    between atoms: C10_16  and  N4_17 
REMARK    4  A    between atoms: N4_17  and  C11_19 
REMARK    5  A    between atoms: C11_19  and  C12_20 
REMARK    6  A    between atoms: N6_27  and  C14_29 
REMARK    7  A    between atoms: C14_29  and  C16_31 
REMARK    8  A    between atoms: C22_37  and  O1_38 
REMARK    9  A    between atoms: O1_38  and  C23_39 
REMARK   10  A    between atoms: C26_42  and  O2_43 
REMARK   11  A    between atoms: O2_43  and  C27_44 
ROOT
HETATM    1  C9  UNL     1      18.672 -25.978 -52.782  1.00  0.00     0.115 A 
HETATM    2  N3  UNL     1      19.104 -24.728 -52.411  1.00  0.00    -0.187 N 
ATOM      3  H3  UNL     1      19.642 -24.620 -51.551  1.00  0.00     0.184 HD
HETATM    4  C10 UNL     1      18.827 -23.626 -53.170  1.00  0.00     0.680 A 
HETATM    5  N5  UNL     1      18.119 -23.745 -54.305  1.00  0.00    -0.174 N 
ATOM      6  H5  UNL     1      17.925 -22.907 -54.852  1.00  0.00     0.186 HD
HETATM    7  C13 UNL     1      17.662 -24.919 -54.744  1.00  0.00     0.154 A 
HETATM    8  N6  UNL     1      16.979 -25.186 -55.745  1.00  0.00    -0.365 N 
ATOM      9  H6  UNL     1      16.763 -26.177 -55.851  1.00  0.00     0.161 HD
HETATM   10  C22 UNL     1      17.974 -26.049 -53.925  1.00  0.00     0.149 A 
ENDROOT
BRANCH   1  11
HETATM   11  C8  UNL     1      19.063 -27.100 -51.914  1.00  0.00     0.086 A 
HETATM   12  C2  UNL     1      20.263 -27.557 -51.497  1.00  0.00     0.036 A 
HETATM   13  C1  UNL     1      21.640 -27.227 -51.920  1.00  0.00     0.070 C 
HETATM   14  N1  UNL     1      20.033 -28.548 -50.582  1.00  0.00    -0.347 N 
HETATM   15  C3  UNL     1      18.724 -28.726 -50.419  1.00  0.00     0.089 A 
ATOM     16  H1  UNL     1      20.759 -29.074 -50.096  1.00  0.00     0.167 HD
HETATM   17  N2  UNL     1      18.134 -27.850 -51.226  1.00  0.00    -0.342 N 
ATOM     18  H2  UNL     1      17.124 -27.747 -51.323  1.00  0.00     0.167 HD
BRANCH  15  19
HETATM   19  C4  UNL     1      18.081 -29.710 -49.486  1.00  0.00     0.007 C 
HETATM   20  C5  UNL     1      18.028 -31.059 -50.172  1.00  0.00     0.022 C 
HETATM   21  C6  UNL     1      16.705 -29.253 -49.136  1.00  0.00     0.022 C 
HETATM   22  C7  UNL     1      18.899 -29.783 -48.225  1.00  0.00     0.022 C 
ENDBRANCH  15  19
ENDBRANCH   1  11
BRANCH  10  23
HETATM   23  O1  UNL     1      17.490 -27.245 -54.455  1.00  0.00    -0.305 OA
BRANCH  23  24
HETATM   24  C23 UNL     1      16.091 -27.386 -54.314  1.00  0.00     0.076 A 
HETATM   25  C24 UNL     1      15.358 -26.810 -53.319  1.00  0.00     0.040 A 
HETATM   26  C25 UNL     1      13.974 -26.960 -53.184  1.00  0.00     0.039 A 
HETATM   27  C26 UNL     1      13.298 -27.714 -54.080  1.00  0.00     0.069 A 
HETATM   28  C30 UNL     1      14.003 -28.317 -55.109  1.00  0.00     0.039 A 
HETATM   29  C31 UNL     1      15.366 -28.159 -55.226  1.00  0.00     0.040 A 
BRANCH  27  30
HETATM   30  O2  UNL     1      11.936 -27.890 -53.984  1.00  0.00    -0.347 OA
BRANCH  30  31
HETATM   31  C27 UNL     1      10.922 -27.184 -54.611  1.00  0.00     0.120 C 
HETATM   32  C28 UNL     1      10.376 -27.957 -55.821  1.00  0.00     0.040 C 
HETATM   33  C29 UNL     1       9.757 -26.909 -53.660  1.00  0.00     0.040 C 
ENDBRANCH  30  31
ENDBRANCH  27  30
ENDBRANCH  23  24
ENDBRANCH  10  23
BRANCH   4  34
HETATM   34  N4  UNL     1      19.289 -22.529 -52.740  1.00  0.00    -0.217 N 
ATOM     35  H4  UNL     1      18.859 -21.668 -53.081  1.00  0.00     0.178 HD
BRANCH  34  36
HETATM   36  C11 UNL     1      20.361 -22.410 -51.817  1.00  0.00     0.255 C 
BRANCH  36  37
HETATM   37  C12 UNL     1      21.632 -22.232 -52.674  1.00  0.00     0.403 C 
HETATM   38  F1  UNL     1      21.276 -21.843 -53.922  1.00  0.00    -0.169 F 
HETATM   39  F2  UNL     1      22.293 -23.439 -52.632  1.00  0.00    -0.169 F 
HETATM   40  F3  UNL     1      22.362 -21.249 -52.015  1.00  0.00    -0.169 F 
ENDBRANCH  36  37
ENDBRANCH  34  36
ENDBRANCH   4  34
BRANCH   8  41
HETATM   41  C14 UNL     1      16.449 -24.366 -56.759  1.00  0.00     0.112 C 
HETATM   42  C15 UNL     1      17.426 -23.886 -57.792  1.00  0.00     0.037 C 
BRANCH  41  43
HETATM   43  C16 UNL     1      15.311 -25.050 -57.464  1.00  0.00    -0.036 A 
HETATM   44  C17 UNL     1      15.389 -25.609 -58.703  1.00  0.00     0.009 A 
HETATM   45  C18 UNL     1      14.271 -26.221 -59.299  1.00  0.00     0.001 A 
HETATM   46  C19 UNL     1      13.063 -26.272 -58.647  1.00  0.00     0.000 A 
HETATM   47  C20 UNL     1      12.984 -25.705 -57.393  1.00  0.00     0.001 A 
HETATM   48  C21 UNL     1      14.087 -25.113 -56.828  1.00  0.00     0.009 A 
ENDBRANCH  41  43
ENDBRANCH   8  41
TORSDOF 11
ENDMDL
MODEL 4
REMARK VINA RESULT: -7.730899181      1.052      1.948
REMARK  11 active torsions:
REMARK  status: ('A' for Active; 'I' for Inactive)
REMARK    1  A    between atoms: C3_5  and  C4_6 
REMARK    2  A    between atoms: C8_12  and  C9_13 
REMARK    3  A    between atoms: C10_16  and  N4_17 
REMARK    4  A    between atoms: N4_17  and  C11_19 
REMARK    5  A    between atoms: C11_19  and  C12_20 
REMARK    6  A    between atoms: N6_27  and  C14_29 
REMARK    7  A    between atoms: C14_29  and  C16_31 
REMARK    8  A    between atoms: C22_37  and  O1_38 
REMARK    9  A    between atoms: O1_38  and  C23_39 
REMARK   10  A    between atoms: C26_42  and  O2_43 
REMARK   11  A    between atoms: O2_43  and  C27_44 
ROOT
HETATM    1  C9  UNL     1      18.511 -26.146 -52.779  1.00  0.00     0.115 A 
HETATM    2  N3  UNL     1      18.919 -24.915 -52.327  1.00  0.00    -0.187 N 
ATOM      3  H3  UNL     1      19.479 -24.855 -51.477  1.00  0.00     0.184 HD
HETATM    4  C10 UNL     1      18.590 -23.769 -52.994  1.00  0.00     0.680 A 
HETATM    5  N5  UNL     1      17.853 -23.825 -54.115  1.00  0.00    -0.174 N 
ATOM      6  H5  UNL     1      17.619 -22.955 -54.593  1.00  0.00     0.186 HD
HETATM    7  C13 UNL     1      17.415 -24.976 -54.628  1.00  0.00     0.154 A 
HETATM    8  N6  UNL     1      16.711 -25.188 -55.626  1.00  0.00    -0.365 N 
ATOM      9  H6  UNL     1      16.519 -26.175 -55.801  1.00  0.00     0.161 HD
HETATM   10  C22 UNL     1      17.782 -26.154 -53.904  1.00  0.00     0.149 A 
ENDROOT
BRANCH   1  11
HETATM   11  C8  UNL     1      18.958 -27.317 -52.008  1.00  0.00     0.086 A 
HETATM   12  C2  UNL     1      18.303 -28.194 -51.216  1.00  0.00     0.036 A 
HETATM   13  C1  UNL     1      16.932 -28.184 -50.666  1.00  0.00     0.070 C 
HETATM   14  N1  UNL     1      19.189 -29.175 -50.864  1.00  0.00    -0.347 N 
HETATM   15  C3  UNL     1      20.379 -28.935 -51.410  1.00  0.00     0.089 A 
ATOM     16  H1  UNL     1      18.969 -29.975 -50.270  1.00  0.00     0.167 HD
HETATM   17  N2  UNL     1      20.242 -27.810 -52.102  1.00  0.00    -0.342 N 
ATOM     18  H2  UNL     1      20.990 -27.368 -52.635  1.00  0.00     0.167 HD
BRANCH  15  19
HETATM   19  C4  UNL     1      21.599 -29.798 -51.270  1.00  0.00     0.007 C 
HETATM   20  C5  UNL     1      21.751 -30.181 -49.812  1.00  0.00     0.022 C 
HETATM   21  C6  UNL     1      22.804 -29.053 -51.736  1.00  0.00     0.022 C 
HETATM   22  C7  UNL     1      21.426 -31.021 -52.129  1.00  0.00     0.022 C 
ENDBRANCH  15  19
ENDBRANCH   1  11
BRANCH  10  23
HETATM   23  O1  UNL     1      17.315 -27.321 -54.509  1.00  0.00    -0.305 OA
BRANCH  23  24
HETATM   24  C23 UNL     1      15.916 -27.483 -54.392  1.00  0.00     0.076 A 
HETATM   25  C24 UNL     1      15.152 -26.885 -53.435  1.00  0.00     0.040 A 
HETATM   26  C25 UNL     1      13.769 -27.055 -53.323  1.00  0.00     0.039 A 
HETATM   27  C26 UNL     1      13.126 -27.855 -54.203  1.00  0.00     0.069 A 
HETATM   28  C30 UNL     1      13.864 -28.484 -55.194  1.00  0.00     0.039 A 
HETATM   29  C31 UNL     1      15.226 -28.305 -55.288  1.00  0.00     0.040 A 
BRANCH  27  30
HETATM   30  O2  UNL     1      11.765 -28.054 -54.129  1.00  0.00    -0.347 OA
BRANCH  30  31
HETATM   31  C27 UNL     1      10.747 -27.326 -54.724  1.00  0.00     0.120 C 
HETATM   32  C28 UNL     1      10.143 -28.088 -55.912  1.00  0.00     0.040 C 
HETATM   33  C29 UNL     1       9.622 -27.023 -53.734  1.00  0.00     0.040 C 
ENDBRANCH  30  31
ENDBRANCH  27  30
ENDBRANCH  23  24
ENDBRANCH  10  23
BRANCH   4  34
HETATM   34  N4  UNL     1      19.033 -22.693 -52.496  1.00  0.00    -0.217 N 
ATOM     35  H4  UNL     1      18.571 -22.331 -51.662  1.00  0.00     0.178 HD
BRANCH  34  36
HETATM   36  C11 UNL     1      20.129 -21.954 -53.016  1.00  0.00     0.255 C 
BRANCH  36  37
HETATM   37  C12 UNL     1      21.319 -22.259 -52.082  1.00  0.00     0.403 C 
HETATM   38  F1  UNL     1      20.864 -22.897 -50.977  1.00  0.00    -0.169 F 
HETATM   39  F2  UNL     1      21.919 -21.048 -51.821  1.00  0.00    -0.169 F 
HETATM   40  F3  UNL     1      22.157 -23.070 -52.839  1.00  0.00    -0.169 F 
ENDBRANCH  36  37
ENDBRANCH  34  36
ENDBRANCH   4  34
BRANCH   8  41
HETATM   41  C14 UNL     1      16.129 -24.312 -56.562  1.00  0.00     0.112 C 
HETATM   42  C15 UNL     1      17.080 -23.623 -57.495  1.00  0.00     0.037 C 
BRANCH  41  43
HETATM   43  C16 UNL     1      15.086 -25.017 -57.383  1.00  0.00    -0.036 A 
HETATM   44  C17 UNL     1      15.279 -25.487 -58.647  1.00  0.00     0.009 A 
HETATM   45  C18 UNL     1      14.244 -26.127 -59.353  1.00  0.00     0.001 A 
HETATM   46  C19 UNL     1      13.004 -26.296 -58.790  1.00  0.00     0.000 A 
HETATM   47  C20 UNL     1      12.807 -25.818 -57.511  1.00  0.00     0.001 A 
HETATM   48  C21 UNL     1      13.830 -25.198 -56.837  1.00  0.00     0.009 A 
ENDBRANCH  41  43
ENDBRANCH   8  41
TORSDOF 11
ENDMDL
MODEL 5
REMARK VINA RESULT: -7.691046833      4.128      7.370
REMARK  11 active torsions:
REMARK  status: ('A' for Active; 'I' for Inactive)
REMARK    1  A    between atoms: C3_5  and  C4_6 
REMARK    2  A    between atoms: C8_12  and  C9_13 
REMARK    3  A    between atoms: C10_16  and  N4_17 
REMARK    4  A    between atoms: N4_17  and  C11_19 
REMARK    5  A    between atoms: C11_19  and  C12_20 
REMARK    6  A    between atoms: N6_27  and  C14_29 
REMARK    7  A    between atoms: C14_29  and  C16_31 
REMARK    8  A    between atoms: C22_37  and  O1_38 
REMARK    9  A    between atoms: O1_38  and  C23_39 
REMARK   10  A    between atoms: C26_42  and  O2_43 
REMARK   11  A    between atoms: O2_43  and  C27_44 
ROOT
HETATM    1  C9  UNL     1      20.151 -22.432 -54.240  1.00  0.00     0.115 A 
HETATM    2  N3  UNL     1      20.148 -21.891 -55.502  1.00  0.00    -0.187 N 
ATOM      3  H3  UNL     1      20.895 -21.254 -55.774  1.00  0.00     0.184 HD
HETATM    4  C10 UNL     1      19.162 -22.191 -56.400  1.00  0.00     0.680 A 
HETATM    5  N5  UNL     1      18.167 -23.027 -56.062  1.00  0.00    -0.174 N 
ATOM      6  H5  UNL     1      17.444 -23.232 -56.750  1.00  0.00     0.186 HD
HETATM    7  C13 UNL     1      18.091 -23.599 -54.860  1.00  0.00     0.154 A 
HETATM    8  N6  UNL     1      17.231 -24.362 -54.392  1.00  0.00    -0.365 N 
ATOM      9  H6  UNL     1      17.414 -24.661 -53.435  1.00  0.00     0.161 HD
HETATM   10  C22 UNL     1      19.141 -23.265 -53.948  1.00  0.00     0.149 A 
ENDROOT
BRANCH   1  11
HETATM   11  C8  UNL     1      21.282 -22.076 -53.368  1.00  0.00     0.086 A 
HETATM   12  C2  UNL     1      21.358 -21.405 -52.198  1.00  0.00     0.036 A 
HETATM   13  C1  UNL     1      20.360 -20.603 -51.461  1.00  0.00     0.070 C 
HETATM   14  N1  UNL     1      22.649 -21.490 -51.756  1.00  0.00    -0.347 N 
HETATM   15  C3  UNL     1      23.383 -22.191 -52.618  1.00  0.00     0.089 A 
ATOM     16  H1  UNL     1      22.999 -21.077 -50.892  1.00  0.00     0.167 HD
HETATM   17  N2  UNL     1      22.557 -22.546 -53.595  1.00  0.00    -0.342 N 
ATOM     18  H2  UNL     1      22.832 -23.096 -54.409  1.00  0.00     0.167 HD
BRANCH  15  19
HETATM   19  C4  UNL     1      24.842 -22.515 -52.469  1.00  0.00     0.007 C 
HETATM   20  C5  UNL     1      24.980 -24.003 -52.223  1.00  0.00     0.022 C 
HETATM   21  C6  UNL     1      25.418 -21.747 -51.328  1.00  0.00     0.022 C 
HETATM   22  C7  UNL     1      25.555 -22.112 -53.730  1.00  0.00     0.022 C 
ENDBRANCH  15  19
ENDBRANCH   1  11
BRANCH  10  23
HETATM   23  O1  UNL     1      19.014 -23.918 -52.723  1.00  0.00    -0.305 OA
BRANCH  23  24
HETATM   24  C23 UNL     1      19.759 -25.117 -52.655  1.00  0.00     0.076 A 
HETATM   25  C24 UNL     1      19.391 -26.284 -53.256  1.00  0.00     0.040 A 
HETATM   26  C25 UNL     1      20.132 -27.467 -53.179  1.00  0.00     0.039 A 
HETATM   27  C26 UNL     1      21.286 -27.483 -52.475  1.00  0.00     0.069 A 
HETATM   28  C30 UNL     1      21.699 -26.318 -51.847  1.00  0.00     0.039 A 
HETATM   29  C31 UNL     1      20.956 -25.162 -51.933  1.00  0.00     0.040 A 
BRANCH  27  30
HETATM   30  O2  UNL     1      22.046 -28.627 -52.371  1.00  0.00    -0.347 OA
BRANCH  30  31
HETATM   31  C27 UNL     1      23.415 -28.776 -52.518  1.00  0.00     0.120 C 
HETATM   32  C28 UNL     1      23.932 -29.973 -51.706  1.00  0.00     0.040 C 
HETATM   33  C29 UNL     1      23.802 -28.993 -53.981  1.00  0.00     0.040 C 
ENDBRANCH  30  31
ENDBRANCH  27  30
ENDBRANCH  23  24
ENDBRANCH  10  23
BRANCH   4  34
HETATM   34  N4  UNL     1      19.269 -21.648 -57.538  1.00  0.00    -0.217 N 
ATOM     35  H4  UNL     1      19.732 -22.180 -58.276  1.00  0.00     0.178 HD
BRANCH  34  36
HETATM   36  C11 UNL     1      18.791 -20.350 -57.863  1.00  0.00     0.255 C 
BRANCH  36  37
HETATM   37  C12 UNL     1      17.397 -20.563 -58.489  1.00  0.00     0.403 C 
HETATM   38  F1  UNL     1      16.602 -19.513 -58.171  1.00  0.00    -0.169 F 
HETATM   39  F2  UNL     1      16.944 -21.771 -58.010  1.00  0.00    -0.169 F 
HETATM   40  F3  UNL     1      17.636 -20.634 -59.856  1.00  0.00    -0.169 F 
ENDBRANCH  36  37
ENDBRANCH  34  36
ENDBRANCH   4  34
BRANCH   8  41
HETATM   41  C14 UNL     1      16.049 -24.889 -54.947  1.00  0.00     0.112 C 
HETATM   42  C15 UNL     1      15.149 -23.903 -55.630  1.00  0.00     0.037 C 
BRANCH  41  43
HETATM   43  C16 UNL     1      16.358 -25.998 -55.914  1.00  0.00    -0.036 A 
HETATM   44  C17 UNL     1      16.943 -27.181 -55.579  1.00  0.00     0.009 A 
HETATM   45  C18 UNL     1      17.209 -28.164 -56.550  1.00  0.00     0.001 A 
HETATM   46  C19 UNL     1      16.887 -27.959 -57.869  1.00  0.00     0.000 A 
HETATM   47  C20 UNL     1      16.296 -26.761 -58.209  1.00  0.00     0.001 A 
HETATM   48  C21 UNL     1      16.043 -25.814 -57.247  1.00  0.00     0.009 A 
ENDBRANCH  41  43
ENDBRANCH   8  41
TORSDOF 11
ENDMDL
