MODEL 1
REMARK VINA RESULT: -5.441054386      0.000      0.000
REMARK  4 active torsions:
REMARK  status: ('A' for Active; 'I' for Inactive)
REMARK    1  A    between atoms: C2_2  and  N1_3 
REMARK       I    between atoms: N1_3  and  C3_5 
REMARK       I    between atoms: C3_5  and  N3_9 
REMARK    2  A    between atoms: N3_9  and  N4_11 
REMARK    3  A    between atoms: C5_18  and  C6_19 
REMARK       I    between atoms: C6_19  and  N7_21 
REMARK    4  A    between atoms: N7_21  and  N8_22 
ROOT
HETATM    1  N4  UNL     1      57.350 -54.717  -7.458  1.00  0.00    -0.266 N 
ATOM      2  H4  UNL     1      56.338 -54.728  -7.586  1.00  0.00     0.189 HD
HETATM    3  C4  UNL     1      57.737 -54.458  -6.298  1.00  0.00     0.204 A 
HETATM    4  N5  UNL     1      56.787 -54.212  -5.322  1.00  0.00    -0.278 N 
ATOM      5  H5  UNL     1      55.794 -54.265  -5.548  1.00  0.00     0.189 HD
HETATM    6  N6  UNL     1      57.181 -53.900  -4.071  1.00  0.00    -0.278 N 
ATOM      7  H6  UNL     1      56.471 -53.720  -3.362  1.00  0.00     0.189 HD
HETATM    8  C5  UNL     1      58.456 -53.821  -3.734  1.00  0.00     0.209 A 
HETATM    9  N9  UNL     1      59.417 -54.052  -4.642  1.00  0.00    -0.300 N 
ATOM     10  H9  UNL     1      60.404 -53.993  -4.391  1.00  0.00     0.171 HD
HETATM   11  C7  UNL     1      59.037 -54.365  -5.895  1.00  0.00     0.294 A 
HETATM   12  O2  UNL     1      59.975 -54.577  -6.708  1.00  0.00    -0.264 OA
ENDROOT
BRANCH   1  13
HETATM   13  N3  UNL     1      58.078 -54.984  -8.572  1.00  0.00    -0.131 N 
HETATM   14  C3  UNL     1      57.660 -54.258  -9.772  1.00  0.00     0.686 C 
HETATM   15  N1  UNL     1      57.349 -52.879  -9.480  1.00  0.00    -0.226 N 
HETATM   16  N2  UNL     1      57.569 -54.677 -10.893  1.00  0.00    -0.234 N 
ATOM     17  H1  UNL     1      56.389 -52.550  -9.375  1.00  0.00     0.177 HD
ATOM     18  H22 UNL     1      57.277 -54.171 -11.729  1.00  0.00     0.174 HD
ATOM     19  H21 UNL     1      57.789 -55.651 -11.099  1.00  0.00     0.174 HD
ATOM     20  H3  UNL     1      58.858 -55.642  -8.573  1.00  0.00     0.205 HD
BRANCH  15  21
HETATM   21  C2  UNL     1      58.484 -51.993  -9.344  1.00  0.00     0.133 C 
HETATM   22  C1  UNL     1      58.415 -51.012 -10.498  1.00  0.00     0.027 C 
ENDBRANCH  15  21
ENDBRANCH   1  13
BRANCH   8  23
HETATM   23  C6  UNL     1      58.883 -53.400  -2.373  1.00  0.00     0.380 C 
HETATM   24  O1  UNL     1      60.068 -53.807  -2.079  1.00  0.00    -0.246 OA
HETATM   25  N7  UNL     1      58.039 -52.661  -1.617  1.00  0.00    -0.285 NA
BRANCH  25  26
HETATM   26  N8  UNL     1      57.207 -51.932  -0.872  1.00  0.00    -0.276 N 
ATOM     27  H82 UNL     1      57.840 -52.447  -1.485  1.00  0.00     0.191 HD
ATOM     28  H81 UNL     1      56.572 -51.376  -0.301  1.00  0.00     0.191 HD
ENDBRANCH  25  26
ENDBRANCH   8  23
TORSDOF 4
ENDMDL
MODEL 2
REMARK VINA RESULT: -5.003358562      3.516      5.507
REMARK  4 active torsions:
REMARK  status: ('A' for Active; 'I' for Inactive)
REMARK    1  A    between atoms: C2_2  and  N1_3 
REMARK       I    between atoms: N1_3  and  C3_5 
REMARK       I    between atoms: C3_5  and  N3_9 
REMARK    2  A    between atoms: N3_9  and  N4_11 
REMARK    3  A    between atoms: C5_18  and  C6_19 
REMARK       I    between atoms: C6_19  and  N7_21 
REMARK    4  A    between atoms: N7_21  and  N8_22 
ROOT
HETATM    1  N4  UNL     1      59.491 -50.375 -10.957  1.00  0.00    -0.266 N 
ATOM      2  H4  UNL     1      58.738 -49.731 -11.202  1.00  0.00     0.189 HD
HETATM    3  C4  UNL     1      59.161 -51.321 -10.211  1.00  0.00     0.204 A 
HETATM    4  N5  UNL     1      57.845 -51.406  -9.790  1.00  0.00    -0.278 N 
ATOM      5  H5  UNL     1      57.160 -50.719 -10.107  1.00  0.00     0.189 HD
HETATM    6  N6  UNL     1      57.471 -52.400  -8.961  1.00  0.00    -0.278 N 
ATOM      7  H6  UNL     1      56.499 -52.450  -8.658  1.00  0.00     0.189 HD
HETATM    8  C5  UNL     1      58.323 -53.312  -8.527  1.00  0.00     0.209 A 
HETATM    9  N9  UNL     1      59.611 -53.277  -8.905  1.00  0.00    -0.300 N 
ATOM     10  H9  UNL     1      60.277 -53.976  -8.575  1.00  0.00     0.171 HD
HETATM   11  C7  UNL     1      59.996 -52.289  -9.735  1.00  0.00     0.294 A 
HETATM   12  O2  UNL     1      61.212 -52.301 -10.064  1.00  0.00    -0.264 OA
ENDROOT
BRANCH   1  13
HETATM   13  N3  UNL     1      60.703 -50.077 -11.489  1.00  0.00    -0.131 N 
HETATM   14  C3  UNL     1      61.224 -48.755 -11.138  1.00  0.00     0.686 C 
HETATM   15  N1  UNL     1      61.000 -48.445  -9.747  1.00  0.00    -0.226 N 
HETATM   16  N2  UNL     1      61.786 -47.971 -11.853  1.00  0.00    -0.234 N 
ATOM     17  H1  UNL     1      60.239 -47.837  -9.443  1.00  0.00     0.177 HD
ATOM     18  H22 UNL     1      62.148 -47.049 -11.608  1.00  0.00     0.174 HD
ATOM     19  H21 UNL     1      61.945 -48.190 -12.836  1.00  0.00     0.174 HD
ATOM     20  H3  UNL     1      61.214 -50.726 -12.089  1.00  0.00     0.205 HD
BRANCH  15  21
HETATM   21  C2  UNL     1      61.921 -49.051  -8.811  1.00  0.00     0.133 C 
HETATM   22  C1  UNL     1      62.039 -48.103  -7.634  1.00  0.00     0.027 C 
ENDBRANCH  15  21
ENDBRANCH   1  13
BRANCH   8  23
HETATM   23  C6  UNL     1      57.923 -54.358  -7.549  1.00  0.00     0.380 C 
HETATM   24  O1  UNL     1      58.118 -55.550  -7.994  1.00  0.00    -0.246 OA
HETATM   25  N7  UNL     1      57.428 -53.982  -6.348  1.00  0.00    -0.285 NA
BRANCH  25  26
HETATM   26  N8  UNL     1      56.941 -53.612  -5.163  1.00  0.00    -0.276 N 
ATOM     27  H82 UNL     1      57.259 -53.884  -6.093  1.00  0.00     0.191 HD
ATOM     28  H81 UNL     1      56.569 -53.329  -4.256  1.00  0.00     0.191 HD
ENDBRANCH  25  26
ENDBRANCH   8  23
TORSDOF 4
ENDMDL
MODEL 3
REMARK VINA RESULT: -4.934515883      4.275      6.572
REMARK  4 active torsions:
REMARK  status: ('A' for Active; 'I' for Inactive)
REMARK    1  A    between atoms: C2_2  and  N1_3 
REMARK       I    between atoms: N1_3  and  C3_5 
REMARK       I    between atoms: C3_5  and  N3_9 
REMARK    2  A    between atoms: N3_9  and  N4_11 
REMARK    3  A    between atoms: C5_18  and  C6_19 
REMARK       I    between atoms: C6_19  and  N7_21 
REMARK    4  A    between atoms: N7_21  and  N8_22 
ROOT
HETATM    1  N4  UNL     1      60.451 -49.439 -10.296  1.00  0.00    -0.266 N 
ATOM      2  H4  UNL     1      59.885 -48.773 -10.822  1.00  0.00     0.189 HD
HETATM    3  C4  UNL     1      59.885 -50.519 -10.021  1.00  0.00     0.204 A 
HETATM    4  N5  UNL     1      58.577 -50.705 -10.434  1.00  0.00    -0.278 N 
ATOM      5  H5  UNL     1      58.102 -49.981 -10.973  1.00  0.00     0.189 HD
HETATM    6  N6  UNL     1      57.934 -51.848 -10.123  1.00  0.00    -0.278 N 
ATOM      7  H6  UNL     1      56.971 -51.972 -10.433  1.00  0.00     0.189 HD
HETATM    8  C5  UNL     1      58.512 -52.813  -9.428  1.00  0.00     0.209 A 
HETATM    9  N9  UNL     1      59.779 -52.683  -9.004  1.00  0.00    -0.300 N 
ATOM     10  H9  UNL     1      60.233 -53.422  -8.467  1.00  0.00     0.171 HD
HETATM   11  C7  UNL     1      60.432 -51.547  -9.310  1.00  0.00     0.294 A 
HETATM   12  O2  UNL     1      61.618 -51.474  -8.894  1.00  0.00    -0.264 OA
ENDROOT
BRANCH   1  13
HETATM   13  N3  UNL     1      61.709 -49.024  -9.999  1.00  0.00    -0.131 N 
HETATM   14  C3  UNL     1      61.885 -47.571  -9.958  1.00  0.00     0.686 C 
HETATM   15  N1  UNL     1      60.781 -46.918  -9.296  1.00  0.00    -0.226 N 
HETATM   16  N2  UNL     1      62.804 -46.928 -10.386  1.00  0.00    -0.234 N 
ATOM     17  H1  UNL     1      60.033 -46.458  -9.816  1.00  0.00     0.177 HD
ATOM     18  H22 UNL     1      62.926 -45.916 -10.358  1.00  0.00     0.174 HD
ATOM     19  H21 UNL     1      63.584 -47.390 -10.853  1.00  0.00     0.174 HD
ATOM     20  H3  UNL     1      62.473 -49.674  -9.819  1.00  0.00     0.205 HD
BRANCH  15  21
HETATM   21  C2  UNL     1      60.801 -46.958  -7.850  1.00  0.00     0.133 C 
HETATM   22  C1  UNL     1      61.290 -45.601  -7.382  1.00  0.00     0.027 C 
ENDBRANCH  15  21
ENDBRANCH   1  13
BRANCH   8  23
HETATM   23  C6  UNL     1      57.772 -54.036  -9.019  1.00  0.00     0.380 C 
HETATM   24  O1  UNL     1      57.493 -54.801 -10.016  1.00  0.00    -0.246 OA
HETATM   25  N7  UNL     1      57.486 -54.226  -7.711  1.00  0.00    -0.285 NA
BRANCH  25  26
HETATM   26  N8  UNL     1      57.204 -54.414  -6.421  1.00  0.00    -0.276 N 
ATOM     27  H82 UNL     1      57.415 -54.330  -7.416  1.00  0.00     0.191 HD
ATOM     28  H81 UNL     1      56.988 -54.557  -5.435  1.00  0.00     0.191 HD
ENDBRANCH  25  26
ENDBRANCH   8  23
TORSDOF 4
ENDMDL
MODEL 4
REMARK VINA RESULT: -4.865239696      5.012      7.272
REMARK  4 active torsions:
REMARK  status: ('A' for Active; 'I' for Inactive)
REMARK    1  A    between atoms: C2_2  and  N1_3 
REMARK       I    between atoms: N1_3  and  C3_5 
REMARK       I    between atoms: C3_5  and  N3_9 
REMARK    2  A    between atoms: N3_9  and  N4_11 
REMARK    3  A    between atoms: C5_18  and  C6_19 
REMARK       I    between atoms: C6_19  and  N7_21 
REMARK    4  A    between atoms: N7_21  and  N8_22 
ROOT
HETATM    1  N4  UNL     1      60.367 -49.430  -9.687  1.00  0.00    -0.266 N 
ATOM      2  H4  UNL     1      59.811 -48.646 -10.026  1.00  0.00     0.189 HD
HETATM    3  C4  UNL     1      59.823 -50.551  -9.787  1.00  0.00     0.204 A 
HETATM    4  N5  UNL     1      58.551 -50.625 -10.328  1.00  0.00    -0.278 N 
ATOM      5  H5  UNL     1      58.084 -49.779 -10.657  1.00  0.00     0.189 HD
HETATM    6  N6  UNL     1      57.931 -51.818 -10.418  1.00  0.00    -0.278 N 
ATOM      7  H6  UNL     1      56.994 -51.857 -10.817  1.00  0.00     0.189 HD
HETATM    8  C5  UNL     1      58.498 -52.938 -10.006  1.00  0.00     0.209 A 
HETATM    9  N9  UNL     1      59.732 -52.923  -9.475  1.00  0.00    -0.300 N 
ATOM     10  H9  UNL     1      60.177 -53.782  -9.154  1.00  0.00     0.171 HD
HETATM   11  C7  UNL     1      60.361 -51.737  -9.380  1.00  0.00     0.294 A 
HETATM   12  O2  UNL     1      61.516 -51.775  -8.880  1.00  0.00    -0.264 OA
ENDROOT
BRANCH   1  13
HETATM   13  N3  UNL     1      61.588 -49.104  -9.192  1.00  0.00    -0.131 N 
HETATM   14  C3  UNL     1      62.210 -47.932  -9.808  1.00  0.00     0.686 C 
HETATM   15  N1  UNL     1      61.257 -46.868 -10.015  1.00  0.00    -0.226 N 
HETATM   16  N2  UNL     1      63.360 -47.787 -10.123  1.00  0.00    -0.234 N 
ATOM     17  H1  UNL     1      60.837 -46.686 -10.927  1.00  0.00     0.177 HD
ATOM     18  H22 UNL     1      63.793 -46.969 -10.552  1.00  0.00     0.174 HD
ATOM     19  H21 UNL     1      64.033 -48.538  -9.976  1.00  0.00     0.174 HD
ATOM     20  H3  UNL     1      62.039 -49.637  -8.447  1.00  0.00     0.205 HD
BRANCH  15  21
HETATM   21  C2  UNL     1      60.932 -46.078  -8.848  1.00  0.00     0.133 C 
HETATM   22  C1  UNL     1      61.669 -44.761  -8.991  1.00  0.00     0.027 C 
ENDBRANCH  15  21
ENDBRANCH   1  13
BRANCH   8  23
HETATM   23  C6  UNL     1      57.779 -54.239 -10.035  1.00  0.00     0.380 C 
HETATM   24  O1  UNL     1      57.417 -54.629  -8.864  1.00  0.00    -0.246 OA
HETATM   25  N7  UNL     1      57.576 -54.852 -11.223  1.00  0.00    -0.285 NA
BRANCH  25  26
HETATM   26  N8  UNL     1      57.374 -55.458 -12.394  1.00  0.00    -0.276 N 
ATOM     27  H82 UNL     1      57.473 -55.012 -11.482  1.00  0.00     0.191 HD
ATOM     28  H81 UNL     1      57.221 -55.920 -13.290  1.00  0.00     0.191 HD
ENDBRANCH  25  26
ENDBRANCH   8  23
TORSDOF 4
ENDMDL
MODEL 5
REMARK VINA RESULT: -4.819008305      1.811      2.317
REMARK  4 active torsions:
REMARK  status: ('A' for Active; 'I' for Inactive)
REMARK    1  A    between atoms: C2_2  and  N1_3 
REMARK       I    between atoms: N1_3  and  C3_5 
REMARK       I    between atoms: C3_5  and  N3_9 
REMARK    2  A    between atoms: N3_9  and  N4_11 
REMARK    3  A    between atoms: C5_18  and  C6_19 
REMARK       I    between atoms: C6_19  and  N7_21 
REMARK    4  A    between atoms: N7_21  and  N8_22 
ROOT
HETATM    1  N4  UNL     1      59.267 -54.738  -6.439  1.00  0.00    -0.266 N 
ATOM      2  H4  UNL     1      60.264 -54.750  -6.651  1.00  0.00     0.189 HD
HETATM    3  C4  UNL     1      58.973 -54.375  -5.280  1.00  0.00     0.204 A 
HETATM    4  N5  UNL     1      59.996 -54.036  -4.412  1.00  0.00    -0.278 N 
ATOM      5  H5  UNL     1      60.966 -54.064  -4.728  1.00  0.00     0.189 HD
HETATM    6  N6  UNL     1      59.707 -53.671  -3.148  1.00  0.00    -0.278 N 
ATOM      7  H6  UNL     1      60.470 -53.425  -2.518  1.00  0.00     0.189 HD
HETATM    8  C5  UNL     1      58.466 -53.620  -2.697  1.00  0.00     0.209 A 
HETATM    9  N9  UNL     1      57.435 -53.937  -3.498  1.00  0.00    -0.300 N 
ATOM     10  H9  UNL     1      56.474 -53.902  -3.159  1.00  0.00     0.171 HD
HETATM   11  C7  UNL     1      57.712 -54.303  -4.763  1.00  0.00     0.294 A 
HETATM   12  O2  UNL     1      56.713 -54.586  -5.476  1.00  0.00    -0.264 OA
ENDROOT
BRANCH   1  13
HETATM   13  N3  UNL     1      58.453 -55.120  -7.456  1.00  0.00    -0.131 N 
HETATM   14  C3  UNL     1      58.188 -54.085  -8.456  1.00  0.00     0.686 C 
HETATM   15  N1  UNL     1      59.381 -53.341  -8.784  1.00  0.00    -0.226 N 
HETATM   16  N2  UNL     1      57.145 -53.828  -8.992  1.00  0.00    -0.234 N 
ATOM     17  H1  UNL     1      59.569 -52.418  -8.392  1.00  0.00     0.177 HD
ATOM     18  H22 UNL     1      56.961 -53.106  -9.689  1.00  0.00     0.174 HD
ATOM     19  H21 UNL     1      56.303 -54.354  -8.761  1.00  0.00     0.174 HD
ATOM     20  H3  UNL     1      58.057 -56.058  -7.520  1.00  0.00     0.205 HD
BRANCH  15  21
HETATM   21  C2  UNL     1      60.294 -53.988  -9.701  1.00  0.00     0.133 C 
HETATM   22  C1  UNL     1      61.677 -53.882  -9.091  1.00  0.00     0.027 C 
ENDBRANCH  15  21
ENDBRANCH   1  13
BRANCH   8  23
HETATM   23  C6  UNL     1      58.158 -53.293  -1.279  1.00  0.00     0.380 C 
HETATM   24  O1  UNL     1      58.681 -54.131  -0.455  1.00  0.00    -0.246 OA
HETATM   25  N7  UNL     1      57.406 -52.203  -1.004  1.00  0.00    -0.285 NA
BRANCH  25  26
HETATM   26  N8  UNL     1      56.666 -51.128  -0.731  1.00  0.00    -0.276 N 
ATOM     27  H82 UNL     1      57.251 -51.923  -0.990  1.00  0.00     0.191 HD
ATOM     28  H81 UNL     1      56.100 -50.306  -0.521  1.00  0.00     0.191 HD
ENDBRANCH  25  26
ENDBRANCH   8  23
TORSDOF 4
ENDMDL
