MODEL 1
REMARK VINA RESULT: -6.690442519      0.000      0.000
REMARK  8 active torsions:
REMARK  status: ('A' for Active; 'I' for Inactive)
REMARK    1  A    between atoms: N1_3  and  C4_5 
REMARK    2  A    between atoms: C4_5  and  C5_6 
REMARK    3  A    between atoms: C5_6  and  N2_7 
REMARK    4  A    between atoms: N2_7  and  C6_9 
REMARK    5  A    between atoms: C8_15  and  C9_16 
REMARK    6  A    between atoms: C11_18  and  N5_19 
REMARK    7  A    between atoms: N5_19  and  C12_21 
REMARK    8  A    between atoms: N7_28  and  C16_30 
ROOT
HETATM    1  C1  UNL     1      13.688  53.401  85.616  1.00  0.00     0.123 C 
HETATM    2  C2  UNL     1      12.643  53.049  85.085  1.00  0.00    -0.078 C 
HETATM    3  N1  UNL     1      11.452  52.681  84.474  1.00  0.00    -0.355 N 
HETATM    4  C3  UNL     1      11.494  51.793  83.318  1.00  0.00     0.159 C 
ENDROOT
BRANCH   3   5
HETATM    5  C4  UNL     1      10.164  53.146  84.896  1.00  0.00     0.151 C 
BRANCH   5   6
HETATM    6  C5  UNL     1       9.532  52.333  85.968  1.00  0.00     0.142 C 
BRANCH   6   7
HETATM    7  N2  UNL     1       9.103  53.066  87.111  1.00  0.00    -0.369 N 
ATOM      8  H2  UNL     1       8.180  53.499  87.140  1.00  0.00     0.161 HD
BRANCH   7   9
HETATM    9  C6  UNL     1       9.925  53.167  88.126  1.00  0.00     0.146 A 
HETATM   10  N3  UNL     1      11.056  53.851  88.201  1.00  0.00    -0.322 N 
HETATM   11  C7  UNL     1      11.725  53.825  89.339  1.00  0.00     0.125 A 
ATOM     12  H3  UNL     1      11.402  54.382  87.402  1.00  0.00     0.169 HD
HETATM   13  N4  UNL     1      12.905  54.458  89.616  1.00  0.00    -0.343 N 
HETATM   14  C20 UNL     1      11.207  53.094  90.369  1.00  0.00     0.054 A 
HETATM   15  C8  UNL     1      13.534  54.396  90.778  1.00  0.00     0.037 A 
ATOM     16  H4  UNL     1      13.329  55.016  88.876  1.00  0.00     0.167 HD
HETATM   17  C11 UNL     1      13.045  53.669  91.852  1.00  0.00     0.058 A 
HETATM   18  C19 UNL     1      11.856  53.015  91.612  1.00  0.00     0.054 A 
HETATM   19  S1  UNL     1       9.780  52.470  89.671  1.00  0.00    -0.051 SA
BRANCH  15  20
HETATM   20  C9  UNL     1      14.832  55.164  90.966  1.00  0.00     0.055 C 
HETATM   21  C10 UNL     1      15.582  55.179  89.666  1.00  0.00     0.011 C 
ENDBRANCH  15  20
BRANCH  17  22
HETATM   22  N5  UNL     1      13.706  53.578  93.069  1.00  0.00    -0.340 N 
ATOM     23  H5  UNL     1      14.595  53.081  93.123  1.00  0.00     0.167 HD
BRANCH  22  24
HETATM   24  C12 UNL     1      13.208  54.115  94.138  1.00  0.00     0.124 A 
HETATM   25  C13 UNL     1      12.835  55.438  94.201  1.00  0.00     0.087 A 
HETATM   26  C14 UNL     1      12.304  56.001  95.360  1.00  0.00     0.099 A 
HETATM   27 BR1  UNL     1      11.807  57.832  95.382  1.00  0.00    -0.031 Br
HETATM   28  N6  UNL     1      12.161  55.209  96.440  1.00  0.00    -0.185 N 
HETATM   29  C15 UNL     1      12.515  53.909  96.415  1.00  0.00     0.680 A 
ATOM     30  H6  UNL     1      11.776  55.602  97.299  1.00  0.00     0.185 HD
HETATM   31  N7  UNL     1      12.421  53.117  97.399  1.00  0.00    -0.221 N 
HETATM   32  N8  UNL     1      13.031  53.390  95.258  1.00  0.00    -0.177 N 
ATOM     33  H7  UNL     1      12.736  52.167  97.205  1.00  0.00     0.178 HD
ATOM     34  H8  UNL     1      13.295  52.405  95.245  1.00  0.00     0.186 HD
BRANCH  31  35
HETATM   35  C16 UNL     1      11.955  53.320  98.724  1.00  0.00     0.099 A 
HETATM   36  C17 UNL     1      13.002  53.836  99.693  1.00  0.00     0.028 A 
HETATM   37  C18 UNL     1      12.316  52.472  99.890  1.00  0.00     0.028 A 
ENDBRANCH  31  35
ENDBRANCH  22  24
ENDBRANCH  17  22
ENDBRANCH   7   9
ENDBRANCH   6   7
ENDBRANCH   5   6
ENDBRANCH   3   5
TORSDOF 8
ENDMDL
MODEL 2
REMARK VINA RESULT: -6.527831336      3.755     10.681
REMARK  8 active torsions:
REMARK  status: ('A' for Active; 'I' for Inactive)
REMARK    1  A    between atoms: N1_3  and  C4_5 
REMARK    2  A    between atoms: C4_5  and  C5_6 
REMARK    3  A    between atoms: C5_6  and  N2_7 
REMARK    4  A    between atoms: N2_7  and  C6_9 
REMARK    5  A    between atoms: C8_15  and  C9_16 
REMARK    6  A    between atoms: C11_18  and  N5_19 
REMARK    7  A    between atoms: N5_19  and  C12_21 
REMARK    8  A    between atoms: N7_28  and  C16_30 
ROOT
HETATM    1  C1  UNL     1      11.879  57.955  95.376  1.00  0.00     0.123 C 
HETATM    2  C2  UNL     1      12.022  56.791  95.028  1.00  0.00    -0.078 C 
HETATM    3  N1  UNL     1      12.193  55.463  94.662  1.00  0.00    -0.355 N 
HETATM    4  C3  UNL     1      11.027  54.681  94.268  1.00  0.00     0.159 C 
ENDROOT
BRANCH   3   5
HETATM    5  C4  UNL     1      13.459  54.792  94.672  1.00  0.00     0.151 C 
BRANCH   5   6
HETATM    6  C5  UNL     1      13.737  53.974  93.462  1.00  0.00     0.142 C 
BRANCH   6   7
HETATM    7  N2  UNL     1      14.088  54.714  92.297  1.00  0.00    -0.369 N 
ATOM      8  H2  UNL     1      14.686  55.539  92.360  1.00  0.00     0.161 HD
BRANCH   7   9
HETATM    9  C6  UNL     1      13.623  54.308  91.142  1.00  0.00     0.146 A 
HETATM   10  N3  UNL     1      12.452  53.748  90.878  1.00  0.00    -0.322 N 
HETATM   11  C7  UNL     1      12.183  53.429  89.626  1.00  0.00     0.125 A 
ATOM     12  H3  UNL     1      11.778  53.569  91.623  1.00  0.00     0.169 HD
HETATM   13  N4  UNL     1      11.040  52.846  89.153  1.00  0.00    -0.343 N 
HETATM   14  C20 UNL     1      13.129  53.695  88.680  1.00  0.00     0.054 A 
HETATM   15  C8  UNL     1      10.823  52.545  87.883  1.00  0.00     0.037 A 
ATOM     16  H4  UNL     1      10.304  52.629  89.824  1.00  0.00     0.167 HD
HETATM   17  C11 UNL     1      11.753  52.799  86.887  1.00  0.00     0.058 A 
HETATM   18  C19 UNL     1      12.920  53.386  87.326  1.00  0.00     0.054 A 
HETATM   19  S1  UNL     1      14.372  54.395  89.617  1.00  0.00    -0.051 SA
BRANCH  15  20
HETATM   20  C9  UNL     1       9.499  51.916  87.480  1.00  0.00     0.055 C 
HETATM   21  C10 UNL     1       9.504  50.471  87.884  1.00  0.00     0.011 C 
ENDBRANCH  15  20
BRANCH  17  22
HETATM   22  N5  UNL     1      11.548  52.468  85.556  1.00  0.00    -0.340 N 
ATOM     23  H5  UNL     1      10.803  52.928  85.032  1.00  0.00     0.167 HD
BRANCH  22  24
HETATM   24  C12 UNL     1      12.289  51.583  84.968  1.00  0.00     0.124 A 
HETATM   25  C13 UNL     1      12.239  50.244  85.280  1.00  0.00     0.087 A 
HETATM   26  C14 UNL     1      13.045  49.304  84.641  1.00  0.00     0.099 A 
HETATM   27 BR1  UNL     1      12.926  47.472  85.117  1.00  0.00    -0.031 Br
HETATM   28  N6  UNL     1      13.895  49.743  83.691  1.00  0.00    -0.185 N 
HETATM   29  C15 UNL     1      13.972  51.046  83.358  1.00  0.00     0.680 A 
ATOM     30  H6  UNL     1      14.495  49.072  83.212  1.00  0.00     0.185 HD
HETATM   31  N7  UNL     1      14.758  51.522  82.488  1.00  0.00    -0.221 N 
HETATM   32  N8  UNL     1      13.162  51.939  84.007  1.00  0.00    -0.177 N 
ATOM     33  H7  UNL     1      14.685  52.532  82.363  1.00  0.00     0.178 HD
ATOM     34  H8  UNL     1      13.222  52.924  83.748  1.00  0.00     0.186 HD
BRANCH  31  35
HETATM   35  C16 UNL     1      15.724  50.899  81.656  1.00  0.00     0.099 A 
HETATM   36  C17 UNL     1      16.492  51.847  80.755  1.00  0.00     0.028 A 
HETATM   37  C18 UNL     1      15.596  50.731  80.184  1.00  0.00     0.028 A 
ENDBRANCH  31  35
ENDBRANCH  22  24
ENDBRANCH  17  22
ENDBRANCH   7   9
ENDBRANCH   6   7
ENDBRANCH   5   6
ENDBRANCH   3   5
TORSDOF 8
ENDMDL
MODEL 3
REMARK VINA RESULT: -6.471703448      1.845      2.584
REMARK  8 active torsions:
REMARK  status: ('A' for Active; 'I' for Inactive)
REMARK    1  A    between atoms: N1_3  and  C4_5 
REMARK    2  A    between atoms: C4_5  and  C5_6 
REMARK    3  A    between atoms: C5_6  and  N2_7 
REMARK    4  A    between atoms: N2_7  and  C6_9 
REMARK    5  A    between atoms: C8_15  and  C9_16 
REMARK    6  A    between atoms: C11_18  and  N5_19 
REMARK    7  A    between atoms: N5_19  and  C12_21 
REMARK    8  A    between atoms: N7_28  and  C16_30 
ROOT
HETATM    1  C1  UNL     1      14.146  53.688  85.610  1.00  0.00     0.123 C 
HETATM    2  C2  UNL     1      13.296  53.001  85.061  1.00  0.00    -0.078 C 
HETATM    3  N1  UNL     1      12.321  52.248  84.421  1.00  0.00    -0.355 N 
HETATM    4  C3  UNL     1      12.730  51.199  83.495  1.00  0.00     0.159 C 
ENDROOT
BRANCH   3   5
HETATM    5  C4  UNL     1      10.914  52.454  84.596  1.00  0.00     0.151 C 
BRANCH   5   6
HETATM    6  C5  UNL     1      10.251  51.479  85.502  1.00  0.00     0.142 C 
BRANCH   6   7
HETATM    7  N2  UNL     1       9.671  52.039  86.676  1.00  0.00    -0.369 N 
ATOM      8  H2  UNL     1       8.669  52.221  86.730  1.00  0.00     0.161 HD
BRANCH   7   9
HETATM    9  C6  UNL     1      10.460  52.315  87.685  1.00  0.00     0.146 A 
HETATM   10  N3  UNL     1      11.274  53.348  87.833  1.00  0.00    -0.322 N 
HETATM   11  C7  UNL     1      11.972  53.436  88.950  1.00  0.00     0.125 A 
ATOM     12  H3  UNL     1      11.360  54.057  87.104  1.00  0.00     0.169 HD
HETATM   13  N4  UNL     1      12.862  54.417  89.291  1.00  0.00    -0.343 N 
HETATM   14  C20 UNL     1      11.811  52.454  89.884  1.00  0.00     0.054 A 
HETATM   15  C8  UNL     1      13.537  54.455  90.428  1.00  0.00     0.037 A 
ATOM     16  H4  UNL     1      13.014  55.172  88.623  1.00  0.00     0.167 HD
HETATM   17  C11 UNL     1      13.404  53.482  91.406  1.00  0.00     0.058 A 
HETATM   18  C19 UNL     1      12.516  52.474  91.099  1.00  0.00     0.054 A 
HETATM   19  S1  UNL     1      10.663  51.440  89.130  1.00  0.00    -0.051 SA
BRANCH  15  20
HETATM   20  C9  UNL     1      14.483  55.613  90.696  1.00  0.00     0.055 C 
HETATM   21  C10 UNL     1      15.577  55.597  89.668  1.00  0.00     0.011 C 
ENDBRANCH  15  20
BRANCH  17  22
HETATM   22  N5  UNL     1      14.123  53.497  92.593  1.00  0.00    -0.340 N 
ATOM     23  H5  UNL     1      15.122  53.293  92.578  1.00  0.00     0.167 HD
BRANCH  22  24
HETATM   24  C12 UNL     1      13.542  53.766  93.719  1.00  0.00     0.124 A 
HETATM   25  C13 UNL     1      13.725  53.005  94.851  1.00  0.00     0.087 A 
HETATM   26  C14 UNL     1      13.091  53.306  96.055  1.00  0.00     0.099 A 
HETATM   27 BR1  UNL     1      13.387  52.219  97.580  1.00  0.00    -0.031 Br
HETATM   28  N6  UNL     1      12.275  54.378  96.088  1.00  0.00    -0.185 N 
HETATM   29  C15 UNL     1      12.071  55.146  95.000  1.00  0.00     0.680 A 
ATOM     30  H6  UNL     1      11.799  54.614  96.959  1.00  0.00     0.185 HD
HETATM   31  N7  UNL     1      11.306  56.154  94.963  1.00  0.00    -0.221 N 
HETATM   32  N8  UNL     1      12.714  54.820  93.836  1.00  0.00    -0.177 N 
ATOM     33  H7  UNL     1      11.269  56.620  94.056  1.00  0.00     0.178 HD
ATOM     34  H8  UNL     1      12.558  55.407  93.016  1.00  0.00     0.186 HD
BRANCH  31  35
HETATM   35  C16 UNL     1      10.492  56.750  95.960  1.00  0.00     0.099 A 
HETATM   36  C17 UNL     1       9.189  56.023  96.234  1.00  0.00     0.028 A 
HETATM   37  C18 UNL     1       9.215  57.466  95.698  1.00  0.00     0.028 A 
ENDBRANCH  31  35
ENDBRANCH  22  24
ENDBRANCH  17  22
ENDBRANCH   7   9
ENDBRANCH   6   7
ENDBRANCH   5   6
ENDBRANCH   3   5
TORSDOF 8
ENDMDL
MODEL 4
REMARK VINA RESULT: -6.454080636      2.295      2.920
REMARK  8 active torsions:
REMARK  status: ('A' for Active; 'I' for Inactive)
REMARK    1  A    between atoms: N1_3  and  C4_5 
REMARK    2  A    between atoms: C4_5  and  C5_6 
REMARK    3  A    between atoms: C5_6  and  N2_7 
REMARK    4  A    between atoms: N2_7  and  C6_9 
REMARK    5  A    between atoms: C8_15  and  C9_16 
REMARK    6  A    between atoms: C11_18  and  N5_19 
REMARK    7  A    between atoms: N5_19  and  C12_21 
REMARK    8  A    between atoms: N7_28  and  C16_30 
ROOT
HETATM    1  C1  UNL     1      12.105  50.804  85.868  1.00  0.00     0.123 C 
HETATM    2  C2  UNL     1      11.219  51.138  85.092  1.00  0.00    -0.078 C 
HETATM    3  N1  UNL     1      10.226  51.548  84.214  1.00  0.00    -0.355 N 
HETATM    4  C3  UNL     1      10.230  51.035  82.849  1.00  0.00     0.159 C 
ENDROOT
BRANCH   3   5
HETATM    5  C4  UNL     1       9.193  52.479  84.560  1.00  0.00     0.151 C 
BRANCH   5   6
HETATM    6  C5  UNL     1       8.320  52.049  85.684  1.00  0.00     0.142 C 
BRANCH   6   7
HETATM    7  N2  UNL     1       8.300  52.925  86.807  1.00  0.00    -0.369 N 
ATOM      8  H2  UNL     1       7.519  53.563  86.960  1.00  0.00     0.161 HD
BRANCH   7   9
HETATM    9  C6  UNL     1       9.311  52.889  87.639  1.00  0.00     0.146 A 
HETATM   10  N3  UNL     1      10.438  53.584  87.593  1.00  0.00    -0.322 N 
HETATM   11  C7  UNL     1      11.323  53.399  88.554  1.00  0.00     0.125 A 
ATOM     12  H3  UNL     1      10.616  54.244  86.835  1.00  0.00     0.169 HD
HETATM   13  N4  UNL     1      12.537  54.014  88.686  1.00  0.00    -0.343 N 
HETATM   14  C20 UNL     1      11.022  52.501  89.536  1.00  0.00     0.054 A 
HETATM   15  C8  UNL     1      13.389  53.788  89.672  1.00  0.00     0.037 A 
ATOM     16  H4  UNL     1      12.805  54.693  87.974  1.00  0.00     0.167 HD
HETATM   17  C11 UNL     1      13.126  52.887  90.692  1.00  0.00     0.058 A 
HETATM   18  C19 UNL     1      11.910  52.246  90.595  1.00  0.00     0.054 A 
HETATM   19  S1  UNL     1       9.480  51.954  89.050  1.00  0.00    -0.051 SA
BRANCH  15  20
HETATM   20  C9  UNL     1      14.701  54.552  89.716  1.00  0.00     0.055 C 
HETATM   21  C10 UNL     1      14.417  55.990  90.038  1.00  0.00     0.011 C 
ENDBRANCH  15  20
BRANCH  17  22
HETATM   22  N5  UNL     1      14.019  52.624  91.721  1.00  0.00    -0.340 N 
ATOM     23  H5  UNL     1      14.858  52.076  91.531  1.00  0.00     0.167 HD
BRANCH  22  24
HETATM   24  C12 UNL     1      13.801  53.065  92.920  1.00  0.00     0.124 A 
HETATM   25  C13 UNL     1      14.033  52.306  94.044  1.00  0.00     0.087 A 
HETATM   26  C14 UNL     1      13.791  52.794  95.328  1.00  0.00     0.099 A 
HETATM   27 BR1  UNL     1      14.134  51.698  96.838  1.00  0.00    -0.031 Br
HETATM   28  N6  UNL     1      13.314  54.048  95.448  1.00  0.00    -0.185 N 
HETATM   29  C15 UNL     1      13.076  54.820  94.370  1.00  0.00     0.680 A 
ATOM     30  H6  UNL     1      13.129  54.423  96.378  1.00  0.00     0.185 HD
HETATM   31  N7  UNL     1      12.614  55.998  94.415  1.00  0.00    -0.221 N 
HETATM   32  N8  UNL     1      13.328  54.308  93.125  1.00  0.00    -0.177 N 
ATOM     33  H7  UNL     1      12.493  56.438  93.502  1.00  0.00     0.178 HD
ATOM     34  H8  UNL     1      13.148  54.898  92.313  1.00  0.00     0.186 HD
BRANCH  31  35
HETATM   35  C16 UNL     1      12.234  56.814  95.511  1.00  0.00     0.099 A 
HETATM   36  C17 UNL     1      10.780  57.248  95.505  1.00  0.00     0.028 A 
HETATM   37  C18 UNL     1      11.931  58.268  95.423  1.00  0.00     0.028 A 
ENDBRANCH  31  35
ENDBRANCH  22  24
ENDBRANCH  17  22
ENDBRANCH   7   9
ENDBRANCH   6   7
ENDBRANCH   5   6
ENDBRANCH   3   5
TORSDOF 8
ENDMDL
MODEL 5
REMARK VINA RESULT: -6.433888432      2.342      2.805
REMARK  8 active torsions:
REMARK  status: ('A' for Active; 'I' for Inactive)
REMARK    1  A    between atoms: N1_3  and  C4_5 
REMARK    2  A    between atoms: C4_5  and  C5_6 
REMARK    3  A    between atoms: C5_6  and  N2_7 
REMARK    4  A    between atoms: N2_7  and  C6_9 
REMARK    5  A    between atoms: C8_15  and  C9_16 
REMARK    6  A    between atoms: C11_18  and  N5_19 
REMARK    7  A    between atoms: N5_19  and  C12_21 
REMARK    8  A    between atoms: N7_28  and  C16_30 
ROOT
HETATM    1  C1  UNL     1      15.245  53.017  84.165  1.00  0.00     0.123 C 
HETATM    2  C2  UNL     1      14.276  52.286  84.008  1.00  0.00    -0.078 C 
HETATM    3  N1  UNL     1      13.174  51.469  83.800  1.00  0.00    -0.355 N 
HETATM    4  C3  UNL     1      13.354  50.022  83.802  1.00  0.00     0.159 C 
ENDROOT
BRANCH   3   5
HETATM    5  C4  UNL     1      11.852  51.964  83.554  1.00  0.00     0.151 C 
BRANCH   5   6
HETATM    6  C5  UNL     1      11.242  52.699  84.693  1.00  0.00     0.142 C 
BRANCH   6   7
HETATM    7  N2  UNL     1      10.786  51.882  85.768  1.00  0.00    -0.369 N 
ATOM      8  H2  UNL     1      10.153  51.100  85.600  1.00  0.00     0.161 HD
BRANCH   7   9
HETATM    9  C6  UNL     1      11.203  52.162  86.978  1.00  0.00     0.146 A 
HETATM   10  N3  UNL     1      12.219  52.930  87.340  1.00  0.00    -0.322 N 
HETATM   11  C7  UNL     1      12.452  53.086  88.630  1.00  0.00     0.125 A 
ATOM     12  H3  UNL     1      12.805  53.388  86.642  1.00  0.00     0.169 HD
HETATM   13  N4  UNL     1      13.444  53.832  89.203  1.00  0.00    -0.343 N 
HETATM   14  C20 UNL     1      11.630  52.445  89.511  1.00  0.00     0.054 A 
HETATM   15  C8  UNL     1      13.633  53.953  90.507  1.00  0.00     0.037 A 
ATOM     16  H4  UNL     1      14.083  54.329  88.583  1.00  0.00     0.167 HD
HETATM   17  C11 UNL     1      12.824  53.322  91.439  1.00  0.00     0.058 A 
HETATM   18  C19 UNL     1      11.810  52.560  90.899  1.00  0.00     0.054 A 
HETATM   19  S1  UNL     1      10.551  51.641  88.461  1.00  0.00    -0.051 SA
BRANCH  15  20
HETATM   20  C9  UNL     1      14.764  54.829  91.020  1.00  0.00     0.055 C 
HETATM   21  C10 UNL     1      15.491  55.422  89.848  1.00  0.00     0.011 C 
ENDBRANCH  15  20
BRANCH  17  22
HETATM   22  N5  UNL     1      13.024  53.422  92.808  1.00  0.00    -0.340 N 
ATOM     23  H5  UNL     1      13.826  52.958  93.235  1.00  0.00     0.167 HD
BRANCH  22  24
HETATM   24  C12 UNL     1      12.206  54.097  93.553  1.00  0.00     0.124 A 
HETATM   25  C13 UNL     1      12.495  55.356  94.024  1.00  0.00     0.087 A 
HETATM   26  C14 UNL     1      11.605  56.068  94.827  1.00  0.00     0.099 A 
HETATM   27 BR1  UNL     1      12.064  57.802  95.443  1.00  0.00    -0.031 Br
HETATM   28  N6  UNL     1      10.432  55.485  95.140  1.00  0.00    -0.185 N 
HETATM   29  C15 UNL     1      10.113  54.254  94.696  1.00  0.00     0.680 A 
ATOM     30  H6  UNL     1       9.767  55.988  95.727  1.00  0.00     0.185 HD
HETATM   31  N7  UNL     1       9.036  53.646  94.967  1.00  0.00    -0.221 N 
HETATM   32  N8  UNL     1      11.012  53.586  93.908  1.00  0.00    -0.177 N 
ATOM     33  H7  UNL     1       8.960  52.719  94.549  1.00  0.00     0.178 HD
ATOM     34  H8  UNL     1      10.765  52.655  93.573  1.00  0.00     0.186 HD
BRANCH  31  35
HETATM   35  C16 UNL     1       7.917  54.027  95.751  1.00  0.00     0.099 A 
HETATM   36  C17 UNL     1       6.581  53.530  95.233  1.00  0.00     0.028 A 
HETATM   37  C18 UNL     1       6.899  55.033  95.346  1.00  0.00     0.028 A 
ENDBRANCH  31  35
ENDBRANCH  22  24
ENDBRANCH  17  22
ENDBRANCH   7   9
ENDBRANCH   6   7
ENDBRANCH   5   6
ENDBRANCH   3   5
TORSDOF 8
ENDMDL
