MODEL 1
REMARK VINA RESULT: -6.385822281      0.000      0.000
REMARK  7 active torsions:
REMARK  status: ('A' for Active; 'I' for Inactive)
REMARK    1  A    between atoms: C4_8  and  C5_9 
REMARK    2  A    between atoms: C5_9  and  C6_10 
REMARK    3  A    between atoms: C6_10  and  O3_11 
REMARK    4  A    between atoms: N2_13  and  C7_14 
REMARK    5  A    between atoms: C7_14  and  C8_15 
REMARK    6  A    between atoms: C8_15  and  C9_16 
REMARK    7  A    between atoms: C9_16  and  C10_17 
ROOT
HETATM    1  O1  UNL     1      -3.661  21.797  -9.200  1.00  0.00    -0.247 OA
HETATM    2  C1  UNL     1      -4.906  21.873  -9.145  1.00  0.00     0.320 C 
HETATM    3  N1  UNL     1      -5.565  22.926  -9.829  1.00  0.00    -0.341 N 
ATOM      4  H1  UNL     1      -5.038  23.791  -9.952  1.00  0.00     0.164 HD
HETATM    5  C2  UNL     1      -6.877  22.901 -10.361  1.00  0.00     0.150 C 
HETATM    6  C3  UNL     1      -7.949  22.316  -9.526  1.00  0.00     0.190 C 
HETATM    7  O2  UNL     1      -7.720  21.396  -8.610  1.00  0.00    -0.365 OA
HETATM    8  C4  UNL     1      -6.899  20.353  -8.699  1.00  0.00     0.229 C 
HETATM    9  N2  UNL     1      -5.541  20.859  -8.376  1.00  0.00    -0.307 N 
ENDROOT
BRANCH   9  10
HETATM   10  C7  UNL     1      -4.894  20.292  -7.228  1.00  0.00     0.130 C 
BRANCH  10  11
HETATM   11  C8  UNL     1      -4.177  19.021  -7.426  1.00  0.00     0.020 C 
BRANCH  11  12
HETATM   12  C9  UNL     1      -2.707  18.986  -7.438  1.00  0.00     0.006 C 
BRANCH  12  13
HETATM   13  C10 UNL     1      -1.998  19.378  -6.185  1.00  0.00    -0.014 C 
HETATM   14  C11 UNL     1      -0.912  18.338  -5.934  1.00  0.00     0.004 C 
HETATM   15  C12 UNL     1       0.291  18.691  -6.741  1.00  0.00     0.000 C 
HETATM   16  C13 UNL     1       0.945  19.962  -6.248  1.00  0.00     0.000 C 
HETATM   17  C14 UNL     1      -0.071  20.946  -5.714  1.00  0.00     0.000 C 
HETATM   18  C15 UNL     1      -1.427  20.772  -6.345  1.00  0.00     0.004 C 
ENDBRANCH  12  13
ENDBRANCH  11  12
ENDBRANCH  10  11
ENDBRANCH   9  10
BRANCH   8  19
HETATM   19  C5  UNL     1      -6.821  19.532  -9.912  1.00  0.00     0.080 C 
BRANCH  19  20
HETATM   20  C6  UNL     1      -6.887  18.053  -9.612  1.00  0.00     0.168 C 
BRANCH  20  21
HETATM   21  O3  UNL     1      -7.587  17.883  -8.408  1.00  0.00    -0.401 OA
ATOM     22  H3  UNL     1      -8.187  17.155  -8.515  1.00  0.00     0.209 HD
ENDBRANCH  20  21
ENDBRANCH  19  20
ENDBRANCH   8  19
TORSDOF 7
ENDMDL
MODEL 2
REMARK VINA RESULT: -6.254258052      0.811      1.489
REMARK  7 active torsions:
REMARK  status: ('A' for Active; 'I' for Inactive)
REMARK    1  A    between atoms: C4_8  and  C5_9 
REMARK    2  A    between atoms: C5_9  and  C6_10 
REMARK    3  A    between atoms: C6_10  and  O3_11 
REMARK    4  A    between atoms: N2_13  and  C7_14 
REMARK    5  A    between atoms: C7_14  and  C8_15 
REMARK    6  A    between atoms: C8_15  and  C9_16 
REMARK    7  A    between atoms: C9_16  and  C10_17 
ROOT
HETATM    1  O1  UNL     1      -3.700  21.900  -9.067  1.00  0.00    -0.247 OA
HETATM    2  C1  UNL     1      -4.948  21.952  -9.092  1.00  0.00     0.320 C 
HETATM    3  N1  UNL     1      -5.582  22.963  -9.857  1.00  0.00    -0.341 N 
ATOM      4  H1  UNL     1      -5.065  23.834  -9.982  1.00  0.00     0.164 HD
HETATM    5  C2  UNL     1      -6.858  22.891 -10.467  1.00  0.00     0.150 C 
HETATM    6  C3  UNL     1      -7.969  22.317  -9.677  1.00  0.00     0.190 C 
HETATM    7  O2  UNL     1      -7.781  21.438  -8.712  1.00  0.00    -0.365 OA
HETATM    8  C4  UNL     1      -6.937  20.410  -8.709  1.00  0.00     0.229 C 
HETATM    9  N2  UNL     1      -5.611  20.955  -8.323  1.00  0.00    -0.307 N 
ENDROOT
BRANCH   9  10
HETATM   10  C7  UNL     1      -5.027  20.447  -7.116  1.00  0.00     0.130 C 
BRANCH  10  11
HETATM   11  C8  UNL     1      -4.050  19.354  -7.256  1.00  0.00     0.020 C 
BRANCH  11  12
HETATM   12  C9  UNL     1      -2.727  19.448  -6.621  1.00  0.00     0.006 C 
BRANCH  12  13
HETATM   13  C10 UNL     1      -1.738  18.373  -6.927  1.00  0.00    -0.014 C 
HETATM   14  C11 UNL     1      -0.356  19.016  -6.928  1.00  0.00     0.004 C 
HETATM   15  C12 UNL     1       0.141  19.093  -5.524  1.00  0.00     0.000 C 
HETATM   16  C13 UNL     1       0.426  17.722  -4.953  1.00  0.00     0.000 C 
HETATM   17  C14 UNL     1      -0.531  16.682  -5.487  1.00  0.00     0.000 C 
HETATM   18  C15 UNL     1      -1.855  17.273  -5.894  1.00  0.00     0.004 C 
ENDBRANCH  12  13
ENDBRANCH  11  12
ENDBRANCH  10  11
ENDBRANCH   9  10
BRANCH   8  19
HETATM   19  C5  UNL     1      -6.768  19.543  -9.881  1.00  0.00     0.080 C 
BRANCH  19  20
HETATM   20  C6  UNL     1      -6.814  18.077  -9.524  1.00  0.00     0.168 C 
BRANCH  20  21
HETATM   21  O3  UNL     1      -7.541  17.940  -8.331  1.00  0.00    -0.401 OA
ATOM     22  H3  UNL     1      -8.299  18.511  -8.380  1.00  0.00     0.209 HD
ENDBRANCH  20  21
ENDBRANCH  19  20
ENDBRANCH   8  19
TORSDOF 7
ENDMDL
MODEL 3
REMARK VINA RESULT: -6.191973197      4.667      7.253
REMARK  7 active torsions:
REMARK  status: ('A' for Active; 'I' for Inactive)
REMARK    1  A    between atoms: C4_8  and  C5_9 
REMARK    2  A    between atoms: C5_9  and  C6_10 
REMARK    3  A    between atoms: C6_10  and  O3_11 
REMARK    4  A    between atoms: N2_13  and  C7_14 
REMARK    5  A    between atoms: C7_14  and  C8_15 
REMARK    6  A    between atoms: C8_15  and  C9_16 
REMARK    7  A    between atoms: C9_16  and  C10_17 
ROOT
HETATM    1  O1  UNL     1      -0.703  19.691  -3.097  1.00  0.00    -0.247 OA
HETATM    2  C1  UNL     1      -1.080  19.330  -4.232  1.00  0.00     0.320 C 
HETATM    3  N1  UNL     1      -2.255  19.901  -4.783  1.00  0.00    -0.341 N 
ATOM      4  H1  UNL     1      -2.965  20.214  -4.120  1.00  0.00     0.164 HD
HETATM    5  C2  UNL     1      -2.546  20.083  -6.157  1.00  0.00     0.150 C 
HETATM    6  C3  UNL     1      -2.247  18.966  -7.079  1.00  0.00     0.190 C 
HETATM    7  O2  UNL     1      -1.308  18.072  -6.839  1.00  0.00    -0.365 OA
HETATM    8  C4  UNL     1      -0.095  18.289  -6.336  1.00  0.00     0.229 C 
HETATM    9  N2  UNL     1      -0.258  18.355  -4.861  1.00  0.00    -0.307 N 
ENDROOT
BRANCH   9  10
HETATM   10  C7  UNL     1       0.439  17.369  -4.088  1.00  0.00     0.130 C 
BRANCH  10  11
HETATM   11  C8  UNL     1      -0.302  16.143  -3.748  1.00  0.00     0.020 C 
BRANCH  11  12
HETATM   12  C9  UNL     1      -0.712  15.201  -4.800  1.00  0.00     0.006 C 
BRANCH  12  13
HETATM   13  C10 UNL     1      -1.382  13.938  -4.373  1.00  0.00    -0.014 C 
HETATM   14  C11 UNL     1      -1.437  13.020  -5.588  1.00  0.00     0.004 C 
HETATM   15  C12 UNL     1      -0.135  12.303  -5.711  1.00  0.00     0.000 C 
HETATM   16  C13 UNL     1       0.077  11.323  -4.579  1.00  0.00     0.000 C 
HETATM   17  C14 UNL     1      -0.531  11.819  -3.287  1.00  0.00     0.000 C 
HETATM   18  C15 UNL     1      -0.608  13.322  -3.226  1.00  0.00     0.004 C 
ENDBRANCH  12  13
ENDBRANCH  11  12
ENDBRANCH  10  11
ENDBRANCH   9  10
BRANCH   8  19
HETATM   19  C5  UNL     1       0.732  19.421  -6.770  1.00  0.00     0.080 C 
BRANCH  19  20
HETATM   20  C6  UNL     1       1.580  19.085  -7.974  1.00  0.00     0.168 C 
BRANCH  20  21
HETATM   21  O3  UNL     1       0.747  18.516  -8.949  1.00  0.00    -0.401 OA
ATOM     22  H3  UNL     1       0.957  18.913  -9.787  1.00  0.00     0.209 HD
ENDBRANCH  20  21
ENDBRANCH  19  20
ENDBRANCH   8  19
TORSDOF 7
ENDMDL
MODEL 4
REMARK VINA RESULT: -5.966600607      1.440      1.888
REMARK  7 active torsions:
REMARK  status: ('A' for Active; 'I' for Inactive)
REMARK    1  A    between atoms: C4_8  and  C5_9 
REMARK    2  A    between atoms: C5_9  and  C6_10 
REMARK    3  A    between atoms: C6_10  and  O3_11 
REMARK    4  A    between atoms: N2_13  and  C7_14 
REMARK    5  A    between atoms: C7_14  and  C8_15 
REMARK    6  A    between atoms: C8_15  and  C9_16 
REMARK    7  A    between atoms: C9_16  and  C10_17 
ROOT
HETATM    1  O1  UNL     1      -3.984  21.919  -9.230  1.00  0.00    -0.247 OA
HETATM    2  C1  UNL     1      -5.186  22.247  -9.147  1.00  0.00     0.320 C 
HETATM    3  N1  UNL     1      -5.564  23.572  -9.482  1.00  0.00    -0.341 N 
ATOM      4  H1  UNL     1      -4.860  24.297  -9.344  1.00  0.00     0.164 HD
HETATM    5  C2  UNL     1      -6.817  23.994  -9.990  1.00  0.00     0.150 C 
HETATM    6  C3  UNL     1      -8.038  23.441  -9.362  1.00  0.00     0.190 C 
HETATM    7  O2  UNL     1      -8.064  22.267  -8.763  1.00  0.00    -0.365 OA
HETATM    8  C4  UNL     1      -7.478  21.141  -9.164  1.00  0.00     0.229 C 
HETATM    9  N2  UNL     1      -6.066  21.218  -8.713  1.00  0.00    -0.307 N 
ENDROOT
BRANCH   9  10
HETATM   10  C7  UNL     1      -5.625  20.212  -7.790  1.00  0.00     0.130 C 
BRANCH  10  11
HETATM   11  C8  UNL     1      -4.594  19.275  -8.268  1.00  0.00     0.020 C 
BRANCH  11  12
HETATM   12  C9  UNL     1      -3.768  18.523  -7.312  1.00  0.00     0.006 C 
BRANCH  12  13
HETATM   13  C10 UNL     1      -2.314  18.855  -7.247  1.00  0.00    -0.014 C 
HETATM   14  C11 UNL     1      -2.200  20.311  -6.814  1.00  0.00     0.004 C 
HETATM   15  C12 UNL     1      -2.297  20.381  -5.327  1.00  0.00     0.000 C 
HETATM   16  C13 UNL     1      -1.097  19.753  -4.655  1.00  0.00     0.000 C 
HETATM   17  C14 UNL     1      -0.564  18.579  -5.444  1.00  0.00     0.000 C 
HETATM   18  C15 UNL     1      -1.628  17.915  -6.278  1.00  0.00     0.004 C 
ENDBRANCH  12  13
ENDBRANCH  11  12
ENDBRANCH  10  11
ENDBRANCH   9  10
BRANCH   8  19
HETATM   19  C5  UNL     1      -7.503  20.714 -10.568  1.00  0.00     0.080 C 
BRANCH  19  20
HETATM   20  C6  UNL     1      -6.872  19.357 -10.768  1.00  0.00     0.168 C 
BRANCH  20  21
HETATM   21  O3  UNL     1      -6.672  19.168 -12.144  1.00  0.00    -0.401 OA
ATOM     22  H3  UNL     1      -6.652  18.233 -12.315  1.00  0.00     0.209 HD
ENDBRANCH  20  21
ENDBRANCH  19  20
ENDBRANCH   8  19
TORSDOF 7
ENDMDL
MODEL 5
REMARK VINA RESULT: -5.959489699      3.503      6.940
REMARK  7 active torsions:
REMARK  status: ('A' for Active; 'I' for Inactive)
REMARK    1  A    between atoms: C4_8  and  C5_9 
REMARK    2  A    between atoms: C5_9  and  C6_10 
REMARK    3  A    between atoms: C6_10  and  O3_11 
REMARK    4  A    between atoms: N2_13  and  C7_14 
REMARK    5  A    between atoms: C7_14  and  C8_15 
REMARK    6  A    between atoms: C8_15  and  C9_16 
REMARK    7  A    between atoms: C9_16  and  C10_17 
ROOT
HETATM    1  O1  UNL     1      -0.330  22.071  -5.616  1.00  0.00    -0.247 OA
HETATM    2  C1  UNL     1       0.011  21.076  -6.290  1.00  0.00     0.320 C 
HETATM    3  N1  UNL     1       1.219  21.124  -7.030  1.00  0.00    -0.341 N 
ATOM      4  H1  UNL     1       1.524  22.044  -7.348  1.00  0.00     0.164 HD
HETATM    5  C2  UNL     1       2.048  20.028  -7.372  1.00  0.00     0.150 C 
HETATM    6  C3  UNL     1       1.395  18.797  -7.869  1.00  0.00     0.190 C 
HETATM    7  O2  UNL     1       0.161  18.461  -7.545  1.00  0.00    -0.365 OA
HETATM    8  C4  UNL     1      -0.418  18.568  -6.352  1.00  0.00     0.229 C 
HETATM    9  N2  UNL     1      -0.885  19.972  -6.235  1.00  0.00    -0.307 N 
ENDROOT
BRANCH   9  10
HETATM   10  C7  UNL     1      -2.296  20.176  -6.084  1.00  0.00     0.130 C 
BRANCH  10  11
HETATM   11  C8  UNL     1      -3.098  20.229  -7.317  1.00  0.00     0.020 C 
BRANCH  11  12
HETATM   12  C9  UNL     1      -4.425  20.863  -7.320  1.00  0.00     0.006 C 
BRANCH  12  13
HETATM   13  C10 UNL     1      -5.616  19.971  -7.440  1.00  0.00    -0.014 C 
HETATM   14  C11 UNL     1      -6.699  20.757  -8.170  1.00  0.00     0.004 C 
HETATM   15  C12 UNL     1      -6.459  20.660  -9.639  1.00  0.00     0.000 C 
HETATM   16  C13 UNL     1      -6.682  19.255 -10.152  1.00  0.00     0.000 C 
HETATM   17  C14 UNL     1      -6.287  18.215  -9.130  1.00  0.00     0.000 C 
HETATM   18  C15 UNL     1      -5.225  18.711  -8.184  1.00  0.00     0.004 C 
ENDBRANCH  12  13
ENDBRANCH  11  12
ENDBRANCH  10  11
ENDBRANCH   9  10
BRANCH   8  19
HETATM   19  C5  UNL     1       0.281  18.198  -5.116  1.00  0.00     0.080 C 
BRANCH  19  20
HETATM   20  C6  UNL     1      -0.064  16.802  -4.655  1.00  0.00     0.168 C 
BRANCH  20  21
HETATM   21  O3  UNL     1      -0.241  15.998  -5.791  1.00  0.00    -0.401 OA
ATOM     22  H3  UNL     1      -0.792  15.262  -5.550  1.00  0.00     0.209 HD
ENDBRANCH  20  21
ENDBRANCH  19  20
ENDBRANCH   8  19
TORSDOF 7
ENDMDL
