MODEL 1
REMARK VINA RESULT: -5.206318136      0.000      0.000
REMARK  7 active torsions:
REMARK  status: ('A' for Active; 'I' for Inactive)
REMARK    1  A    between atoms: C2_2  and  C3_3 
REMARK    2  A    between atoms: C6_7  and  N1_8 
REMARK       I    between atoms: N1_8  and  C7_10 
REMARK    3  A    between atoms: C7_10  and  C8_12 
REMARK    4  A    between atoms: C8_12  and  C9_14 
REMARK    5  A    between atoms: C9_14  and  C10_15 
REMARK    6  A    between atoms: C9_14  and  C13_19 
REMARK    7  A    between atoms: C10_15  and  N2_16 
ROOT
HETATM    1  N1  UNL     1      -0.252  16.039  -3.868  1.00  0.00    -0.349 N 
ATOM      2  H1  UNL     1       0.555  16.541  -3.499  1.00  0.00     0.163 HD
HETATM    3  C7  UNL     1      -0.914  16.595  -4.966  1.00  0.00     0.255 C 
HETATM    4  O2  UNL     1      -1.926  15.939  -5.404  1.00  0.00    -0.267 OA
ENDROOT
BRANCH   3   5
HETATM    5  C8  UNL     1      -0.524  17.850  -5.623  1.00  0.00     0.063 C 
HETATM    6  S1  UNL     1       1.287  18.030  -5.747  1.00  0.00    -0.051 SA
BRANCH   5   7
HETATM    7  C9  UNL     1      -1.273  19.065  -5.376  1.00  0.00     0.064 C 
BRANCH   7   8
HETATM    8  C10 UNL     1      -1.682  19.597  -6.794  1.00  0.00     0.281 C 
BRANCH   8   9
HETATM    9  N2  UNL     1      -3.105  19.568  -6.917  1.00  0.00     0.080 N 
HETATM   10  C11 UNL     1      -3.680  20.849  -7.243  1.00  0.00     0.309 C 
HETATM   11  C12 UNL     1      -3.588  18.502  -7.738  1.00  0.00     0.309 C 
ENDBRANCH   8   9
ENDBRANCH   7   8
BRANCH   7  12
HETATM   12  C13 UNL     1      -0.818  20.232  -4.647  1.00  0.00    -0.004 A 
HETATM   13  C14 UNL     1      -1.445  20.358  -3.224  1.00  0.00     0.006 A 
HETATM   14  C15 UNL     1      -1.422  21.470  -4.236  1.00  0.00     0.006 A 
ENDBRANCH   7  12
ENDBRANCH   5   7
ENDBRANCH   3   5
BRANCH   1  15
HETATM   15  C6  UNL     1      -0.626  14.804  -3.216  1.00  0.00     0.119 C 
HETATM   16  C3  UNL     1       0.212  13.696  -3.801  1.00  0.00     0.166 C 
HETATM   17  O1  UNL     1       1.333  13.540  -3.010  1.00  0.00    -0.380 OA
HETATM   18  C4  UNL     1       1.220  14.286  -1.875  1.00  0.00     0.170 C 
HETATM   19  C5  UNL     1      -0.203  14.767  -1.767  1.00  0.00     0.054 C 
BRANCH  16  20
HETATM   20  C2  UNL     1      -0.543  12.442  -3.996  1.00  0.00    -0.003 C 
HETATM   21  C1  UNL     1       0.113  11.376  -4.454  1.00  0.00     0.009 C 
ENDBRANCH  16  20
ENDBRANCH   1  15
TORSDOF 7
ENDMDL
MODEL 2
REMARK VINA RESULT: -5.133028476      1.886      2.917
REMARK  7 active torsions:
REMARK  status: ('A' for Active; 'I' for Inactive)
REMARK    1  A    between atoms: C2_2  and  C3_3 
REMARK    2  A    between atoms: C6_7  and  N1_8 
REMARK       I    between atoms: N1_8  and  C7_10 
REMARK    3  A    between atoms: C7_10  and  C8_12 
REMARK    4  A    between atoms: C8_12  and  C9_14 
REMARK    5  A    between atoms: C9_14  and  C10_15 
REMARK    6  A    between atoms: C9_14  and  C13_19 
REMARK    7  A    between atoms: C10_15  and  N2_16 
ROOT
HETATM    1  N1  UNL     1      -0.157  15.661  -3.092  1.00  0.00    -0.349 N 
ATOM      2  H1  UNL     1       0.556  16.108  -2.516  1.00  0.00     0.163 HD
HETATM    3  C7  UNL     1      -0.649  16.381  -4.185  1.00  0.00     0.255 C 
HETATM    4  O2  UNL     1      -1.546  15.792  -4.888  1.00  0.00    -0.267 OA
ENDROOT
BRANCH   3   5
HETATM    5  C8  UNL     1      -0.208  17.731  -4.558  1.00  0.00     0.063 C 
HETATM    6  S1  UNL     1      -0.263  18.888  -3.148  1.00  0.00    -0.051 SA
BRANCH   5   7
HETATM    7  C9  UNL     1      -0.555  18.281  -5.851  1.00  0.00     0.064 C 
BRANCH   7   8
HETATM    8  C10 UNL     1       0.620  19.252  -6.220  1.00  0.00     0.281 C 
BRANCH   8   9
HETATM    9  N2  UNL     1       1.705  18.497  -6.763  1.00  0.00     0.080 N 
HETATM   10  C11 UNL     1       1.884  18.685  -8.181  1.00  0.00     0.309 C 
HETATM   11  C12 UNL     1       2.916  18.615  -6.015  1.00  0.00     0.309 C 
ENDBRANCH   8   9
ENDBRANCH   7   8
BRANCH   7  12
HETATM   12  C13 UNL     1      -1.766  19.000  -6.192  1.00  0.00    -0.004 A 
HETATM   13  C14 UNL     1      -2.679  18.237  -7.202  1.00  0.00     0.006 A 
HETATM   14  C15 UNL     1      -2.253  19.670  -7.368  1.00  0.00     0.006 A 
ENDBRANCH   7  12
ENDBRANCH   5   7
ENDBRANCH   3   5
BRANCH   1  15
HETATM   15  C6  UNL     1      -0.583  14.331  -2.719  1.00  0.00     0.119 C 
HETATM   16  C3  UNL     1       0.381  13.346  -3.328  1.00  0.00     0.166 C 
HETATM   17  O1  UNL     1       1.365  13.073  -2.398  1.00  0.00    -0.380 OA
HETATM   18  C4  UNL     1       1.042  13.621  -1.192  1.00  0.00     0.170 C 
HETATM   19  C5  UNL     1      -0.397  14.061  -1.245  1.00  0.00     0.054 C 
BRANCH  16  20
HETATM   20  C2  UNL     1      -0.284  12.133  -3.845  1.00  0.00    -0.003 C 
HETATM   21  C1  UNL     1       0.337  11.426  -4.789  1.00  0.00     0.009 C 
ENDBRANCH  16  20
ENDBRANCH   1  15
TORSDOF 7
ENDMDL
MODEL 3
REMARK VINA RESULT: -5.070651855      3.569      5.822
REMARK  7 active torsions:
REMARK  status: ('A' for Active; 'I' for Inactive)
REMARK    1  A    between atoms: C2_2  and  C3_3 
REMARK    2  A    between atoms: C6_7  and  N1_8 
REMARK       I    between atoms: N1_8  and  C7_10 
REMARK    3  A    between atoms: C7_10  and  C8_12 
REMARK    4  A    between atoms: C8_12  and  C9_14 
REMARK    5  A    between atoms: C9_14  and  C10_15 
REMARK    6  A    between atoms: C9_14  and  C13_19 
REMARK    7  A    between atoms: C10_15  and  N2_16 
ROOT
HETATM    1  N1  UNL     1      -1.601  20.370  -6.967  1.00  0.00    -0.349 N 
ATOM      2  H1  UNL     1      -1.629  19.955  -7.898  1.00  0.00     0.163 HD
HETATM    3  C7  UNL     1      -2.473  21.430  -6.704  1.00  0.00     0.255 C 
HETATM    4  O2  UNL     1      -2.409  21.930  -5.524  1.00  0.00    -0.267 OA
ENDROOT
BRANCH   3   5
HETATM    5  C8  UNL     1      -3.425  21.984  -7.676  1.00  0.00     0.063 C 
HETATM    6  S1  UNL     1      -3.812  23.735  -7.341  1.00  0.00    -0.051 SA
BRANCH   5   7
HETATM    7  C9  UNL     1      -4.515  21.170  -8.173  1.00  0.00     0.064 C 
BRANCH   7   8
HETATM    8  C10 UNL     1      -5.736  22.146  -8.305  1.00  0.00     0.281 C 
BRANCH   8   9
HETATM    9  N2  UNL     1      -6.148  22.205  -9.672  1.00  0.00     0.080 N 
HETATM   10  C11 UNL     1      -7.349  21.454  -9.944  1.00  0.00     0.309 C 
HETATM   11  C12 UNL     1      -6.171  23.530 -10.207  1.00  0.00     0.309 C 
ENDBRANCH   8   9
ENDBRANCH   7   8
BRANCH   7  12
HETATM   12  C13 UNL     1      -5.050  19.969  -7.564  1.00  0.00    -0.004 A 
HETATM   13  C14 UNL     1      -4.467  18.654  -8.168  1.00  0.00     0.006 A 
HETATM   14  C15 UNL     1      -5.937  18.922  -7.993  1.00  0.00     0.006 A 
ENDBRANCH   7  12
ENDBRANCH   5   7
ENDBRANCH   3   5
BRANCH   1  15
HETATM   15  C6  UNL     1      -0.661  19.817  -6.017  1.00  0.00     0.119 C 
HETATM   16  C3  UNL     1      -0.567  18.333  -6.266  1.00  0.00     0.166 C 
HETATM   17  O1  UNL     1       0.484  18.107  -7.132  1.00  0.00    -0.380 OA
HETATM   18  C4  UNL     1       1.199  19.252  -7.320  1.00  0.00     0.170 C 
HETATM   19  C5  UNL     1       0.757  20.257  -6.288  1.00  0.00     0.054 C 
BRANCH  16  20
HETATM   20  C2  UNL     1      -0.477  17.544  -5.021  1.00  0.00    -0.003 C 
HETATM   21  C1  UNL     1      -0.592  16.219  -5.105  1.00  0.00     0.009 C 
ENDBRANCH  16  20
ENDBRANCH   1  15
TORSDOF 7
ENDMDL
MODEL 4
REMARK VINA RESULT: -5.047296753      5.130      8.790
REMARK  7 active torsions:
REMARK  status: ('A' for Active; 'I' for Inactive)
REMARK    1  A    between atoms: C2_2  and  C3_3 
REMARK    2  A    between atoms: C6_7  and  N1_8 
REMARK       I    between atoms: N1_8  and  C7_10 
REMARK    3  A    between atoms: C7_10  and  C8_12 
REMARK    4  A    between atoms: C8_12  and  C9_14 
REMARK    5  A    between atoms: C9_14  and  C10_15 
REMARK    6  A    between atoms: C9_14  and  C13_19 
REMARK    7  A    between atoms: C10_15  and  N2_16 
ROOT
HETATM    1  N1  UNL     1      -5.283  22.806  -8.447  1.00  0.00    -0.349 N 
ATOM      2  H1  UNL     1      -5.759  23.358  -7.734  1.00  0.00     0.163 HD
HETATM    3  C7  UNL     1      -3.996  22.344  -8.156  1.00  0.00     0.255 C 
HETATM    4  O2  UNL     1      -3.426  21.654  -9.075  1.00  0.00    -0.267 OA
ENDROOT
BRANCH   3   5
HETATM    5  C8  UNL     1      -3.287  22.599  -6.895  1.00  0.00     0.063 C 
HETATM    6  S1  UNL     1      -3.421  24.341  -6.369  1.00  0.00    -0.051 SA
BRANCH   5   7
HETATM    7  C9  UNL     1      -2.025  21.943  -6.622  1.00  0.00     0.064 C 
BRANCH   7   8
HETATM    8  C10 UNL     1      -2.402  20.588  -5.928  1.00  0.00     0.281 C 
BRANCH   8   9
HETATM    9  N2  UNL     1      -1.968  19.501  -6.748  1.00  0.00     0.080 N 
HETATM   10  C11 UNL     1      -0.915  18.716  -6.154  1.00  0.00     0.309 C 
HETATM   11  C12 UNL     1      -3.040  18.712  -7.269  1.00  0.00     0.309 C 
ENDBRANCH   8   9
ENDBRANCH   7   8
BRANCH   7  12
HETATM   12  C13 UNL     1      -0.921  22.474  -5.850  1.00  0.00    -0.004 A 
HETATM   13  C14 UNL     1       0.201  23.112  -6.727  1.00  0.00     0.006 A 
HETATM   14  C15 UNL     1       0.451  22.095  -5.648  1.00  0.00     0.006 A 
ENDBRANCH   7  12
ENDBRANCH   5   7
ENDBRANCH   3   5
BRANCH   1  15
HETATM   15  C6  UNL     1      -5.990  22.558  -9.684  1.00  0.00     0.119 C 
HETATM   16  C3  UNL     1      -7.035  21.505  -9.420  1.00  0.00     0.166 C 
HETATM   17  O1  UNL     1      -8.219  22.140  -9.104  1.00  0.00    -0.380 OA
HETATM   18  C4  UNL     1      -8.110  23.482  -9.322  1.00  0.00     0.170 C 
HETATM   19  C5  UNL     1      -6.845  23.730 -10.102  1.00  0.00     0.054 C 
BRANCH  16  20
HETATM   20  C2  UNL     1      -7.170  20.536 -10.526  1.00  0.00    -0.003 C 
HETATM   21  C1  UNL     1      -6.491  19.392 -10.450  1.00  0.00     0.009 C 
ENDBRANCH  16  20
ENDBRANCH   1  15
TORSDOF 7
ENDMDL
MODEL 5
REMARK VINA RESULT: -4.946904021      2.974      4.288
REMARK  7 active torsions:
REMARK  status: ('A' for Active; 'I' for Inactive)
REMARK    1  A    between atoms: C2_2  and  C3_3 
REMARK    2  A    between atoms: C6_7  and  N1_8 
REMARK       I    between atoms: N1_8  and  C7_10 
REMARK    3  A    between atoms: C7_10  and  C8_12 
REMARK    4  A    between atoms: C8_12  and  C9_14 
REMARK    5  A    between atoms: C9_14  and  C10_15 
REMARK    6  A    between atoms: C9_14  and  C13_19 
REMARK    7  A    between atoms: C10_15  and  N2_16 
ROOT
HETATM    1  N1  UNL     1      -2.137  17.917  -5.949  1.00  0.00    -0.349 N 
ATOM      2  H1  UNL     1      -2.814  17.856  -5.188  1.00  0.00     0.163 HD
HETATM    3  C7  UNL     1      -2.476  18.701  -7.055  1.00  0.00     0.255 C 
HETATM    4  O2  UNL     1      -1.603  18.754  -7.995  1.00  0.00    -0.267 OA
ENDROOT
BRANCH   3   5
HETATM    5  C8  UNL     1      -3.737  19.441  -7.195  1.00  0.00     0.063 C 
HETATM    6  S1  UNL     1      -4.886  18.632  -8.359  1.00  0.00    -0.051 SA
BRANCH   5   7
HETATM    7  C9  UNL     1      -3.736  20.889  -7.198  1.00  0.00     0.064 C 
BRANCH   7   8
HETATM    8  C10 UNL     1      -4.605  21.303  -8.436  1.00  0.00     0.281 C 
BRANCH   8   9
HETATM    9  N2  UNL     1      -5.529  22.320  -8.045  1.00  0.00     0.080 N 
HETATM   10  C11 UNL     1      -5.853  23.242  -9.106  1.00  0.00     0.309 C 
HETATM   11  C12 UNL     1      -6.677  21.819  -7.358  1.00  0.00     0.309 C 
ENDBRANCH   8   9
ENDBRANCH   7   8
BRANCH   7  12
HETATM   12  C13 UNL     1      -2.576  21.756  -7.238  1.00  0.00    -0.004 A 
HETATM   13  C14 UNL     1      -2.111  22.239  -5.829  1.00  0.00     0.006 A 
HETATM   14  C15 UNL     1      -2.345  23.155  -6.999  1.00  0.00     0.006 A 
ENDBRANCH   7  12
ENDBRANCH   5   7
ENDBRANCH   3   5
BRANCH   1  15
HETATM   15  C6  UNL     1      -0.898  17.186  -5.801  1.00  0.00     0.119 C 
HETATM   16  C3  UNL     1      -0.079  17.870  -4.737  1.00  0.00     0.166 C 
HETATM   17  O1  UNL     1      -0.348  17.261  -3.527  1.00  0.00    -0.380 OA
HETATM   18  C4  UNL     1      -1.100  16.140  -3.718  1.00  0.00     0.170 C 
HETATM   19  C5  UNL     1      -1.104  15.821  -5.190  1.00  0.00     0.054 C 
BRANCH  16  20
HETATM   20  C2  UNL     1       1.362  17.917  -5.057  1.00  0.00    -0.003 C 
HETATM   21  C1  UNL     1       1.720  18.071  -6.332  1.00  0.00     0.009 C 
ENDBRANCH  16  20
ENDBRANCH   1  15
TORSDOF 7
ENDMDL
