MODEL 1
REMARK VINA RESULT: -6.010020546      0.000      0.000
REMARK  5 active torsions:
REMARK  status: ('A' for Active; 'I' for Inactive)
REMARK    1  A    between atoms: C2_2  and  C3_3 
REMARK    2  A    between atoms: C3_3  and  C4_4 
REMARK    3  A    between atoms: N1_5  and  C5_7 
REMARK    4  A    between atoms: C8_11  and  O1_12 
REMARK    5  A    between atoms: C10_15  and  O2_16 
ROOT
HETATM    1  C5  UNL     1       3.061   6.669   0.840  1.00  0.00     0.066 A 
HETATM    2  C6  UNL     1       3.916   6.814  -0.232  1.00  0.00     0.054 A 
HETATM    3  C7  UNL     1       4.938   7.746  -0.190  1.00  0.00     0.046 A 
HETATM    4 BR1  UNL     1       6.125   7.937  -1.693  1.00  0.00    -0.048 Br
HETATM    5  C8  UNL     1       5.153   8.561   0.899  1.00  0.00     0.085 A 
HETATM    6  C9  UNL     1       4.297   8.415   1.970  1.00  0.00     0.076 A 
HETATM    7  C10 UNL     1       3.276   7.488   1.933  1.00  0.00     0.095 A 
ENDROOT
BRANCH   1   8
HETATM    8  N1  UNL     1       1.995   5.739   0.869  1.00  0.00    -0.367 N 
HETATM    9  C4  UNL     1       1.353   5.315  -0.141  1.00  0.00     0.061 C 
ATOM     10  H1  UNL     1       1.718   5.379   1.782  1.00  0.00     0.165 HD
BRANCH   9  11
HETATM   11  C3  UNL     1       0.259   4.334   0.087  1.00  0.00     0.044 C 
BRANCH  11  12
HETATM   12  C2  UNL     1      -0.995   4.696  -0.676  1.00  0.00     0.001 C 
HETATM   13  C1  UNL     1      -0.661   4.689  -2.146  1.00  0.00     0.005 C 
ENDBRANCH  11  12
ENDBRANCH   9  11
ENDBRANCH   1   8
BRANCH   7  14
HETATM   14  O2  UNL     1       2.418   7.352   3.025  1.00  0.00    -0.358 OA
ATOM     15  H2  UNL     1       1.573   7.785   2.981  1.00  0.00     0.217 HD
ENDBRANCH   7  14
BRANCH   5  16
HETATM   16  O1  UNL     1       6.195   9.499   0.921  1.00  0.00    -0.359 OA
ATOM     17  H1  UNL     1       6.585   9.791   1.736  1.00  0.00     0.217 HD
ENDBRANCH   5  16
TORSDOF 5
ENDMDL
MODEL 2
REMARK VINA RESULT: -5.991895908      2.405      2.965
REMARK  5 active torsions:
REMARK  status: ('A' for Active; 'I' for Inactive)
REMARK    1  A    between atoms: C2_2  and  C3_3 
REMARK    2  A    between atoms: C3_3  and  C4_4 
REMARK    3  A    between atoms: N1_5  and  C5_7 
REMARK    4  A    between atoms: C8_11  and  O1_12 
REMARK    5  A    between atoms: C10_15  and  O2_16 
ROOT
HETATM    1  C5  UNL     1       3.931   6.577  -1.031  1.00  0.00     0.066 A 
HETATM    2  C6  UNL     1       3.640   7.514  -0.063  1.00  0.00     0.054 A 
HETATM    3  C7  UNL     1       4.382   8.678   0.029  1.00  0.00     0.046 A 
HETATM    4 BR1  UNL     1       3.965   9.978   1.385  1.00  0.00    -0.048 Br
HETATM    5  C8  UNL     1       5.427   8.959  -0.824  1.00  0.00     0.085 A 
HETATM    6  C9  UNL     1       5.716   8.021  -1.792  1.00  0.00     0.076 A 
HETATM    7  C10 UNL     1       4.980   6.858  -1.887  1.00  0.00     0.095 A 
ENDROOT
BRANCH   1   8
HETATM    8  N1  UNL     1       3.217   5.365  -1.185  1.00  0.00    -0.367 N 
HETATM    9  C4  UNL     1       2.108   5.082  -0.635  1.00  0.00     0.061 C 
ATOM     10  H1  UNL     1       3.630   4.656  -1.792  1.00  0.00     0.165 HD
BRANCH   9  11
HETATM   11  C3  UNL     1       1.506   3.751  -0.916  1.00  0.00     0.044 C 
BRANCH  11  12
HETATM   12  C2  UNL     1      -0.001   3.820  -1.013  1.00  0.00     0.001 C 
HETATM   13  C1  UNL     1      -0.398   5.274  -1.038  1.00  0.00     0.005 C 
ENDBRANCH  11  12
ENDBRANCH   9  11
ENDBRANCH   1   8
BRANCH   7  14
HETATM   14  O2  UNL     1       5.285   5.918  -2.871  1.00  0.00    -0.358 OA
ATOM     15  H2  UNL     1       4.963   6.078  -3.751  1.00  0.00     0.217 HD
ENDBRANCH   7  14
BRANCH   5  16
HETATM   16  O1  UNL     1       6.167  10.146  -0.714  1.00  0.00    -0.359 OA
ATOM     17  H1  UNL     1       6.802  10.399  -1.373  1.00  0.00     0.217 HD
ENDBRANCH   5  16
TORSDOF 5
ENDMDL
MODEL 3
REMARK VINA RESULT: -5.958082464      2.069      2.638
REMARK  5 active torsions:
REMARK  status: ('A' for Active; 'I' for Inactive)
REMARK    1  A    between atoms: C2_2  and  C3_3 
REMARK    2  A    between atoms: C3_3  and  C4_4 
REMARK    3  A    between atoms: N1_5  and  C5_7 
REMARK    4  A    between atoms: C8_11  and  O1_12 
REMARK    5  A    between atoms: C10_15  and  O2_16 
ROOT
HETATM    1  C5  UNL     1       3.796   6.669   0.955  1.00  0.00     0.066 A 
HETATM    2  C6  UNL     1       4.785   6.914   0.028  1.00  0.00     0.054 A 
HETATM    3  C7  UNL     1       5.390   8.157  -0.039  1.00  0.00     0.046 A 
HETATM    4 BR1  UNL     1       6.771   8.485  -1.338  1.00  0.00    -0.048 Br
HETATM    5  C8  UNL     1       5.044   9.194   0.800  1.00  0.00     0.085 A 
HETATM    6  C9  UNL     1       4.053   8.947   1.727  1.00  0.00     0.076 A 
HETATM    7  C10 UNL     1       3.447   7.709   1.796  1.00  0.00     0.095 A 
ENDROOT
BRANCH   1   8
HETATM    8  N1  UNL     1       3.133   5.425   1.081  1.00  0.00    -0.367 N 
HETATM    9  C4  UNL     1       3.478   4.340   0.517  1.00  0.00     0.061 C 
ATOM     10  H1  UNL     1       2.306   5.397   1.677  1.00  0.00     0.165 HD
BRANCH   9  11
HETATM   11  C3  UNL     1       2.655   3.128   0.770  1.00  0.00     0.044 C 
BRANCH  11  12
HETATM   12  C2  UNL     1       3.490   1.971   1.270  1.00  0.00     0.001 C 
HETATM   13  C1  UNL     1       4.918   2.216   0.857  1.00  0.00     0.005 C 
ENDBRANCH  11  12
ENDBRANCH   9  11
ENDBRANCH   1   8
BRANCH   7  14
HETATM   14  O2  UNL     1       2.446   7.475   2.739  1.00  0.00    -0.358 OA
ATOM     15  H2  UNL     1       2.691   7.493   3.657  1.00  0.00     0.217 HD
ENDBRANCH   7  14
BRANCH   5  16
HETATM   16  O1  UNL     1       5.669  10.446   0.716  1.00  0.00    -0.359 OA
ATOM     17  H1  UNL     1       6.085  10.846   1.470  1.00  0.00     0.217 HD
ENDBRANCH   5  16
TORSDOF 5
ENDMDL
MODEL 4
REMARK VINA RESULT: -5.932447728      3.147      4.055
REMARK  5 active torsions:
REMARK  status: ('A' for Active; 'I' for Inactive)
REMARK    1  A    between atoms: C2_2  and  C3_3 
REMARK    2  A    between atoms: C3_3  and  C4_4 
REMARK    3  A    between atoms: N1_5  and  C5_7 
REMARK    4  A    between atoms: C8_11  and  O1_12 
REMARK    5  A    between atoms: C10_15  and  O2_16 
ROOT
HETATM    1  C5  UNL     1       4.130   6.080  -0.860  1.00  0.00     0.066 A 
HETATM    2  C6  UNL     1       3.841   6.929   0.187  1.00  0.00     0.054 A 
HETATM    3  C7  UNL     1       4.281   8.240   0.167  1.00  0.00     0.046 A 
HETATM    4 BR1  UNL     1       3.870   9.415   1.635  1.00  0.00    -0.048 Br
HETATM    5  C8  UNL     1       5.015   8.758  -0.878  1.00  0.00     0.085 A 
HETATM    6  C9  UNL     1       5.304   7.908  -1.924  1.00  0.00     0.076 A 
HETATM    7  C10 UNL     1       4.868   6.599  -1.908  1.00  0.00     0.095 A 
ENDROOT
BRANCH   1   8
HETATM    8  N1  UNL     1       3.715   4.728  -0.908  1.00  0.00    -0.367 N 
HETATM    9  C4  UNL     1       3.726   3.914   0.066  1.00  0.00     0.061 C 
ATOM     10  H1  UNL     1       3.377   4.378  -1.804  1.00  0.00     0.165 HD
BRANCH   9  11
HETATM   11  C3  UNL     1       3.249   2.526  -0.177  1.00  0.00     0.044 C 
BRANCH  11  12
HETATM   12  C2  UNL     1       4.298   1.496   0.176  1.00  0.00     0.001 C 
HETATM   13  C1  UNL     1       5.249   2.123   1.163  1.00  0.00     0.005 C 
ENDBRANCH  11  12
ENDBRANCH   9  11
ENDBRANCH   1   8
BRANCH   7  14
HETATM   14  O2  UNL     1       5.168   5.751  -2.974  1.00  0.00    -0.358 OA
ATOM     15  H2  UNL     1       4.590   5.013  -3.129  1.00  0.00     0.217 HD
ENDBRANCH   7  14
BRANCH   5  16
HETATM   16  O1  UNL     1       5.452  10.091  -0.879  1.00  0.00    -0.359 OA
ATOM     17  H1  UNL     1       5.902  10.466  -1.626  1.00  0.00     0.217 HD
ENDBRANCH   5  16
TORSDOF 5
ENDMDL
MODEL 5
REMARK VINA RESULT: -5.870372501      2.707      3.480
REMARK  5 active torsions:
REMARK  status: ('A' for Active; 'I' for Inactive)
REMARK    1  A    between atoms: C2_2  and  C3_3 
REMARK    2  A    between atoms: C3_3  and  C4_4 
REMARK    3  A    between atoms: N1_5  and  C5_7 
REMARK    4  A    between atoms: C8_11  and  O1_12 
REMARK    5  A    between atoms: C10_15  and  O2_16 
ROOT
HETATM    1  C5  UNL     1       3.984   6.520  -1.002  1.00  0.00     0.066 A 
HETATM    2  C6  UNL     1       3.673   7.435  -0.019  1.00  0.00     0.054 A 
HETATM    3  C7  UNL     1       4.354   8.637   0.058  1.00  0.00     0.046 A 
HETATM    4 BR1  UNL     1       3.910   9.906   1.435  1.00  0.00    -0.048 Br
HETATM    5  C8  UNL     1       5.356   8.978  -0.824  1.00  0.00     0.085 A 
HETATM    6  C9  UNL     1       5.666   8.062  -1.807  1.00  0.00     0.076 A 
HETATM    7  C10 UNL     1       4.990   6.861  -1.887  1.00  0.00     0.095 A 
ENDROOT
BRANCH   1   8
HETATM    8  N1  UNL     1       3.332   5.272  -1.143  1.00  0.00    -0.367 N 
HETATM    9  C4  UNL     1       2.544   4.748  -0.296  1.00  0.00     0.061 C 
ATOM     10  H1  UNL     1       3.512   4.748  -1.999  1.00  0.00     0.165 HD
BRANCH   9  11
HETATM   11  C3  UNL     1       1.951   3.423  -0.620  1.00  0.00     0.044 C 
BRANCH  11  12
HETATM   12  C2  UNL     1       2.058   2.456   0.538  1.00  0.00     0.001 C 
HETATM   13  C1  UNL     1       3.308   2.793   1.309  1.00  0.00     0.005 C 
ENDBRANCH  11  12
ENDBRANCH   9  11
ENDBRANCH   1   8
BRANCH   7  14
HETATM   14  O2  UNL     1       5.315   5.944  -2.887  1.00  0.00    -0.358 OA
ATOM     15  H2  UNL     1       6.069   5.384  -2.746  1.00  0.00     0.217 HD
ENDBRANCH   7  14
BRANCH   5  16
HETATM   16  O1  UNL     1       6.034  10.203  -0.729  1.00  0.00    -0.359 OA
ATOM     17  H1  UNL     1       5.989  10.851  -1.421  1.00  0.00     0.217 HD
ENDBRANCH   5  16
TORSDOF 5
ENDMDL
