MODEL 1
REMARK VINA RESULT: -7.749227832      0.000      0.000
REMARK  4 active torsions:
REMARK  status: ('A' for Active; 'I' for Inactive)
REMARK    1  A    between atoms: C3_3  and  C4_4 
REMARK    2  A    between atoms: C3_3  and  C13_16 
REMARK    3  A    between atoms: C4_4  and  C5_5 
REMARK    4  A    between atoms: C5_5  and  C6_6 
ROOT
HETATM    1  C1  UNL     1     -17.185  -5.326 -40.090  1.00  0.00     0.097 C 
HETATM    2  C2  UNL     1     -16.427  -4.478 -39.631  1.00  0.00    -0.174 C 
HETATM    3  C3  UNL     1     -15.567  -3.453 -39.070  1.00  0.00     0.160 C 
ENDROOT
BRANCH   3   4
HETATM    4  C4  UNL     1     -14.197  -3.815 -38.802  1.00  0.00     0.042 C 
BRANCH   4   5
HETATM    5  C5  UNL     1     -13.018  -2.972 -38.990  1.00  0.00     0.019 C 
HETATM    6  C8  UNL     1     -12.840  -2.315 -37.578  1.00  0.00     0.047 C 
HETATM    7  C9  UNL     1     -11.812  -3.148 -36.888  1.00  0.00     0.025 C 
HETATM    8  C10 UNL     1     -12.334  -4.201 -35.968  1.00  0.00     0.038 C 
HETATM    9  C11 UNL     1     -10.992  -2.190 -36.035  1.00  0.00     0.038 C 
HETATM   10  N1  UNL     1     -11.071  -3.686 -37.972  1.00  0.00    -0.373 N 
HETATM   11  C12 UNL     1     -11.703  -3.597 -39.102  1.00  0.00     0.098 C 
ATOM     12  H1  UNL     1     -10.144  -4.097 -37.874  1.00  0.00     0.161 HD
HETATM   13  N2  UNL     1     -10.973  -4.098 -40.251  1.00  0.00    -0.087 NA
BRANCH   5  14
HETATM   14  C6  UNL     1     -13.191  -1.770 -39.869  1.00  0.00     0.012 C 
HETATM   15  C7  UNL     1     -13.722  -1.927 -41.220  1.00  0.00     0.006 C 
ENDBRANCH   5  14
ENDBRANCH   4   5
ENDBRANCH   3   4
BRANCH   3  16
HETATM   16  C13 UNL     1     -16.226  -3.118 -37.701  1.00  0.00     0.400 C 
HETATM   17  F1  UNL     1     -17.573  -3.398 -37.741  1.00  0.00    -0.170 F 
HETATM   18  F2  UNL     1     -16.014  -1.788 -37.420  1.00  0.00    -0.170 F 
HETATM   19  F3  UNL     1     -15.641  -3.941 -36.757  1.00  0.00    -0.170 F 
ENDBRANCH   3  16
TORSDOF 4
ENDMDL
MODEL 2
REMARK VINA RESULT: -7.744330774      1.441      1.762
REMARK  4 active torsions:
REMARK  status: ('A' for Active; 'I' for Inactive)
REMARK    1  A    between atoms: C3_3  and  C4_4 
REMARK    2  A    between atoms: C3_3  and  C13_16 
REMARK    3  A    between atoms: C4_4  and  C5_5 
REMARK    4  A    between atoms: C5_5  and  C6_6 
ROOT
HETATM    1  C1  UNL     1     -17.231  -2.117 -38.870  1.00  0.00     0.097 C 
HETATM    2  C2  UNL     1     -16.125  -2.410 -38.426  1.00  0.00    -0.174 C 
HETATM    3  C3  UNL     1     -14.836  -2.763 -37.861  1.00  0.00     0.160 C 
ENDROOT
BRANCH   3   4
HETATM    4  C4  UNL     1     -13.850  -3.312 -38.759  1.00  0.00     0.042 C 
BRANCH   4   5
HETATM    5  C5  UNL     1     -12.662  -2.633 -39.272  1.00  0.00     0.019 C 
HETATM    6  C8  UNL     1     -12.301  -1.650 -38.106  1.00  0.00     0.047 C 
HETATM    7  C9  UNL     1     -11.242  -2.350 -37.322  1.00  0.00     0.025 C 
HETATM    8  C10 UNL     1     -11.706  -3.091 -36.112  1.00  0.00     0.038 C 
HETATM    9  C11 UNL     1     -10.291  -1.267 -36.831  1.00  0.00     0.038 C 
HETATM   10  N1  UNL     1     -10.650  -3.199 -38.291  1.00  0.00    -0.373 N 
HETATM   11  C12 UNL     1     -11.397  -3.358 -39.340  1.00  0.00     0.098 C 
ATOM     12  H1  UNL     1      -9.736  -3.638 -38.177  1.00  0.00     0.161 HD
HETATM   13  N2  UNL     1     -10.821  -4.188 -40.380  1.00  0.00    -0.087 NA
BRANCH   5  14
HETATM   14  C6  UNL     1     -12.877  -1.686 -40.416  1.00  0.00     0.012 C 
HETATM   15  C7  UNL     1     -13.999  -1.890 -41.327  1.00  0.00     0.006 C 
ENDBRANCH   5  14
ENDBRANCH   4   5
ENDBRANCH   3   4
BRANCH   3  16
HETATM   16  C13 UNL     1     -15.174  -3.870 -36.821  1.00  0.00     0.400 C 
HETATM   17  F1  UNL     1     -14.039  -4.574 -36.491  1.00  0.00    -0.170 F 
HETATM   18  F2  UNL     1     -16.127  -4.706 -37.355  1.00  0.00    -0.170 F 
HETATM   19  F3  UNL     1     -15.631  -3.231 -35.684  1.00  0.00    -0.170 F 
ENDBRANCH   3  16
TORSDOF 4
ENDMDL
MODEL 3
REMARK VINA RESULT: -7.623945976      1.142      1.595
REMARK  4 active torsions:
REMARK  status: ('A' for Active; 'I' for Inactive)
REMARK    1  A    between atoms: C3_3  and  C4_4 
REMARK    2  A    between atoms: C3_3  and  C13_16 
REMARK    3  A    between atoms: C4_4  and  C5_5 
REMARK    4  A    between atoms: C5_5  and  C6_6 
ROOT
HETATM    1  C1  UNL     1     -17.264  -1.492 -38.961  1.00  0.00     0.097 C 
HETATM    2  C2  UNL     1     -16.444  -2.312 -38.562  1.00  0.00    -0.174 C 
HETATM    3  C3  UNL     1     -15.505  -3.300 -38.063  1.00  0.00     0.160 C 
ENDROOT
BRANCH   3   4
HETATM    4  C4  UNL     1     -14.421  -3.679 -38.934  1.00  0.00     0.042 C 
BRANCH   4   5
HETATM    5  C5  UNL     1     -13.134  -3.001 -39.073  1.00  0.00     0.019 C 
HETATM    6  C8  UNL     1     -12.950  -2.328 -37.669  1.00  0.00     0.047 C 
HETATM    7  C9  UNL     1     -12.078  -3.264 -36.901  1.00  0.00     0.025 C 
HETATM    8  C10 UNL     1     -12.782  -4.212 -35.987  1.00  0.00     0.038 C 
HETATM    9  C11 UNL     1     -11.189  -2.393 -36.024  1.00  0.00     0.038 C 
HETATM   10  N1  UNL     1     -11.355  -3.926 -37.926  1.00  0.00    -0.373 N 
HETATM   11  C12 UNL     1     -11.907  -3.792 -39.093  1.00  0.00     0.098 C 
ATOM     12  H1  UNL     1     -10.496  -4.450 -37.764  1.00  0.00     0.161 HD
HETATM   13  N2  UNL     1     -11.186  -4.419 -40.185  1.00  0.00    -0.087 NA
BRANCH   5  14
HETATM   14  C6  UNL     1     -13.101  -1.814 -39.989  1.00  0.00     0.012 C 
HETATM   15  C7  UNL     1     -13.876  -1.829 -41.226  1.00  0.00     0.006 C 
ENDBRANCH   5  14
ENDBRANCH   4   5
ENDBRANCH   3   4
BRANCH   3  16
HETATM   16  C13 UNL     1     -16.379  -4.568 -37.841  1.00  0.00     0.400 C 
HETATM   17  F1  UNL     1     -17.711  -4.228 -37.803  1.00  0.00    -0.170 F 
HETATM   18  F2  UNL     1     -15.996  -5.171 -36.666  1.00  0.00    -0.170 F 
HETATM   19  F3  UNL     1     -16.175  -5.395 -38.931  1.00  0.00    -0.170 F 
ENDBRANCH   3  16
TORSDOF 4
ENDMDL
MODEL 4
REMARK VINA RESULT: -7.473308533      1.624      3.504
REMARK  4 active torsions:
REMARK  status: ('A' for Active; 'I' for Inactive)
REMARK    1  A    between atoms: C3_3  and  C4_4 
REMARK    2  A    between atoms: C3_3  and  C13_16 
REMARK    3  A    between atoms: C4_4  and  C5_5 
REMARK    4  A    between atoms: C5_5  and  C6_6 
ROOT
HETATM    1  C1  UNL     1     -17.583  -1.426 -36.620  1.00  0.00     0.097 C 
HETATM    2  C2  UNL     1     -16.698  -2.141 -37.078  1.00  0.00    -0.174 C 
HETATM    3  C3  UNL     1     -15.683  -3.014 -37.638  1.00  0.00     0.160 C 
ENDROOT
BRANCH   3   4
HETATM    4  C4  UNL     1     -14.399  -2.428 -37.935  1.00  0.00     0.042 C 
BRANCH   4   5
HETATM    5  C5  UNL     1     -13.092  -3.062 -37.775  1.00  0.00     0.019 C 
HETATM    6  C8  UNL     1     -12.809  -3.625 -39.211  1.00  0.00     0.047 C 
HETATM    7  C9  UNL     1     -11.941  -2.601 -39.864  1.00  0.00     0.025 C 
HETATM    8  C10 UNL     1     -12.640  -1.619 -40.746  1.00  0.00     0.038 C 
HETATM    9  C11 UNL     1     -10.971  -3.370 -40.751  1.00  0.00     0.038 C 
HETATM   10  N1  UNL     1     -11.301  -1.986 -38.758  1.00  0.00    -0.373 N 
HETATM   11  C12 UNL     1     -11.904  -2.226 -37.634  1.00  0.00     0.098 C 
ATOM     12  H1  UNL     1     -10.458  -1.418 -38.837  1.00  0.00     0.161 HD
HETATM   13  N2  UNL     1     -11.267  -1.651 -36.465  1.00  0.00    -0.087 NA
BRANCH   5  14
HETATM   14  C6  UNL     1     -13.053  -4.310 -36.944  1.00  0.00     0.012 C 
HETATM   15  C7  UNL     1     -13.510  -4.274 -35.557  1.00  0.00     0.006 C 
ENDBRANCH   5  14
ENDBRANCH   4   5
ENDBRANCH   3   4
BRANCH   3  16
HETATM   16  C13 UNL     1     -16.295  -3.481 -38.990  1.00  0.00     0.400 C 
HETATM   17  F1  UNL     1     -17.669  -3.452 -38.926  1.00  0.00    -0.170 F 
HETATM   18  F2  UNL     1     -15.847  -4.752 -39.265  1.00  0.00    -0.170 F 
HETATM   19  F3  UNL     1     -15.889  -2.575 -39.953  1.00  0.00    -0.170 F 
ENDBRANCH   3  16
TORSDOF 4
ENDMDL
MODEL 5
REMARK VINA RESULT: -7.391399431      2.610      4.990
REMARK  4 active torsions:
REMARK  status: ('A' for Active; 'I' for Inactive)
REMARK    1  A    between atoms: C3_3  and  C4_4 
REMARK    2  A    between atoms: C3_3  and  C13_16 
REMARK    3  A    between atoms: C4_4  and  C5_5 
REMARK    4  A    between atoms: C5_5  and  C6_6 
ROOT
HETATM    1  C1  UNL     1     -12.102  -1.491 -38.317  1.00  0.00     0.097 C 
HETATM    2  C2  UNL     1     -12.705  -2.507 -37.986  1.00  0.00    -0.174 C 
HETATM    3  C3  UNL     1     -13.380  -3.723 -37.572  1.00  0.00     0.160 C 
ENDROOT
BRANCH   3   4
HETATM    4  C4  UNL     1     -14.814  -3.667 -37.434  1.00  0.00     0.042 C 
BRANCH   4   5
HETATM    5  C5  UNL     1     -15.800  -3.772 -38.508  1.00  0.00     0.019 C 
HETATM    6  C8  UNL     1     -17.158  -3.628 -37.740  1.00  0.00     0.047 C 
HETATM    7  C9  UNL     1     -17.537  -2.192 -37.887  1.00  0.00     0.025 C 
HETATM    8  C10 UNL     1     -17.176  -1.301 -36.745  1.00  0.00     0.038 C 
HETATM    9  C11 UNL     1     -19.055  -2.162 -38.000  1.00  0.00     0.038 C 
HETATM   10  N1  UNL     1     -16.892  -1.824 -39.095  1.00  0.00    -0.373 N 
HETATM   11  C12 UNL     1     -15.962  -2.660 -39.441  1.00  0.00     0.098 C 
ATOM     12  H1  UNL     1     -17.132  -0.992 -39.634  1.00  0.00     0.161 HD
HETATM   13  N2  UNL     1     -15.296  -2.350 -40.691  1.00  0.00    -0.087 NA
BRANCH   5  14
HETATM   14  C6  UNL     1     -15.950  -5.121 -39.147  1.00  0.00     0.012 C 
HETATM   15  C7  UNL     1     -17.187  -5.462 -39.843  1.00  0.00     0.006 C 
ENDBRANCH   5  14
ENDBRANCH   4   5
ENDBRANCH   3   4
BRANCH   3  16
HETATM   16  C13 UNL     1     -12.796  -4.014 -36.160  1.00  0.00     0.400 C 
HETATM   17  F1  UNL     1     -11.968  -2.988 -35.767  1.00  0.00    -0.170 F 
HETATM   18  F2  UNL     1     -12.111  -5.205 -36.199  1.00  0.00    -0.170 F 
HETATM   19  F3  UNL     1     -13.864  -4.066 -35.283  1.00  0.00    -0.170 F 
ENDBRANCH   3  16
TORSDOF 4
ENDMDL
