MODEL 1
REMARK VINA RESULT: -7.695536606      0.000      0.000
REMARK  3 active torsions:
REMARK  status: ('A' for Active; 'I' for Inactive)
REMARK    1  A    between atoms: C2_2  and  C3_3 
REMARK    2  A    between atoms: C9_10  and  O2_11 
REMARK    3  A    between atoms: C9_10  and  C10_13 
ROOT
HETATM    1  C3  UNL     1      -8.888 -21.182  23.097  1.00  0.00     0.125 C 
HETATM    2  O1  UNL     1      -8.141 -21.260  21.917  1.00  0.00    -0.376 OA
HETATM    3  C4  UNL     1      -6.784 -20.991  22.231  1.00  0.00     0.171 C 
HETATM    4  C5  UNL     1      -6.306 -21.994  23.216  1.00  0.00     0.019 C 
HETATM    5  C6  UNL     1      -4.979 -22.608  22.945  1.00  0.00     0.007 C 
HETATM    6  C7  UNL     1      -4.082 -21.479  22.436  1.00  0.00     0.004 C 
HETATM    7  C8  UNL     1      -4.556 -21.154  21.048  1.00  0.00     0.052 C 
HETATM    8  C9  UNL     1      -6.028 -20.882  20.950  1.00  0.00     0.172 C 
HETATM    9  C11 UNL     1      -7.392 -23.051  23.463  1.00  0.00     0.014 C 
HETATM   10  C12 UNL     1      -8.533 -22.238  24.089  1.00  0.00     0.011 C 
HETATM   11  C13 UNL     1      -9.689 -23.126  24.460  1.00  0.00     0.012 C 
ENDROOT
BRANCH   8  12
HETATM   12  O2  UNL     1      -6.152 -19.556  20.506  1.00  0.00    -0.376 OA
ATOM     13  H2  UNL     1      -5.707 -19.497  19.668  1.00  0.00     0.211 HD
ENDBRANCH   8  12
BRANCH   8  14
HETATM   14  C10 UNL     1      -6.577 -21.725  19.863  1.00  0.00     0.211 C 
HETATM   15  O3  UNL     1      -7.200 -21.211  18.898  1.00  0.00    -0.646 OA
HETATM   16  O4  UNL     1      -6.452 -23.105  19.824  1.00  0.00    -0.646 OA
ENDBRANCH   8  14
BRANCH   1  17
HETATM   17  C2  UNL     1     -10.347 -21.199  22.709  1.00  0.00     0.028 C 
HETATM   18  C1  UNL     1     -10.500 -20.614  21.324  1.00  0.00     0.007 C 
ENDBRANCH   1  17
TORSDOF 3
ENDMDL
MODEL 2
REMARK VINA RESULT: -7.588474967      1.118      1.710
REMARK  3 active torsions:
REMARK  status: ('A' for Active; 'I' for Inactive)
REMARK    1  A    between atoms: C2_2  and  C3_3 
REMARK    2  A    between atoms: C9_10  and  O2_11 
REMARK    3  A    between atoms: C9_10  and  C10_13 
ROOT
HETATM    1  C3  UNL     1      -8.937 -20.170  21.522  1.00  0.00     0.125 C 
HETATM    2  O1  UNL     1      -7.852 -20.777  20.881  1.00  0.00    -0.376 OA
HETATM    3  C4  UNL     1      -6.711 -20.644  21.713  1.00  0.00     0.171 C 
HETATM    4  C5  UNL     1      -6.981 -21.304  23.015  1.00  0.00     0.019 C 
HETATM    5  C6  UNL     1      -5.907 -22.184  23.547  1.00  0.00     0.007 C 
HETATM    6  C7  UNL     1      -4.586 -21.469  23.258  1.00  0.00     0.004 C 
HETATM    7  C8  UNL     1      -4.363 -21.576  21.776  1.00  0.00     0.052 C 
HETATM    8  C9  UNL     1      -5.523 -21.116  20.944  1.00  0.00     0.172 C 
HETATM    9  C11 UNL     1      -8.343 -22.013  22.977  1.00  0.00     0.014 C 
HETATM   10  C12 UNL     1      -9.332 -20.856  22.786  1.00  0.00     0.011 C 
HETATM   11  C13 UNL     1     -10.751 -21.354  22.780  1.00  0.00     0.012 C 
ENDROOT
BRANCH   8  12
HETATM   12  O2  UNL     1      -5.057 -20.028  20.190  1.00  0.00    -0.376 OA
ATOM     13  H2  UNL     1      -4.352 -20.348  19.640  1.00  0.00     0.211 HD
ENDBRANCH   8  12
BRANCH   8  14
HETATM   14  C10 UNL     1      -5.834 -22.183  19.966  1.00  0.00     0.211 C 
HETATM   15  O3  UNL     1      -5.810 -23.395  20.301  1.00  0.00    -0.646 OA
HETATM   16  O4  UNL     1      -6.166 -21.938  18.642  1.00  0.00    -0.646 OA
ENDBRANCH   8  14
BRANCH   1  17
HETATM   17  C2  UNL     1     -10.061 -20.080  20.519  1.00  0.00     0.028 C 
HETATM   18  C1  UNL     1      -9.656 -19.147  19.400  1.00  0.00     0.007 C 
ENDBRANCH   1  17
TORSDOF 3
ENDMDL
MODEL 3
REMARK VINA RESULT: -7.139785890      1.404      2.071
REMARK  3 active torsions:
REMARK  status: ('A' for Active; 'I' for Inactive)
REMARK    1  A    between atoms: C2_2  and  C3_3 
REMARK    2  A    between atoms: C9_10  and  O2_11 
REMARK    3  A    between atoms: C9_10  and  C10_13 
ROOT
HETATM    1  C3  UNL     1      -8.388 -19.919  22.039  1.00  0.00     0.125 C 
HETATM    2  O1  UNL     1      -7.330 -20.598  21.426  1.00  0.00    -0.376 OA
HETATM    3  C4  UNL     1      -6.460 -21.074  22.440  1.00  0.00     0.171 C 
HETATM    4  C5  UNL     1      -7.213 -21.986  23.338  1.00  0.00     0.019 C 
HETATM    5  C6  UNL     1      -6.545 -23.267  23.694  1.00  0.00     0.007 C 
HETATM    6  C7  UNL     1      -5.073 -22.929  23.930  1.00  0.00     0.004 C 
HETATM    7  C8  UNL     1      -4.481 -22.641  22.579  1.00  0.00     0.052 C 
HETATM    8  C9  UNL     1      -5.240 -21.623  21.780  1.00  0.00     0.172 C 
HETATM    9  C11 UNL     1      -8.633 -22.207  22.797  1.00  0.00     0.014 C 
HETATM   10  C12 UNL     1      -9.254 -20.805  22.869  1.00  0.00     0.011 C 
HETATM   11  C13 UNL     1     -10.691 -20.828  22.425  1.00  0.00     0.012 C 
ENDROOT
BRANCH   8  12
HETATM   12  O2  UNL     1      -4.359 -20.550  21.575  1.00  0.00    -0.376 OA
ATOM     13  H2  UNL     1      -4.593 -20.148  20.747  1.00  0.00     0.211 HD
ENDBRANCH   8  12
BRANCH   8  14
HETATM   14  C10 UNL     1      -5.498 -22.196  20.439  1.00  0.00     0.211 C 
HETATM   15  O3  UNL     1      -5.967 -23.357  20.311  1.00  0.00    -0.646 OA
HETATM   16  O4  UNL     1      -5.249 -21.521  19.255  1.00  0.00    -0.646 OA
ENDBRANCH   8  14
BRANCH   1  17
HETATM   17  C2  UNL     1      -9.148 -19.194  20.954  1.00  0.00     0.028 C 
HETATM   18  C1  UNL     1      -8.662 -19.672  19.605  1.00  0.00     0.007 C 
ENDBRANCH   1  17
TORSDOF 3
ENDMDL
MODEL 4
REMARK VINA RESULT: -7.129705523      1.374      3.950
REMARK  3 active torsions:
REMARK  status: ('A' for Active; 'I' for Inactive)
REMARK    1  A    between atoms: C2_2  and  C3_3 
REMARK    2  A    between atoms: C9_10  and  O2_11 
REMARK    3  A    between atoms: C9_10  and  C10_13 
ROOT
HETATM    1  C3  UNL     1      -6.456 -23.081  22.029  1.00  0.00     0.125 C 
HETATM    2  O1  UNL     1      -6.623 -21.785  21.531  1.00  0.00    -0.376 OA
HETATM    3  C4  UNL     1      -7.984 -21.620  21.166  1.00  0.00     0.171 C 
HETATM    4  C5  UNL     1      -8.836 -21.832  22.363  1.00  0.00     0.019 C 
HETATM    5  C6  UNL     1      -9.917 -20.836  22.592  1.00  0.00     0.007 C 
HETATM    6  C7  UNL     1     -10.511 -20.528  21.216  1.00  0.00     0.004 C 
HETATM    7  C8  UNL     1      -9.487 -19.705  20.487  1.00  0.00     0.052 C 
HETATM    8  C9  UNL     1      -8.116 -20.314  20.459  1.00  0.00     0.172 C 
HETATM    9  C11 UNL     1      -7.960 -22.028  23.609  1.00  0.00     0.014 C 
HETATM   10  C12 UNL     1      -7.200 -23.325  23.298  1.00  0.00     0.011 C 
HETATM   11  C13 UNL     1      -6.314 -23.720  24.447  1.00  0.00     0.012 C 
ENDROOT
BRANCH   8  12
HETATM   12  O2  UNL     1      -7.817 -20.541  19.106  1.00  0.00    -0.376 OA
ATOM     13  H2  UNL     1      -7.177 -21.243  19.073  1.00  0.00     0.211 HD
ENDBRANCH   8  12
BRANCH   8  14
HETATM   14  C10 UNL     1      -7.152 -19.289  20.919  1.00  0.00     0.211 C 
HETATM   15  O3  UNL     1      -7.367 -18.623  21.965  1.00  0.00    -0.646 OA
HETATM   16  O4  UNL     1      -5.972 -18.990  20.255  1.00  0.00    -0.646 OA
ENDBRANCH   8  14
BRANCH   1  17
HETATM   17  C2  UNL     1      -4.972 -23.329  22.154  1.00  0.00     0.028 C 
HETATM   18  C1  UNL     1      -4.229 -22.042  21.876  1.00  0.00     0.007 C 
ENDBRANCH   1  17
TORSDOF 3
ENDMDL
MODEL 5
REMARK VINA RESULT: -7.092642343      1.615      4.355
REMARK  3 active torsions:
REMARK  status: ('A' for Active; 'I' for Inactive)
REMARK    1  A    between atoms: C2_2  and  C3_3 
REMARK    2  A    between atoms: C9_10  and  O2_11 
REMARK    3  A    between atoms: C9_10  and  C10_13 
ROOT
HETATM    1  C3  UNL     1      -6.024 -21.725  20.542  1.00  0.00     0.125 C 
HETATM    2  O1  UNL     1      -7.169 -20.964  20.798  1.00  0.00    -0.376 OA
HETATM    3  C4  UNL     1      -8.061 -21.747  21.574  1.00  0.00     0.171 C 
HETATM    4  C5  UNL     1      -7.394 -22.128  22.845  1.00  0.00     0.019 C 
HETATM    5  C6  UNL     1      -8.195 -21.966  24.088  1.00  0.00     0.007 C 
HETATM    6  C7  UNL     1      -9.612 -22.427  23.745  1.00  0.00     0.004 C 
HETATM    7  C8  UNL     1     -10.202 -21.364  22.862  1.00  0.00     0.052 C 
HETATM    8  C9  UNL     1      -9.352 -21.009  21.678  1.00  0.00     0.172 C 
HETATM    9  C11 UNL     1      -6.023 -21.443  22.948  1.00  0.00     0.014 C 
HETATM   10  C12 UNL     1      -5.244 -22.047  21.772  1.00  0.00     0.011 C 
HETATM   11  C13 UNL     1      -3.832 -21.531  21.739  1.00  0.00     0.012 C 
ENDROOT
BRANCH   8  12
HETATM   12  O2  UNL     1     -10.110 -21.333  20.541  1.00  0.00    -0.376 OA
ATOM     13  H2  UNL     1     -10.508 -20.529  20.229  1.00  0.00     0.211 HD
ENDBRANCH   8  12
BRANCH   8  14
HETATM   14  C10 UNL     1      -9.198 -19.536  21.653  1.00  0.00     0.211 C 
HETATM   15  O3  UNL     1      -9.431 -18.879  20.606  1.00  0.00    -0.646 OA
HETATM   16  O4  UNL     1      -8.795 -18.788  22.748  1.00  0.00    -0.646 OA
ENDBRANCH   8  14
BRANCH   1  17
HETATM   17  C2  UNL     1      -5.215 -20.988  19.502  1.00  0.00     0.028 C 
HETATM   18  C1  UNL     1      -5.739 -19.576  19.375  1.00  0.00     0.007 C 
ENDBRANCH   1  17
TORSDOF 3
ENDMDL
