MODEL 1
REMARK VINA RESULT: -9.117327110      0.000      0.000
REMARK  5 active torsions:
REMARK  status: ('A' for Active; 'I' for Inactive)
REMARK    1  A    between atoms: O1_2  and  C2_3 
REMARK    2  A    between atoms: C4_5  and  C5_6 
REMARK    3  A    between atoms: N4_13  and  C6_14 
REMARK    4  A    between atoms: C14_25  and  O2_26 
REMARK    5  A    between atoms: O2_26  and  C15_27 
ROOT
HETATM    1  C5  UNL     1      -2.063 -22.966  21.191  1.00  0.00     0.150 A 
HETATM    2  N1  UNL     1      -1.596 -23.898  22.091  1.00  0.00    -0.268 N 
ATOM      3  H1  UNL     1      -2.027 -24.116  22.990  1.00  0.00     0.190 HD
HETATM    4  N2  UNL     1      -0.527 -24.454  21.620  1.00  0.00    -0.226 N 
ATOM      5  H2  UNL     1       0.026 -25.178  22.077  1.00  0.00     0.210 HD
HETATM    6  N3  UNL     1      -0.284 -23.916  20.447  1.00  0.00    -0.224 N 
ATOM      7  H3  UNL     1       0.499 -24.161  19.841  1.00  0.00     0.210 HD
HETATM    8  N4  UNL     1      -1.225 -22.992  20.164  1.00  0.00    -0.252 N 
ENDROOT
BRANCH   1   9
HETATM    9  C4  UNL     1      -3.272 -22.186  21.412  1.00  0.00     0.014 A 
HETATM   10  C3  UNL     1      -4.304 -22.297  20.473  1.00  0.00     0.055 A 
HETATM   11  C2  UNL     1      -5.488 -21.637  20.596  1.00  0.00     0.102 A 
HETATM   12  C14 UNL     1      -5.731 -20.809  21.675  1.00  0.00     0.102 A 
HETATM   13  C13 UNL     1      -4.740 -20.682  22.607  1.00  0.00     0.040 A 
HETATM   14  C12 UNL     1      -3.521 -21.376  22.461  1.00  0.00     0.018 A 
BRANCH  11  15
HETATM   15  O1  UNL     1      -6.509 -21.767  19.637  1.00  0.00    -0.353 OA
HETATM   16  C1  UNL     1      -6.153 -21.566  18.289  1.00  0.00     0.210 C 
ENDBRANCH  11  15
BRANCH  12  17
HETATM   17  O2  UNL     1      -6.930 -20.155  21.777  1.00  0.00    -0.343 OA
BRANCH  17  18
HETATM   18  C15 UNL     1      -7.992 -20.415  22.644  1.00  0.00     0.129 C 
HETATM   19  C16 UNL     1      -9.265 -20.363  21.822  1.00  0.00     0.032 C 
HETATM   20  C17 UNL     1     -10.463 -20.865  22.554  1.00  0.00     0.002 C 
HETATM   21  C18 UNL     1     -10.229 -22.087  23.376  1.00  0.00     0.000 C 
HETATM   22  C19 UNL     1      -8.948 -22.044  24.175  1.00  0.00     0.002 C 
HETATM   23  C20 UNL     1      -7.820 -21.850  23.156  1.00  0.00     0.032 C 
ENDBRANCH  17  18
ENDBRANCH  12  17
ENDBRANCH   1   9
BRANCH   8  24
HETATM   24  C6  UNL     1      -1.213 -22.264  18.924  1.00  0.00     0.144 C 
HETATM   25  C7  UNL     1       0.267 -22.274  18.432  1.00  0.00     0.062 C 
HETATM   26  C8  UNL     1       0.830 -20.971  18.874  1.00  0.00     0.188 C 
HETATM   27  C9  UNL     1       0.449 -19.927  17.842  1.00  0.00     0.035 C 
HETATM   28  N5  UNL     1      -0.084 -20.584  19.955  1.00  0.00    -0.065 N 
HETATM   29  C10 UNL     1      -1.080 -20.040  17.944  1.00  0.00     0.037 C 
HETATM   30  C11 UNL     1      -1.335 -20.789  19.203  1.00  0.00     0.211 C 
ATOM     31  H52 UNL     1       0.011 -21.075  20.844  1.00  0.00     0.278 HD
ATOM     32  H51 UNL     1       0.059 -19.668  20.380  1.00  0.00     0.278 HD
ENDBRANCH   8  24
TORSDOF 5
ENDMDL
MODEL 2
REMARK VINA RESULT: -9.103095040      2.247      2.972
REMARK  5 active torsions:
REMARK  status: ('A' for Active; 'I' for Inactive)
REMARK    1  A    between atoms: O1_2  and  C2_3 
REMARK    2  A    between atoms: C4_5  and  C5_6 
REMARK    3  A    between atoms: N4_13  and  C6_14 
REMARK    4  A    between atoms: C14_25  and  O2_26 
REMARK    5  A    between atoms: O2_26  and  C15_27 
ROOT
HETATM    1  C5  UNL     1      -2.933 -23.787  22.474  1.00  0.00     0.150 A 
HETATM    2  N1  UNL     1      -3.562 -24.955  22.843  1.00  0.00    -0.268 N 
ATOM      3  H1  UNL     1      -4.572 -25.097  22.871  1.00  0.00     0.190 HD
HETATM    4  N2  UNL     1      -2.673 -25.845  23.149  1.00  0.00    -0.226 N 
ATOM      5  H2  UNL     1      -2.857 -26.799  23.456  1.00  0.00     0.210 HD
HETATM    6  N3  UNL     1      -1.491 -25.295  22.991  1.00  0.00    -0.224 N 
ATOM      7  H3  UNL     1      -0.600 -25.762  23.158  1.00  0.00     0.210 HD
HETATM    8  N4  UNL     1      -1.631 -24.020  22.573  1.00  0.00    -0.252 N 
ENDROOT
BRANCH   1   9
HETATM    9  C4  UNL     1      -3.656 -22.599  22.043  1.00  0.00     0.014 A 
HETATM   10  C3  UNL     1      -4.024 -22.510  20.696  1.00  0.00     0.055 A 
HETATM   11  C2  UNL     1      -4.727 -21.460  20.191  1.00  0.00     0.102 A 
HETATM   12  C14 UNL     1      -5.117 -20.411  21.001  1.00  0.00     0.102 A 
HETATM   13  C13 UNL     1      -4.771 -20.472  22.322  1.00  0.00     0.040 A 
HETATM   14  C12 UNL     1      -4.042 -21.570  22.825  1.00  0.00     0.018 A 
BRANCH  11  15
HETATM   15  O1  UNL     1      -5.085 -21.395  18.832  1.00  0.00    -0.353 OA
HETATM   16  C1  UNL     1      -6.241 -22.095  18.438  1.00  0.00     0.210 C 
ENDBRANCH  11  15
BRANCH  12  17
HETATM   17  O2  UNL     1      -5.824 -19.364  20.471  1.00  0.00    -0.343 OA
BRANCH  17  18
HETATM   18  C15 UNL     1      -7.166 -19.035  20.662  1.00  0.00     0.129 C 
HETATM   19  C16 UNL     1      -7.784 -18.851  19.289  1.00  0.00     0.032 C 
HETATM   20  C17 UNL     1      -9.270 -18.741  19.319  1.00  0.00     0.002 C 
HETATM   21  C18 UNL     1      -9.950 -19.683  20.254  1.00  0.00     0.000 C 
HETATM   22  C19 UNL     1      -9.278 -19.789  21.603  1.00  0.00     0.002 C 
HETATM   23  C20 UNL     1      -7.841 -20.242  21.325  1.00  0.00     0.032 C 
ENDBRANCH  17  18
ENDBRANCH  12  17
ENDBRANCH   1   9
BRANCH   8  24
HETATM   24  C6  UNL     1      -0.490 -23.191  22.297  1.00  0.00     0.144 C 
HETATM   25  C7  UNL     1      -0.543 -22.876  20.771  1.00  0.00     0.062 C 
HETATM   26  C8  UNL     1       0.377 -23.859  20.141  1.00  0.00     0.188 C 
HETATM   27  C9  UNL     1       1.786 -23.311  20.248  1.00  0.00     0.035 C 
HETATM   28  N5  UNL     1       0.452 -24.915  21.158  1.00  0.00    -0.065 N 
HETATM   29  C10 UNL     1       1.888 -23.217  21.779  1.00  0.00     0.037 C 
HETATM   30  C11 UNL     1       0.759 -24.033  22.298  1.00  0.00     0.211 C 
ATOM     31  H52 UNL     1      -0.354 -25.532  21.250  1.00  0.00     0.278 HD
ATOM     32  H51 UNL     1       1.095 -25.687  20.980  1.00  0.00     0.278 HD
ENDBRANCH   8  24
TORSDOF 5
ENDMDL
MODEL 3
REMARK VINA RESULT: -9.035687655      1.514      2.170
REMARK  5 active torsions:
REMARK  status: ('A' for Active; 'I' for Inactive)
REMARK    1  A    between atoms: O1_2  and  C2_3 
REMARK    2  A    between atoms: C4_5  and  C5_6 
REMARK    3  A    between atoms: N4_13  and  C6_14 
REMARK    4  A    between atoms: C14_25  and  O2_26 
REMARK    5  A    between atoms: O2_26  and  C15_27 
ROOT
HETATM    1  C5  UNL     1      -2.124 -23.263  21.879  1.00  0.00     0.150 A 
HETATM    2  N1  UNL     1      -1.400 -24.067  22.731  1.00  0.00    -0.268 N 
ATOM      3  H1  UNL     1      -1.656 -24.286  23.694  1.00  0.00     0.190 HD
HETATM    4  N2  UNL     1      -0.347 -24.503  22.119  1.00  0.00    -0.226 N 
ATOM      5  H2  UNL     1       0.366 -25.117  22.512  1.00  0.00     0.210 HD
HETATM    6  N3  UNL     1      -0.361 -24.010  20.903  1.00  0.00    -0.224 N 
ATOM      7  H3  UNL     1       0.348 -24.184  20.191  1.00  0.00     0.210 HD
HETATM    8  N4  UNL     1      -1.455 -23.239  20.735  1.00  0.00    -0.252 N 
ENDROOT
BRANCH   1   9
HETATM    9  C4  UNL     1      -3.384 -22.639  22.257  1.00  0.00     0.014 A 
HETATM   10  C3  UNL     1      -4.486 -23.473  22.483  1.00  0.00     0.055 A 
HETATM   11  C2  UNL     1      -5.702 -23.000  22.869  1.00  0.00     0.102 A 
HETATM   12  C14 UNL     1      -5.912 -21.647  23.058  1.00  0.00     0.102 A 
HETATM   13  C13 UNL     1      -4.852 -20.810  22.844  1.00  0.00     0.040 A 
HETATM   14  C12 UNL     1      -3.600 -21.321  22.445  1.00  0.00     0.018 A 
BRANCH  11  15
HETATM   15  O1  UNL     1      -6.793 -23.861  23.089  1.00  0.00    -0.353 OA
HETATM   16  C1  UNL     1      -6.580 -24.963  23.938  1.00  0.00     0.210 C 
ENDBRANCH  11  15
BRANCH  12  17
HETATM   17  O2  UNL     1      -7.144 -21.195  23.446  1.00  0.00    -0.343 OA
BRANCH  17  18
HETATM   18  C15 UNL     1      -8.029 -20.371  22.748  1.00  0.00     0.129 C 
HETATM   19  C16 UNL     1      -7.495 -20.236  21.335  1.00  0.00     0.032 C 
HETATM   20  C17 UNL     1      -8.459 -19.592  20.397  1.00  0.00     0.002 C 
HETATM   21  C18 UNL     1      -9.875 -20.031  20.554  1.00  0.00     0.000 C 
HETATM   22  C19 UNL     1     -10.327 -20.120  21.993  1.00  0.00     0.002 C 
HETATM   23  C20 UNL     1      -9.373 -21.106  22.675  1.00  0.00     0.032 C 
ENDBRANCH  17  18
ENDBRANCH  12  17
ENDBRANCH   1   9
BRANCH   8  24
HETATM   24  C6  UNL     1      -1.733 -22.593  19.481  1.00  0.00     0.144 C 
HETATM   25  C7  UNL     1      -0.361 -22.462  18.749  1.00  0.00     0.062 C 
HETATM   26  C8  UNL     1       0.099 -21.078  19.035  1.00  0.00     0.188 C 
HETATM   27  C9  UNL     1      -0.569 -20.152  18.039  1.00  0.00     0.035 C 
HETATM   28  N5  UNL     1      -0.670 -20.733  20.236  1.00  0.00    -0.065 N 
HETATM   29  C10 UNL     1      -2.036 -20.433  18.399  1.00  0.00     0.037 C 
HETATM   30  C11 UNL     1      -1.991 -21.127  19.714  1.00  0.00     0.211 C 
ATOM     31  H52 UNL     1      -0.373 -21.153  21.117  1.00  0.00     0.278 HD
ATOM     32  H51 UNL     1      -0.575 -19.782  20.593  1.00  0.00     0.278 HD
ENDBRANCH   8  24
TORSDOF 5
ENDMDL
MODEL 4
REMARK VINA RESULT: -8.997290638      1.562      1.916
REMARK  5 active torsions:
REMARK  status: ('A' for Active; 'I' for Inactive)
REMARK    1  A    between atoms: O1_2  and  C2_3 
REMARK    2  A    between atoms: C4_5  and  C5_6 
REMARK    3  A    between atoms: N4_13  and  C6_14 
REMARK    4  A    between atoms: C14_25  and  O2_26 
REMARK    5  A    between atoms: O2_26  and  C15_27 
ROOT
HETATM    1  C5  UNL     1      -2.233 -22.662  21.392  1.00  0.00     0.150 A 
HETATM    2  N1  UNL     1      -2.328 -23.481  22.494  1.00  0.00    -0.268 N 
ATOM      3  H1  UNL     1      -3.058 -23.430  23.205  1.00  0.00     0.190 HD
HETATM    4  N2  UNL     1      -1.348 -24.327  22.488  1.00  0.00    -0.226 N 
ATOM      5  H2  UNL     1      -1.172 -25.050  23.185  1.00  0.00     0.210 HD
HETATM    6  N3  UNL     1      -0.622 -24.084  21.421  1.00  0.00    -0.224 N 
ATOM      7  H3  UNL     1       0.219 -24.597  21.156  1.00  0.00     0.210 HD
HETATM    8  N4  UNL     1      -1.154 -23.056  20.729  1.00  0.00    -0.252 N 
ENDROOT
BRANCH   1   9
HETATM    9  C4  UNL     1      -3.205 -21.619  21.092  1.00  0.00     0.014 A 
HETATM   10  C3  UNL     1      -3.907 -21.707  19.884  1.00  0.00     0.055 A 
HETATM   11  C2  UNL     1      -4.858 -20.805  19.517  1.00  0.00     0.102 A 
HETATM   12  C14 UNL     1      -5.181 -19.739  20.335  1.00  0.00     0.102 A 
HETATM   13  C13 UNL     1      -4.510 -19.631  21.522  1.00  0.00     0.040 A 
HETATM   14  C12 UNL     1      -3.528 -20.576  21.883  1.00  0.00     0.018 A 
BRANCH  11  15
HETATM   15  O1  UNL     1      -5.549 -20.916  18.297  1.00  0.00    -0.353 OA
HETATM   16  C1  UNL     1      -6.454 -21.987  18.167  1.00  0.00     0.210 C 
ENDBRANCH  11  15
BRANCH  12  17
HETATM   17  O2  UNL     1      -6.141 -18.845  19.945  1.00  0.00    -0.343 OA
BRANCH  17  18
HETATM   18  C15 UNL     1      -7.448 -18.711  20.414  1.00  0.00     0.129 C 
HETATM   19  C16 UNL     1      -8.375 -19.020  19.254  1.00  0.00     0.032 C 
HETATM   20  C17 UNL     1      -9.803 -19.164  19.659  1.00  0.00     0.002 C 
HETATM   21  C18 UNL     1     -10.022 -19.915  20.928  1.00  0.00     0.000 C 
HETATM   22  C19 UNL     1      -9.067 -19.530  22.033  1.00  0.00     0.002 C 
HETATM   23  C20 UNL     1      -7.659 -19.788  21.485  1.00  0.00     0.032 C 
ENDBRANCH  17  18
ENDBRANCH  12  17
ENDBRANCH   1   9
BRANCH   8  24
HETATM   24  C6  UNL     1      -0.569 -22.596  19.500  1.00  0.00     0.144 C 
HETATM   25  C7  UNL     1       0.885 -23.160  19.476  1.00  0.00     0.062 C 
HETATM   26  C8  UNL     1       1.739 -22.047  19.967  1.00  0.00     0.188 C 
HETATM   27  C9  UNL     1       2.030 -21.132  18.794  1.00  0.00     0.035 C 
HETATM   28  N5  UNL     1       0.777 -21.209  20.693  1.00  0.00    -0.065 N 
HETATM   29  C10 UNL     1       0.588 -20.733  18.441  1.00  0.00     0.037 C 
HETATM   30  C11 UNL     1      -0.228 -21.133  19.618  1.00  0.00     0.211 C 
ATOM     31  H52 UNL     1       0.463 -21.543  21.603  1.00  0.00     0.278 HD
ATOM     32  H51 UNL     1       1.122 -20.327  21.072  1.00  0.00     0.278 HD
ENDBRANCH   8  24
TORSDOF 5
ENDMDL
MODEL 5
REMARK VINA RESULT: -8.819020468      4.001      7.752
REMARK  5 active torsions:
REMARK  status: ('A' for Active; 'I' for Inactive)
REMARK    1  A    between atoms: O1_2  and  C2_3 
REMARK    2  A    between atoms: C4_5  and  C5_6 
REMARK    3  A    between atoms: N4_13  and  C6_14 
REMARK    4  A    between atoms: C14_25  and  O2_26 
REMARK    5  A    between atoms: O2_26  and  C15_27 
ROOT
HETATM    1  C5  UNL     1      -7.336 -22.033  23.320  1.00  0.00     0.150 A 
HETATM    2  N1  UNL     1      -7.978 -23.033  24.016  1.00  0.00    -0.268 N 
ATOM      3  H1  UNL     1      -7.538 -23.884  24.365  1.00  0.00     0.190 HD
HETATM    4  N2  UNL     1      -9.226 -22.723  24.159  1.00  0.00    -0.226 N 
ATOM      5  H2  UNL     1      -9.934 -23.282  24.635  1.00  0.00     0.210 HD
HETATM    6  N3  UNL     1      -9.416 -21.560  23.581  1.00  0.00    -0.224 N 
ATOM      7  H3  UNL     1     -10.307 -21.066  23.536  1.00  0.00     0.210 HD
HETATM    8  N4  UNL     1      -8.256 -21.116  23.055  1.00  0.00    -0.252 N 
ENDROOT
BRANCH   1   9
HETATM    9  C4  UNL     1      -5.911 -22.066  23.019  1.00  0.00     0.014 A 
HETATM   10  C3  UNL     1      -5.308 -23.316  22.839  1.00  0.00     0.055 A 
HETATM   11  C2  UNL     1      -3.992 -23.462  22.526  1.00  0.00     0.102 A 
HETATM   12  C14 UNL     1      -3.172 -22.361  22.369  1.00  0.00     0.102 A 
HETATM   13  C13 UNL     1      -3.736 -21.127  22.539  1.00  0.00     0.040 A 
HETATM   14  C12 UNL     1      -5.102 -20.998  22.863  1.00  0.00     0.018 A 
BRANCH  11  15
HETATM   15  O1  UNL     1      -3.411 -24.731  22.351  1.00  0.00    -0.353 OA
HETATM   16  C1  UNL     1      -3.200 -25.506  23.507  1.00  0.00     0.210 C 
ENDBRANCH  11  15
BRANCH  12  17
HETATM   17  O2  UNL     1      -1.851 -22.533  22.054  1.00  0.00    -0.343 OA
BRANCH  17  18
HETATM   18  C15 UNL     1      -1.123 -21.960  21.010  1.00  0.00     0.129 C 
HETATM   19  C16 UNL     1       0.329 -22.350  21.208  1.00  0.00     0.032 C 
HETATM   20  C17 UNL     1       1.194 -22.025  20.038  1.00  0.00     0.002 C 
HETATM   21  C18 UNL     1       0.584 -22.312  18.708  1.00  0.00     0.000 C 
HETATM   22  C19 UNL     1      -0.857 -21.874  18.594  1.00  0.00     0.002 C 
HETATM   23  C20 UNL     1      -1.611 -22.608  19.708  1.00  0.00     0.032 C 
ENDBRANCH  17  18
ENDBRANCH  12  17
ENDBRANCH   1   9
BRANCH   8  24
HETATM   24  C6  UNL     1      -8.173 -19.849  22.382  1.00  0.00     0.144 C 
HETATM   25  C7  UNL     1      -9.638 -19.459  22.012  1.00  0.00     0.062 C 
HETATM   26  C8  UNL     1      -9.804 -19.879  20.596  1.00  0.00     0.188 C 
HETATM   27  C9  UNL     1      -9.245 -18.778  19.717  1.00  0.00     0.035 C 
HETATM   28  N5  UNL     1      -8.740 -20.877  20.437  1.00  0.00    -0.065 N 
HETATM   29  C10 UNL     1      -7.795 -18.781  20.227  1.00  0.00     0.037 C 
HETATM   30  C11 UNL     1      -7.648 -20.052  20.984  1.00  0.00     0.211 C 
ATOM     31  H52 UNL     1      -8.891 -21.791  20.862  1.00  0.00     0.278 HD
ATOM     32  H51 UNL     1      -8.605 -21.270  19.505  1.00  0.00     0.278 HD
ENDBRANCH   8  24
TORSDOF 5
ENDMDL
