MODEL 1
REMARK VINA RESULT: -9.702544333      0.000      0.000
REMARK  7 active torsions:
REMARK  status: ('A' for Active; 'I' for Inactive)
REMARK       I    between atoms: C1_2  and  N1_3 
REMARK    1  A    between atoms: C1_2  and  C7_12 
REMARK    2  A    between atoms: N1_3  and  C2_5 
REMARK    3  A    between atoms: C8_13  and  C9_14 
REMARK       I    between atoms: C9_14  and  N3_16 
REMARK    4  A    between atoms: N3_16  and  C10_18 
REMARK    5  A    between atoms: C10_18  and  C11_19 
REMARK    6  A    between atoms: C13_21  and  O3_22 
REMARK       I    between atoms: N4_30  and  C17_31 
REMARK    7  A    between atoms: C17_31  and  C18_33 
ROOT
HETATM    1  C7  UNL     1      -9.388  16.084   4.463  1.00  0.00     0.212 A 
HETATM    2  C8  UNL     1      -8.788  17.394   4.102  1.00  0.00     0.212 A 
HETATM    3  N4  UNL     1      -8.118  16.123   3.756  1.00  0.00    -0.320 N 
HETATM    4  C17 UNL     1      -7.014  15.459   3.156  1.00  0.00     0.226 C 
HETATM    5  O4  UNL     1      -7.021  14.208   3.188  1.00  0.00    -0.273 OA
ENDROOT
BRANCH   2   6
HETATM    6  C9  UNL     1      -9.329  18.151   2.911  1.00  0.00     0.246 C 
HETATM    7  O2  UNL     1      -8.463  18.576   2.111  1.00  0.00    -0.271 OA
HETATM    8  N3  UNL     1     -10.709  18.317   2.795  1.00  0.00    -0.339 N 
ATOM      9  H3  UNL     1     -11.255  17.914   3.556  1.00  0.00     0.167 HD
BRANCH   8  10
HETATM   10  C10 UNL     1     -11.465  18.950   1.799  1.00  0.00     0.068 C 
BRANCH  10  11
HETATM   11  C11 UNL     1     -12.510  18.215   1.036  1.00  0.00     0.028 C 
HETATM   12  C12 UNL     1     -12.396  18.568  -0.455  1.00  0.00     0.046 C 
HETATM   13  C13 UNL     1     -12.062  17.352  -1.265  1.00  0.00     0.171 C 
HETATM   14  C14 UNL     1     -13.213  16.350  -1.178  1.00  0.00     0.202 C 
HETATM   15  F1  UNL     1     -12.741  15.145  -1.604  1.00  0.00    -0.226 F 
HETATM   16 BR1  UNL     1     -14.589  16.958  -2.393  1.00  0.00    -0.044 Br
HETATM   17  C15 UNL     1     -13.735  16.276   0.238  1.00  0.00     0.136 C 
HETATM   18 CL1  UNL     1     -15.103  17.394   0.383  1.00  0.00    -0.121 Cl
HETATM   19  C16 UNL     1     -12.648  16.752   1.233  1.00  0.00     0.034 C 
BRANCH  13  20
HETATM   20  O3  UNL     1     -11.964  17.717  -2.605  1.00  0.00    -0.391 OA
ATOM     21  H3  UNL     1     -11.048  17.714  -2.857  1.00  0.00     0.210 HD
ENDBRANCH  13  20
ENDBRANCH  10  11
ENDBRANCH   8  10
ENDBRANCH   2   6
BRANCH   1  22
HETATM   22  C1  UNL     1      -9.227  15.644   5.906  1.00  0.00     0.248 C 
HETATM   23  O1  UNL     1      -9.812  16.341   6.763  1.00  0.00    -0.271 OA
HETATM   24  N1  UNL     1      -8.475  14.540   6.200  1.00  0.00    -0.311 N 
ATOM     25  H1  UNL     1      -8.211  13.992   5.381  1.00  0.00     0.170 HD
BRANCH  24  26
HETATM   26  C2  UNL     1      -8.053  14.078   7.265  1.00  0.00     0.107 A 
HETATM   27  C3  UNL     1      -6.777  13.651   7.495  1.00  0.00     0.048 A 
HETATM   28  C4  UNL     1      -6.383  13.145   8.746  1.00  0.00     0.005 A 
HETATM   29  C5  UNL     1      -7.320  13.088   9.747  1.00  0.00     0.017 A 
HETATM   30  C6  UNL     1      -8.606  13.524   9.499  1.00  0.00     0.089 A 
HETATM   31  N2  UNL     1      -8.946  13.997   8.304  1.00  0.00    -0.352 N 
ATOM     32  H2  UNL     1      -9.904  14.310   8.154  1.00  0.00     0.166 HD
ENDBRANCH  24  26
ENDBRANCH   1  22
BRANCH   4  33
HETATM   33  C18 UNL     1      -5.952  16.240   2.546  1.00  0.00     0.082 C 
HETATM   34  C19 UNL     1      -5.482  17.400   3.433  1.00  0.00     0.019 C 
HETATM   35  C20 UNL     1      -3.993  17.263   3.427  1.00  0.00    -0.013 C 
HETATM   36  C21 UNL     1      -3.639  16.035   4.235  1.00  0.00     0.005 C 
HETATM   37  C24 UNL     1      -3.761  16.725   2.002  1.00  0.00     0.010 C 
HETATM   38  C22 UNL     1      -3.996  14.873   3.346  1.00  0.00     0.006 C 
HETATM   39  C23 UNL     1      -4.704  15.509   2.182  1.00  0.00    -0.001 C 
ENDBRANCH   4  33
TORSDOF 7
ENDMDL
MODEL 2
REMARK VINA RESULT: -9.590524075      5.150      9.198
REMARK  7 active torsions:
REMARK  status: ('A' for Active; 'I' for Inactive)
REMARK       I    between atoms: C1_2  and  N1_3 
REMARK    1  A    between atoms: C1_2  and  C7_12 
REMARK    2  A    between atoms: N1_3  and  C2_5 
REMARK    3  A    between atoms: C8_13  and  C9_14 
REMARK       I    between atoms: C9_14  and  N3_16 
REMARK    4  A    between atoms: N3_16  and  C10_18 
REMARK    5  A    between atoms: C10_18  and  C11_19 
REMARK    6  A    between atoms: C13_21  and  O3_22 
REMARK       I    between atoms: N4_30  and  C17_31 
REMARK    7  A    between atoms: C17_31  and  C18_33 
ROOT
HETATM    1  C7  UNL     1      -8.730  17.377   4.291  1.00  0.00     0.212 A 
HETATM    2  C8  UNL     1      -9.498  16.113   4.427  1.00  0.00     0.212 A 
HETATM    3  N4  UNL     1      -8.080  16.106   4.010  1.00  0.00    -0.320 N 
HETATM    4  C17 UNL     1      -6.936  15.361   3.620  1.00  0.00     0.226 C 
HETATM    5  O4  UNL     1      -5.899  16.011   3.359  1.00  0.00    -0.273 OA
ENDROOT
BRANCH   2   6
HETATM    6  C9  UNL     1      -9.740  15.540   5.804  1.00  0.00     0.246 C 
HETATM    7  O2  UNL     1     -10.944  15.444   6.138  1.00  0.00    -0.271 OA
HETATM    8  N3  UNL     1      -8.639  15.172   6.578  1.00  0.00    -0.339 N 
ATOM      9  H3  UNL     1      -7.733  15.341   6.143  1.00  0.00     0.167 HD
BRANCH   8  10
HETATM   10  C10 UNL     1      -8.581  14.608   7.860  1.00  0.00     0.068 C 
BRANCH  10  11
HETATM   11  C11 UNL     1      -7.289  14.175   8.457  1.00  0.00     0.028 C 
HETATM   12  C12 UNL     1      -7.083  14.890   9.801  1.00  0.00     0.046 C 
HETATM   13  C13 UNL     1      -7.035  13.903  10.928  1.00  0.00     0.171 C 
HETATM   14  C14 UNL     1      -5.812  13.001  10.763  1.00  0.00     0.202 C 
HETATM   15  F1  UNL     1      -5.992  11.914  11.565  1.00  0.00    -0.226 F 
HETATM   16 BR1  UNL     1      -4.280  14.003  11.385  1.00  0.00    -0.044 Br
HETATM   17  C15 UNL     1      -5.647  12.604   9.314  1.00  0.00     0.136 C 
HETATM   18 CL1  UNL     1      -4.526  13.745   8.551  1.00  0.00    -0.121 Cl
HETATM   19  C16 UNL     1      -7.000  12.725   8.571  1.00  0.00     0.034 C 
BRANCH  13  20
HETATM   20  O3  UNL     1      -6.852  14.592  12.123  1.00  0.00    -0.391 OA
ATOM     21  H3  UNL     1      -7.637  14.505  12.650  1.00  0.00     0.210 HD
ENDBRANCH  13  20
ENDBRANCH  10  11
ENDBRANCH   8  10
ENDBRANCH   2   6
BRANCH   1  22
HETATM   22  C1  UNL     1      -8.978  18.185   3.031  1.00  0.00     0.248 C 
HETATM   23  O1  UNL     1      -8.020  18.267   2.232  1.00  0.00    -0.271 OA
HETATM   24  N1  UNL     1     -10.197  18.770   2.828  1.00  0.00    -0.311 N 
ATOM     25  H1  UNL     1     -10.913  18.466   3.486  1.00  0.00     0.170 HD
BRANCH  24  26
HETATM   26  C2  UNL     1     -10.598  19.596   2.001  1.00  0.00     0.107 A 
HETATM   27  C3  UNL     1     -11.315  20.722   2.288  1.00  0.00     0.048 A 
HETATM   28  C4  UNL     1     -11.724  21.612   1.279  1.00  0.00     0.005 A 
HETATM   29  C5  UNL     1     -11.383  21.322  -0.018  1.00  0.00     0.017 A 
HETATM   30  C6  UNL     1     -10.658  20.180  -0.292  1.00  0.00     0.089 A 
HETATM   31  N2  UNL     1     -10.287  19.359   0.686  1.00  0.00    -0.352 N 
ATOM     32  H2  UNL     1      -9.753  18.523   0.450  1.00  0.00     0.166 HD
ENDBRANCH  24  26
ENDBRANCH   1  22
BRANCH   4  33
HETATM   33  C18 UNL     1      -7.014  13.912   3.543  1.00  0.00     0.082 C 
HETATM   34  C19 UNL     1      -6.077  13.321   2.482  1.00  0.00     0.019 C 
HETATM   35  C20 UNL     1      -5.370  12.224   3.213  1.00  0.00    -0.013 C 
HETATM   36  C21 UNL     1      -4.424  12.863   4.203  1.00  0.00     0.005 C 
HETATM   37  C24 UNL     1      -6.484  11.753   4.167  1.00  0.00     0.010 C 
HETATM   38  C22 UNL     1      -5.310  13.365   5.313  1.00  0.00     0.006 C 
HETATM   39  C23 UNL     1      -6.704  13.155   4.789  1.00  0.00    -0.001 C 
ENDBRANCH   4  33
TORSDOF 7
ENDMDL
MODEL 3
REMARK VINA RESULT: -9.585264530      5.109      9.150
REMARK  7 active torsions:
REMARK  status: ('A' for Active; 'I' for Inactive)
REMARK       I    between atoms: C1_2  and  N1_3 
REMARK    1  A    between atoms: C1_2  and  C7_12 
REMARK    2  A    between atoms: N1_3  and  C2_5 
REMARK    3  A    between atoms: C8_13  and  C9_14 
REMARK       I    between atoms: C9_14  and  N3_16 
REMARK    4  A    between atoms: N3_16  and  C10_18 
REMARK    5  A    between atoms: C10_18  and  C11_19 
REMARK    6  A    between atoms: C13_21  and  O3_22 
REMARK       I    between atoms: N4_30  and  C17_31 
REMARK    7  A    between atoms: C17_31  and  C18_33 
ROOT
HETATM    1  C7  UNL     1      -9.658  16.900   4.524  1.00  0.00     0.212 A 
HETATM    2  C8  UNL     1      -9.712  15.658   5.337  1.00  0.00     0.212 A 
HETATM    3  N4  UNL     1      -8.670  15.855   4.308  1.00  0.00    -0.320 N 
HETATM    4  C17 UNL     1      -7.530  15.351   3.626  1.00  0.00     0.226 C 
HETATM    5  O4  UNL     1      -7.032  16.081   2.740  1.00  0.00    -0.273 OA
ENDROOT
BRANCH   2   6
HETATM    6  C9  UNL     1      -9.192  15.680   6.756  1.00  0.00     0.246 C 
HETATM    7  O2  UNL     1      -9.474  16.710   7.411  1.00  0.00    -0.271 OA
HETATM    8  N3  UNL     1      -8.460  14.586   7.216  1.00  0.00    -0.339 N 
ATOM      9  H3  UNL     1      -8.318  13.845   6.530  1.00  0.00     0.167 HD
BRANCH   8  10
HETATM   10  C10 UNL     1      -7.888  14.342   8.472  1.00  0.00     0.068 C 
BRANCH  10  11
HETATM   11  C11 UNL     1      -6.492  13.846   8.604  1.00  0.00     0.028 C 
HETATM   12  C12 UNL     1      -5.872  14.404   9.895  1.00  0.00     0.046 C 
HETATM   13  C13 UNL     1      -5.523  13.295  10.841  1.00  0.00     0.171 C 
HETATM   14  C14 UNL     1      -4.434  12.421  10.220  1.00  0.00     0.202 C 
HETATM   15  F1  UNL     1      -4.403  11.249  10.916  1.00  0.00    -0.226 F 
HETATM   16 BR1  UNL     1      -2.754  13.347  10.460  1.00  0.00    -0.044 Br
HETATM   17  C15 UNL     1      -4.721  12.191   8.754  1.00  0.00     0.136 C 
HETATM   18 CL1  UNL     1      -3.842  13.413   7.820  1.00  0.00    -0.121 Cl
HETATM   19  C16 UNL     1      -6.229  12.393   8.468  1.00  0.00     0.034 C 
BRANCH  13  20
HETATM   20  O3  UNL     1      -4.971  13.845  11.994  1.00  0.00    -0.391 OA
ATOM     21  H3  UNL     1      -4.031  13.920  11.878  1.00  0.00     0.210 HD
ENDBRANCH  13  20
ENDBRANCH  10  11
ENDBRANCH   8  10
ENDBRANCH   2   6
BRANCH   1  22
HETATM   22  C1  UNL     1     -10.646  17.000   3.378  1.00  0.00     0.248 C 
HETATM   23  O1  UNL     1     -10.324  17.758   2.438  1.00  0.00    -0.271 OA
HETATM   24  N1  UNL     1     -11.809  16.282   3.419  1.00  0.00    -0.311 N 
ATOM     25  H1  UNL     1     -11.839  15.589   4.166  1.00  0.00     0.170 HD
BRANCH  24  26
HETATM   26  C2  UNL     1     -12.831  16.309   2.725  1.00  0.00     0.107 A 
HETATM   27  C3  UNL     1     -13.579  15.224   2.369  1.00  0.00     0.048 A 
HETATM   28  C4  UNL     1     -14.736  15.352   1.580  1.00  0.00     0.005 A 
HETATM   29  C5  UNL     1     -15.104  16.609   1.170  1.00  0.00     0.017 A 
HETATM   30  C6  UNL     1     -14.338  17.696   1.539  1.00  0.00     0.089 A 
HETATM   31  N2  UNL     1     -13.250  17.540   2.285  1.00  0.00    -0.352 N 
ATOM     32  H2  UNL     1     -12.706  18.364   2.540  1.00  0.00     0.166 HD
ENDBRANCH  24  26
ENDBRANCH   1  22
BRANCH   4  33
HETATM   33  C18 UNL     1      -7.003  14.044   3.977  1.00  0.00     0.082 C 
HETATM   34  C19 UNL     1      -6.458  13.278   2.765  1.00  0.00     0.019 C 
HETATM   35  C20 UNL     1      -5.112  12.812   3.222  1.00  0.00    -0.013 C 
HETATM   36  C21 UNL     1      -4.211  14.022   3.310  1.00  0.00     0.005 C 
HETATM   37  C24 UNL     1      -5.387  12.570   4.718  1.00  0.00     0.010 C 
HETATM   38  C22 UNL     1      -4.656  14.745   4.554  1.00  0.00     0.006 C 
HETATM   39  C23 UNL     1      -5.898  14.010   4.977  1.00  0.00    -0.001 C 
ENDBRANCH   4  33
TORSDOF 7
ENDMDL
MODEL 4
REMARK VINA RESULT: -9.475817563      5.857      8.986
REMARK  7 active torsions:
REMARK  status: ('A' for Active; 'I' for Inactive)
REMARK       I    between atoms: C1_2  and  N1_3 
REMARK    1  A    between atoms: C1_2  and  C7_12 
REMARK    2  A    between atoms: N1_3  and  C2_5 
REMARK    3  A    between atoms: C8_13  and  C9_14 
REMARK       I    between atoms: C9_14  and  N3_16 
REMARK    4  A    between atoms: N3_16  and  C10_18 
REMARK    5  A    between atoms: C10_18  and  C11_19 
REMARK    6  A    between atoms: C13_21  and  O3_22 
REMARK       I    between atoms: N4_30  and  C17_31 
REMARK    7  A    between atoms: C17_31  and  C18_33 
ROOT
HETATM    1  C7  UNL     1      -3.720  12.622  11.598  1.00  0.00     0.212 A 
HETATM    2  C8  UNL     1      -4.060  11.887  10.354  1.00  0.00     0.212 A 
HETATM    3  N4  UNL     1      -4.987  12.882  10.934  1.00  0.00    -0.320 N 
HETATM    4  C17 UNL     1      -6.227  13.570  10.859  1.00  0.00     0.226 C 
HETATM    5  O4  UNL     1      -6.470  14.399  11.765  1.00  0.00    -0.273 OA
ENDROOT
BRANCH   2   6
HETATM    6  C9  UNL     1      -3.433  12.314   9.047  1.00  0.00     0.246 C 
HETATM    7  O2  UNL     1      -2.185  12.210   8.996  1.00  0.00    -0.271 OA
HETATM    8  N3  UNL     1      -4.263  12.778   8.027  1.00  0.00    -0.339 N 
ATOM      9  H3  UNL     1      -5.255  12.806   8.262  1.00  0.00     0.167 HD
BRANCH   8  10
HETATM   10  C10 UNL     1      -3.951  13.211   6.732  1.00  0.00     0.068 C 
BRANCH  10  11
HETATM   11  C11 UNL     1      -5.010  13.662   5.790  1.00  0.00     0.028 C 
HETATM   12  C12 UNL     1      -4.386  14.562   4.713  1.00  0.00     0.046 C 
HETATM   13  C13 UNL     1      -4.535  13.948   3.353  1.00  0.00     0.171 C 
HETATM   14  C14 UNL     1      -6.018  13.863   2.993  1.00  0.00     0.202 C 
HETATM   15  F1  UNL     1      -6.138  12.993   1.951  1.00  0.00    -0.226 F 
HETATM   16 BR1  UNL     1      -6.565  15.625   2.415  1.00  0.00    -0.044 Br
HETATM   17  C15 UNL     1      -6.822  13.413   4.192  1.00  0.00     0.136 C 
HETATM   18 CL1  UNL     1      -7.424  14.854   5.028  1.00  0.00    -0.121 Cl
HETATM   19  C16 UNL     1      -5.913  12.651   5.187  1.00  0.00     0.034 C 
BRANCH  13  20
HETATM   20  O3  UNL     1      -3.954  14.793   2.412  1.00  0.00    -0.391 OA
ATOM     21  H3  UNL     1      -4.454  14.745   1.606  1.00  0.00     0.210 HD
ENDBRANCH  13  20
ENDBRANCH  10  11
ENDBRANCH   8  10
ENDBRANCH   2   6
BRANCH   1  22
HETATM   22  C1  UNL     1      -3.900  11.866  12.901  1.00  0.00     0.248 C 
HETATM   23  O1  UNL     1      -2.854  11.450  13.445  1.00  0.00    -0.271 OA
HETATM   24  N1  UNL     1      -5.155  11.676  13.409  1.00  0.00    -0.311 N 
ATOM     25  H1  UNL     1      -5.876  12.221  12.937  1.00  0.00     0.170 HD
BRANCH  24  26
HETATM   26  C2  UNL     1      -5.585  10.973  14.330  1.00  0.00     0.107 A 
HETATM   27  C3  UNL     1      -6.751  11.180  15.009  1.00  0.00     0.048 A 
HETATM   28  C4  UNL     1      -7.165  10.320  16.041  1.00  0.00     0.005 A 
HETATM   29  C5  UNL     1      -6.364   9.252  16.356  1.00  0.00     0.017 A 
HETATM   30  C6  UNL     1      -5.188   9.056  15.660  1.00  0.00     0.089 A 
HETATM   31  N2  UNL     1      -4.825   9.889  14.689  1.00  0.00    -0.352 N 
ATOM     32  H2  UNL     1      -3.950   9.716  14.195  1.00  0.00     0.166 HD
ENDBRANCH  24  26
ENDBRANCH   1  22
BRANCH   4  33
HETATM   33  C18 UNL     1      -7.138  13.292   9.762  1.00  0.00     0.082 C 
HETATM   34  C19 UNL     1      -8.544  12.908  10.240  1.00  0.00     0.019 C 
HETATM   35  C20 UNL     1      -9.442  13.777   9.417  1.00  0.00    -0.013 C 
HETATM   36  C21 UNL     1      -9.279  15.199   9.902  1.00  0.00     0.005 C 
HETATM   37  C24 UNL     1      -8.644  13.847   8.101  1.00  0.00     0.010 C 
HETATM   38  C22 UNL     1      -7.946  15.642   9.360  1.00  0.00     0.006 C 
HETATM   39  C23 UNL     1      -7.357  14.388   8.775  1.00  0.00    -0.001 C 
ENDBRANCH   4  33
TORSDOF 7
ENDMDL
MODEL 5
REMARK VINA RESULT: -9.372560671      5.365      9.082
REMARK  7 active torsions:
REMARK  status: ('A' for Active; 'I' for Inactive)
REMARK       I    between atoms: C1_2  and  N1_3 
REMARK    1  A    between atoms: C1_2  and  C7_12 
REMARK    2  A    between atoms: N1_3  and  C2_5 
REMARK    3  A    between atoms: C8_13  and  C9_14 
REMARK       I    between atoms: C9_14  and  N3_16 
REMARK    4  A    between atoms: N3_16  and  C10_18 
REMARK    5  A    between atoms: C10_18  and  C11_19 
REMARK    6  A    between atoms: C13_21  and  O3_22 
REMARK       I    between atoms: N4_30  and  C17_31 
REMARK    7  A    between atoms: C17_31  and  C18_33 
ROOT
HETATM    1  C7  UNL     1     -10.490  15.838   6.723  1.00  0.00     0.212 A 
HETATM    2  C8  UNL     1      -9.882  14.700   7.458  1.00  0.00     0.212 A 
HETATM    3  N4  UNL     1      -9.318  15.174   6.177  1.00  0.00    -0.320 N 
HETATM    4  C17 UNL     1      -8.330  15.041   5.165  1.00  0.00     0.226 C 
HETATM    5  O4  UNL     1      -8.391  15.842   4.205  1.00  0.00    -0.273 OA
ENDROOT
BRANCH   2   6
HETATM    6  C9  UNL     1      -9.007  14.979   8.659  1.00  0.00     0.246 C 
HETATM    7  O2  UNL     1      -8.513  16.130   8.703  1.00  0.00    -0.271 OA
HETATM    8  N3  UNL     1      -8.819  13.967   9.599  1.00  0.00    -0.339 N 
ATOM      9  H3  UNL     1      -9.290  13.089   9.383  1.00  0.00     0.167 HD
BRANCH   8  10
HETATM   10  C10 UNL     1      -8.086  13.964  10.793  1.00  0.00     0.068 C 
BRANCH  10  11
HETATM   11  C11 UNL     1      -6.601  13.871  10.791  1.00  0.00     0.028 C 
HETATM   12  C12 UNL     1      -6.171  12.611  10.025  1.00  0.00     0.046 C 
HETATM   13  C13 UNL     1      -5.367  12.973   8.812  1.00  0.00     0.171 C 
HETATM   14  C14 UNL     1      -4.063  13.642   9.246  1.00  0.00     0.202 C 
HETATM   15  F1  UNL     1      -3.544  14.274   8.156  1.00  0.00    -0.226 F 
HETATM   16 BR1  UNL     1      -2.859  12.235   9.800  1.00  0.00    -0.044 Br
HETATM   17  C15 UNL     1      -4.324  14.609  10.379  1.00  0.00     0.136 C 
HETATM   18 CL1  UNL     1      -4.039  13.759  11.908  1.00  0.00    -0.121 Cl
HETATM   19  C16 UNL     1      -5.808  15.051  10.371  1.00  0.00     0.034 C 
BRANCH  13  20
HETATM   20  O3  UNL     1      -5.003  11.806   8.148  1.00  0.00    -0.391 OA
ATOM     21  H3  UNL     1      -5.435  11.786   7.302  1.00  0.00     0.210 HD
ENDBRANCH  13  20
ENDBRANCH  10  11
ENDBRANCH   8  10
ENDBRANCH   2   6
BRANCH   1  22
HETATM   22  C1  UNL     1     -11.745  15.533   5.927  1.00  0.00     0.248 C 
HETATM   23  O1  UNL     1     -12.743  15.173   6.589  1.00  0.00    -0.271 OA
HETATM   24  N1  UNL     1     -11.734  15.660   4.566  1.00  0.00    -0.311 N 
ATOM     25  H1  UNL     1     -10.902  16.124   4.203  1.00  0.00     0.170 HD
BRANCH  24  26
HETATM   26  C2  UNL     1     -12.538  15.323   3.690  1.00  0.00     0.107 A 
HETATM   27  C3  UNL     1     -12.952  16.103   2.648  1.00  0.00     0.048 A 
HETATM   28  C4  UNL     1     -13.867  15.630   1.692  1.00  0.00     0.005 A 
HETATM   29  C5  UNL     1     -14.342  14.350   1.827  1.00  0.00     0.017 A 
HETATM   30  C6  UNL     1     -13.914  13.574   2.885  1.00  0.00     0.089 A 
HETATM   31  N2  UNL     1     -13.048  14.052   3.772  1.00  0.00    -0.352 N 
ATOM     32  H2  UNL     1     -12.753  13.452   4.542  1.00  0.00     0.166 HD
ENDBRANCH  24  26
ENDBRANCH   1  22
BRANCH   4  33
HETATM   33  C18 UNL     1      -7.314  14.009   5.284  1.00  0.00     0.082 C 
HETATM   34  C19 UNL     1      -7.457  12.909   4.224  1.00  0.00     0.019 C 
HETATM   35  C20 UNL     1      -6.073  12.774   3.672  1.00  0.00    -0.013 C 
HETATM   36  C21 UNL     1      -5.778  14.013   2.859  1.00  0.00     0.005 C 
HETATM   37  C24 UNL     1      -5.234  13.070   4.930  1.00  0.00     0.010 C 
HETATM   38  C22 UNL     1      -5.531  15.094   3.878  1.00  0.00     0.006 C 
HETATM   39  C23 UNL     1      -5.893  14.449   5.187  1.00  0.00    -0.001 C 
ENDBRANCH   4  33
TORSDOF 7
ENDMDL
