MODEL 1
REMARK VINA RESULT: -7.762647731      0.000      0.000
REMARK  7 active torsions:
REMARK  status: ('A' for Active; 'I' for Inactive)
REMARK    1  A    between atoms: C1_2  and  C2_3 
REMARK       I    between atoms: C1_2  and  N3_14 
REMARK    2  A    between atoms: N1_4  and  C3_6 
REMARK    3  A    between atoms: N3_14  and  O2_15 
REMARK    4  A    between atoms: O2_15  and  C8_16 
REMARK    5  A    between atoms: C8_16  and  C9_18 
REMARK    6  A    between atoms: C9_18  and  C10_19 
REMARK    7  A    between atoms: C10_19  and  C11_20 
ROOT
HETATM    1  O1  UNL     1      -4.323   5.935  -8.011  1.00  0.00    -0.248 OA
HETATM    2  C1  UNL     1      -3.206   6.015  -7.456  1.00  0.00     0.359 C 
HETATM    3  N3  UNL     1      -2.599   4.948  -6.714  1.00  0.00    -0.227 NA
ENDROOT
BRANCH   2   4
HETATM    4  C2  UNL     1      -2.423   7.258  -7.522  1.00  0.00     0.182 C 
HETATM    5  N1  UNL     1      -1.167   7.462  -7.986  1.00  0.00    -0.346 N 
ATOM      6  H1  UNL     1      -1.222   7.954  -8.878  1.00  0.00     0.167 HD
BRANCH   5   7
HETATM    7  C3  UNL     1       0.024   7.263  -7.713  1.00  0.00     0.104 A 
HETATM    8  C4  UNL     1       0.442   6.995  -6.412  1.00  0.00     0.050 A 
HETATM    9  C5  UNL     1       1.718   6.664  -6.095  1.00  0.00     0.029 A 
HETATM   10  C6  UNL     1       2.649   6.587  -7.070  1.00  0.00     0.049 A 
HETATM   11 CL1  UNL     1       4.298   6.146  -6.674  1.00  0.00    -0.083 Cl
HETATM   12  C7  UNL     1       2.239   6.864  -8.375  1.00  0.00     0.113 A 
HETATM   13  N2  UNL     1       0.965   7.191  -8.639  1.00  0.00    -0.351 N 
ATOM     14  H2  UNL     1       0.709   7.395  -9.604  1.00  0.00     0.166 HD
ENDBRANCH   5   7
ENDBRANCH   2   4
BRANCH   3  15
HETATM   15  O2  UNL     1      -2.069   4.010  -6.066  1.00  0.00    -0.124 OA
BRANCH  15  16
HETATM   16  C8  UNL     1      -1.889   3.840  -4.650  1.00  0.00     0.296 C 
HETATM   17  O3  UNL     1      -2.518   2.950  -4.082  1.00  0.00    -0.262 OA
BRANCH  16  18
HETATM   18  C9  UNL     1      -0.919   4.740  -3.988  1.00  0.00     0.119 C 
BRANCH  18  19
HETATM   19  C10 UNL     1      -0.597   4.101  -2.644  1.00  0.00     0.049 C 
BRANCH  19  20
HETATM   20  C11 UNL     1       0.876   3.705  -2.596  1.00  0.00    -0.051 A 
HETATM   21  C12 UNL     1       1.752   4.169  -3.514  1.00  0.00     0.014 A 
HETATM   22  C13 UNL     1       3.074   3.707  -3.334  1.00  0.00     0.050 A 
HETATM   23  S1  UNL     1       2.937   2.726  -1.954  1.00  0.00    -0.113 SA
HETATM   24  C14 UNL     1       1.267   2.875  -1.614  1.00  0.00     0.056 A 
ENDBRANCH  19  20
ENDBRANCH  18  19
ENDBRANCH  16  18
ENDBRANCH  15  16
ENDBRANCH   3  15
TORSDOF 7
ENDMDL
MODEL 2
REMARK VINA RESULT: -7.607927385      0.891      1.026
REMARK  7 active torsions:
REMARK  status: ('A' for Active; 'I' for Inactive)
REMARK    1  A    between atoms: C1_2  and  C2_3 
REMARK       I    between atoms: C1_2  and  N3_14 
REMARK    2  A    between atoms: N1_4  and  C3_6 
REMARK    3  A    between atoms: N3_14  and  O2_15 
REMARK    4  A    between atoms: O2_15  and  C8_16 
REMARK    5  A    between atoms: C8_16  and  C9_18 
REMARK    6  A    between atoms: C9_18  and  C10_19 
REMARK    7  A    between atoms: C10_19  and  C11_20 
ROOT
HETATM    1  O1  UNL     1      -3.108   5.187  -8.029  1.00  0.00    -0.248 OA
HETATM    2  C1  UNL     1      -2.436   5.844  -7.205  1.00  0.00     0.359 C 
HETATM    3  N3  UNL     1      -2.287   5.488  -5.824  1.00  0.00    -0.227 NA
ENDROOT
BRANCH   2   4
HETATM    4  C2  UNL     1      -1.741   7.073  -7.615  1.00  0.00     0.182 C 
HETATM    5  N1  UNL     1      -0.501   7.229  -8.138  1.00  0.00    -0.346 N 
ATOM      6  H1  UNL     1      -0.589   7.460  -9.128  1.00  0.00     0.167 HD
BRANCH   5   7
HETATM    7  C3  UNL     1       0.700   7.191  -7.843  1.00  0.00     0.104 A 
HETATM    8  C4  UNL     1       1.127   6.939  -6.542  1.00  0.00     0.050 A 
HETATM    9  C5  UNL     1       2.430   6.780  -6.204  1.00  0.00     0.029 A 
HETATM   10  C6  UNL     1       3.382   6.870  -7.158  1.00  0.00     0.049 A 
HETATM   11 CL1  UNL     1       5.068   6.652  -6.736  1.00  0.00    -0.083 Cl
HETATM   12  C7  UNL     1       2.962   7.132  -8.464  1.00  0.00     0.113 A 
HETATM   13  N2  UNL     1       1.660   7.285  -8.747  1.00  0.00    -0.351 N 
ATOM     14  H2  UNL     1       1.396   7.484  -9.711  1.00  0.00     0.166 HD
ENDBRANCH   5   7
ENDBRANCH   2   4
BRANCH   3  15
HETATM   15  O2  UNL     1      -2.158   5.172  -4.613  1.00  0.00    -0.124 OA
BRANCH  15  16
HETATM   16  C8  UNL     1      -1.605   3.990  -4.011  1.00  0.00     0.296 C 
HETATM   17  O3  UNL     1      -1.984   2.895  -4.417  1.00  0.00    -0.262 OA
BRANCH  16  18
HETATM   18  C9  UNL     1      -0.583   4.192  -2.961  1.00  0.00     0.119 C 
BRANCH  18  19
HETATM   19  C10 UNL     1       0.676   4.659  -3.679  1.00  0.00     0.049 C 
BRANCH  19  20
HETATM   20  C11 UNL     1       1.898   3.951  -3.100  1.00  0.00    -0.051 A 
HETATM   21  C12 UNL     1       3.092   3.996  -3.730  1.00  0.00     0.014 A 
HETATM   22  C13 UNL     1       4.120   3.289  -3.070  1.00  0.00     0.050 A 
HETATM   23  S1  UNL     1       3.323   2.677  -1.699  1.00  0.00    -0.113 SA
HETATM   24  C14 UNL     1       1.741   3.278  -1.948  1.00  0.00     0.056 A 
ENDBRANCH  19  20
ENDBRANCH  18  19
ENDBRANCH  16  18
ENDBRANCH  15  16
ENDBRANCH   3  15
TORSDOF 7
ENDMDL
MODEL 3
REMARK VINA RESULT: -7.457538186      2.624      4.647
REMARK  7 active torsions:
REMARK  status: ('A' for Active; 'I' for Inactive)
REMARK    1  A    between atoms: C1_2  and  C2_3 
REMARK       I    between atoms: C1_2  and  N3_14 
REMARK    2  A    between atoms: N1_4  and  C3_6 
REMARK    3  A    between atoms: N3_14  and  O2_15 
REMARK    4  A    between atoms: O2_15  and  C8_16 
REMARK    5  A    between atoms: C8_16  and  C9_18 
REMARK    6  A    between atoms: C9_18  and  C10_19 
REMARK    7  A    between atoms: C10_19  and  C11_20 
ROOT
HETATM    1  O1  UNL     1      -3.130   7.456  -8.137  1.00  0.00    -0.248 OA
HETATM    2  C1  UNL     1      -2.224   6.715  -7.698  1.00  0.00     0.359 C 
HETATM    3  N3  UNL     1      -0.898   7.166  -7.389  1.00  0.00    -0.227 NA
ENDROOT
BRANCH   2   4
HETATM    4  C2  UNL     1      -2.468   5.283  -7.475  1.00  0.00     0.182 C 
HETATM    5  N1  UNL     1      -2.611   4.604  -6.313  1.00  0.00    -0.346 N 
ATOM      6  H1  UNL     1      -3.593   4.350  -6.198  1.00  0.00     0.167 HD
BRANCH   5   7
HETATM    7  C3  UNL     1      -1.975   4.180  -5.339  1.00  0.00     0.104 A 
HETATM    8  C4  UNL     1      -0.985   4.942  -4.724  1.00  0.00     0.050 A 
HETATM    9  C5  UNL     1      -0.347   4.558  -3.592  1.00  0.00     0.029 A 
HETATM   10  C6  UNL     1      -0.666   3.379  -3.014  1.00  0.00     0.049 A 
HETATM   11 CL1  UNL     1       0.142   2.879  -1.542  1.00  0.00    -0.083 Cl
HETATM   12  C7  UNL     1      -1.650   2.606  -3.630  1.00  0.00     0.113 A 
HETATM   13  N2  UNL     1      -2.251   3.028  -4.753  1.00  0.00    -0.351 N 
ATOM     14  H2  UNL     1      -2.958   2.429  -5.176  1.00  0.00     0.166 HD
ENDBRANCH   5   7
ENDBRANCH   2   4
BRANCH   3  15
HETATM   15  O2  UNL     1       0.264   7.564  -7.118  1.00  0.00    -0.124 OA
BRANCH  15  16
HETATM   16  C8  UNL     1       1.520   7.279  -7.755  1.00  0.00     0.296 C 
HETATM   17  O3  UNL     1       1.653   7.564  -8.942  1.00  0.00    -0.262 OA
BRANCH  16  18
HETATM   18  C9  UNL     1       2.580   6.690  -6.907  1.00  0.00     0.119 C 
BRANCH  18  19
HETATM   19  C10 UNL     1       2.299   7.162  -5.487  1.00  0.00     0.049 C 
BRANCH  19  20
HETATM   20  C11 UNL     1       2.764   6.108  -4.487  1.00  0.00    -0.051 A 
HETATM   21  C12 UNL     1       2.875   6.396  -3.172  1.00  0.00     0.014 A 
HETATM   22  C13 UNL     1       3.321   5.317  -2.379  1.00  0.00     0.050 A 
HETATM   23  S1  UNL     1       3.518   4.077  -3.524  1.00  0.00    -0.113 SA
HETATM   24  C14 UNL     1       3.066   4.887  -4.961  1.00  0.00     0.056 A 
ENDBRANCH  19  20
ENDBRANCH  18  19
ENDBRANCH  16  18
ENDBRANCH  15  16
ENDBRANCH   3  15
TORSDOF 7
ENDMDL
MODEL 4
REMARK VINA RESULT: -7.286212743      2.974      4.929
REMARK  7 active torsions:
REMARK  status: ('A' for Active; 'I' for Inactive)
REMARK    1  A    between atoms: C1_2  and  C2_3 
REMARK       I    between atoms: C1_2  and  N3_14 
REMARK    2  A    between atoms: N1_4  and  C3_6 
REMARK    3  A    between atoms: N3_14  and  O2_15 
REMARK    4  A    between atoms: O2_15  and  C8_16 
REMARK    5  A    between atoms: C8_16  and  C9_18 
REMARK    6  A    between atoms: C9_18  and  C10_19 
REMARK    7  A    between atoms: C10_19  and  C11_20 
ROOT
HETATM    1  O1  UNL     1      -3.127   7.466  -8.048  1.00  0.00    -0.248 OA
HETATM    2  C1  UNL     1      -2.178   6.748  -7.666  1.00  0.00     0.359 C 
HETATM    3  N3  UNL     1      -0.864   7.242  -7.375  1.00  0.00    -0.227 NA
ENDROOT
BRANCH   2   4
HETATM    4  C2  UNL     1      -2.354   5.298  -7.499  1.00  0.00     0.182 C 
HETATM    5  N1  UNL     1      -2.522   4.576  -6.366  1.00  0.00    -0.346 N 
ATOM      6  H1  UNL     1      -3.493   4.267  -6.314  1.00  0.00     0.167 HD
BRANCH   5   7
HETATM    7  C3  UNL     1      -1.916   4.156  -5.371  1.00  0.00     0.104 A 
HETATM    8  C4  UNL     1      -0.897   4.890  -4.771  1.00  0.00     0.050 A 
HETATM    9  C5  UNL     1      -0.290   4.515  -3.619  1.00  0.00     0.029 A 
HETATM   10  C6  UNL     1      -0.671   3.374  -3.004  1.00  0.00     0.049 A 
HETATM   11 CL1  UNL     1       0.097   2.887  -1.507  1.00  0.00    -0.083 Cl
HETATM   12  C7  UNL     1      -1.686   2.628  -3.605  1.00  0.00     0.113 A 
HETATM   13  N2  UNL     1      -2.254   3.040  -4.749  1.00  0.00    -0.351 N 
ATOM     14  H2  UNL     1      -2.986   2.461  -5.160  1.00  0.00     0.166 HD
ENDBRANCH   5   7
ENDBRANCH   2   4
BRANCH   3  15
HETATM   15  O2  UNL     1       0.288   7.679  -7.120  1.00  0.00    -0.124 OA
BRANCH  15  16
HETATM   16  C8  UNL     1       1.553   6.999  -7.066  1.00  0.00     0.296 C 
HETATM   17  O3  UNL     1       2.132   6.754  -8.122  1.00  0.00    -0.262 OA
BRANCH  16  18
HETATM   18  C9  UNL     1       2.080   6.676  -5.722  1.00  0.00     0.119 C 
BRANCH  18  19
HETATM   19  C10 UNL     1       2.886   5.394  -5.879  1.00  0.00     0.049 C 
BRANCH  19  20
HETATM   20  C11 UNL     1       4.352   5.657  -5.546  1.00  0.00    -0.051 A 
HETATM   21  C12 UNL     1       5.275   5.789  -6.523  1.00  0.00     0.014 A 
HETATM   22  C13 UNL     1       6.584   6.024  -6.053  1.00  0.00     0.050 A 
HETATM   23  S1  UNL     1       6.372   6.037  -4.367  1.00  0.00    -0.113 SA
HETATM   24  C14 UNL     1       4.692   5.744  -4.248  1.00  0.00     0.056 A 
ENDBRANCH  19  20
ENDBRANCH  18  19
ENDBRANCH  16  18
ENDBRANCH  15  16
ENDBRANCH   3  15
TORSDOF 7
ENDMDL
MODEL 5
REMARK VINA RESULT: -7.280909047      4.778      7.491
REMARK  7 active torsions:
REMARK  status: ('A' for Active; 'I' for Inactive)
REMARK    1  A    between atoms: C1_2  and  C2_3 
REMARK       I    between atoms: C1_2  and  N3_14 
REMARK    2  A    between atoms: N1_4  and  C3_6 
REMARK    3  A    between atoms: N3_14  and  O2_15 
REMARK    4  A    between atoms: O2_15  and  C8_16 
REMARK    5  A    between atoms: C8_16  and  C9_18 
REMARK    6  A    between atoms: C9_18  and  C10_19 
REMARK    7  A    between atoms: C10_19  and  C11_20 
ROOT
HETATM    1  O1  UNL     1       2.458   5.253  -3.697  1.00  0.00    -0.248 OA
HETATM    2  C1  UNL     1       2.141   4.154  -3.192  1.00  0.00     0.359 C 
HETATM    3  N3  UNL     1       0.797   3.782  -2.857  1.00  0.00    -0.227 NA
ENDROOT
BRANCH   2   4
HETATM    4  C2  UNL     1       3.165   3.144  -2.890  1.00  0.00     0.182 C 
HETATM    5  N1  UNL     1       3.219   2.249  -1.875  1.00  0.00    -0.346 N 
ATOM      6  H1  UNL     1       3.026   1.319  -2.246  1.00  0.00     0.167 HD
BRANCH   5   7
HETATM    7  C3  UNL     1       3.421   2.158  -0.657  1.00  0.00     0.104 A 
HETATM    8  C4  UNL     1       2.723   2.937   0.262  1.00  0.00     0.050 A 
HETATM    9  C5  UNL     1       2.837   2.786   1.604  1.00  0.00     0.029 A 
HETATM   10  C6  UNL     1       3.666   1.842   2.101  1.00  0.00     0.049 A 
HETATM   11 CL1  UNL     1       3.810   1.628   3.833  1.00  0.00    -0.083 Cl
HETATM   12  C7  UNL     1       4.377   1.064   1.186  1.00  0.00     0.113 A 
HETATM   13  N2  UNL     1       4.232   1.254  -0.134  1.00  0.00    -0.351 N 
ATOM     14  H2  UNL     1       4.777   0.670  -0.768  1.00  0.00     0.166 HD
ENDBRANCH   5   7
ENDBRANCH   2   4
BRANCH   3  15
HETATM   15  O2  UNL     1      -0.383   3.459  -2.566  1.00  0.00    -0.124 OA
BRANCH  15  16
HETATM   16  C8  UNL     1      -1.316   2.612  -3.257  1.00  0.00     0.296 C 
HETATM   17  O3  UNL     1      -1.660   1.560  -2.723  1.00  0.00    -0.262 OA
BRANCH  16  18
HETATM   18  C9  UNL     1      -1.821   3.099  -4.559  1.00  0.00     0.119 C 
BRANCH  18  19
HETATM   19  C10 UNL     1      -2.169   4.568  -4.357  1.00  0.00     0.049 C 
BRANCH  19  20
HETATM   20  C11 UNL     1      -1.815   5.363  -5.610  1.00  0.00    -0.051 A 
HETATM   21  C12 UNL     1      -2.659   5.414  -6.664  1.00  0.00     0.014 A 
HETATM   22  C13 UNL     1      -2.186   6.187  -7.746  1.00  0.00     0.050 A 
HETATM   23  S1  UNL     1      -0.680   6.733  -7.177  1.00  0.00    -0.113 SA
HETATM   24  C14 UNL     1      -0.634   6.005  -5.630  1.00  0.00     0.056 A 
ENDBRANCH  19  20
ENDBRANCH  18  19
ENDBRANCH  16  18
ENDBRANCH  15  16
ENDBRANCH   3  15
TORSDOF 7
ENDMDL
