MODEL 1
REMARK VINA RESULT: -8.572302236      0.000      0.000
REMARK  3 active torsions:
REMARK  status: ('A' for Active; 'I' for Inactive)
REMARK       I    between atoms: C3_3  and  N1_5 
REMARK    1  A    between atoms: C8_12  and  C9_13 
REMARK    2  A    between atoms: C9_13  and  C10_14 
REMARK       I    between atoms: C10_14  and  N3_16 
REMARK    3  A    between atoms: N3_16  and  C11_18 
ROOT
HETATM    1  C1  UNL     1      -2.533   6.072   8.551  1.00  0.00     0.022 C 
HETATM    2  C2  UNL     1      -3.080   5.316   9.314  1.00  0.00    -0.016 C 
HETATM    3  C3  UNL     1      -3.751   4.414  10.262  1.00  0.00     0.302 C 
HETATM    4  O1  UNL     1      -3.882   3.271   9.873  1.00  0.00    -0.258 OA
HETATM    5  N1  UNL     1      -4.145   4.958  11.460  1.00  0.00    -0.300 N 
HETATM    6  C4  UNL     1      -4.596   4.353  12.688  1.00  0.00     0.068 A 
HETATM    7  C5  UNL     1      -5.529   5.213  13.226  1.00  0.00     0.039 A 
HETATM    8  N2  UNL     1      -6.123   4.924  14.370  1.00  0.00    -0.360 N 
ATOM      9  H2  UNL     1      -6.811   5.571  14.755  1.00  0.00     0.165 HD
HETATM   10  C6  UNL     1      -5.830   3.766  15.051  1.00  0.00     0.016 A 
HETATM   11  C7  UNL     1      -4.911   2.896  14.539  1.00  0.00    -0.026 A 
HETATM   12  C8  UNL     1      -4.248   3.165  13.317  1.00  0.00    -0.012 A 
HETATM   13  C13 UNL     1      -4.431   1.591  15.014  1.00  0.00     0.041 C 
HETATM   14  C14 UNL     1      -5.063   0.967  16.199  1.00  0.00     0.005 C 
HETATM   15  C15 UNL     1      -5.565   1.858  17.273  1.00  0.00     0.001 C 
HETATM   16  C16 UNL     1      -6.920   2.414  16.814  1.00  0.00     0.006 C 
HETATM   17  C17 UNL     1      -6.646   3.761  16.307  1.00  0.00     0.057 C 
HETATM   18  C18 UNL     1      -5.669   6.399  12.329  1.00  0.00     0.084 C 
HETATM   19  C19 UNL     1      -4.278   6.416  11.703  1.00  0.00     0.095 C 
HETATM   20  C20 UNL     1      -3.226   6.974  12.585  1.00  0.00     0.033 C 
ENDROOT
BRANCH  12  21
HETATM   21  C9  UNL     1      -3.236   2.289  12.721  1.00  0.00     0.144 C 
BRANCH  21  22
HETATM   22  C10 UNL     1      -3.823   1.070  12.046  1.00  0.00     0.221 C 
HETATM   23  O2  UNL     1      -5.036   0.998  11.787  1.00  0.00    -0.273 OA
HETATM   24  N3  UNL     1      -2.975  -0.005  11.705  1.00  0.00    -0.361 N 
ATOM     25  H3  UNL     1      -1.978   0.041  11.912  1.00  0.00     0.162 HD
BRANCH  24  26
HETATM   26  C11 UNL     1      -3.530  -1.166  11.062  1.00  0.00     0.118 C 
HETATM   27  C12 UNL     1      -2.752  -2.423  11.373  1.00  0.00     0.026 C 
ENDBRANCH  24  26
ENDBRANCH  21  22
ENDBRANCH  12  21
TORSDOF 3
ENDMDL
MODEL 2
REMARK VINA RESULT: -8.428335954      2.474      6.856
REMARK  3 active torsions:
REMARK  status: ('A' for Active; 'I' for Inactive)
REMARK       I    between atoms: C3_3  and  N1_5 
REMARK    1  A    between atoms: C8_12  and  C9_13 
REMARK    2  A    between atoms: C9_13  and  C10_14 
REMARK       I    between atoms: C10_14  and  N3_16 
REMARK    3  A    between atoms: N3_16  and  C11_18 
ROOT
HETATM    1  C1  UNL     1      -7.051   3.474  16.962  1.00  0.00     0.022 C 
HETATM    2  C2  UNL     1      -6.606   3.672  15.861  1.00  0.00    -0.016 C 
HETATM    3  C3  UNL     1      -6.044   3.896  14.520  1.00  0.00     0.302 C 
HETATM    4  O1  UNL     1      -6.664   4.682  13.831  1.00  0.00    -0.258 OA
HETATM    5  N1  UNL     1      -4.900   3.205  14.205  1.00  0.00    -0.300 N 
HETATM    6  C4  UNL     1      -3.961   3.343  13.120  1.00  0.00     0.068 A 
HETATM    7  C5  UNL     1      -3.517   2.072  12.824  1.00  0.00     0.039 A 
HETATM    8  N2  UNL     1      -2.634   1.880  11.862  1.00  0.00    -0.360 N 
ATOM      9  H2  UNL     1      -2.315   0.933  11.656  1.00  0.00     0.165 HD
HETATM   10  C6  UNL     1      -2.135   2.934  11.132  1.00  0.00     0.016 A 
HETATM   11  C7  UNL     1      -2.560   4.202  11.404  1.00  0.00    -0.026 A 
HETATM   12  C8  UNL     1      -3.504   4.456  12.428  1.00  0.00    -0.012 A 
HETATM   13  C13 UNL     1      -2.238   5.494  10.781  1.00  0.00     0.041 C 
HETATM   14  C14 UNL     1      -1.388   5.529   9.569  1.00  0.00     0.005 C 
HETATM   15  C15 UNL     1      -0.322   4.507   9.433  1.00  0.00     0.001 C 
HETATM   16  C16 UNL     1      -0.989   3.208   8.957  1.00  0.00     0.006 C 
HETATM   17  C17 UNL     1      -1.146   2.379  10.155  1.00  0.00     0.057 C 
HETATM   18  C18 UNL     1      -4.178   1.101  13.748  1.00  0.00     0.084 C 
HETATM   19  C19 UNL     1      -4.425   2.011  14.947  1.00  0.00     0.095 C 
HETATM   20  C20 UNL     1      -3.219   2.260  15.773  1.00  0.00     0.033 C 
ENDROOT
BRANCH  12  21
HETATM   21  C9  UNL     1      -3.986   5.792  12.789  1.00  0.00     0.144 C 
BRANCH  21  22
HETATM   22  C10 UNL     1      -3.234   6.406  13.948  1.00  0.00     0.221 C 
HETATM   23  O2  UNL     1      -3.603   6.231  15.121  1.00  0.00    -0.273 OA
HETATM   24  N3  UNL     1      -2.092   7.193  13.690  1.00  0.00    -0.361 N 
ATOM     25  H3  UNL     1      -1.778   7.346  12.732  1.00  0.00     0.162 HD
BRANCH  24  26
HETATM   26  C11 UNL     1      -1.374   7.779  14.791  1.00  0.00     0.118 C 
HETATM   27  C12 UNL     1      -1.649   9.257  14.936  1.00  0.00     0.026 C 
ENDBRANCH  24  26
ENDBRANCH  21  22
ENDBRANCH  12  21
TORSDOF 3
ENDMDL
MODEL 3
REMARK VINA RESULT: -8.292729179      2.655      5.731
REMARK  3 active torsions:
REMARK  status: ('A' for Active; 'I' for Inactive)
REMARK       I    between atoms: C3_3  and  N1_5 
REMARK    1  A    between atoms: C8_12  and  C9_13 
REMARK    2  A    between atoms: C9_13  and  C10_14 
REMARK       I    between atoms: C10_14  and  N3_16 
REMARK    3  A    between atoms: N3_16  and  C11_18 
ROOT
HETATM    1  C1  UNL     1      -4.730   0.842  10.952  1.00  0.00     0.022 C 
HETATM    2  C2  UNL     1      -4.577   1.981  11.312  1.00  0.00    -0.016 C 
HETATM    3  C3  UNL     1      -4.367   3.371  11.744  1.00  0.00     0.302 C 
HETATM    4  O1  UNL     1      -5.358   3.930  12.167  1.00  0.00    -0.258 OA
HETATM    5  N1  UNL     1      -3.093   3.870  11.624  1.00  0.00    -0.300 N 
HETATM    6  C4  UNL     1      -2.473   5.061  12.148  1.00  0.00     0.068 A 
HETATM    7  C5  UNL     1      -1.565   5.478  11.199  1.00  0.00     0.039 A 
HETATM    8  N2  UNL     1      -0.832   6.558  11.404  1.00  0.00    -0.360 N 
ATOM      9  H2  UNL     1      -0.164   6.852  10.692  1.00  0.00     0.165 HD
HETATM   10  C6  UNL     1      -0.954   7.292  12.560  1.00  0.00     0.016 A 
HETATM   11  C7  UNL     1      -1.849   6.902  13.515  1.00  0.00    -0.026 A 
HETATM   12  C8  UNL     1      -2.653   5.750  13.340  1.00  0.00    -0.012 A 
HETATM   13  C13 UNL     1      -2.218   7.495  14.808  1.00  0.00     0.041 C 
HETATM   14  C14 UNL     1      -1.650   8.806  15.198  1.00  0.00     0.005 C 
HETATM   15  C15 UNL     1      -0.275   9.135  14.750  1.00  0.00     0.001 C 
HETATM   16  C16 UNL     1      -0.365   9.583  13.284  1.00  0.00     0.006 C 
HETATM   17  C17 UNL     1       0.028   8.420  12.486  1.00  0.00     0.057 C 
HETATM   18  C18 UNL     1      -1.595   4.525  10.049  1.00  0.00     0.084 C 
HETATM   19  C19 UNL     1      -2.043   3.260  10.771  1.00  0.00     0.095 C 
HETATM   20  C20 UNL     1      -0.965   2.589  11.538  1.00  0.00     0.033 C 
ENDROOT
BRANCH  12  21
HETATM   21  C9  UNL     1      -3.616   5.261  14.331  1.00  0.00     0.144 C 
BRANCH  21  22
HETATM   22  C10 UNL     1      -3.217   3.941  14.950  1.00  0.00     0.221 C 
HETATM   23  O2  UNL     1      -2.037   3.702  15.257  1.00  0.00    -0.273 OA
HETATM   24  N3  UNL     1      -4.205   2.961  15.182  1.00  0.00    -0.361 N 
ATOM     25  H3  UNL     1      -5.178   3.143  14.934  1.00  0.00     0.162 HD
BRANCH  24  26
HETATM   26  C11 UNL     1      -3.830   1.703  15.771  1.00  0.00     0.118 C 
HETATM   27  C12 UNL     1      -4.963   1.066  16.539  1.00  0.00     0.026 C 
ENDBRANCH  24  26
ENDBRANCH  21  22
ENDBRANCH  12  21
TORSDOF 3
ENDMDL
MODEL 4
REMARK VINA RESULT: -8.176188845      1.554      2.186
REMARK  3 active torsions:
REMARK  status: ('A' for Active; 'I' for Inactive)
REMARK       I    between atoms: C3_3  and  N1_5 
REMARK    1  A    between atoms: C8_12  and  C9_13 
REMARK    2  A    between atoms: C9_13  and  C10_14 
REMARK       I    between atoms: C10_14  and  N3_16 
REMARK    3  A    between atoms: N3_16  and  C11_18 
ROOT
HETATM    1  C1  UNL     1      -2.837   6.114   8.417  1.00  0.00     0.022 C 
HETATM    2  C2  UNL     1      -3.363   5.359   9.194  1.00  0.00    -0.016 C 
HETATM    3  C3  UNL     1      -4.008   4.456  10.160  1.00  0.00     0.302 C 
HETATM    4  O1  UNL     1      -4.191   3.325   9.757  1.00  0.00    -0.258 OA
HETATM    5  N1  UNL     1      -4.323   4.986  11.387  1.00  0.00    -0.300 N 
HETATM    6  C4  UNL     1      -4.725   4.369  12.626  1.00  0.00     0.068 A 
HETATM    7  C5  UNL     1      -5.605   5.242  13.229  1.00  0.00     0.039 A 
HETATM    8  N2  UNL     1      -6.145   4.946  14.397  1.00  0.00    -0.360 N 
ATOM      9  H2  UNL     1      -6.794   5.604  14.830  1.00  0.00     0.165 HD
HETATM   10  C6  UNL     1      -5.849   3.767  15.040  1.00  0.00     0.016 A 
HETATM   11  C7  UNL     1      -4.983   2.884  14.463  1.00  0.00    -0.026 A 
HETATM   12  C8  UNL     1      -4.378   3.160  13.213  1.00  0.00    -0.012 A 
HETATM   13  C13 UNL     1      -4.514   1.558  14.888  1.00  0.00     0.041 C 
HETATM   14  C14 UNL     1      -5.099   0.927  16.093  1.00  0.00     0.005 C 
HETATM   15  C15 UNL     1      -5.519   1.809  17.209  1.00  0.00     0.001 C 
HETATM   16  C16 UNL     1      -6.881   2.410  16.833  1.00  0.00     0.006 C 
HETATM   17  C17 UNL     1      -6.597   3.759  16.337  1.00  0.00     0.057 C 
HETATM   18  C18 UNL     1      -5.758   6.449  12.362  1.00  0.00     0.084 C 
HETATM   19  C19 UNL     1      -4.403   6.442  11.663  1.00  0.00     0.095 C 
HETATM   20  C20 UNL     1      -3.291   6.954  12.499  1.00  0.00     0.033 C 
ENDROOT
BRANCH  12  21
HETATM   21  C9  UNL     1      -3.423   2.269  12.548  1.00  0.00     0.144 C 
BRANCH  21  22
HETATM   22  C10 UNL     1      -2.065   2.900  12.337  1.00  0.00     0.221 C 
HETATM   23  O2  UNL     1      -1.577   3.677  13.174  1.00  0.00    -0.273 OA
HETATM   24  N3  UNL     1      -1.339   2.599  11.165  1.00  0.00    -0.361 N 
ATOM     25  H3  UNL     1      -1.727   1.963  10.469  1.00  0.00     0.162 HD
BRANCH  24  26
HETATM   26  C11 UNL     1      -0.047   3.198  10.960  1.00  0.00     0.118 C 
HETATM   27  C12 UNL     1       0.087   3.824   9.593  1.00  0.00     0.026 C 
ENDBRANCH  24  26
ENDBRANCH  21  22
ENDBRANCH  12  21
TORSDOF 3
ENDMDL
MODEL 5
REMARK VINA RESULT: -8.168047664      2.071      5.587
REMARK  3 active torsions:
REMARK  status: ('A' for Active; 'I' for Inactive)
REMARK       I    between atoms: C3_3  and  N1_5 
REMARK    1  A    between atoms: C8_12  and  C9_13 
REMARK    2  A    between atoms: C9_13  and  C10_14 
REMARK       I    between atoms: C10_14  and  N3_16 
REMARK    3  A    between atoms: N3_16  and  C11_18 
ROOT
HETATM    1  C1  UNL     1      -3.858  -0.994  11.592  1.00  0.00     0.022 C 
HETATM    2  C2  UNL     1      -3.987   0.145  11.963  1.00  0.00    -0.016 C 
HETATM    3  C3  UNL     1      -4.125   1.543  12.400  1.00  0.00     0.302 C 
HETATM    4  O1  UNL     1      -5.038   1.748  13.175  1.00  0.00    -0.258 OA
HETATM    5  N1  UNL     1      -3.220   2.443  11.892  1.00  0.00    -0.300 N 
HETATM    6  C4  UNL     1      -2.901   3.799  12.261  1.00  0.00     0.068 A 
HETATM    7  C5  UNL     1      -2.573   4.454  11.094  1.00  0.00     0.039 A 
HETATM    8  N2  UNL     1      -2.227   5.728  11.117  1.00  0.00    -0.360 N 
ATOM      9  H2  UNL     1      -1.987   6.198  10.244  1.00  0.00     0.165 HD
HETATM   10  C6  UNL     1      -2.185   6.433  12.298  1.00  0.00     0.016 A 
HETATM   11  C7  UNL     1      -2.508   5.807  13.468  1.00  0.00    -0.026 A 
HETATM   12  C8  UNL     1      -2.882   4.442  13.491  1.00  0.00    -0.012 A 
HETATM   13  C13 UNL     1      -2.587   6.302  14.849  1.00  0.00     0.041 C 
HETATM   14  C14 UNL     1      -2.400   7.746  15.120  1.00  0.00     0.005 C 
HETATM   15  C15 UNL     1      -1.462   8.503  14.257  1.00  0.00     0.001 C 
HETATM   16  C16 UNL     1      -2.197   8.820  12.946  1.00  0.00     0.006 C 
HETATM   17  C17 UNL     1      -1.733   7.824  11.978  1.00  0.00     0.057 C 
HETATM   18  C18 UNL     1      -2.673   3.492   9.955  1.00  0.00     0.084 C 
HETATM   19  C19 UNL     1      -2.387   2.188  10.690  1.00  0.00     0.095 C 
HETATM   20  C20 UNL     1      -0.953   1.967  10.993  1.00  0.00     0.033 C 
ENDROOT
BRANCH  12  21
HETATM   21  C9  UNL     1      -3.218   3.703  14.711  1.00  0.00     0.144 C 
BRANCH  21  22
HETATM   22  C10 UNL     1      -4.685   3.774  15.068  1.00  0.00     0.221 C 
HETATM   23  O2  UNL     1      -5.417   4.668  14.613  1.00  0.00    -0.273 OA
HETATM   24  N3  UNL     1      -5.232   2.805  15.936  1.00  0.00    -0.361 N 
ATOM     25  H3  UNL     1      -4.642   2.066  16.318  1.00  0.00     0.162 HD
BRANCH  24  26
HETATM   26  C11 UNL     1      -6.628   2.870  16.278  1.00  0.00     0.118 C 
HETATM   27  C12 UNL     1      -7.150   1.558  16.815  1.00  0.00     0.026 C 
ENDBRANCH  24  26
ENDBRANCH  21  22
ENDBRANCH  12  21
TORSDOF 3
ENDMDL
