MODEL 1
REMARK VINA RESULT: -6.770788989      0.000      0.000
REMARK  5 active torsions:
REMARK  status: ('A' for Active; 'I' for Inactive)
REMARK    1  A    between atoms: C6_6  and  C7_7 
REMARK    2  A    between atoms: C10_13  and  C11_14 
REMARK    3  A    between atoms: C12_15  and  C13_16 
REMARK    4  A    between atoms: C17_22  and  C18_23 
REMARK       I    between atoms: C18_23  and  N3_25 
REMARK    5  A    between atoms: N3_25  and  O3_27 
ROOT
HETATM    1  C1  UNL     1      -0.163   5.120  10.852  1.00  0.00     0.017 C 
HETATM    2  C2  UNL     1      -1.408   4.674  10.950  1.00  0.00    -0.057 C 
HETATM    3  C3  UNL     1      -2.520   5.321  10.149  1.00  0.00     0.048 C 
HETATM    4  C4  UNL     1      -3.399   5.925  11.277  1.00  0.00    -0.005 C 
HETATM    5  C5  UNL     1      -2.456   6.781  12.069  1.00  0.00     0.018 C 
HETATM    6  C6  UNL     1      -4.540   6.595  10.633  1.00  0.00     0.088 C 
HETATM    7  C9  UNL     1      -5.770   6.672  11.503  1.00  0.00     0.223 C 
HETATM    8  O1  UNL     1      -6.862   7.084  10.997  1.00  0.00    -0.273 OA
HETATM    9  N1  UNL     1      -5.657   6.282  12.851  1.00  0.00    -0.344 N 
ATOM     10  H1  UNL     1      -6.406   6.540  13.493  1.00  0.00     0.163 HD
HETATM   11  C10 UNL     1      -4.537   5.536  13.372  1.00  0.00     0.187 C 
HETATM   12  C16 UNL     1      -3.863   4.814  12.189  1.00  0.00     0.121 C 
HETATM   13  N2  UNL     1      -2.942   3.884  12.633  1.00  0.00    -0.398 N 
ATOM     14  H2  UNL     1      -3.077   3.420  13.531  1.00  0.00     0.154 HD
HETATM   15  C17 UNL     1      -1.795   3.572  11.827  1.00  0.00     0.201 C 
ENDROOT
BRANCH  15  16
HETATM   16  C18 UNL     1      -2.042   2.344  10.998  1.00  0.00     0.269 C 
HETATM   17  O2  UNL     1      -1.644   2.355   9.804  1.00  0.00    -0.269 OA
HETATM   18  N3  UNL     1      -2.689   1.186  11.454  1.00  0.00    -0.229 N 
HETATM   19  C19 UNL     1      -2.861   0.066  10.563  1.00  0.00     0.189 C 
BRANCH  18  20
HETATM   20  O3  UNL     1      -3.162   1.110  12.698  1.00  0.00    -0.281 OA
HETATM   21  C20 UNL     1      -4.293   0.290  12.739  1.00  0.00     0.238 C 
ENDBRANCH  18  20
ENDBRANCH  15  16
BRANCH  11  22
HETATM   22  C11 UNL     1      -4.963   4.410  14.246  1.00  0.00    -0.079 C 
HETATM   23  C12 UNL     1      -5.336   3.496  14.936  1.00  0.00    -0.100 C 
BRANCH  23  24
HETATM   24  C13 UNL     1      -5.819   2.380  15.768  1.00  0.00     0.057 C 
HETATM   25  C14 UNL     1      -6.756   2.951  16.796  1.00  0.00     0.023 C 
HETATM   26  C15 UNL     1      -4.701   1.643  16.448  1.00  0.00     0.023 C 
ENDBRANCH  23  24
ENDBRANCH  11  22
BRANCH   6  27
HETATM   27  C7  UNL     1      -4.313   7.893   9.938  1.00  0.00     0.010 C 
HETATM   28  C8  UNL     1      -4.527   7.952   8.479  1.00  0.00     0.006 C 
ENDBRANCH   6  27
TORSDOF 5
ENDMDL
MODEL 2
REMARK VINA RESULT: -6.760799125      2.589      5.326
REMARK  5 active torsions:
REMARK  status: ('A' for Active; 'I' for Inactive)
REMARK    1  A    between atoms: C6_6  and  C7_7 
REMARK    2  A    between atoms: C10_13  and  C11_14 
REMARK    3  A    between atoms: C12_15  and  C13_16 
REMARK    4  A    between atoms: C17_22  and  C18_23 
REMARK       I    between atoms: C18_23  and  N3_25 
REMARK    5  A    between atoms: N3_25  and  O3_27 
ROOT
HETATM    1  C1  UNL     1      -6.212   5.370  14.726  1.00  0.00     0.017 C 
HETATM    2  C2  UNL     1      -5.123   4.626  14.589  1.00  0.00    -0.057 C 
HETATM    3  C3  UNL     1      -3.747   5.256  14.675  1.00  0.00     0.048 C 
HETATM    4  C4  UNL     1      -3.219   5.040  13.232  1.00  0.00    -0.005 C 
HETATM    5  C5  UNL     1      -4.266   5.656  12.353  1.00  0.00     0.018 C 
HETATM    6  C6  UNL     1      -1.865   5.611  13.170  1.00  0.00     0.088 C 
HETATM    7  C9  UNL     1      -0.981   4.971  12.129  1.00  0.00     0.223 C 
HETATM    8  O1  UNL     1       0.254   5.271  12.094  1.00  0.00    -0.273 OA
HETATM    9  N1  UNL     1      -1.566   4.058  11.230  1.00  0.00    -0.344 N 
ATOM     10  H1  UNL     1      -1.041   3.798  10.395  1.00  0.00     0.163 HD
HETATM   11  C10 UNL     1      -2.870   3.472  11.428  1.00  0.00     0.187 C 
HETATM   12  C16 UNL     1      -3.201   3.560  12.930  1.00  0.00     0.121 C 
HETATM   13  N2  UNL     1      -4.313   2.800  13.240  1.00  0.00    -0.398 N 
ATOM     14  H2  UNL     1      -4.528   1.964  12.697  1.00  0.00     0.154 HD
HETATM   15  C17 UNL     1      -5.165   3.190  14.329  1.00  0.00     0.201 C 
ENDROOT
BRANCH  15  16
HETATM   16  C18 UNL     1      -4.801   2.450  15.584  1.00  0.00     0.269 C 
HETATM   17  O2  UNL     1      -3.589   2.158  15.760  1.00  0.00    -0.269 OA
HETATM   18  N3  UNL     1      -5.711   2.055  16.575  1.00  0.00    -0.229 N 
HETATM   19  C19 UNL     1      -5.237   1.354  17.742  1.00  0.00     0.189 C 
BRANCH  18  20
HETATM   20  O3  UNL     1      -7.014   2.304  16.448  1.00  0.00    -0.281 OA
HETATM   21  C20 UNL     1      -7.764   1.198  16.854  1.00  0.00     0.238 C 
ENDBRANCH  18  20
ENDBRANCH  15  16
BRANCH  11  22
HETATM   22  C11 UNL     1      -2.876   2.006  11.174  1.00  0.00    -0.079 C 
HETATM   23  C12 UNL     1      -2.911   0.818  10.982  1.00  0.00    -0.100 C 
BRANCH  23  24
HETATM   24  C13 UNL     1      -2.976  -0.638  10.766  1.00  0.00     0.057 C 
HETATM   25  C14 UNL     1      -4.201  -1.149  11.473  1.00  0.00     0.023 C 
HETATM   26  C15 UNL     1      -1.757  -1.352  11.274  1.00  0.00     0.023 C 
ENDBRANCH  23  24
ENDBRANCH  11  22
BRANCH   6  27
HETATM   27  C7  UNL     1      -1.709   7.093  13.143  1.00  0.00     0.010 C 
HETATM   28  C8  UNL     1      -1.253   7.771  14.372  1.00  0.00     0.006 C 
ENDBRANCH   6  27
TORSDOF 5
ENDMDL
MODEL 3
REMARK VINA RESULT: -6.647788777      0.929      1.166
REMARK  5 active torsions:
REMARK  status: ('A' for Active; 'I' for Inactive)
REMARK    1  A    between atoms: C6_6  and  C7_7 
REMARK    2  A    between atoms: C10_13  and  C11_14 
REMARK    3  A    between atoms: C12_15  and  C13_16 
REMARK    4  A    between atoms: C17_22  and  C18_23 
REMARK       I    between atoms: C18_23  and  N3_25 
REMARK    5  A    between atoms: N3_25  and  O3_27 
ROOT
HETATM    1  C1  UNL     1       0.050   4.661  10.220  1.00  0.00     0.017 C 
HETATM    2  C2  UNL     1      -1.144   4.216  10.588  1.00  0.00    -0.057 C 
HETATM    3  C3  UNL     1      -2.402   4.906  10.104  1.00  0.00     0.048 C 
HETATM    4  C4  UNL     1      -2.981   5.459  11.433  1.00  0.00    -0.005 C 
HETATM    5  C5  UNL     1      -1.865   6.272  12.019  1.00  0.00     0.018 C 
HETATM    6  C6  UNL     1      -4.231   6.165  11.108  1.00  0.00     0.088 C 
HETATM    7  C9  UNL     1      -5.220   6.205  12.246  1.00  0.00     0.223 C 
HETATM    8  O1  UNL     1      -6.394   6.645  12.032  1.00  0.00    -0.273 OA
HETATM    9  N1  UNL     1      -4.799   5.750  13.510  1.00  0.00    -0.344 N 
ATOM     10  H1  UNL     1      -5.372   5.980  14.322  1.00  0.00     0.163 HD
HETATM   11  C10 UNL     1      -3.600   4.974  13.717  1.00  0.00     0.187 C 
HETATM   12  C16 UNL     1      -3.235   4.307  12.377  1.00  0.00     0.121 C 
HETATM   13  N2  UNL     1      -2.250   3.353  12.548  1.00  0.00    -0.398 N 
ATOM     14  H2  UNL     1      -2.177   2.847  13.430  1.00  0.00     0.154 HD
HETATM   15  C17 UNL     1      -1.330   3.075  11.480  1.00  0.00     0.201 C 
ENDROOT
BRANCH  15  16
HETATM   16  C18 UNL     1      -1.785   1.890  10.678  1.00  0.00     0.269 C 
HETATM   17  O2  UNL     1      -1.282   1.729   9.535  1.00  0.00    -0.269 OA
HETATM   18  N3  UNL     1      -2.733   0.949  11.105  1.00  0.00    -0.229 N 
HETATM   19  C19 UNL     1      -3.083  -0.153  10.245  1.00  0.00     0.189 C 
BRANCH  18  20
HETATM   20  O3  UNL     1      -3.329   1.066  12.291  1.00  0.00    -0.281 OA
HETATM   21  C20 UNL     1      -4.715   0.951  12.154  1.00  0.00     0.238 C 
ENDBRANCH  18  20
ENDBRANCH  15  16
BRANCH  11  22
HETATM   22  C11 UNL     1      -3.826   3.809  14.615  1.00  0.00    -0.079 C 
HETATM   23  C12 UNL     1      -4.025   2.885  15.361  1.00  0.00    -0.100 C 
BRANCH  23  24
HETATM   24  C13 UNL     1      -4.276   1.775  16.296  1.00  0.00     0.057 C 
HETATM   25  C14 UNL     1      -4.357   0.509  15.489  1.00  0.00     0.023 C 
HETATM   26  C15 UNL     1      -5.540   1.960  17.084  1.00  0.00     0.023 C 
ENDBRANCH  23  24
ENDBRANCH  11  22
BRANCH   6  27
HETATM   27  C7  UNL     1      -4.154   7.494  10.439  1.00  0.00     0.010 C 
HETATM   28  C8  UNL     1      -4.733   7.632   9.089  1.00  0.00     0.006 C 
ENDBRANCH   6  27
TORSDOF 5
ENDMDL
MODEL 4
REMARK VINA RESULT: -6.575326158      1.240      1.496
REMARK  5 active torsions:
REMARK  status: ('A' for Active; 'I' for Inactive)
REMARK    1  A    between atoms: C6_6  and  C7_7 
REMARK    2  A    between atoms: C10_13  and  C11_14 
REMARK    3  A    between atoms: C12_15  and  C13_16 
REMARK    4  A    between atoms: C17_22  and  C18_23 
REMARK       I    between atoms: C18_23  and  N3_25 
REMARK    5  A    between atoms: N3_25  and  O3_27 
ROOT
HETATM    1  C1  UNL     1       0.750   3.857  10.210  1.00  0.00     0.017 C 
HETATM    2  C2  UNL     1      -0.540   3.757  10.498  1.00  0.00    -0.057 C 
HETATM    3  C3  UNL     1      -1.543   4.699   9.860  1.00  0.00     0.048 C 
HETATM    4  C4  UNL     1      -2.052   5.488  11.095  1.00  0.00    -0.005 C 
HETATM    5  C5  UNL     1      -0.809   6.041  11.726  1.00  0.00     0.018 C 
HETATM    6  C6  UNL     1      -3.053   6.454  10.616  1.00  0.00     0.088 C 
HETATM    7  C9  UNL     1      -4.076   6.836  11.657  1.00  0.00     0.223 C 
HETATM    8  O1  UNL     1      -5.080   7.537  11.311  1.00  0.00    -0.273 OA
HETATM    9  N1  UNL     1      -3.876   6.397  12.979  1.00  0.00    -0.344 N 
ATOM     10  H1  UNL     1      -4.426   6.830  13.721  1.00  0.00     0.163 HD
HETATM   11  C10 UNL     1      -2.934   5.365  13.341  1.00  0.00     0.187 C 
HETATM   12  C16 UNL     1      -2.659   4.519  12.083  1.00  0.00     0.121 C 
HETATM   13  N2  UNL     1      -1.966   3.366  12.401  1.00  0.00    -0.398 N 
ATOM     14  H2  UNL     1      -2.087   2.933  13.316  1.00  0.00     0.154 HD
HETATM   15  C17 UNL     1      -1.076   2.778  11.439  1.00  0.00     0.201 C 
ENDROOT
BRANCH  15  16
HETATM   16  C18 UNL     1      -1.762   1.682  10.676  1.00  0.00     0.269 C 
HETATM   17  O2  UNL     1      -1.454   1.532   9.464  1.00  0.00    -0.269 OA
HETATM   18  N3  UNL     1      -2.725   0.814  11.210  1.00  0.00    -0.229 N 
HETATM   19  C19 UNL     1      -3.308  -0.206  10.377  1.00  0.00     0.189 C 
BRANCH  18  20
HETATM   20  O3  UNL     1      -3.122   0.928  12.477  1.00  0.00    -0.281 OA
HETATM   21  C20 UNL     1      -4.517   0.892  12.556  1.00  0.00     0.238 C 
ENDBRANCH  18  20
ENDBRANCH  15  16
BRANCH  11  22
HETATM   22  C11 UNL     1      -3.514   4.373  14.286  1.00  0.00    -0.079 C 
HETATM   23  C12 UNL     1      -3.986   3.594  15.073  1.00  0.00    -0.100 C 
BRANCH  23  24
HETATM   24  C13 UNL     1      -4.558   2.659  16.058  1.00  0.00     0.057 C 
HETATM   25  C14 UNL     1      -3.805   1.363  15.947  1.00  0.00     0.023 C 
HETATM   26  C15 UNL     1      -6.024   2.419  15.840  1.00  0.00     0.023 C 
ENDBRANCH  23  24
ENDBRANCH  11  22
BRANCH   6  27
HETATM   27  C7  UNL     1      -2.591   7.661   9.875  1.00  0.00     0.010 C 
HETATM   28  C8  UNL     1      -3.024   7.830   8.474  1.00  0.00     0.006 C 
ENDBRANCH   6  27
TORSDOF 5
ENDMDL
MODEL 5
REMARK VINA RESULT: -6.457997239      0.856      1.135
REMARK  5 active torsions:
REMARK  status: ('A' for Active; 'I' for Inactive)
REMARK    1  A    between atoms: C6_6  and  C7_7 
REMARK    2  A    between atoms: C10_13  and  C11_14 
REMARK    3  A    between atoms: C12_15  and  C13_16 
REMARK    4  A    between atoms: C17_22  and  C18_23 
REMARK       I    between atoms: C18_23  and  N3_25 
REMARK    5  A    between atoms: N3_25  and  O3_27 
ROOT
HETATM    1  C1  UNL     1      -0.118   4.659   9.719  1.00  0.00     0.017 C 
HETATM    2  C2  UNL     1      -1.340   4.269  10.058  1.00  0.00    -0.057 C 
HETATM    3  C3  UNL     1      -2.543   4.748   9.271  1.00  0.00     0.048 C 
HETATM    4  C4  UNL     1      -3.286   5.600  10.335  1.00  0.00    -0.005 C 
HETATM    5  C5  UNL     1      -2.261   6.590  10.804  1.00  0.00     0.018 C 
HETATM    6  C6  UNL     1      -4.500   6.135   9.699  1.00  0.00     0.088 C 
HETATM    7  C9  UNL     1      -5.618   6.424  10.669  1.00  0.00     0.223 C 
HETATM    8  O1  UNL     1      -6.765   6.737  10.218  1.00  0.00    -0.273 OA
HETATM    9  N1  UNL     1      -5.343   6.335  12.047  1.00  0.00    -0.344 N 
ATOM     10  H1  UNL     1      -6.012   6.742  12.701  1.00  0.00     0.163 HD
HETATM   11  C10 UNL     1      -4.163   5.699  12.584  1.00  0.00     0.187 C 
HETATM   12  C16 UNL     1      -3.630   4.724  11.516  1.00  0.00     0.121 C 
HETATM   13  N2  UNL     1      -2.656   3.895  12.042  1.00  0.00    -0.398 N 
ATOM     14  H2  UNL     1      -2.680   3.641  13.029  1.00  0.00     0.154 HD
HETATM   15  C17 UNL     1      -1.611   3.393  11.194  1.00  0.00     0.201 C 
ENDROOT
BRANCH  15  16
HETATM   16  C18 UNL     1      -1.947   2.019  10.689  1.00  0.00     0.269 C 
HETATM   17  O2  UNL     1      -1.554   1.708   9.534  1.00  0.00    -0.269 OA
HETATM   18  N3  UNL     1      -2.671   1.056  11.406  1.00  0.00    -0.229 N 
HETATM   19  C19 UNL     1      -2.924  -0.234  10.816  1.00  0.00     0.189 C 
BRANCH  18  20
HETATM   20  O3  UNL     1      -3.143   1.320  12.624  1.00  0.00    -0.281 OA
HETATM   21  C20 UNL     1      -4.301   0.577  12.870  1.00  0.00     0.238 C 
ENDBRANCH  18  20
ENDBRANCH  15  16
BRANCH  11  22
HETATM   22  C11 UNL     1      -4.475   4.799  13.727  1.00  0.00    -0.079 C 
HETATM   23  C12 UNL     1      -4.710   4.090  14.671  1.00  0.00    -0.100 C 
BRANCH  23  24
HETATM   24  C13 UNL     1      -4.975   3.236  15.842  1.00  0.00     0.057 C 
HETATM   25  C14 UNL     1      -3.867   2.224  15.928  1.00  0.00     0.023 C 
HETATM   26  C15 UNL     1      -6.301   2.536  15.755  1.00  0.00     0.023 C 
ENDBRANCH  23  24
ENDBRANCH  11  22
BRANCH   6  27
HETATM   27  C7  UNL     1      -4.367   7.246   8.715  1.00  0.00     0.010 C 
HETATM   28  C8  UNL     1      -4.747   6.988   7.313  1.00  0.00     0.006 C 
ENDBRANCH   6  27
TORSDOF 5
ENDMDL
