MODEL 1
REMARK VINA RESULT: -9.351589259      0.000      0.000
REMARK  3 active torsions:
REMARK  status: ('A' for Active; 'I' for Inactive)
REMARK    1  A    between atoms: N2_9  and  C7_10 
REMARK    2  A    between atoms: C7_10  and  C8_11 
REMARK       I    between atoms: C8_11  and  N3_13 
REMARK       I    between atoms: N3_13  and  C9_15 
REMARK       I    between atoms: C9_15  and  N4_17 
REMARK    3  A    between atoms: N4_17  and  C10_19 
ROOT
HETATM    1  N1  UNL     1      -6.597   4.911  13.886  1.00  0.00    -0.195 NA
HETATM    2  C1  UNL     1      -6.146   4.235  14.710  1.00  0.00     0.084 C 
HETATM    3  C2  UNL     1      -5.578   3.383  15.780  1.00  0.00     0.192 C 
HETATM    4  C3  UNL     1      -6.665   3.018  16.722  1.00  0.00     0.048 C 
HETATM    5  C4  UNL     1      -6.344   1.822  17.574  1.00  0.00     0.087 C 
HETATM    6  C5  UNL     1      -5.593   0.790  16.853  1.00  0.00     0.164 C 
HETATM    7  O1  UNL     1      -5.818  -0.383  17.094  1.00  0.00    -0.292 OA
HETATM    8  C6  UNL     1      -4.583   1.152  15.858  1.00  0.00     0.137 C 
HETATM    9  N2  UNL     1      -4.770   2.392  15.229  1.00  0.00    -0.361 N 
ENDROOT
BRANCH   9  10
HETATM   10  C7  UNL     1      -4.868   2.243  13.740  1.00  0.00     0.227 C 
BRANCH  10  11
HETATM   11  C8  UNL     1      -4.232   1.149  13.259  1.00  0.00     0.243 C 
HETATM   12  O2  UNL     1      -4.515  -0.038  13.417  1.00  0.00    -0.271 OA
HETATM   13  N3  UNL     1      -2.827   1.177  12.292  1.00  0.00    -0.278 N 
HETATM   14  C9  UNL     1      -2.668   2.586  12.193  1.00  0.00     0.323 C 
ATOM     15  H3  UNL     1      -2.271   0.415  11.904  1.00  0.00     0.173 HD
HETATM   16  O3  UNL     1      -3.302   3.518  12.556  1.00  0.00    -0.247 OA
HETATM   17  N4  UNL     1      -1.413   2.931  11.469  1.00  0.00    -0.338 N 
ATOM     18  H4  UNL     1      -0.811   2.186  11.119  1.00  0.00     0.164 HD
BRANCH  17  19
HETATM   19  C10 UNL     1      -1.044   4.297  11.258  1.00  0.00     0.091 C 
HETATM   20  C11 UNL     1      -1.405   4.839   9.910  1.00  0.00     0.030 C 
HETATM   21  C12 UNL     1      -0.199   5.110   9.034  1.00  0.00    -0.012 C 
HETATM   22  C13 UNL     1       0.398   6.446   9.330  1.00  0.00     0.009 C 
HETATM   23  C17 UNL     1       0.753   3.976   9.179  1.00  0.00     0.010 C 
HETATM   24  C14 UNL     1       1.314   6.444  10.525  1.00  0.00    -0.013 C 
HETATM   25  C15 UNL     1       2.322   5.312  10.451  1.00  0.00     0.010 C 
HETATM   26  C19 UNL     1       0.557   6.059  11.784  1.00  0.00     0.011 C 
HETATM   27  C16 UNL     1       1.374   4.107  10.571  1.00  0.00    -0.008 C 
HETATM   28  C18 UNL     1       0.410   4.562  11.607  1.00  0.00     0.013 C 
ENDBRANCH  17  19
ENDBRANCH  10  11
ENDBRANCH   9  10
TORSDOF 3
ENDMDL
MODEL 2
REMARK VINA RESULT: -8.575065278      3.637      8.913
REMARK  3 active torsions:
REMARK  status: ('A' for Active; 'I' for Inactive)
REMARK    1  A    between atoms: N2_9  and  C7_10 
REMARK    2  A    between atoms: C7_10  and  C8_11 
REMARK       I    between atoms: C8_11  and  N3_13 
REMARK       I    between atoms: N3_13  and  C9_15 
REMARK       I    between atoms: C9_15  and  N4_17 
REMARK    3  A    between atoms: N4_17  and  C10_19 
ROOT
HETATM    1  N1  UNL     1       4.374   2.807   8.681  1.00  0.00    -0.195 NA
HETATM    2  C1  UNL     1       3.938   3.859   8.479  1.00  0.00     0.084 C 
HETATM    3  C2  UNL     1       3.392   5.208   8.203  1.00  0.00     0.192 C 
HETATM    4  C3  UNL     1       2.937   5.256   6.790  1.00  0.00     0.048 C 
HETATM    5  C4  UNL     1       1.975   6.375   6.506  1.00  0.00     0.087 C 
HETATM    6  C5  UNL     1       1.039   6.618   7.608  1.00  0.00     0.164 C 
HETATM    7  O1  UNL     1      -0.108   6.938   7.351  1.00  0.00    -0.292 OA
HETATM    8  C6  UNL     1       1.466   6.484   9.002  1.00  0.00     0.137 C 
HETATM    9  N2  UNL     1       2.532   5.600   9.225  1.00  0.00    -0.361 N 
ENDROOT
BRANCH   9  10
HETATM   10  C7  UNL     1       2.154   4.516  10.191  1.00  0.00     0.227 C 
BRANCH  10  11
HETATM   11  C8  UNL     1       1.891   4.967  11.439  1.00  0.00     0.243 C 
HETATM   12  O2  UNL     1       2.590   5.671  12.168  1.00  0.00    -0.271 OA
HETATM   13  N3  UNL     1       0.471   4.634  12.324  1.00  0.00    -0.278 N 
HETATM   14  C9  UNL     1      -0.209   3.858  11.346  1.00  0.00     0.323 C 
ATOM     15  H3  UNL     1       0.194   4.908  13.266  1.00  0.00     0.173 HD
HETATM   16  O3  UNL     1       0.019   3.559  10.223  1.00  0.00    -0.247 OA
HETATM   17  N4  UNL     1      -1.483   3.313  11.889  1.00  0.00    -0.338 N 
ATOM     18  H4  UNL     1      -1.755   3.527  12.849  1.00  0.00     0.164 HD
BRANCH  17  19
HETATM   19  C10 UNL     1      -2.331   2.492  11.079  1.00  0.00     0.091 C 
HETATM   20  C11 UNL     1      -3.660   3.099  10.755  1.00  0.00     0.030 C 
HETATM   21  C12 UNL     1      -4.817   2.401  11.438  1.00  0.00    -0.012 C 
HETATM   22  C13 UNL     1      -5.259   1.201  10.667  1.00  0.00     0.009 C 
HETATM   23  C17 UNL     1      -4.427   2.108  12.843  1.00  0.00     0.010 C 
HETATM   24  C14 UNL     1      -4.419  -0.023  10.925  1.00  0.00    -0.013 C 
HETATM   25  C15 UNL     1      -4.235  -0.268  12.411  1.00  0.00     0.010 C 
HETATM   26  C19 UNL     1      -2.980   0.214  10.502  1.00  0.00     0.011 C 
HETATM   27  C16 UNL     1      -3.403   0.972  12.781  1.00  0.00    -0.008 C 
HETATM   28  C18 UNL     1      -2.468   1.084  11.632  1.00  0.00     0.013 C 
ENDBRANCH  17  19
ENDBRANCH  10  11
ENDBRANCH   9  10
TORSDOF 3
ENDMDL
MODEL 3
REMARK VINA RESULT: -8.417876291      2.906      3.682
REMARK  3 active torsions:
REMARK  status: ('A' for Active; 'I' for Inactive)
REMARK    1  A    between atoms: N2_9  and  C7_10 
REMARK    2  A    between atoms: C7_10  and  C8_11 
REMARK       I    between atoms: C8_11  and  N3_13 
REMARK       I    between atoms: N3_13  and  C9_15 
REMARK       I    between atoms: C9_15  and  N4_17 
REMARK    3  A    between atoms: N4_17  and  C10_19 
ROOT
HETATM    1  N1  UNL     1      -6.846   5.175  13.923  1.00  0.00    -0.195 NA
HETATM    2  C1  UNL     1      -6.302   4.423  14.614  1.00  0.00     0.084 C 
HETATM    3  C2  UNL     1      -5.621   3.464  15.515  1.00  0.00     0.192 C 
HETATM    4  C3  UNL     1      -6.638   2.546  16.086  1.00  0.00     0.048 C 
HETATM    5  C4  UNL     1      -6.057   1.276  16.641  1.00  0.00     0.087 C 
HETATM    6  C5  UNL     1      -4.939   0.762  15.843  1.00  0.00     0.164 C 
HETATM    7  O1  UNL     1      -4.808  -0.443  15.715  1.00  0.00    -0.292 OA
HETATM    8  C6  UNL     1      -3.988   1.673  15.206  1.00  0.00     0.137 C 
HETATM    9  N2  UNL     1      -4.484   2.949  14.900  1.00  0.00    -0.361 N 
ENDROOT
BRANCH   9  10
HETATM   10  C7  UNL     1      -4.356   3.252  13.437  1.00  0.00     0.227 C 
BRANCH  10  11
HETATM   11  C8  UNL     1      -3.166   2.886  12.906  1.00  0.00     0.243 C 
HETATM   12  O2  UNL     1      -2.793   1.769  12.549  1.00  0.00    -0.271 OA
HETATM   13  N3  UNL     1      -1.857   3.939  12.613  1.00  0.00    -0.278 N 
HETATM   14  C9  UNL     1      -2.461   5.151  13.046  1.00  0.00     0.323 C 
ATOM     15  H3  UNL     1      -0.926   3.756  12.240  1.00  0.00     0.173 HD
HETATM   16  O3  UNL     1      -3.544   5.447  13.423  1.00  0.00    -0.247 OA
HETATM   17  N4  UNL     1      -1.486   6.276  13.010  1.00  0.00    -0.338 N 
ATOM     18  H4  UNL     1      -0.531   6.105  12.693  1.00  0.00     0.164 HD
BRANCH  17  19
HETATM   19  C10 UNL     1      -1.874   7.592  13.412  1.00  0.00     0.091 C 
HETATM   20  C11 UNL     1      -2.238   8.506  12.284  1.00  0.00     0.030 C 
HETATM   21  C12 UNL     1      -1.238   9.624  12.076  1.00  0.00    -0.012 C 
HETATM   22  C13 UNL     1      -1.506  10.771  12.995  1.00  0.00     0.009 C 
HETATM   23  C17 UNL     1       0.133   9.059  12.197  1.00  0.00     0.010 C 
HETATM   24  C14 UNL     1      -0.943  10.577  14.379  1.00  0.00    -0.013 C 
HETATM   25  C15 UNL     1       0.509  10.140  14.333  1.00  0.00     0.010 C 
HETATM   26  C19 UNL     1      -1.575   9.372  15.052  1.00  0.00     0.011 C 
HETATM   27  C16 UNL     1       0.346   8.755  13.682  1.00  0.00    -0.008 C 
HETATM   28  C18 UNL     1      -0.867   8.226  14.357  1.00  0.00     0.013 C 
ENDBRANCH  17  19
ENDBRANCH  10  11
ENDBRANCH   9  10
TORSDOF 3
ENDMDL
MODEL 4
REMARK VINA RESULT: -8.303965950      3.813      4.976
REMARK  3 active torsions:
REMARK  status: ('A' for Active; 'I' for Inactive)
REMARK    1  A    between atoms: N2_9  and  C7_10 
REMARK    2  A    between atoms: C7_10  and  C8_11 
REMARK       I    between atoms: C8_11  and  N3_13 
REMARK       I    between atoms: N3_13  and  C9_15 
REMARK       I    between atoms: C9_15  and  N4_17 
REMARK    3  A    between atoms: N4_17  and  C10_19 
ROOT
HETATM    1  N1  UNL     1      -6.562   5.444  13.936  1.00  0.00    -0.195 NA
HETATM    2  C1  UNL     1      -6.110   4.630  14.624  1.00  0.00     0.084 C 
HETATM    3  C2  UNL     1      -5.549   3.593  15.520  1.00  0.00     0.192 C 
HETATM    4  C3  UNL     1      -6.633   2.651  15.893  1.00  0.00     0.048 C 
HETATM    5  C4  UNL     1      -6.132   1.332  16.409  1.00  0.00     0.087 C 
HETATM    6  C5  UNL     1      -4.932   0.861  15.709  1.00  0.00     0.164 C 
HETATM    7  O1  UNL     1      -4.797  -0.332  15.502  1.00  0.00    -0.292 OA
HETATM    8  C6  UNL     1      -3.905   1.802  15.262  1.00  0.00     0.137 C 
HETATM    9  N2  UNL     1      -4.351   3.107  15.003  1.00  0.00    -0.361 N 
ENDROOT
BRANCH   9  10
HETATM   10  C7  UNL     1      -4.049   3.521  13.594  1.00  0.00     0.227 C 
BRANCH  10  11
HETATM   11  C8  UNL     1      -2.890   4.207  13.464  1.00  0.00     0.243 C 
HETATM   12  O2  UNL     1      -1.895   4.184  14.188  1.00  0.00    -0.271 OA
HETATM   13  N3  UNL     1      -2.540   5.315  12.215  1.00  0.00    -0.278 N 
HETATM   14  C9  UNL     1      -3.752   5.196  11.482  1.00  0.00     0.323 C 
ATOM     15  H3  UNL     1      -1.714   5.889  12.046  1.00  0.00     0.173 HD
HETATM   16  O3  UNL     1      -4.714   4.512  11.580  1.00  0.00    -0.247 OA
HETATM   17  N4  UNL     1      -3.789   6.162  10.350  1.00  0.00    -0.338 N 
ATOM     18  H4  UNL     1      -2.997   6.786  10.194  1.00  0.00     0.164 HD
BRANCH  17  19
HETATM   19  C10 UNL     1      -4.922   6.224   9.479  1.00  0.00     0.091 C 
HETATM   20  C11 UNL     1      -4.585   6.364   8.028  1.00  0.00     0.030 C 
HETATM   21  C12 UNL     1      -4.955   7.717   7.457  1.00  0.00    -0.012 C 
HETATM   22  C13 UNL     1      -6.391   7.762   7.052  1.00  0.00     0.009 C 
HETATM   23  C17 UNL     1      -4.570   8.764   8.441  1.00  0.00     0.010 C 
HETATM   24  C14 UNL     1      -7.331   8.031   8.198  1.00  0.00    -0.013 C 
HETATM   25  C15 UNL     1      -6.877   9.222   9.022  1.00  0.00     0.010 C 
HETATM   26  C19 UNL     1      -7.244   6.927   9.236  1.00  0.00     0.011 C 
HETATM   27  C16 UNL     1      -5.566   8.659   9.598  1.00  0.00    -0.008 C 
HETATM   28  C18 UNL     1      -5.939   7.259   9.930  1.00  0.00     0.013 C 
ENDBRANCH  17  19
ENDBRANCH  10  11
ENDBRANCH   9  10
TORSDOF 3
ENDMDL
MODEL 5
REMARK VINA RESULT: -8.289867548      3.186      5.242
REMARK  3 active torsions:
REMARK  status: ('A' for Active; 'I' for Inactive)
REMARK    1  A    between atoms: N2_9  and  C7_10 
REMARK    2  A    between atoms: C7_10  and  C8_11 
REMARK       I    between atoms: C8_11  and  N3_13 
REMARK       I    between atoms: N3_13  and  C9_15 
REMARK       I    between atoms: C9_15  and  N4_17 
REMARK    3  A    between atoms: N4_17  and  C10_19 
ROOT
HETATM    1  N1  UNL     1      -4.760   0.054  15.361  1.00  0.00    -0.195 NA
HETATM    2  C1  UNL     1      -4.341   0.427  14.348  1.00  0.00     0.084 C 
HETATM    3  C2  UNL     1      -3.807   0.884  13.044  1.00  0.00     0.192 C 
HETATM    4  C3  UNL     1      -4.735   0.445  11.972  1.00  0.00     0.048 C 
HETATM    5  C4  UNL     1      -4.569   1.205  10.686  1.00  0.00     0.087 C 
HETATM    6  C5  UNL     1      -4.276   2.626  10.894  1.00  0.00     0.164 C 
HETATM    7  O1  UNL     1      -4.745   3.447  10.124  1.00  0.00    -0.292 OA
HETATM    8  C6  UNL     1      -3.433   3.065  12.007  1.00  0.00     0.137 C 
HETATM    9  N2  UNL     1      -3.416   2.218  13.124  1.00  0.00    -0.361 N 
ENDROOT
BRANCH   9  10
HETATM   10  C7  UNL     1      -3.851   2.938  14.366  1.00  0.00     0.227 C 
BRANCH  10  11
HETATM   11  C8  UNL     1      -4.905   3.766  14.174  1.00  0.00     0.243 C 
HETATM   12  O2  UNL     1      -6.094   3.480  14.033  1.00  0.00    -0.271 OA
HETATM   13  N3  UNL     1      -4.811   5.465  14.071  1.00  0.00    -0.278 N 
HETATM   14  C9  UNL     1      -3.413   5.612  14.277  1.00  0.00     0.323 C 
ATOM     15  H3  UNL     1      -5.537   6.163  13.909  1.00  0.00     0.173 HD
HETATM   16  O3  UNL     1      -2.531   4.863  14.533  1.00  0.00    -0.247 OA
HETATM   17  N4  UNL     1      -2.997   7.034  14.128  1.00  0.00    -0.338 N 
ATOM     18  H4  UNL     1      -3.697   7.744  13.911  1.00  0.00     0.164 HD
BRANCH  17  19
HETATM   19  C10 UNL     1      -1.627   7.415  14.286  1.00  0.00     0.091 C 
HETATM   20  C11 UNL     1      -1.360   8.305  15.460  1.00  0.00     0.030 C 
HETATM   21  C12 UNL     1      -0.977   9.716  15.063  1.00  0.00    -0.012 C 
HETATM   22  C13 UNL     1       0.479   9.815  14.750  1.00  0.00     0.009 C 
HETATM   23  C17 UNL     1      -1.867  10.152  13.954  1.00  0.00     0.010 C 
HETATM   24  C14 UNL     1       0.826   9.370  13.353  1.00  0.00    -0.013 C 
HETATM   25  C15 UNL     1      -0.081  10.017  12.322  1.00  0.00     0.010 C 
HETATM   26  C19 UNL     1       0.474   7.907  13.152  1.00  0.00     0.011 C 
HETATM   27  C16 UNL     1      -1.423   9.374  12.712  1.00  0.00    -0.008 C 
HETATM   28  C18 UNL     1      -1.032   7.970  13.004  1.00  0.00     0.013 C 
ENDBRANCH  17  19
ENDBRANCH  10  11
ENDBRANCH   9  10
TORSDOF 3
ENDMDL
