MODEL 1
REMARK VINA RESULT: -6.096289219      0.000      0.000
REMARK  9 active torsions:
REMARK  status: ('A' for Active; 'I' for Inactive)
REMARK    1  A    between atoms: N1_2  and  C4_5 
REMARK    2  A    between atoms: C4_5  and  C5_6 
REMARK    3  A    between atoms: C5_6  and  C6_7 
REMARK    4  A    between atoms: C7_8  and  C8_9 
REMARK    5  A    between atoms: C8_9  and  O1_10 
REMARK    6  A    between atoms: C10_13  and  C11_14 
REMARK    7  A    between atoms: C12_15  and  C13_16 
REMARK    8  A    between atoms: C14_17  and  C15_18 
REMARK    9  A    between atoms: C15_18  and  O2_19 
ROOT
HETATM    1  C6  UNL     1      -4.063   1.717  15.346  1.00  0.00     0.088 C 
HETATM    2  C7  UNL     1      -5.231   2.172  16.187  1.00  0.00     0.027 C 
HETATM    3  C9  UNL     1      -5.979   3.201  15.395  1.00  0.00     0.038 C 
HETATM    4  C10 UNL     1      -4.949   4.279  15.085  1.00  0.00     0.160 C 
HETATM    5  S1  UNL     1      -3.589   3.261  14.551  1.00  0.00     0.036 S 
HETATM    6  O3  UNL     1      -2.202   3.871  15.271  1.00  0.00    -0.256 OA
ENDROOT
BRANCH   4   7
HETATM    7  C11 UNL     1      -5.400   5.161  14.019  1.00  0.00    -0.075 C 
HETATM    8  C12 UNL     1      -5.769   5.889  13.117  1.00  0.00    -0.014 C 
BRANCH   8   9
HETATM    9  C13 UNL     1      -6.184   6.730  12.055  1.00  0.00    -0.012 C 
HETATM   10  C14 UNL     1      -6.521   7.446  11.141  1.00  0.00    -0.049 C 
BRANCH  10  11
HETATM   11  C15 UNL     1      -6.925   8.312  10.014  1.00  0.00     0.270 C 
HETATM   12 BR1  UNL     1      -5.920   9.955  10.009  1.00  0.00    -0.048 Br
BRANCH  11  13
HETATM   13  O2  UNL     1      -6.707   7.642   8.793  1.00  0.00    -0.373 OA
ATOM     14  H2  UNL     1      -6.162   8.174   8.226  1.00  0.00     0.212 HD
ENDBRANCH  11  13
ENDBRANCH  10  11
ENDBRANCH   8   9
ENDBRANCH   4   7
BRANCH   2  15
HETATM   15  C8  UNL     1      -6.127   1.070  16.635  1.00  0.00     0.170 C 
BRANCH  15  16
HETATM   16  O1  UNL     1      -5.554   0.361  17.690  1.00  0.00    -0.400 OA
ATOM     17  H1  UNL     1      -5.566   0.875  18.489  1.00  0.00     0.209 HD
ENDBRANCH  15  16
ENDBRANCH   2  15
BRANCH   1  18
HETATM   18  C5  UNL     1      -4.447   0.721  14.309  1.00  0.00     0.046 C 
BRANCH  18  19
HETATM   19  C4  UNL     1      -4.437   1.249  12.930  1.00  0.00     0.237 C 
BRANCH  19  20
HETATM   20  N1  UNL     1      -4.012   0.390  11.883  1.00  0.00    -0.079 N 
HETATM   21  C1  UNL     1      -4.923   0.622  10.740  1.00  0.00     0.271 C 
HETATM   22  C2  UNL     1      -4.001  -1.008  12.152  1.00  0.00     0.271 C 
HETATM   23  C3  UNL     1      -2.698   0.759  11.348  1.00  0.00     0.271 C 
ENDBRANCH  19  20
ENDBRANCH  18  19
ENDBRANCH   1  18
TORSDOF 9
ENDMDL
MODEL 2
REMARK VINA RESULT: -6.082688515      4.388      6.569
REMARK  9 active torsions:
REMARK  status: ('A' for Active; 'I' for Inactive)
REMARK    1  A    between atoms: N1_2  and  C4_5 
REMARK    2  A    between atoms: C4_5  and  C5_6 
REMARK    3  A    between atoms: C5_6  and  C6_7 
REMARK    4  A    between atoms: C7_8  and  C8_9 
REMARK    5  A    between atoms: C8_9  and  O1_10 
REMARK    6  A    between atoms: C10_13  and  C11_14 
REMARK    7  A    between atoms: C12_15  and  C13_16 
REMARK    8  A    between atoms: C14_17  and  C15_18 
REMARK    9  A    between atoms: C15_18  and  O2_19 
ROOT
HETATM    1  C6  UNL     1      -4.571   0.591  11.862  1.00  0.00     0.088 C 
HETATM    2  C7  UNL     1      -3.669  -0.378  11.135  1.00  0.00     0.027 C 
HETATM    3  C9  UNL     1      -2.289   0.207  11.137  1.00  0.00     0.038 C 
HETATM    4  C10 UNL     1      -2.443   1.568  10.471  1.00  0.00     0.160 C 
HETATM    5  S1  UNL     1      -3.887   2.166  11.323  1.00  0.00     0.036 S 
HETATM    6  O3  UNL     1      -4.890   2.859  10.170  1.00  0.00    -0.256 OA
ENDROOT
BRANCH   4   7
HETATM    7  C11 UNL     1      -1.290   2.420  10.722  1.00  0.00    -0.075 C 
HETATM    8  C12 UNL     1      -0.321   3.122  10.944  1.00  0.00    -0.014 C 
BRANCH   8   9
HETATM    9  C13 UNL     1       0.810   3.930  11.219  1.00  0.00    -0.012 C 
HETATM   10  C14 UNL     1       1.778   4.609  11.471  1.00  0.00    -0.049 C 
BRANCH  10  11
HETATM   11  C15 UNL     1       2.969   5.427  11.782  1.00  0.00     0.270 C 
HETATM   12 BR1  UNL     1       2.462   7.185  12.385  1.00  0.00    -0.048 Br
BRANCH  11  13
HETATM   13  O2  UNL     1       3.728   4.801  12.791  1.00  0.00    -0.373 OA
ATOM     14  H2  UNL     1       3.415   3.914  12.926  1.00  0.00     0.212 HD
ENDBRANCH  11  13
ENDBRANCH  10  11
ENDBRANCH   8   9
ENDBRANCH   4   7
BRANCH   2  15
HETATM   15  C8  UNL     1      -3.678  -1.758  11.696  1.00  0.00     0.170 C 
BRANCH  15  16
HETATM   16  O1  UNL     1      -2.499  -2.431  11.380  1.00  0.00    -0.400 OA
ATOM     17  H1  UNL     1      -2.078  -2.764  12.164  1.00  0.00     0.209 HD
ENDBRANCH  15  16
ENDBRANCH   2  15
BRANCH   1  18
HETATM   18  C5  UNL     1      -4.465   0.483  13.342  1.00  0.00     0.046 C 
BRANCH  18  19
HETATM   19  C4  UNL     1      -4.444   1.782  14.044  1.00  0.00     0.237 C 
BRANCH  19  20
HETATM   20  N1  UNL     1      -4.769   1.808  15.424  1.00  0.00    -0.079 N 
HETATM   21  C1  UNL     1      -3.588   2.344  16.136  1.00  0.00     0.271 C 
HETATM   22  C2  UNL     1      -5.119   0.570  16.034  1.00  0.00     0.271 C 
HETATM   23  C3  UNL     1      -5.821   2.780  15.738  1.00  0.00     0.271 C 
ENDBRANCH  19  20
ENDBRANCH  18  19
ENDBRANCH   1  18
TORSDOF 9
ENDMDL
MODEL 3
REMARK VINA RESULT: -5.955683557      0.969      1.308
REMARK  9 active torsions:
REMARK  status: ('A' for Active; 'I' for Inactive)
REMARK    1  A    between atoms: N1_2  and  C4_5 
REMARK    2  A    between atoms: C4_5  and  C5_6 
REMARK    3  A    between atoms: C5_6  and  C6_7 
REMARK    4  A    between atoms: C7_8  and  C8_9 
REMARK    5  A    between atoms: C8_9  and  O1_10 
REMARK    6  A    between atoms: C10_13  and  C11_14 
REMARK    7  A    between atoms: C12_15  and  C13_16 
REMARK    8  A    between atoms: C14_17  and  C15_18 
REMARK    9  A    between atoms: C15_18  and  O2_19 
ROOT
HETATM    1  C6  UNL     1      -3.994   1.927  15.163  1.00  0.00     0.088 C 
HETATM    2  C7  UNL     1      -5.154   2.468  15.965  1.00  0.00     0.027 C 
HETATM    3  C9  UNL     1      -5.850   3.487  15.114  1.00  0.00     0.038 C 
HETATM    4  C10 UNL     1      -4.773   4.507  14.770  1.00  0.00     0.160 C 
HETATM    5  S1  UNL     1      -3.449   3.412  14.304  1.00  0.00     0.036 S 
HETATM    6  O3  UNL     1      -2.048   4.000  15.015  1.00  0.00    -0.256 OA
ENDROOT
BRANCH   4   7
HETATM    7  C11 UNL     1      -5.175   5.355  13.657  1.00  0.00    -0.075 C 
HETATM    8  C12 UNL     1      -5.496   6.063  12.721  1.00  0.00    -0.014 C 
BRANCH   8   9
HETATM    9  C13 UNL     1      -5.850   6.890  11.627  1.00  0.00    -0.012 C 
HETATM   10  C14 UNL     1      -6.134   7.595  10.686  1.00  0.00    -0.049 C 
BRANCH  10  11
HETATM   11  C15 UNL     1      -6.474   8.449   9.528  1.00  0.00     0.270 C 
HETATM   12 BR1  UNL     1      -8.140   7.903   8.731  1.00  0.00    -0.048 Br
BRANCH  11  13
HETATM   13  O2  UNL     1      -6.584   9.792   9.941  1.00  0.00    -0.373 OA
ATOM     14  H2  UNL     1      -6.011  10.338   9.416  1.00  0.00     0.212 HD
ENDBRANCH  11  13
ENDBRANCH  10  11
ENDBRANCH   8   9
ENDBRANCH   4   7
BRANCH   2  15
HETATM   15  C8  UNL     1      -6.099   1.424  16.450  1.00  0.00     0.170 C 
BRANCH  15  16
HETATM   16  O1  UNL     1      -5.496   0.617  17.414  1.00  0.00    -0.400 OA
ATOM     17  H1  UNL     1      -4.991   1.140  18.025  1.00  0.00     0.209 HD
ENDBRANCH  15  16
ENDBRANCH   2  15
BRANCH   1  18
HETATM   18  C5  UNL     1      -4.405   0.900  14.168  1.00  0.00     0.046 C 
BRANCH  18  19
HETATM   19  C4  UNL     1      -4.403   1.376  12.770  1.00  0.00     0.237 C 
BRANCH  19  20
HETATM   20  N1  UNL     1      -3.959   0.488  11.757  1.00  0.00    -0.079 N 
HETATM   21  C1  UNL     1      -4.047  -0.881  12.313  1.00  0.00     0.271 C 
HETATM   22  C2  UNL     1      -2.636   0.672  11.264  1.00  0.00     0.271 C 
HETATM   23  C3  UNL     1      -4.869   0.443  10.607  1.00  0.00     0.271 C 
ENDBRANCH  19  20
ENDBRANCH  18  19
ENDBRANCH   1  18
TORSDOF 9
ENDMDL
MODEL 4
REMARK VINA RESULT: -5.695214842      1.581      1.830
REMARK  9 active torsions:
REMARK  status: ('A' for Active; 'I' for Inactive)
REMARK    1  A    between atoms: N1_2  and  C4_5 
REMARK    2  A    between atoms: C4_5  and  C5_6 
REMARK    3  A    between atoms: C5_6  and  C6_7 
REMARK    4  A    between atoms: C7_8  and  C8_9 
REMARK    5  A    between atoms: C8_9  and  O1_10 
REMARK    6  A    between atoms: C10_13  and  C11_14 
REMARK    7  A    between atoms: C12_15  and  C13_16 
REMARK    8  A    between atoms: C14_17  and  C15_18 
REMARK    9  A    between atoms: C15_18  and  O2_19 
ROOT
HETATM    1  C6  UNL     1      -4.103   2.641  14.188  1.00  0.00     0.088 C 
HETATM    2  C7  UNL     1      -4.982   3.412  15.144  1.00  0.00     0.027 C 
HETATM    3  C9  UNL     1      -5.678   4.478  14.353  1.00  0.00     0.038 C 
HETATM    4  C10 UNL     1      -4.554   5.285  13.716  1.00  0.00     0.160 C 
HETATM    5  S1  UNL     1      -3.530   3.962  13.108  1.00  0.00     0.036 S 
HETATM    6  O3  UNL     1      -1.942   4.354  13.480  1.00  0.00    -0.256 OA
ENDROOT
BRANCH   4   7
HETATM    7  C11 UNL     1      -5.044   6.118  12.627  1.00  0.00    -0.075 C 
HETATM    8  C12 UNL     1      -5.463   6.802  11.712  1.00  0.00    -0.014 C 
BRANCH   8   9
HETATM    9  C13 UNL     1      -5.959   7.582  10.639  1.00  0.00    -0.012 C 
HETATM   10  C14 UNL     1      -6.376   8.234   9.710  1.00  0.00    -0.049 C 
BRANCH  10  11
HETATM   11  C15 UNL     1      -6.891   9.019   8.568  1.00  0.00     0.270 C 
HETATM   12 BR1  UNL     1      -8.628   8.391   8.024  1.00  0.00    -0.048 Br
BRANCH  11  13
HETATM   13  O2  UNL     1      -6.990  10.378   8.929  1.00  0.00    -0.373 OA
ATOM     14  H2  UNL     1      -6.148  10.803   8.816  1.00  0.00     0.212 HD
ENDBRANCH  11  13
ENDBRANCH  10  11
ENDBRANCH   8   9
ENDBRANCH   4   7
BRANCH   2  15
HETATM   15  C8  UNL     1      -5.953   2.568  15.896  1.00  0.00     0.170 C 
BRANCH  15  16
HETATM   16  O1  UNL     1      -6.850   3.360  16.610  1.00  0.00    -0.400 OA
ATOM     17  H1  UNL     1      -7.712   2.962  16.631  1.00  0.00     0.209 HD
ENDBRANCH  15  16
ENDBRANCH   2  15
BRANCH   1  18
HETATM   18  C5  UNL     1      -4.856   1.637  13.390  1.00  0.00     0.046 C 
BRANCH  18  19
HETATM   19  C4  UNL     1      -4.118   0.381  13.146  1.00  0.00     0.237 C 
BRANCH  19  20
HETATM   20  N1  UNL     1      -3.820   0.024  11.806  1.00  0.00    -0.079 N 
HETATM   21  C1  UNL     1      -4.887   0.601  10.958  1.00  0.00     0.271 C 
HETATM   22  C2  UNL     1      -3.732  -1.365  11.506  1.00  0.00     0.271 C 
HETATM   23  C3  UNL     1      -2.604   0.673  11.306  1.00  0.00     0.271 C 
ENDBRANCH  19  20
ENDBRANCH  18  19
ENDBRANCH   1  18
TORSDOF 9
ENDMDL
MODEL 5
REMARK VINA RESULT: -5.644053399      5.345      7.619
REMARK  9 active torsions:
REMARK  status: ('A' for Active; 'I' for Inactive)
REMARK    1  A    between atoms: N1_2  and  C4_5 
REMARK    2  A    between atoms: C4_5  and  C5_6 
REMARK    3  A    between atoms: C5_6  and  C6_7 
REMARK    4  A    between atoms: C7_8  and  C8_9 
REMARK    5  A    between atoms: C8_9  and  O1_10 
REMARK    6  A    between atoms: C10_13  and  C11_14 
REMARK    7  A    between atoms: C12_15  and  C13_16 
REMARK    8  A    between atoms: C14_17  and  C15_18 
REMARK    9  A    between atoms: C15_18  and  O2_19 
ROOT
HETATM    1  C6  UNL     1      -0.899   7.915  12.378  1.00  0.00     0.088 C 
HETATM    2  C7  UNL     1      -1.300   8.531  13.696  1.00  0.00     0.027 C 
HETATM    3  C9  UNL     1      -1.817   7.427  14.568  1.00  0.00     0.038 C 
HETATM    4  C10 UNL     1      -2.958   6.806  13.774  1.00  0.00     0.160 C 
HETATM    5  S1  UNL     1      -2.183   6.669  12.177  1.00  0.00     0.036 S 
HETATM    6  O3  UNL     1      -3.302   7.182  11.038  1.00  0.00    -0.256 OA
ENDROOT
BRANCH   4   7
HETATM    7  C11 UNL     1      -3.326   5.498  14.298  1.00  0.00    -0.075 C 
HETATM    8  C12 UNL     1      -3.648   4.410  14.735  1.00  0.00    -0.014 C 
BRANCH   8   9
HETATM    9  C13 UNL     1      -4.042   3.150  15.249  1.00  0.00    -0.012 C 
HETATM   10  C14 UNL     1      -4.379   2.082  15.705  1.00  0.00    -0.049 C 
BRANCH  10  11
HETATM   11  C15 UNL     1      -4.800   0.783  16.272  1.00  0.00     0.270 C 
HETATM   12 BR1  UNL     1      -6.525   0.923  17.115  1.00  0.00    -0.048 Br
BRANCH  11  13
HETATM   13  O2  UNL     1      -4.870  -0.184  15.248  1.00  0.00    -0.373 OA
ATOM     14  H2  UNL     1      -4.696  -1.046  15.608  1.00  0.00     0.212 HD
ENDBRANCH  11  13
ENDBRANCH  10  11
ENDBRANCH   8   9
ENDBRANCH   4   7
BRANCH   2  15
HETATM   15  C8  UNL     1      -0.212   9.294  14.369  1.00  0.00     0.170 C 
BRANCH  15  16
HETATM   16  O1  UNL     1      -0.552   9.587  15.688  1.00  0.00    -0.400 OA
ATOM     17  H1  UNL     1       0.033  10.241  16.052  1.00  0.00     0.209 HD
ENDBRANCH  15  16
ENDBRANCH   2  15
BRANCH   1  18
HETATM   18  C5  UNL     1       0.432   7.253  12.427  1.00  0.00     0.046 C 
BRANCH  18  19
HETATM   19  C4  UNL     1       0.409   5.817  12.084  1.00  0.00     0.237 C 
BRANCH  19  20
HETATM   20  N1  UNL     1       1.401   5.319  11.201  1.00  0.00    -0.079 N 
HETATM   21  C1  UNL     1       0.894   4.036  10.663  1.00  0.00     0.271 C 
HETATM   22  C2  UNL     1       2.695   5.079  11.745  1.00  0.00     0.271 C 
HETATM   23  C3  UNL     1       1.559   6.148  10.003  1.00  0.00     0.271 C 
ENDBRANCH  19  20
ENDBRANCH  18  19
ENDBRANCH   1  18
TORSDOF 9
ENDMDL
