MODEL 1
REMARK VINA RESULT: -7.368469043      0.000      0.000
REMARK  4 active torsions:
REMARK  status: ('A' for Active; 'I' for Inactive)
REMARK    1  A    between atoms: C2_2  and  C3_3 
REMARK    2  A    between atoms: C3_3  and  N1_4 
REMARK    3  A    between atoms: S1_14  and  N3_15 
REMARK    4  A    between atoms: C15_21  and  O2_22 
ROOT
HETATM    1  N1  UNL     1      15.862  26.352   6.968  1.00  0.00    -0.340 N 
HETATM    2  C4  UNL     1      16.540  26.556   5.730  1.00  0.00     0.210 C 
HETATM    3  C5  UNL     1      16.353  25.370   4.831  1.00  0.00     0.181 C 
HETATM    4  O1  UNL     1      16.472  25.483   3.594  1.00  0.00    -0.290 OA
HETATM    5  C6  UNL     1      16.027  24.056   5.367  1.00  0.00     0.062 A 
HETATM    6  C7  UNL     1      15.634  23.883   6.648  1.00  0.00     0.116 A 
HETATM    7  N2  UNL     1      15.403  22.578   6.862  1.00  0.00    -0.353 N 
ATOM      8  H2  UNL     1      15.095  22.162   7.741  1.00  0.00     0.166 HD
HETATM    9  C8  UNL     1      15.649  21.906   5.713  1.00  0.00     0.030 A 
HETATM   10  C9  UNL     1      16.042  22.829   4.766  1.00  0.00     0.036 A 
HETATM   11  S1  UNL     1      16.421  22.222   3.189  1.00  0.00    -0.142 SA
HETATM   12  C11 UNL     1      15.772  22.939   1.763  1.00  0.00     0.076 C 
HETATM   13  C12 UNL     1      15.168  21.766   0.997  1.00  0.00     0.011 C 
HETATM   14  C13 UNL     1      15.436  20.486   1.735  1.00  0.00     0.018 C 
HETATM   15  C14 UNL     1      15.297  20.753   3.159  1.00  0.00     0.078 C 
HETATM   16  C15 UNL     1      15.850  19.921   4.205  1.00  0.00     0.140 C 
HETATM   17  C17 UNL     1      15.513  20.451   5.543  1.00  0.00     0.091 C 
HETATM   18  C18 UNL     1      15.540  25.078   7.507  1.00  0.00     0.271 C 
HETATM   19  O3  UNL     1      15.178  24.917   8.689  1.00  0.00    -0.266 OA
ENDROOT
BRANCH   1  20
HETATM   20  C3  UNL     1      15.477  27.550   7.724  1.00  0.00     0.126 C 
BRANCH  20  21
HETATM   21  C2  UNL     1      16.695  28.009   8.502  1.00  0.00     0.015 C 
HETATM   22  C1  UNL     1      17.107  29.397   8.070  1.00  0.00     0.006 C 
ENDBRANCH  20  21
ENDBRANCH   1  20
BRANCH  11  23
HETATM   23  N3  UNL     1      18.065  21.711   3.127  1.00  0.00    -0.199 NA
HETATM   24  C10 UNL     1      18.940  22.408   4.010  1.00  0.00     0.144 C 
ENDBRANCH  11  23
BRANCH  16  25
HETATM   25  O2  UNL     1      15.377  18.618   4.109  1.00  0.00    -0.389 OA
HETATM   26  C16 UNL     1      16.403  17.759   3.667  1.00  0.00     0.202 C 
ENDBRANCH  16  25
TORSDOF 4
ENDMDL
MODEL 2
REMARK VINA RESULT: -7.212646377      1.108      1.288
REMARK  4 active torsions:
REMARK  status: ('A' for Active; 'I' for Inactive)
REMARK    1  A    between atoms: C2_2  and  C3_3 
REMARK    2  A    between atoms: C3_3  and  N1_4 
REMARK    3  A    between atoms: S1_14  and  N3_15 
REMARK    4  A    between atoms: C15_21  and  O2_22 
ROOT
HETATM    1  N1  UNL     1      16.304  25.674   7.880  1.00  0.00    -0.340 N 
HETATM    2  C4  UNL     1      17.371  25.918   6.963  1.00  0.00     0.210 C 
HETATM    3  C5  UNL     1      17.161  25.139   5.700  1.00  0.00     0.181 C 
HETATM    4  O1  UNL     1      17.694  25.502   4.631  1.00  0.00    -0.290 OA
HETATM    5  C6  UNL     1      16.333  23.941   5.676  1.00  0.00     0.062 A 
HETATM    6  C7  UNL     1      15.522  23.611   6.703  1.00  0.00     0.116 A 
HETATM    7  N2  UNL     1      14.886  22.466   6.409  1.00  0.00    -0.353 N 
ATOM      8  H2  UNL     1      14.212  21.986   7.006  1.00  0.00     0.166 HD
HETATM    9  C8  UNL     1      15.290  22.055   5.184  1.00  0.00     0.030 A 
HETATM   10  C9  UNL     1      16.202  22.978   4.714  1.00  0.00     0.036 A 
HETATM   11  S1  UNL     1      16.881  22.684   3.150  1.00  0.00    -0.142 SA
HETATM   12  C11 UNL     1      16.943  23.913   1.944  1.00  0.00     0.076 C 
HETATM   13  C12 UNL     1      16.317  23.262   0.714  1.00  0.00     0.011 C 
HETATM   14  C13 UNL     1      15.973  21.832   1.017  1.00  0.00     0.018 C 
HETATM   15  C14 UNL     1      15.467  21.772   2.380  1.00  0.00     0.078 C 
HETATM   16  C15 UNL     1      15.407  20.567   3.178  1.00  0.00     0.140 C 
HETATM   17  C17 UNL     1      14.821  20.836   4.508  1.00  0.00     0.091 C 
HETATM   18  C18 UNL     1      15.491  24.510   7.873  1.00  0.00     0.271 C 
HETATM   19  O3  UNL     1      14.742  24.204   8.822  1.00  0.00    -0.266 OA
ENDROOT
BRANCH   1  20
HETATM   20  C3  UNL     1      16.044  26.704   8.892  1.00  0.00     0.126 C 
BRANCH  20  21
HETATM   21  C2  UNL     1      16.116  28.052   8.199  1.00  0.00     0.015 C 
HETATM   22  C1  UNL     1      14.733  28.520   7.807  1.00  0.00     0.006 C 
ENDBRANCH  20  21
ENDBRANCH   1  20
BRANCH  11  23
HETATM   23  N3  UNL     1      18.252  21.649   3.280  1.00  0.00    -0.199 NA
HETATM   24  C10 UNL     1      19.000  21.798   4.484  1.00  0.00     0.144 C 
ENDBRANCH  11  23
BRANCH  16  25
HETATM   25  O2  UNL     1      14.650  19.587   2.546  1.00  0.00    -0.389 OA
HETATM   26  C16 UNL     1      15.398  18.400   2.422  1.00  0.00     0.202 C 
ENDBRANCH  16  25
TORSDOF 4
ENDMDL
MODEL 3
REMARK VINA RESULT: -6.849266870      2.992      6.483
REMARK  4 active torsions:
REMARK  status: ('A' for Active; 'I' for Inactive)
REMARK    1  A    between atoms: C2_2  and  C3_3 
REMARK    2  A    between atoms: C3_3  and  N1_4 
REMARK    3  A    between atoms: S1_14  and  N3_15 
REMARK    4  A    between atoms: C15_21  and  O2_22 
ROOT
HETATM    1  N1  UNL     1      20.955  19.595   3.719  1.00  0.00    -0.340 N 
HETATM    2  C4  UNL     1      21.025  20.888   3.120  1.00  0.00     0.210 C 
HETATM    3  C5  UNL     1      19.974  21.788   3.698  1.00  0.00     0.181 C 
HETATM    4  O1  UNL     1      20.106  23.029   3.659  1.00  0.00    -0.290 OA
HETATM    5  C6  UNL     1      18.773  21.250   4.320  1.00  0.00     0.062 A 
HETATM    6  C7  UNL     1      18.654  19.942   4.633  1.00  0.00     0.116 A 
HETATM    7  N2  UNL     1      17.450  19.732   5.189  1.00  0.00    -0.353 N 
ATOM      8  H2  UNL     1      17.093  18.836   5.521  1.00  0.00     0.166 HD
HETATM    9  C8  UNL     1      16.789  20.913   5.234  1.00  0.00     0.030 A 
HETATM   10  C9  UNL     1      17.614  21.874   4.689  1.00  0.00     0.036 A 
HETATM   11  S1  UNL     1      17.000  23.491   4.626  1.00  0.00    -0.142 SA
HETATM   12  C11 UNL     1      17.927  24.835   5.176  1.00  0.00     0.076 C 
HETATM   13  C12 UNL     1      16.994  25.564   6.139  1.00  0.00     0.011 C 
HETATM   14  C13 UNL     1      15.658  24.880   6.165  1.00  0.00     0.018 C 
HETATM   15  C14 UNL     1      15.888  23.444   6.104  1.00  0.00     0.078 C 
HETATM   16  C15 UNL     1      14.892  22.472   5.708  1.00  0.00     0.140 C 
HETATM   17  C17 UNL     1      15.433  21.098   5.773  1.00  0.00     0.091 C 
HETATM   18  C18 UNL     1      19.791  19.054   4.325  1.00  0.00     0.271 C 
HETATM   19  O3  UNL     1      19.680  17.846   4.615  1.00  0.00    -0.266 OA
ENDROOT
BRANCH   1  20
HETATM   20  C3  UNL     1      22.178  18.783   3.699  1.00  0.00     0.126 C 
BRANCH  20  21
HETATM   21  C2  UNL     1      22.984  19.141   4.933  1.00  0.00     0.015 C 
HETATM   22  C1  UNL     1      24.388  19.546   4.549  1.00  0.00     0.006 C 
ENDBRANCH  20  21
ENDBRANCH   1  20
BRANCH  11  23
HETATM   23  N3  UNL     1      16.071  23.720   3.193  1.00  0.00    -0.199 NA
HETATM   24  C10 UNL     1      16.821  23.676   1.982  1.00  0.00     0.144 C 
ENDBRANCH  11  23
BRANCH  16  25
HETATM   25  O2  UNL     1      13.769  22.548   6.523  1.00  0.00    -0.389 OA
HETATM   26  C16 UNL     1      13.978  21.819   7.710  1.00  0.00     0.202 C 
ENDBRANCH  16  25
TORSDOF 4
ENDMDL
MODEL 4
REMARK VINA RESULT: -6.661556926      3.389      5.593
REMARK  4 active torsions:
REMARK  status: ('A' for Active; 'I' for Inactive)
REMARK    1  A    between atoms: C2_2  and  C3_3 
REMARK    2  A    between atoms: C3_3  and  N1_4 
REMARK    3  A    between atoms: S1_14  and  N3_15 
REMARK    4  A    between atoms: C15_21  and  O2_22 
ROOT
HETATM    1  N1  UNL     1      14.441  21.417   6.025  1.00  0.00    -0.340 N 
HETATM    2  C4  UNL     1      14.838  20.073   5.753  1.00  0.00     0.210 C 
HETATM    3  C5  UNL     1      16.254  20.037   5.263  1.00  0.00     0.181 C 
HETATM    4  O1  UNL     1      16.940  18.999   5.371  1.00  0.00    -0.290 OA
HETATM    5  C6  UNL     1      16.875  21.202   4.649  1.00  0.00     0.062 A 
HETATM    6  C7  UNL     1      16.313  22.429   4.713  1.00  0.00     0.116 A 
HETATM    7  N2  UNL     1      17.098  23.304   4.064  1.00  0.00    -0.353 N 
ATOM      8  H2  UNL     1      16.916  24.302   3.954  1.00  0.00     0.166 HD
HETATM    9  C8  UNL     1      18.172  22.637   3.579  1.00  0.00     0.030 A 
HETATM   10  C9  UNL     1      18.040  21.313   3.943  1.00  0.00     0.036 A 
HETATM   11  S1  UNL     1      19.296  20.233   3.442  1.00  0.00    -0.142 SA
HETATM   12  C11 UNL     1      20.039  19.134   4.541  1.00  0.00     0.076 C 
HETATM   13  C12 UNL     1      21.534  19.387   4.370  1.00  0.00     0.011 C 
HETATM   14  C13 UNL     1      21.755  20.409   3.293  1.00  0.00     0.018 C 
HETATM   15  C14 UNL     1      20.715  21.420   3.415  1.00  0.00     0.078 C 
HETATM   16  C15 UNL     1      20.333  22.332   2.358  1.00  0.00     0.140 C 
HETATM   17  C17 UNL     1      19.264  23.249   2.806  1.00  0.00     0.091 C 
HETATM   18  C18 UNL     1      15.032  22.563   5.432  1.00  0.00     0.271 C 
HETATM   19  O3  UNL     1      14.514  23.696   5.489  1.00  0.00    -0.266 OA
ENDROOT
BRANCH   1  20
HETATM   20  C3  UNL     1      13.347  21.609   6.984  1.00  0.00     0.126 C 
BRANCH  20  21
HETATM   21  C2  UNL     1      13.969  21.960   8.322  1.00  0.00     0.015 C 
HETATM   22  C1  UNL     1      13.703  20.869   9.332  1.00  0.00     0.006 C 
ENDBRANCH  20  21
ENDBRANCH   1  20
BRANCH  11  23
HETATM   23  N3  UNL     1      18.981  19.651   1.851  1.00  0.00    -0.199 NA
HETATM   24  C10 UNL     1      17.702  19.045   1.680  1.00  0.00     0.144 C 
ENDBRANCH  11  23
BRANCH  16  25
HETATM   25  O2  UNL     1      21.419  23.087   1.933  1.00  0.00    -0.389 OA
HETATM   26  C16 UNL     1      21.389  24.362   2.531  1.00  0.00     0.202 C 
ENDBRANCH  16  25
TORSDOF 4
ENDMDL
MODEL 5
REMARK VINA RESULT: -6.554509619      2.341      7.132
REMARK  4 active torsions:
REMARK  status: ('A' for Active; 'I' for Inactive)
REMARK    1  A    between atoms: C2_2  and  C3_3 
REMARK    2  A    between atoms: C3_3  and  N1_4 
REMARK    3  A    between atoms: S1_14  and  N3_15 
REMARK    4  A    between atoms: C15_21  and  O2_22 
ROOT
HETATM    1  N1  UNL     1      15.390  21.291  -0.256  1.00  0.00    -0.340 N 
HETATM    2  C4  UNL     1      15.235  20.194   0.642  1.00  0.00     0.210 C 
HETATM    3  C5  UNL     1      15.105  20.687   2.051  1.00  0.00     0.181 C 
HETATM    4  O1  UNL     1      14.548  19.989   2.923  1.00  0.00    -0.290 OA
HETATM    5  C6  UNL     1      15.620  21.990   2.449  1.00  0.00     0.062 A 
HETATM    6  C7  UNL     1      16.007  22.913   1.543  1.00  0.00     0.116 A 
HETATM    7  N2  UNL     1      16.436  24.009   2.191  1.00  0.00    -0.353 N 
ATOM      8  H2  UNL     1      16.786  24.862   1.754  1.00  0.00     0.166 HD
HETATM    9  C8  UNL     1      16.324  23.790   3.522  1.00  0.00     0.030 A 
HETATM   10  C9  UNL     1      15.811  22.521   3.694  1.00  0.00     0.036 A 
HETATM   11  S1  UNL     1      15.568  21.988   5.323  1.00  0.00    -0.142 SA
HETATM   12  C11 UNL     1      14.085  21.272   5.830  1.00  0.00     0.076 C 
HETATM   13  C12 UNL     1      13.690  22.069   7.070  1.00  0.00     0.011 C 
HETATM   14  C13 UNL     1      14.754  23.080   7.384  1.00  0.00     0.018 C 
HETATM   15  C14 UNL     1      15.241  23.623   6.125  1.00  0.00     0.078 C 
HETATM   16  C15 UNL     1      16.507  24.304   5.962  1.00  0.00     0.140 C 
HETATM   17  C17 UNL     1      16.695  24.756   4.567  1.00  0.00     0.091 C 
HETATM   18  C18 UNL     1      15.894  22.566   0.114  1.00  0.00     0.271 C 
HETATM   19  O3  UNL     1      16.253  23.419  -0.722  1.00  0.00    -0.266 OA
ENDROOT
BRANCH   1  20
HETATM   20  C3  UNL     1      14.998  21.072  -1.654  1.00  0.00     0.126 C 
BRANCH  20  21
HETATM   21  C2  UNL     1      13.496  20.862  -1.678  1.00  0.00     0.015 C 
HETATM   22  C1  UNL     1      12.992  20.811  -3.101  1.00  0.00     0.006 C 
ENDBRANCH  20  21
ENDBRANCH   1  20
BRANCH  11  23
HETATM   23  N3  UNL     1      17.019  21.302   5.948  1.00  0.00    -0.199 NA
HETATM   24  C10 UNL     1      17.616  20.310   5.117  1.00  0.00     0.144 C 
ENDBRANCH  11  23
BRANCH  16  25
HETATM   25  O2  UNL     1      16.593  25.407   6.804  1.00  0.00    -0.389 OA
HETATM   26  C16 UNL     1      16.032  26.539   6.181  1.00  0.00     0.202 C 
ENDBRANCH  16  25
TORSDOF 4
ENDMDL
