MODEL 1
REMARK VINA RESULT: -6.099462409      0.000      0.000
REMARK  4 active torsions:
REMARK  status: ('A' for Active; 'I' for Inactive)
REMARK    1  A    between atoms: C2_2  and  N1_3 
REMARK    2  A    between atoms: N1_3  and  C4_5 
REMARK    3  A    between atoms: C4_5  and  C5_7 
REMARK    4  A    between atoms: C6_8  and  C7_9 
REMARK       I    between atoms: C7_9  and  N2_11 
ROOT
HETATM    1  C5  UNL     1      17.084  22.733   3.718  1.00  0.00     0.070 C 
HETATM    2  C6  UNL     1      16.679  23.416   4.961  1.00  0.00     0.174 C 
HETATM    3  N5  UNL     1      17.457  24.672   5.101  1.00  0.00    -0.201 NA
HETATM    4  C9  UNL     1      18.747  24.456   5.671  1.00  0.00     0.130 C 
HETATM    5  S1  UNL     1      17.464  25.444   3.589  1.00  0.00     0.212 S 
HETATM    6  O2  UNL     1      18.876  25.383   3.028  1.00  0.00    -0.211 OA
HETATM    7  O3  UNL     1      17.098  26.894   3.687  1.00  0.00    -0.211 OA
HETATM    8  C10 UNL     1      16.401  24.696   2.400  1.00  0.00     0.167 C 
HETATM    9  C11 UNL     1      16.528  23.191   2.427  1.00  0.00    -0.025 C 
HETATM   10  C12 UNL     1      15.265  22.594   1.935  1.00  0.00     0.016 C 
HETATM   11  C13 UNL     1      17.569  22.880   1.327  1.00  0.00     0.016 C 
ENDROOT
BRANCH   2  12
HETATM   12  C7  UNL     1      15.291  23.725   5.222  1.00  0.00     0.243 C 
HETATM   13  O1  UNL     1      14.906  24.929   5.433  1.00  0.00    -0.271 OA
HETATM   14  N2  UNL     1      14.248  22.778   5.274  1.00  0.00    -0.302 N 
HETATM   15  C8  UNL     1      13.656  22.350   6.311  1.00  0.00     0.203 C 
ATOM     16  H2  UNL     1      13.936  22.396   4.381  1.00  0.00     0.171 HD
HETATM   17  N3  UNL     1      14.037  22.842   7.588  1.00  0.00    -0.066 NA
HETATM   18  N4  UNL     1      12.621  21.386   6.146  1.00  0.00    -0.066 NA
ENDBRANCH   2  12
BRANCH   1  19
HETATM   19  C4  UNL     1      17.319  21.242   3.822  1.00  0.00     0.324 C 
HETATM   20 CL1  UNL     1      16.053  20.259   4.440  1.00  0.00    -0.091 Cl
BRANCH  19  21
HETATM   21  N1  UNL     1      18.557  20.964   4.547  1.00  0.00     0.102 N 
HETATM   22  C3  UNL     1      19.712  21.430   3.789  1.00  0.00     0.311 C 
BRANCH  21  23
HETATM   23  C2  UNL     1      18.738  19.522   4.666  1.00  0.00     0.269 C 
HETATM   24  C1  UNL     1      20.210  19.193   4.809  1.00  0.00     0.037 C 
ENDBRANCH  21  23
ENDBRANCH  19  21
ENDBRANCH   1  19
TORSDOF 4
ENDMDL
MODEL 2
REMARK VINA RESULT: -5.914899996      3.491      5.076
REMARK  4 active torsions:
REMARK  status: ('A' for Active; 'I' for Inactive)
REMARK    1  A    between atoms: C2_2  and  N1_3 
REMARK    2  A    between atoms: N1_3  and  C4_5 
REMARK    3  A    between atoms: C4_5  and  C5_7 
REMARK    4  A    between atoms: C6_8  and  C7_9 
REMARK       I    between atoms: C7_9  and  N2_11 
ROOT
HETATM    1  C5  UNL     1      16.836  21.109   3.415  1.00  0.00     0.070 C 
HETATM    2  C6  UNL     1      15.419  20.929   3.783  1.00  0.00     0.174 C 
HETATM    3  N5  UNL     1      14.881  19.739   3.079  1.00  0.00    -0.201 NA
HETATM    4  C9  UNL     1      14.470  20.032   1.744  1.00  0.00     0.130 C 
HETATM    5  S1  UNL     1      16.031  18.497   3.216  1.00  0.00     0.212 S 
HETATM    6  O2  UNL     1      16.631  18.247   1.842  1.00  0.00    -0.211 OA
HETATM    7  O3  UNL     1      15.423  17.204   3.666  1.00  0.00    -0.211 OA
HETATM    8  C10 UNL     1      17.365  18.876   4.303  1.00  0.00     0.167 C 
HETATM    9  C11 UNL     1      17.866  20.283   4.079  1.00  0.00    -0.025 C 
HETATM   10  C12 UNL     1      18.487  20.776   5.330  1.00  0.00     0.016 C 
HETATM   11  C13 UNL     1      19.044  20.113   3.093  1.00  0.00     0.016 C 
ENDROOT
BRANCH   2  12
HETATM   12  C7  UNL     1      15.015  20.842   5.169  1.00  0.00     0.243 C 
HETATM   13  O1  UNL     1      14.451  19.790   5.632  1.00  0.00    -0.271 OA
HETATM   14  N2  UNL     1      15.187  21.863   6.126  1.00  0.00    -0.302 N 
HETATM   15  C8  UNL     1      14.289  22.619   6.605  1.00  0.00     0.203 C 
ATOM     16  H2  UNL     1      16.136  22.008   6.471  1.00  0.00     0.171 HD
HETATM   17  N3  UNL     1      12.944  22.471   6.172  1.00  0.00    -0.066 NA
HETATM   18  N4  UNL     1      14.674  23.594   7.569  1.00  0.00    -0.066 NA
ENDBRANCH   2  12
BRANCH   1  19
HETATM   19  C4  UNL     1      17.264  22.522   3.080  1.00  0.00     0.324 C 
HETATM   20 CL1  UNL     1      16.709  23.801   4.083  1.00  0.00    -0.091 Cl
BRANCH  19  21
HETATM   21  N1  UNL     1      16.974  22.830   1.682  1.00  0.00     0.102 N 
HETATM   22  C3  UNL     1      18.196  23.185   0.969  1.00  0.00     0.311 C 
BRANCH  21  23
HETATM   23  C2  UNL     1      16.134  24.021   1.611  1.00  0.00     0.269 C 
HETATM   24  C1  UNL     1      15.168  23.906   0.449  1.00  0.00     0.037 C 
ENDBRANCH  21  23
ENDBRANCH  19  21
ENDBRANCH   1  19
TORSDOF 4
ENDMDL
MODEL 3
REMARK VINA RESULT: -5.723251514      2.862      4.107
REMARK  4 active torsions:
REMARK  status: ('A' for Active; 'I' for Inactive)
REMARK    1  A    between atoms: C2_2  and  N1_3 
REMARK    2  A    between atoms: N1_3  and  C4_5 
REMARK    3  A    between atoms: C4_5  and  C5_7 
REMARK    4  A    between atoms: C6_8  and  C7_9 
REMARK       I    between atoms: C7_9  and  N2_11 
ROOT
HETATM    1  C5  UNL     1      17.563  22.354   3.523  1.00  0.00     0.070 C 
HETATM    2  C6  UNL     1      16.226  22.894   3.836  1.00  0.00     0.174 C 
HETATM    3  N5  UNL     1      15.254  22.397   2.832  1.00  0.00    -0.201 NA
HETATM    4  C9  UNL     1      15.259  23.174   1.634  1.00  0.00     0.130 C 
HETATM    5  S1  UNL     1      15.545  20.739   2.609  1.00  0.00     0.212 S 
HETATM    6  O2  UNL     1      16.118  20.538   1.215  1.00  0.00    -0.211 OA
HETATM    7  O3  UNL     1      14.290  19.925   2.684  1.00  0.00    -0.211 OA
HETATM    8  C10 UNL     1      16.703  20.059   3.749  1.00  0.00     0.167 C 
HETATM    9  C11 UNL     1      17.895  20.970   3.923  1.00  0.00    -0.025 C 
HETATM   10  C12 UNL     1      18.492  20.731   5.257  1.00  0.00     0.016 C 
HETATM   11  C13 UNL     1      18.937  20.425   2.920  1.00  0.00     0.016 C 
ENDROOT
BRANCH   2  12
HETATM   12  C7  UNL     1      15.639  22.716   5.145  1.00  0.00     0.243 C 
HETATM   13  O1  UNL     1      16.361  22.716   6.203  1.00  0.00    -0.271 OA
HETATM   14  N2  UNL     1      14.265  22.528   5.395  1.00  0.00    -0.302 N 
HETATM   15  C8  UNL     1      13.689  21.447   5.723  1.00  0.00     0.203 C 
ATOM     16  H2  UNL     1      13.669  23.351   5.303  1.00  0.00     0.171 HD
HETATM   17  N3  UNL     1      14.458  20.261   5.873  1.00  0.00    -0.066 NA
HETATM   18  N4  UNL     1      12.281  21.470   5.931  1.00  0.00    -0.066 NA
ENDBRANCH   2  12
BRANCH   1  19
HETATM   19  C4  UNL     1      18.713  23.335   3.591  1.00  0.00     0.324 C 
HETATM   20 CL1  UNL     1      18.964  24.194   5.058  1.00  0.00    -0.091 Cl
BRANCH  19  21
HETATM   21  N1  UNL     1      18.656  24.275   2.474  1.00  0.00     0.102 N 
HETATM   22  C3  UNL     1      18.979  23.602   1.221  1.00  0.00     0.311 C 
BRANCH  21  23
HETATM   23  C2  UNL     1      19.692  25.289   2.639  1.00  0.00     0.269 C 
HETATM   24  C1  UNL     1      21.038  24.729   2.224  1.00  0.00     0.037 C 
ENDBRANCH  21  23
ENDBRANCH  19  21
ENDBRANCH   1  19
TORSDOF 4
ENDMDL
MODEL 4
REMARK VINA RESULT: -5.719286081      2.662      4.018
REMARK  4 active torsions:
REMARK  status: ('A' for Active; 'I' for Inactive)
REMARK    1  A    between atoms: C2_2  and  N1_3 
REMARK    2  A    between atoms: N1_3  and  C4_5 
REMARK    3  A    between atoms: C4_5  and  C5_7 
REMARK    4  A    between atoms: C6_8  and  C7_9 
REMARK       I    between atoms: C7_9  and  N2_11 
ROOT
HETATM    1  C5  UNL     1      17.631  22.917   3.663  1.00  0.00     0.070 C 
HETATM    2  C6  UNL     1      16.290  23.134   3.088  1.00  0.00     0.174 C 
HETATM    3  N5  UNL     1      15.473  23.924   4.042  1.00  0.00    -0.201 NA
HETATM    4  C9  UNL     1      14.879  23.113   5.056  1.00  0.00     0.130 C 
HETATM    5  S1  UNL     1      16.442  25.194   4.620  1.00  0.00     0.212 S 
HETATM    6  O2  UNL     1      16.748  24.933   6.086  1.00  0.00    -0.211 OA
HETATM    7  O3  UNL     1      15.744  26.518   4.551  1.00  0.00    -0.211 OA
HETATM    8  C10 UNL     1      17.986  25.350   3.788  1.00  0.00     0.167 C 
HETATM    9  C11 UNL     1      18.634  24.000   3.586  1.00  0.00    -0.025 C 
HETATM   10  C12 UNL     1      19.530  24.069   2.409  1.00  0.00     0.016 C 
HETATM   11  C13 UNL     1      19.584  23.853   4.798  1.00  0.00     0.016 C 
ENDROOT
BRANCH   2  12
HETATM   12  C7  UNL     1      16.129  23.722   1.777  1.00  0.00     0.243 C 
HETATM   13  O1  UNL     1      15.449  24.794   1.609  1.00  0.00    -0.271 OA
HETATM   14  N2  UNL     1      16.677  23.203   0.586  1.00  0.00    -0.302 N 
HETATM   15  C8  UNL     1      16.056  22.600  -0.340  1.00  0.00     0.203 C 
ATOM     16  H2  UNL     1      17.681  23.327   0.456  1.00  0.00     0.171 HD
HETATM   17  N3  UNL     1      14.654  22.395  -0.227  1.00  0.00    -0.066 NA
HETATM   18  N4  UNL     1      16.800  22.152  -1.469  1.00  0.00    -0.066 NA
ENDBRANCH   2  12
BRANCH   1  19
HETATM   19  C4  UNL     1      18.190  21.516   3.546  1.00  0.00     0.324 C 
HETATM   20 CL1  UNL     1      17.545  20.481   2.336  1.00  0.00    -0.091 Cl
BRANCH  19  21
HETATM   21  N1  UNL     1      18.160  20.839   4.841  1.00  0.00     0.102 N 
HETATM   22  C3  UNL     1      19.307  19.950   4.982  1.00  0.00     0.311 C 
BRANCH  21  23
HETATM   23  C2  UNL     1      16.993  19.967   4.906  1.00  0.00     0.269 C 
HETATM   24  C1  UNL     1      16.299  20.127   6.244  1.00  0.00     0.037 C 
ENDBRANCH  21  23
ENDBRANCH  19  21
ENDBRANCH   1  19
TORSDOF 4
ENDMDL
MODEL 5
REMARK VINA RESULT: -5.650625415      3.028      4.360
REMARK  4 active torsions:
REMARK  status: ('A' for Active; 'I' for Inactive)
REMARK    1  A    between atoms: C2_2  and  N1_3 
REMARK    2  A    between atoms: N1_3  and  C4_5 
REMARK    3  A    between atoms: C4_5  and  C5_7 
REMARK    4  A    between atoms: C6_8  and  C7_9 
REMARK       I    between atoms: C7_9  and  N2_11 
ROOT
HETATM    1  C5  UNL     1      17.829  22.438   3.212  1.00  0.00     0.070 C 
HETATM    2  C6  UNL     1      16.584  23.225   3.294  1.00  0.00     0.174 C 
HETATM    3  N5  UNL     1      15.631  22.735   2.267  1.00  0.00    -0.201 NA
HETATM    4  C9  UNL     1      15.874  23.302   0.980  1.00  0.00     0.130 C 
HETATM    5  S1  UNL     1      15.651  21.038   2.315  1.00  0.00     0.212 S 
HETATM    6  O2  UNL     1      16.299  20.531   1.037  1.00  0.00    -0.211 OA
HETATM    7  O3  UNL     1      14.272  20.453   2.364  1.00  0.00    -0.211 OA
HETATM    8  C10 UNL     1      16.570  20.372   3.662  1.00  0.00     0.167 C 
HETATM    9  C11 UNL     1      17.882  21.101   3.838  1.00  0.00    -0.025 C 
HETATM   10  C12 UNL     1      18.310  20.984   5.251  1.00  0.00     0.016 C 
HETATM   11  C13 UNL     1      18.898  20.246   3.045  1.00  0.00     0.016 C 
ENDROOT
BRANCH   2  12
HETATM   12  C7  UNL     1      15.863  23.350   4.541  1.00  0.00     0.243 C 
HETATM   13  O1  UNL     1      14.619  23.055   4.622  1.00  0.00    -0.271 OA
HETATM   14  N2  UNL     1      16.423  23.793   5.756  1.00  0.00    -0.302 N 
HETATM   15  C8  UNL     1      16.247  24.919   6.312  1.00  0.00     0.203 C 
ATOM     16  H2  UNL     1      17.035  23.136   6.241  1.00  0.00     0.171 HD
HETATM   17  N3  UNL     1      15.405  25.882   5.694  1.00  0.00    -0.066 NA
HETATM   18  N4  UNL     1      16.909  25.171   7.547  1.00  0.00    -0.066 NA
ENDBRANCH   2  12
BRANCH   1  19
HETATM   19  C4  UNL     1      19.121  23.225   3.269  1.00  0.00     0.324 C 
HETATM   20 CL1  UNL     1      19.481  24.094   4.706  1.00  0.00    -0.091 Cl
BRANCH  19  21
HETATM   21  N1  UNL     1      19.236  24.112   2.114  1.00  0.00     0.102 N 
HETATM   22  C3  UNL     1      19.651  23.366   0.932  1.00  0.00     0.311 C 
BRANCH  21  23
HETATM   23  C2  UNL     1      20.304  25.078   2.348  1.00  0.00     0.269 C 
HETATM   24  C1  UNL     1      21.623  24.524   1.848  1.00  0.00     0.037 C 
ENDBRANCH  21  23
ENDBRANCH  19  21
ENDBRANCH   1  19
TORSDOF 4
ENDMDL
