MODEL 1
REMARK VINA RESULT: -9.004615643      0.000      0.000
REMARK  8 active torsions:
REMARK  status: ('A' for Active; 'I' for Inactive)
REMARK    1  A    between atoms: C3_5  and  N2_6 
REMARK    2  A    between atoms: N2_6  and  C4_8 
REMARK    3  A    between atoms: C4_8  and  C5_9 
REMARK    4  A    between atoms: C9_16  and  N4_17 
REMARK    5  A    between atoms: N4_17  and  C10_19 
REMARK    6  A    between atoms: C10_19  and  C11_20 
REMARK    7  A    between atoms: C11_20  and  N5_21 
REMARK    8  A    between atoms: N5_21  and  C12_23 
ROOT
HETATM    1  C1  UNL     1     -55.588  98.719  17.073  1.00  0.00     0.069 C 
HETATM    2  C2  UNL     1     -55.160  99.697  18.107  1.00  0.00     0.032 A 
HETATM    3  N1  UNL     1     -53.862 100.059  18.279  1.00  0.00    -0.195 N 
ATOM      4  H1  UNL     1     -53.148  99.648  17.678  1.00  0.00     0.184 HD
HETATM    5  C3  UNL     1     -53.495 100.943  19.219  1.00  0.00     0.679 A 
HETATM    6  N3  UNL     1     -54.417 101.501  20.025  1.00  0.00    -0.176 N 
ATOM      7  H3  UNL     1     -54.119 102.171  20.734  1.00  0.00     0.186 HD
HETATM    8  C9  UNL     1     -55.723 101.197  19.920  1.00  0.00     0.124 A 
HETATM    9  C20 UNL     1     -56.080 100.286  18.949  1.00  0.00     0.005 A 
HETATM   10  C21 UNL     1     -57.533  99.934  18.817  1.00  0.00     0.054 C 
ENDROOT
BRANCH   8  11
HETATM   11  N4  UNL     1     -56.610 101.709  20.668  1.00  0.00    -0.374 N 
ATOM     12  H4  UNL     1     -57.266 102.349  20.219  1.00  0.00     0.161 HD
BRANCH  11  13
HETATM   13  C10 UNL     1     -56.795 101.492  22.065  1.00  0.00     0.141 C 
BRANCH  13  14
HETATM   14  C11 UNL     1     -57.860 100.397  22.210  1.00  0.00     0.141 C 
BRANCH  14  15
HETATM   15  N5  UNL     1     -57.252  99.336  22.986  1.00  0.00    -0.369 N 
ATOM     16  H5  UNL     1     -57.689  99.004  23.845  1.00  0.00     0.161 HD
BRANCH  15  17
HETATM   17  C12 UNL     1     -56.123  98.808  22.562  1.00  0.00     0.145 A 
HETATM   18  N6  UNL     1     -55.935  98.028  21.500  1.00  0.00    -0.339 N 
HETATM   19  C13 UNL     1     -54.737  97.596  21.235  1.00  0.00     0.025 A 
ATOM     20  H6  UNL     1     -56.720  97.773  20.901  1.00  0.00     0.168 HD
HETATM   21  C14 UNL     1     -53.722  97.975  22.080  1.00  0.00     0.009 A 
HETATM   22  C19 UNL     1     -54.252  96.697  20.097  1.00  0.00     0.062 C 
HETATM   23  S1  UNL     1     -54.552  98.940  23.219  1.00  0.00    -0.057 SA
HETATM   24  C15 UNL     1     -52.299  97.533  21.862  1.00  0.00     0.048 C 
HETATM   25  C16 UNL     1     -52.167  96.194  21.243  1.00  0.00     0.010 C 
HETATM   26  C17 UNL     1     -53.499  95.599  20.861  1.00  0.00    -0.013 C 
HETATM   27  C18 UNL     1     -53.335  94.369  20.005  1.00  0.00     0.010 C 
ENDBRANCH  15  17
ENDBRANCH  14  15
ENDBRANCH  13  14
ENDBRANCH  11  13
ENDBRANCH   8  11
BRANCH   5  28
HETATM   28  N2  UNL     1     -52.257 101.267  19.357  1.00  0.00    -0.224 N 
ATOM     29  H2  UNL     1     -52.022 102.054  19.961  1.00  0.00     0.177 HD
BRANCH  28  30
HETATM   30  C4  UNL     1     -51.184 100.556  18.688  1.00  0.00     0.170 C 
BRANCH  30  31
HETATM   31  C5  UNL     1     -50.320  99.811  19.687  1.00  0.00     0.139 C 
HETATM   32  C6  UNL     1     -48.967 100.461  19.845  1.00  0.00     0.035 C 
HETATM   33  C7  UNL     1     -48.104  99.310  20.271  1.00  0.00     0.029 C 
HETATM   34  C8  UNL     1     -48.919  98.105  19.915  1.00  0.00     0.168 C 
HETATM   35  O1  UNL     1     -50.065  98.527  19.278  1.00  0.00    -0.384 OA
ENDBRANCH  30  31
ENDBRANCH  28  30
ENDBRANCH   5  28
TORSDOF 8
ENDMDL
MODEL 2
REMARK VINA RESULT: -8.945862549      1.602      1.714
REMARK  8 active torsions:
REMARK  status: ('A' for Active; 'I' for Inactive)
REMARK    1  A    between atoms: C3_5  and  N2_6 
REMARK    2  A    between atoms: N2_6  and  C4_8 
REMARK    3  A    between atoms: C4_8  and  C5_9 
REMARK    4  A    between atoms: C9_16  and  N4_17 
REMARK    5  A    between atoms: N4_17  and  C10_19 
REMARK    6  A    between atoms: C10_19  and  C11_20 
REMARK    7  A    between atoms: C11_20  and  N5_21 
REMARK    8  A    between atoms: N5_21  and  C12_23 
ROOT
HETATM    1  C1  UNL     1     -54.163  98.890  17.510  1.00  0.00     0.069 C 
HETATM    2  C2  UNL     1     -54.169  99.791  18.692  1.00  0.00     0.032 A 
HETATM    3  N1  UNL     1     -53.033 100.140  19.351  1.00  0.00    -0.195 N 
ATOM      4  H1  UNL     1     -52.138  99.774  19.027  1.00  0.00     0.184 HD
HETATM    5  C3  UNL     1     -53.058 100.955  20.417  1.00  0.00     0.679 A 
HETATM    6  N3  UNL     1     -54.226 101.452  20.865  1.00  0.00    -0.176 N 
ATOM      7  H3  UNL     1     -54.224 102.070  21.677  1.00  0.00     0.186 HD
HETATM    8  C9  UNL     1     -55.395 101.156  20.270  1.00  0.00     0.124 A 
HETATM    9  C20 UNL     1     -55.348 100.318  19.177  1.00  0.00     0.005 A 
HETATM   10  C21 UNL     1     -56.642  99.975  18.499  1.00  0.00     0.054 C 
ENDROOT
BRANCH   8  11
HETATM   11  N4  UNL     1     -56.507 101.613  20.673  1.00  0.00    -0.374 N 
ATOM     12  H4  UNL     1     -56.995 102.243  20.037  1.00  0.00     0.161 HD
BRANCH  11  13
HETATM   13  C10 UNL     1     -57.153 101.345  21.916  1.00  0.00     0.141 C 
BRANCH  13  14
HETATM   14  C11 UNL     1     -57.767  99.942  21.807  1.00  0.00     0.141 C 
BRANCH  14  15
HETATM   15  N5  UNL     1     -57.122  99.135  22.821  1.00  0.00    -0.369 N 
ATOM     16  H5  UNL     1     -57.585  98.951  23.712  1.00  0.00     0.161 HD
BRANCH  15  17
HETATM   17  C12 UNL     1     -55.927  98.641  22.575  1.00  0.00     0.145 A 
HETATM   18  N6  UNL     1     -55.565  97.840  21.575  1.00  0.00    -0.339 N 
HETATM   19  C13 UNL     1     -54.328  97.451  21.491  1.00  0.00     0.025 A 
ATOM     20  H6  UNL     1     -56.250  97.536  20.883  1.00  0.00     0.168 HD
HETATM   21  C14 UNL     1     -53.454  97.894  22.455  1.00  0.00     0.009 A 
HETATM   22  C19 UNL     1     -53.657  96.540  20.461  1.00  0.00     0.062 C 
HETATM   23  S1  UNL     1     -54.468  98.856  23.435  1.00  0.00    -0.057 SA
HETATM   24  C15 UNL     1     -51.999  97.505  22.448  1.00  0.00     0.048 C 
HETATM   25  C16 UNL     1     -51.734  96.155  21.899  1.00  0.00     0.010 C 
HETATM   26  C17 UNL     1     -52.978  95.496  21.358  1.00  0.00    -0.013 C 
HETATM   27  C18 UNL     1     -52.651  94.250  20.574  1.00  0.00     0.010 C 
ENDBRANCH  15  17
ENDBRANCH  14  15
ENDBRANCH  13  14
ENDBRANCH  11  13
ENDBRANCH   8  11
BRANCH   5  28
HETATM   28  N2  UNL     1     -51.966 101.268  21.020  1.00  0.00    -0.224 N 
ATOM     29  H2  UNL     1     -51.996 101.982  21.748  1.00  0.00     0.177 HD
BRANCH  28  30
HETATM   30  C4  UNL     1     -50.693 100.646  20.706  1.00  0.00     0.170 C 
BRANCH  30  31
HETATM   31  C5  UNL     1     -49.761 100.680  21.901  1.00  0.00     0.139 C 
HETATM   32  C6  UNL     1     -48.928  99.426  21.993  1.00  0.00     0.035 C 
HETATM   33  C7  UNL     1     -48.632  99.341  23.461  1.00  0.00     0.029 C 
HETATM   34  C8  UNL     1     -49.631 100.270  24.078  1.00  0.00     0.168 C 
HETATM   35  O1  UNL     1     -50.454 100.748  23.083  1.00  0.00    -0.384 OA
ENDBRANCH  30  31
ENDBRANCH  28  30
ENDBRANCH   5  28
TORSDOF 8
ENDMDL
MODEL 3
REMARK VINA RESULT: -8.794107937      1.441      1.908
REMARK  8 active torsions:
REMARK  status: ('A' for Active; 'I' for Inactive)
REMARK    1  A    between atoms: C3_5  and  N2_6 
REMARK    2  A    between atoms: N2_6  and  C4_8 
REMARK    3  A    between atoms: C4_8  and  C5_9 
REMARK    4  A    between atoms: C9_16  and  N4_17 
REMARK    5  A    between atoms: N4_17  and  C10_19 
REMARK    6  A    between atoms: C10_19  and  C11_20 
REMARK    7  A    between atoms: C11_20  and  N5_21 
REMARK    8  A    between atoms: N5_21  and  C12_23 
ROOT
HETATM    1  C1  UNL     1     -55.352  98.597  17.209  1.00  0.00     0.069 C 
HETATM    2  C2  UNL     1     -54.929  99.592  18.229  1.00  0.00     0.032 A 
HETATM    3  N1  UNL     1     -53.626  99.905  18.449  1.00  0.00    -0.195 N 
ATOM      4  H1  UNL     1     -52.904  99.445  17.895  1.00  0.00     0.184 HD
HETATM    5  C3  UNL     1     -53.263 100.805  19.376  1.00  0.00     0.679 A 
HETATM    6  N3  UNL     1     -54.196 101.428  20.120  1.00  0.00    -0.176 N 
ATOM      7  H3  UNL     1     -53.901 102.109  20.819  1.00  0.00     0.186 HD
HETATM    8  C9  UNL     1     -55.508 101.176  19.965  1.00  0.00     0.124 A 
HETATM    9  C20 UNL     1     -55.860 100.248  19.008  1.00  0.00     0.005 A 
HETATM   10  C21 UNL     1     -57.319  99.951  18.821  1.00  0.00     0.054 C 
ENDROOT
BRANCH   8  11
HETATM   11  N4  UNL     1     -56.405 101.749  20.653  1.00  0.00    -0.374 N 
ATOM     12  H4  UNL     1     -57.147 102.215  20.132  1.00  0.00     0.161 HD
BRANCH  11  13
HETATM   13  C10 UNL     1     -56.493 101.818  22.075  1.00  0.00     0.141 C 
BRANCH  13  14
HETATM   14  C11 UNL     1     -57.154 100.516  22.545  1.00  0.00     0.141 C 
BRANCH  14  15
HETATM   15  N5  UNL     1     -56.138  99.779  23.267  1.00  0.00    -0.369 N 
ATOM     16  H5  UNL     1     -55.824 100.091  24.186  1.00  0.00     0.161 HD
BRANCH  15  17
HETATM   17  C12 UNL     1     -55.627  98.698  22.716  1.00  0.00     0.145 A 
HETATM   18  N6  UNL     1     -54.433  98.155  22.939  1.00  0.00    -0.339 N 
HETATM   19  C13 UNL     1     -54.097  97.076  22.297  1.00  0.00     0.025 A 
ATOM     20  H6  UNL     1     -53.789  98.581  23.606  1.00  0.00     0.168 HD
HETATM   21  C14 UNL     1     -55.009  96.552  21.412  1.00  0.00     0.009 A 
HETATM   22  C19 UNL     1     -52.803  96.263  22.360  1.00  0.00     0.062 C 
HETATM   23  S1  UNL     1     -56.310  97.649  21.554  1.00  0.00    -0.057 SA
HETATM   24  C15 UNL     1     -54.721  95.304  20.619  1.00  0.00     0.048 C 
HETATM   25  C16 UNL     1     -53.294  95.122  20.269  1.00  0.00     0.010 C 
HETATM   26  C17 UNL     1     -52.409  96.180  20.879  1.00  0.00    -0.013 C 
HETATM   27  C18 UNL     1     -50.949  95.836  20.733  1.00  0.00     0.010 C 
ENDBRANCH  15  17
ENDBRANCH  14  15
ENDBRANCH  13  14
ENDBRANCH  11  13
ENDBRANCH   8  11
BRANCH   5  28
HETATM   28  N2  UNL     1     -52.021 101.082  19.561  1.00  0.00    -0.224 N 
ATOM     29  H2  UNL     1     -51.718 102.052  19.483  1.00  0.00     0.177 HD
BRANCH  28  30
HETATM   30  C4  UNL     1     -51.033 100.067  19.876  1.00  0.00     0.170 C 
BRANCH  30  31
HETATM   31  C5  UNL     1     -50.637 100.129  21.338  1.00  0.00     0.139 C 
HETATM   32  C6  UNL     1     -49.510  99.175  21.650  1.00  0.00     0.035 C 
HETATM   33  C7  UNL     1     -49.723  98.888  23.107  1.00  0.00     0.029 C 
HETATM   34  C8  UNL     1     -51.126  99.348  23.357  1.00  0.00     0.168 C 
HETATM   35  O1  UNL     1     -51.670  99.758  22.160  1.00  0.00    -0.384 OA
ENDBRANCH  30  31
ENDBRANCH  28  30
ENDBRANCH   5  28
TORSDOF 8
ENDMDL
MODEL 4
REMARK VINA RESULT: -8.769427577      2.016      2.368
REMARK  8 active torsions:
REMARK  status: ('A' for Active; 'I' for Inactive)
REMARK    1  A    between atoms: C3_5  and  N2_6 
REMARK    2  A    between atoms: N2_6  and  C4_8 
REMARK    3  A    between atoms: C4_8  and  C5_9 
REMARK    4  A    between atoms: C9_16  and  N4_17 
REMARK    5  A    between atoms: N4_17  and  C10_19 
REMARK    6  A    between atoms: C10_19  and  C11_20 
REMARK    7  A    between atoms: C11_20  and  N5_21 
REMARK    8  A    between atoms: N5_21  and  C12_23 
ROOT
HETATM    1  C1  UNL     1     -54.533  98.475  17.566  1.00  0.00     0.069 C 
HETATM    2  C2  UNL     1     -54.175  99.346  18.715  1.00  0.00     0.032 A 
HETATM    3  N1  UNL     1     -52.941  99.335  19.286  1.00  0.00    -0.195 N 
ATOM      4  H1  UNL     1     -52.229  98.707  18.915  1.00  0.00     0.184 HD
HETATM    5  C3  UNL     1     -52.637 100.128  20.324  1.00  0.00     0.679 A 
HETATM    6  N3  UNL     1     -53.559 100.967  20.832  1.00  0.00    -0.176 N 
ATOM      7  H3  UNL     1     -53.309 101.562  21.621  1.00  0.00     0.186 HD
HETATM    8  C9  UNL     1     -54.803 101.040  20.326  1.00  0.00     0.124 A 
HETATM    9  C20 UNL     1     -55.096 100.216  19.260  1.00  0.00     0.005 A 
HETATM   10  C21 UNL     1     -56.479 100.283  18.681  1.00  0.00     0.054 C 
ENDROOT
BRANCH   8  11
HETATM   11  N4  UNL     1     -55.688 101.821  20.787  1.00  0.00    -0.374 N 
ATOM     12  H4  UNL     1     -56.138 102.443  20.115  1.00  0.00     0.161 HD
BRANCH  11  13
HETATM   13  C10 UNL     1     -56.126 101.931  22.140  1.00  0.00     0.141 C 
BRANCH  13  14
HETATM   14  C11 UNL     1     -57.080 100.757  22.397  1.00  0.00     0.141 C 
BRANCH  14  15
HETATM   15  N5  UNL     1     -56.366  99.830  23.251  1.00  0.00    -0.369 N 
ATOM     16  H5  UNL     1     -56.300  99.995  24.255  1.00  0.00     0.161 HD
BRANCH  15  17
HETATM   17  C12 UNL     1     -55.804  98.771  22.707  1.00  0.00     0.145 A 
HETATM   18  N6  UNL     1     -54.599  98.266  22.960  1.00  0.00    -0.339 N 
HETATM   19  C13 UNL     1     -54.210  97.204  22.320  1.00  0.00     0.025 A 
ATOM     20  H6  UNL     1     -53.989  98.707  23.648  1.00  0.00     0.168 HD
HETATM   21  C14 UNL     1     -55.078  96.657  21.405  1.00  0.00     0.009 A 
HETATM   22  C19 UNL     1     -52.892  96.433  22.415  1.00  0.00     0.062 C 
HETATM   23  S1  UNL     1     -56.418  97.710  21.518  1.00  0.00    -0.057 SA
HETATM   24  C15 UNL     1     -54.727  95.426  20.612  1.00  0.00     0.048 C 
HETATM   25  C16 UNL     1     -53.285  95.294  20.302  1.00  0.00     0.010 C 
HETATM   26  C17 UNL     1     -52.453  96.376  20.945  1.00  0.00    -0.013 C 
HETATM   27  C18 UNL     1     -50.979  96.081  20.839  1.00  0.00     0.010 C 
ENDBRANCH  15  17
ENDBRANCH  14  15
ENDBRANCH  13  14
ENDBRANCH  11  13
ENDBRANCH   8  11
BRANCH   5  28
HETATM   28  N2  UNL     1     -51.460 100.096  20.842  1.00  0.00    -0.224 N 
ATOM     29  H2  UNL     1     -50.961  99.207  20.868  1.00  0.00     0.177 HD
BRANCH  28  30
HETATM   30  C4  UNL     1     -50.815 101.273  21.393  1.00  0.00     0.170 C 
BRANCH  30  31
HETATM   31  C5  UNL     1     -49.658 100.889  22.294  1.00  0.00     0.139 C 
HETATM   32  C6  UNL     1     -49.577  99.395  22.487  1.00  0.00     0.035 C 
HETATM   33  C7  UNL     1     -48.903  99.278  23.822  1.00  0.00     0.029 C 
HETATM   34  C8  UNL     1     -49.048 100.646  24.413  1.00  0.00     0.168 C 
HETATM   35  O1  UNL     1     -49.798 101.416  23.552  1.00  0.00    -0.384 OA
ENDBRANCH  30  31
ENDBRANCH  28  30
ENDBRANCH   5  28
TORSDOF 8
ENDMDL
MODEL 5
REMARK VINA RESULT: -8.762659294      1.501      1.900
REMARK  8 active torsions:
REMARK  status: ('A' for Active; 'I' for Inactive)
REMARK    1  A    between atoms: C3_5  and  N2_6 
REMARK    2  A    between atoms: N2_6  and  C4_8 
REMARK    3  A    between atoms: C4_8  and  C5_9 
REMARK    4  A    between atoms: C9_16  and  N4_17 
REMARK    5  A    between atoms: N4_17  and  C10_19 
REMARK    6  A    between atoms: C10_19  and  C11_20 
REMARK    7  A    between atoms: C11_20  and  N5_21 
REMARK    8  A    between atoms: N5_21  and  C12_23 
ROOT
HETATM    1  C1  UNL     1     -54.234  98.862  17.504  1.00  0.00     0.069 C 
HETATM    2  C2  UNL     1     -54.226  99.771  18.680  1.00  0.00     0.032 A 
HETATM    3  N1  UNL     1     -53.079 100.153  19.302  1.00  0.00    -0.195 N 
ATOM      4  H1  UNL     1     -52.186  99.806  18.953  1.00  0.00     0.184 HD
HETATM    5  C3  UNL     1     -53.092 100.974  20.363  1.00  0.00     0.679 A 
HETATM    6  N3  UNL     1     -54.258 101.446  20.843  1.00  0.00    -0.176 N 
ATOM      7  H3  UNL     1     -54.247 102.069  21.650  1.00  0.00     0.186 HD
HETATM    8  C9  UNL     1     -55.437 101.118  20.285  1.00  0.00     0.124 A 
HETATM    9  C20 UNL     1     -55.402 100.273  19.196  1.00  0.00     0.005 A 
HETATM   10  C21 UNL     1     -56.708  99.894  18.560  1.00  0.00     0.054 C 
ENDROOT
BRANCH   8  11
HETATM   11  N4  UNL     1     -56.547 101.550  20.719  1.00  0.00    -0.374 N 
ATOM     12  H4  UNL     1     -57.088 102.130  20.078  1.00  0.00     0.161 HD
BRANCH  11  13
HETATM   13  C10 UNL     1     -57.124 101.318  22.002  1.00  0.00     0.141 C 
BRANCH  13  14
HETATM   14  C11 UNL     1     -57.806  99.945  21.944  1.00  0.00     0.141 C 
BRANCH  14  15
HETATM   15  N5  UNL     1     -57.130  99.111  22.916  1.00  0.00    -0.369 N 
ATOM     16  H5  UNL     1     -57.567  98.902  23.814  1.00  0.00     0.161 HD
BRANCH  15  17
HETATM   17  C12 UNL     1     -55.942  98.629  22.621  1.00  0.00     0.145 A 
HETATM   18  N6  UNL     1     -55.616  97.818  21.618  1.00  0.00    -0.339 N 
HETATM   19  C13 UNL     1     -54.378  97.443  21.482  1.00  0.00     0.025 A 
ATOM     20  H6  UNL     1     -56.328  97.495  20.963  1.00  0.00     0.168 HD
HETATM   21  C14 UNL     1     -53.466  97.913  22.397  1.00  0.00     0.009 A 
HETATM   22  C19 UNL     1     -53.744  96.525  20.435  1.00  0.00     0.062 C 
HETATM   23  S1  UNL     1     -54.447  98.877  23.409  1.00  0.00    -0.057 SA
HETATM   24  C15 UNL     1     -52.009  97.542  22.328  1.00  0.00     0.048 C 
HETATM   25  C16 UNL     1     -51.751  96.187  21.787  1.00  0.00     0.010 C 
HETATM   26  C17 UNL     1     -53.010  95.504  21.315  1.00  0.00    -0.013 C 
HETATM   27  C18 UNL     1     -52.703  94.250  20.536  1.00  0.00     0.010 C 
ENDBRANCH  15  17
ENDBRANCH  14  15
ENDBRANCH  13  14
ENDBRANCH  11  13
ENDBRANCH   8  11
BRANCH   5  28
HETATM   28  N2  UNL     1     -51.990 101.317  20.931  1.00  0.00    -0.224 N 
ATOM     29  H2  UNL     1     -52.026 101.974  21.711  1.00  0.00     0.177 HD
BRANCH  28  30
HETATM   30  C4  UNL     1     -50.700 100.809  20.506  1.00  0.00     0.170 C 
BRANCH  30  31
HETATM   31  C5  UNL     1     -49.962 101.831  19.664  1.00  0.00     0.139 C 
HETATM   32  C6  UNL     1     -49.639 103.074  20.456  1.00  0.00     0.035 C 
HETATM   33  C7  UNL     1     -49.566 104.127  19.390  1.00  0.00     0.029 C 
HETATM   34  C8  UNL     1     -50.241 103.489  18.215  1.00  0.00     0.168 C 
HETATM   35  O1  UNL     1     -50.721 102.258  18.604  1.00  0.00    -0.384 OA
ENDBRANCH  30  31
ENDBRANCH  28  30
ENDBRANCH   5  28
TORSDOF 8
ENDMDL
