MODEL 1
REMARK VINA RESULT: -7.516574085      0.000      0.000
REMARK  6 active torsions:
REMARK  status: ('A' for Active; 'I' for Inactive)
REMARK    1  A    between atoms: C2_2  and  C3_3 
REMARK    2  A    between atoms: C2_2  and  N3_21 
REMARK    3  A    between atoms: C3_3  and  C4_4 
REMARK       I    between atoms: C4_4  and  N1_6 
REMARK    4  A    between atoms: C8_10  and  C9_11 
REMARK       I    between atoms: C9_11  and  N2_13 
REMARK    5  A    between atoms: N2_13  and  C10_15 
REMARK       I    between atoms: N3_21  and  C14_23 
REMARK    6  A    between atoms: C14_23  and  C15_25 
ROOT
HETATM    1  C4  UNL     1      23.830  43.626  53.981  1.00  0.00     0.222 C 
HETATM    2  O1  UNL     1      23.677  42.635  53.220  1.00  0.00    -0.273 OA
HETATM    3  N1  UNL     1      23.033  43.785  55.139  1.00  0.00    -0.339 N 
HETATM    4  C5  UNL     1      23.124  44.884  56.081  1.00  0.00     0.127 C 
HETATM    5  C6  UNL     1      22.681  44.199  57.372  1.00  0.00     0.022 C 
HETATM    6  C7  UNL     1      21.455  43.434  56.865  1.00  0.00     0.037 C 
HETATM    7  C8  UNL     1      21.997  42.870  55.563  1.00  0.00     0.179 C 
ENDROOT
BRANCH   1   8
HETATM    8  C3  UNL     1      24.884  44.615  53.603  1.00  0.00     0.127 C 
BRANCH   8   9
HETATM    9  C2  UNL     1      26.168  43.918  53.220  1.00  0.00     0.089 C 
HETATM   10  C1  UNL     1      26.853  43.499  54.520  1.00  0.00     0.032 C 
BRANCH   9  11
HETATM   11  N3  UNL     1      26.983  44.910  52.520  1.00  0.00    -0.356 N 
HETATM   12  C14 UNL     1      27.086  44.905  51.104  1.00  0.00     0.225 C 
HETATM   13  O3  UNL     1      26.457  44.024  50.456  1.00  0.00    -0.273 OA
ATOM     14  H3  UNL     1      27.486  45.616  53.058  1.00  0.00     0.162 HD
BRANCH  12  15
HETATM   15  C15 UNL     1      27.891  45.879  50.359  1.00  0.00     0.030 C 
HETATM   16  C16 UNL     1      27.065  47.083  49.900  1.00  0.00     0.024 C 
HETATM   17  C17 UNL     1      28.490  45.273  49.106  1.00  0.00     0.024 C 
HETATM   18  C18 UNL     1      29.025  46.422  51.200  1.00  0.00     0.024 C 
ENDBRANCH  12  15
ENDBRANCH   9  11
ENDBRANCH   8   9
ENDBRANCH   1   8
BRANCH   7  19
HETATM   19  C9  UNL     1      20.857  42.814  54.616  1.00  0.00     0.241 C 
HETATM   20  O2  UNL     1      20.044  43.778  54.663  1.00  0.00    -0.271 OA
HETATM   21  N2  UNL     1      20.741  41.730  53.740  1.00  0.00    -0.354 N 
ATOM     22  H2  UNL     1      21.454  41.002  53.785  1.00  0.00     0.162 HD
BRANCH  21  23
HETATM   23  C10 UNL     1      19.673  41.571  52.775  1.00  0.00     0.095 C 
HETATM   24  C11 UNL     1      20.113  41.612  51.326  1.00  0.00     0.104 C 
HETATM   25  C12 UNL     1      19.146  40.467  51.069  1.00  0.00     0.247 C 
HETATM   26  F1  UNL     1      19.609  39.508  50.201  1.00  0.00    -0.206 F 
HETATM   27  F2  UNL     1      17.907  41.000  50.740  1.00  0.00    -0.206 F 
HETATM   28  C13 UNL     1      19.287  40.106  52.534  1.00  0.00     0.104 C 
ENDBRANCH  21  23
ENDBRANCH   7  19
TORSDOF 6
ENDMDL
MODEL 2
REMARK VINA RESULT: -7.412062340      0.999      1.039
REMARK  6 active torsions:
REMARK  status: ('A' for Active; 'I' for Inactive)
REMARK    1  A    between atoms: C2_2  and  C3_3 
REMARK    2  A    between atoms: C2_2  and  N3_21 
REMARK    3  A    between atoms: C3_3  and  C4_4 
REMARK       I    between atoms: C4_4  and  N1_6 
REMARK    4  A    between atoms: C8_10  and  C9_11 
REMARK       I    between atoms: C9_11  and  N2_13 
REMARK    5  A    between atoms: N2_13  and  C10_15 
REMARK       I    between atoms: N3_21  and  C14_23 
REMARK    6  A    between atoms: C14_23  and  C15_25 
ROOT
HETATM    1  C4  UNL     1      24.209  43.791  55.193  1.00  0.00     0.222 C 
HETATM    2  O1  UNL     1      24.227  42.876  54.329  1.00  0.00    -0.273 OA
HETATM    3  N1  UNL     1      23.139  43.905  56.113  1.00  0.00    -0.339 N 
HETATM    4  C5  UNL     1      23.018  44.917  57.144  1.00  0.00     0.127 C 
HETATM    5  C6  UNL     1      22.223  44.158  58.204  1.00  0.00     0.022 C 
HETATM    6  C7  UNL     1      21.147  43.512  57.325  1.00  0.00     0.037 C 
HETATM    7  C8  UNL     1      21.995  43.022  56.163  1.00  0.00     0.179 C 
ENDROOT
BRANCH   1   8
HETATM    8  C3  UNL     1      25.361  44.742  55.198  1.00  0.00     0.127 C 
BRANCH   8   9
HETATM    9  C2  UNL     1      26.550  44.156  54.473  1.00  0.00     0.089 C 
HETATM   10  C1  UNL     1      27.673  44.016  55.500  1.00  0.00     0.032 C 
BRANCH   9  11
HETATM   11  N3  UNL     1      26.926  45.125  53.446  1.00  0.00    -0.356 N 
HETATM   12  C14 UNL     1      26.662  44.875  52.073  1.00  0.00     0.225 C 
HETATM   13  O3  UNL     1      26.094  43.795  51.753  1.00  0.00    -0.273 OA
ATOM     14  H3  UNL     1      27.385  45.994  53.719  1.00  0.00     0.162 HD
BRANCH  12  15
HETATM   15  C15 UNL     1      27.021  45.817  51.008  1.00  0.00     0.030 C 
HETATM   16  C16 UNL     1      25.808  46.588  50.481  1.00  0.00     0.024 C 
HETATM   17  C17 UNL     1      27.627  45.111  49.811  1.00  0.00     0.024 C 
HETATM   18  C18 UNL     1      28.017  46.849  51.489  1.00  0.00     0.024 C 
ENDBRANCH  12  15
ENDBRANCH   9  11
ENDBRANCH   8   9
ENDBRANCH   1   8
BRANCH   7  19
HETATM   19  C9  UNL     1      21.146  43.112  54.950  1.00  0.00     0.241 C 
HETATM   20  O2  UNL     1      20.917  44.273  54.513  1.00  0.00    -0.271 OA
HETATM   21  N2  UNL     1      20.654  41.941  54.365  1.00  0.00    -0.354 N 
ATOM     22  H2  UNL     1      20.899  41.052  54.800  1.00  0.00     0.162 HD
BRANCH  21  23
HETATM   23  C10 UNL     1      19.820  41.908  53.182  1.00  0.00     0.095 C 
HETATM   24  C11 UNL     1      20.570  41.997  51.870  1.00  0.00     0.104 C 
HETATM   25  C12 UNL     1      19.623  40.936  51.332  1.00  0.00     0.247 C 
HETATM   26  F1  UNL     1      20.213  39.996  50.522  1.00  0.00    -0.206 F 
HETATM   27  F2  UNL     1      18.518  41.569  50.778  1.00  0.00    -0.206 F 
HETATM   28  C13 UNL     1      19.417  40.488  52.764  1.00  0.00     0.104 C 
ENDBRANCH  21  23
ENDBRANCH   7  19
TORSDOF 6
ENDMDL
MODEL 3
REMARK VINA RESULT: -7.385394906      1.201      1.701
REMARK  6 active torsions:
REMARK  status: ('A' for Active; 'I' for Inactive)
REMARK    1  A    between atoms: C2_2  and  C3_3 
REMARK    2  A    between atoms: C2_2  and  N3_21 
REMARK    3  A    between atoms: C3_3  and  C4_4 
REMARK       I    between atoms: C4_4  and  N1_6 
REMARK    4  A    between atoms: C8_10  and  C9_11 
REMARK       I    between atoms: C9_11  and  N2_13 
REMARK    5  A    between atoms: N2_13  and  C10_15 
REMARK       I    between atoms: N3_21  and  C14_23 
REMARK    6  A    between atoms: C14_23  and  C15_25 
ROOT
HETATM    1  C4  UNL     1      24.136  43.474  54.479  1.00  0.00     0.222 C 
HETATM    2  O1  UNL     1      24.149  42.554  53.619  1.00  0.00    -0.273 OA
HETATM    3  N1  UNL     1      23.060  43.606  55.389  1.00  0.00    -0.339 N 
HETATM    4  C5  UNL     1      22.943  44.625  56.414  1.00  0.00     0.127 C 
HETATM    5  C6  UNL     1      22.130  43.882  57.471  1.00  0.00     0.022 C 
HETATM    6  C7  UNL     1      21.054  43.244  56.587  1.00  0.00     0.037 C 
HETATM    7  C8  UNL     1      21.904  42.738  55.434  1.00  0.00     0.179 C 
ENDROOT
BRANCH   1   8
HETATM    8  C3  UNL     1      25.300  44.410  54.488  1.00  0.00     0.127 C 
BRANCH   8   9
HETATM    9  C2  UNL     1      26.148  44.231  53.251  1.00  0.00     0.089 C 
HETATM   10  C1  UNL     1      27.338  43.359  53.649  1.00  0.00     0.032 C 
BRANCH   9  11
HETATM   11  N3  UNL     1      26.609  45.565  52.870  1.00  0.00    -0.356 N 
HETATM   12  C14 UNL     1      26.252  46.133  51.619  1.00  0.00     0.225 C 
HETATM   13  O3  UNL     1      25.526  45.461  50.836  1.00  0.00    -0.273 OA
ATOM     14  H3  UNL     1      27.197  46.096  53.514  1.00  0.00     0.162 HD
BRANCH  12  15
HETATM   15  C15 UNL     1      26.691  47.466  51.194  1.00  0.00     0.030 C 
HETATM   16  C16 UNL     1      28.065  47.833  51.759  1.00  0.00     0.024 C 
HETATM   17  C17 UNL     1      25.738  48.548  51.661  1.00  0.00     0.024 C 
HETATM   18  C18 UNL     1      26.800  47.563  49.688  1.00  0.00     0.024 C 
ENDBRANCH  12  15
ENDBRANCH   9  11
ENDBRANCH   8   9
ENDBRANCH   1   8
BRANCH   7  19
HETATM   19  C9  UNL     1      21.066  42.833  54.214  1.00  0.00     0.241 C 
HETATM   20  O2  UNL     1      20.886  43.991  53.748  1.00  0.00    -0.271 OA
HETATM   21  N2  UNL     1      20.533  41.668  53.653  1.00  0.00    -0.354 N 
ATOM     22  H2  UNL     1      20.741  40.780  54.110  1.00  0.00     0.162 HD
BRANCH  21  23
HETATM   23  C10 UNL     1      19.704  41.639  52.465  1.00  0.00     0.095 C 
HETATM   24  C11 UNL     1      19.329  40.253  51.984  1.00  0.00     0.104 C 
HETATM   25  C12 UNL     1      17.936  40.797  51.711  1.00  0.00     0.247 C 
HETATM   26  F1  UNL     1      16.911  39.939  52.028  1.00  0.00    -0.206 F 
HETATM   27  F2  UNL     1      17.899  41.291  50.414  1.00  0.00    -0.206 F 
HETATM   28  C13 UNL     1      18.215  41.854  52.760  1.00  0.00     0.104 C 
ENDBRANCH  21  23
ENDBRANCH   7  19
TORSDOF 6
ENDMDL
MODEL 4
REMARK VINA RESULT: -7.315371313      0.827      1.276
REMARK  6 active torsions:
REMARK  status: ('A' for Active; 'I' for Inactive)
REMARK    1  A    between atoms: C2_2  and  C3_3 
REMARK    2  A    between atoms: C2_2  and  N3_21 
REMARK    3  A    between atoms: C3_3  and  C4_4 
REMARK       I    between atoms: C4_4  and  N1_6 
REMARK    4  A    between atoms: C8_10  and  C9_11 
REMARK       I    between atoms: C9_11  and  N2_13 
REMARK    5  A    between atoms: N2_13  and  C10_15 
REMARK       I    between atoms: N3_21  and  C14_23 
REMARK    6  A    between atoms: C14_23  and  C15_25 
ROOT
HETATM    1  C4  UNL     1      23.818  43.761  54.186  1.00  0.00     0.222 C 
HETATM    2  O1  UNL     1      23.721  42.831  53.344  1.00  0.00    -0.273 OA
HETATM    3  N1  UNL     1      22.980  43.803  55.326  1.00  0.00    -0.339 N 
HETATM    4  C5  UNL     1      23.007  44.825  56.355  1.00  0.00     0.127 C 
HETATM    5  C6  UNL     1      22.544  44.026  57.570  1.00  0.00     0.022 C 
HETATM    6  C7  UNL     1      21.359  43.269  56.962  1.00  0.00     0.037 C 
HETATM    7  C8  UNL     1      21.960  42.828  55.639  1.00  0.00     0.179 C 
ENDROOT
BRANCH   1   8
HETATM    8  C3  UNL     1      24.853  44.806  53.925  1.00  0.00     0.127 C 
BRANCH   8   9
HETATM    9  C2  UNL     1      25.935  44.281  53.012  1.00  0.00     0.089 C 
HETATM   10  C1  UNL     1      26.820  43.361  53.853  1.00  0.00     0.032 C 
BRANCH   9  11
HETATM   11  N3  UNL     1      26.701  45.444  52.567  1.00  0.00    -0.356 N 
HETATM   12  C14 UNL     1      26.370  46.120  51.363  1.00  0.00     0.225 C 
HETATM   13  O3  UNL     1      25.398  45.696  50.679  1.00  0.00    -0.273 OA
ATOM     14  H3  UNL     1      27.484  45.775  53.131  1.00  0.00     0.162 HD
BRANCH  12  15
HETATM   15  C15 UNL     1      27.109  47.290  50.877  1.00  0.00     0.030 C 
HETATM   16  C16 UNL     1      28.517  47.376  51.472  1.00  0.00     0.024 C 
HETATM   17  C17 UNL     1      26.414  48.586  51.243  1.00  0.00     0.024 C 
HETATM   18  C18 UNL     1      27.273  47.260  49.374  1.00  0.00     0.024 C 
ENDBRANCH  12  15
ENDBRANCH   9  11
ENDBRANCH   8   9
ENDBRANCH   1   8
BRANCH   7  19
HETATM   19  C9  UNL     1      20.853  42.817  54.651  1.00  0.00     0.241 C 
HETATM   20  O2  UNL     1      20.010  43.750  54.746  1.00  0.00    -0.271 OA
HETATM   21  N2  UNL     1      20.798  41.803  53.690  1.00  0.00    -0.354 N 
ATOM     22  H2  UNL     1      21.532  41.094  53.702  1.00  0.00     0.162 HD
BRANCH  21  23
HETATM   23  C10 UNL     1      19.768  41.692  52.678  1.00  0.00     0.095 C 
HETATM   24  C11 UNL     1      20.279  41.575  51.258  1.00  0.00     0.104 C 
HETATM   25  C12 UNL     1      19.200  40.529  51.026  1.00  0.00     0.247 C 
HETATM   26  F1  UNL     1      19.591  39.462  50.253  1.00  0.00    -0.206 F 
HETATM   27  F2  UNL     1      18.048  41.170  50.591  1.00  0.00    -0.206 F 
HETATM   28  C13 UNL     1      19.227  40.266  52.517  1.00  0.00     0.104 C 
ENDBRANCH  21  23
ENDBRANCH   7  19
TORSDOF 6
ENDMDL
MODEL 5
REMARK VINA RESULT: -7.251982218      2.682      7.143
REMARK  6 active torsions:
REMARK  status: ('A' for Active; 'I' for Inactive)
REMARK    1  A    between atoms: C2_2  and  C3_3 
REMARK    2  A    between atoms: C2_2  and  N3_21 
REMARK    3  A    between atoms: C3_3  and  C4_4 
REMARK       I    between atoms: C4_4  and  N1_6 
REMARK    4  A    between atoms: C8_10  and  C9_11 
REMARK       I    between atoms: C9_11  and  N2_13 
REMARK    5  A    between atoms: N2_13  and  C10_15 
REMARK       I    between atoms: N3_21  and  C14_23 
REMARK    6  A    between atoms: C14_23  and  C15_25 
ROOT
HETATM    1  C4  UNL     1      23.522  44.003  56.616  1.00  0.00     0.222 C 
HETATM    2  O1  UNL     1      22.269  43.919  56.534  1.00  0.00    -0.273 OA
HETATM    3  N1  UNL     1      24.317  44.197  55.461  1.00  0.00    -0.339 N 
HETATM    4  C5  UNL     1      25.763  44.307  55.442  1.00  0.00     0.127 C 
HETATM    5  C6  UNL     1      25.970  45.213  54.230  1.00  0.00     0.022 C 
HETATM    6  C7  UNL     1      25.018  44.549  53.230  1.00  0.00     0.037 C 
HETATM    7  C8  UNL     1      23.804  44.315  54.115  1.00  0.00     0.179 C 
ENDROOT
BRANCH   1   8
HETATM    8  C3  UNL     1      24.120  43.889  57.980  1.00  0.00     0.127 C 
BRANCH   8   9
HETATM    9  C2  UNL     1      23.424  44.806  58.956  1.00  0.00     0.089 C 
HETATM   10  C1  UNL     1      24.481  45.285  59.950  1.00  0.00     0.032 C 
BRANCH   9  11
HETATM   11  N3  UNL     1      22.420  43.994  59.642  1.00  0.00    -0.356 N 
HETATM   12  C14 UNL     1      21.138  44.522  59.949  1.00  0.00     0.225 C 
HETATM   13  O3  UNL     1      20.879  45.711  59.618  1.00  0.00    -0.273 OA
ATOM     14  H3  UNL     1      22.644  43.034  59.904  1.00  0.00     0.162 HD
BRANCH  12  15
HETATM   15  C15 UNL     1      20.100  43.745  60.636  1.00  0.00     0.030 C 
HETATM   16  C16 UNL     1      20.649  42.450  61.240  1.00  0.00     0.024 C 
HETATM   17  C17 UNL     1      18.988  43.335  59.692  1.00  0.00     0.024 C 
HETATM   18  C18 UNL     1      19.480  44.527  61.772  1.00  0.00     0.024 C 
ENDBRANCH  12  15
ENDBRANCH   9  11
ENDBRANCH   8   9
ENDBRANCH   1   8
BRANCH   7  19
HETATM   19  C9  UNL     1      23.162  43.067  53.633  1.00  0.00     0.241 C 
HETATM   20  O2  UNL     1      23.907  42.053  53.544  1.00  0.00    -0.271 OA
HETATM   21  N2  UNL     1      21.801  43.074  53.312  1.00  0.00    -0.354 N 
ATOM     22  H2  UNL     1      21.290  43.949  53.420  1.00  0.00     0.162 HD
BRANCH  21  23
HETATM   23  C10 UNL     1      21.069  41.918  52.835  1.00  0.00     0.095 C 
HETATM   24  C11 UNL     1      19.791  41.618  53.589  1.00  0.00     0.104 C 
HETATM   25  C12 UNL     1      19.148  41.314  52.245  1.00  0.00     0.247 C 
HETATM   26  F1  UNL     1      17.854  41.757  52.113  1.00  0.00    -0.206 F 
HETATM   27  F2  UNL     1      19.333  39.968  51.960  1.00  0.00    -0.206 F 
HETATM   28  C13 UNL     1      20.187  42.219  51.617  1.00  0.00     0.104 C 
ENDBRANCH  21  23
ENDBRANCH   7  19
TORSDOF 6
ENDMDL
