MODEL 1
REMARK VINA RESULT: -9.012586372      0.000      0.000
REMARK  17 active torsions:
REMARK  status: ('A' for Active; 'I' for Inactive)
REMARK       I    between atoms: C2_2  and  N1_4 
REMARK    1  A    between atoms: N1_4  and  N2_6 
REMARK    2  A    between atoms: C5_11  and  C6_12 
REMARK    3  A    between atoms: C6_12  and  N4_13 
REMARK    4  A    between atoms: N4_13  and  C7_15 
REMARK    5  A    between atoms: C7_15  and  O2_16 
REMARK    6  A    between atoms: C7_15  and  N5_18 
REMARK       I    between atoms: N5_18  and  C8_20 
REMARK    7  A    between atoms: C8_20  and  C9_22 
REMARK    8  A    between atoms: C10_28  and  C11_29 
REMARK       I    between atoms: C11_29  and  N8_31 
REMARK    9  A    between atoms: N8_31  and  C12_33 
REMARK   10  A    between atoms: C12_33  and  N9_34 
REMARK   11  A    between atoms: C12_33  and  C13_38 
REMARK   12  A    between atoms: C13_38  and  O6_39 
REMARK   13  A    between atoms: C13_38  and  C14_41 
REMARK   14  A    between atoms: C14_41  and  O7_42 
REMARK   15  A    between atoms: C14_41  and  C15_44 
REMARK   16  A    between atoms: C15_44  and  O8_45 
REMARK   17  A    between atoms: C19_51  and  N11_52 
ROOT
HETATM    1  N5  UNL     1     -13.394   3.954   8.458  1.00  0.00    -0.287 N 
ATOM      2  H5  UNL     1     -13.120   4.073   7.483  1.00  0.00     0.172 HD
HETATM    3  C8  UNL     1     -14.724   3.634   8.625  1.00  0.00     0.279 C 
HETATM    4  O3  UNL     1     -15.446   3.454   7.562  1.00  0.00    -0.265 OA
ENDROOT
BRANCH   1   5
HETATM    5  C7  UNL     1     -12.351   4.146   9.362  1.00  0.00     0.220 C 
BRANCH   5   6
HETATM    6  N4  UNL     1     -11.234   3.329   9.603  1.00  0.00    -0.352 N 
ATOM      7  H4  UNL     1     -11.287   2.327   9.420  1.00  0.00     0.163 HD
BRANCH   6   8
HETATM    8  C6  UNL     1     -10.012   3.905  10.110  1.00  0.00     0.165 C 
BRANCH   8   9
HETATM    9  C5  UNL     1      -8.864   3.033   9.767  1.00  0.00     0.004 A 
HETATM   10  C4  UNL     1      -8.222   2.301  10.762  1.00  0.00     0.073 A 
HETATM   11  N3  UNL     1      -8.416   2.168  12.077  1.00  0.00    -0.348 N 
HETATM   12  C18 UNL     1      -7.202   1.609  10.146  1.00  0.00     0.107 A 
HETATM   13  C3  UNL     1      -7.629   1.360  12.841  1.00  0.00     0.209 A 
ATOM     14  H3  UNL     1      -9.174   2.685  12.521  1.00  0.00     0.167 HD
HETATM   15  N2  UNL     1      -6.631   0.667  12.308  1.00  0.00    -0.231 N 
HETATM   16  C19 UNL     1      -6.412   0.789  10.949  1.00  0.00     0.151 A 
HETATM   17  N10 UNL     1      -7.215   1.902   8.826  1.00  0.00    -0.356 N 
HETATM   18  C16 UNL     1      -8.233   2.775   8.585  1.00  0.00     0.102 A 
HETATM   19  C17 UNL     1      -6.325   1.413   7.813  1.00  0.00     0.156 C 
BRANCH  15  20
HETATM   20  N1  UNL     1      -5.777  -0.194  13.000  1.00  0.00    -0.261 N 
HETATM   21  C2  UNL     1      -6.010  -1.515  13.392  1.00  0.00     0.232 C 
HETATM   22  C1  UNL     1      -4.945  -2.276  14.144  1.00  0.00     0.119 C 
HETATM   23  O1  UNL     1      -7.057  -2.142  13.169  1.00  0.00    -0.272 OA
ATOM     24  H1  UNL     1      -4.866   0.192  13.251  1.00  0.00     0.190 HD
ENDBRANCH  15  20
BRANCH  16  25
HETATM   25  N11 UNL     1      -5.466   0.132  10.438  1.00  0.00    -0.382 N 
ATOM     26 2H11 UNL     1      -4.675  -0.153  11.016  1.00  0.00     0.157 HD
ATOM     27 1H11 UNL     1      -5.520  -0.098   9.447  1.00  0.00     0.157 HD
ENDBRANCH  16  25
ENDBRANCH   8   9
ENDBRANCH   6   8
ENDBRANCH   5   6
BRANCH   5  28
HETATM   28  O2  UNL     1     -12.453   5.252  10.070  1.00  0.00    -0.332 OA
ATOM     29  H2  UNL     1     -13.062   5.912   9.759  1.00  0.00     0.220 HD
ENDBRANCH   5  28
ENDBRANCH   1   5
BRANCH   3  30
HETATM   30  C9  UNL     1     -15.448   3.469   9.856  1.00  0.00     0.158 A 
HETATM   31  N6  UNL     1     -16.216   4.451  10.414  1.00  0.00    -0.234 N 
HETATM   32  O4  UNL     1     -16.739   3.979  11.479  1.00  0.00    -0.156 OA
ATOM     33  H6  UNL     1     -16.348   5.393  10.046  1.00  0.00     0.197 HD
HETATM   34  N7  UNL     1     -16.394   2.767  11.688  1.00  0.00    -0.234 N 
HETATM   35  C10 UNL     1     -15.551   2.366  10.673  1.00  0.00     0.158 A 
ATOM     36  H7  UNL     1     -16.692   2.192  12.476  1.00  0.00     0.197 HD
BRANCH  35  37
HETATM   37  C11 UNL     1     -14.927   1.059  10.578  1.00  0.00     0.274 C 
HETATM   38  O5  UNL     1     -15.729   0.131  10.162  1.00  0.00    -0.266 OA
HETATM   39  N8  UNL     1     -13.598   0.737  10.885  1.00  0.00    -0.326 N 
ATOM     40  H8  UNL     1     -12.951   1.455  11.207  1.00  0.00     0.165 HD
BRANCH  39  41
HETATM   41  C12 UNL     1     -13.165  -0.625  10.736  1.00  0.00     0.316 C 
BRANCH  41  42
HETATM   42  N9  UNL     1     -13.361  -1.251  12.061  1.00  0.00    -0.056 N 
ATOM     43  H93 UNL     1     -12.492  -1.544  12.508  1.00  0.00     0.276 HD
ATOM     44  H92 UNL     1     -13.654  -0.595  12.785  1.00  0.00     0.276 HD
ATOM     45  H91 UNL     1     -14.022  -2.013  11.908  1.00  0.00     0.276 HD
ENDBRANCH  41  42
BRANCH  41  46
HETATM   46  C13 UNL     1     -11.774  -0.874  10.342  1.00  0.00     0.199 C 
BRANCH  46  47
HETATM   47  O6  UNL     1     -11.628  -1.888   9.387  1.00  0.00    -0.389 OA
ATOM     48  H6  UNL     1     -10.724  -2.110   9.198  1.00  0.00     0.210 HD
ENDBRANCH  46  47
BRANCH  46  49
HETATM   49  C14 UNL     1     -10.721  -0.937  11.384  1.00  0.00     0.174 C 
BRANCH  49  50
HETATM   50  O7  UNL     1     -11.005  -0.364  12.595  1.00  0.00    -0.391 OA
ATOM     51  H7  UNL     1     -10.703   0.526  12.734  1.00  0.00     0.210 HD
ENDBRANCH  49  50
BRANCH  49  52
HETATM   52  C15 UNL     1     -10.069  -2.311  11.518  1.00  0.00     0.198 C 
BRANCH  52  53
HETATM   53  O8  UNL     1     -11.019  -3.250  11.908  1.00  0.00    -0.398 OA
ATOM     54  H8  UNL     1     -11.042  -3.965  11.283  1.00  0.00     0.209 HD
ENDBRANCH  52  53
ENDBRANCH  49  52
ENDBRANCH  46  49
ENDBRANCH  41  46
ENDBRANCH  39  41
ENDBRANCH  35  37
ENDBRANCH   3  30
TORSDOF 17
ENDMDL
MODEL 2
REMARK VINA RESULT: -8.747226208      1.269      1.946
REMARK  17 active torsions:
REMARK  status: ('A' for Active; 'I' for Inactive)
REMARK       I    between atoms: C2_2  and  N1_4 
REMARK    1  A    between atoms: N1_4  and  N2_6 
REMARK    2  A    between atoms: C5_11  and  C6_12 
REMARK    3  A    between atoms: C6_12  and  N4_13 
REMARK    4  A    between atoms: N4_13  and  C7_15 
REMARK    5  A    between atoms: C7_15  and  O2_16 
REMARK    6  A    between atoms: C7_15  and  N5_18 
REMARK       I    between atoms: N5_18  and  C8_20 
REMARK    7  A    between atoms: C8_20  and  C9_22 
REMARK    8  A    between atoms: C10_28  and  C11_29 
REMARK       I    between atoms: C11_29  and  N8_31 
REMARK    9  A    between atoms: N8_31  and  C12_33 
REMARK   10  A    between atoms: C12_33  and  N9_34 
REMARK   11  A    between atoms: C12_33  and  C13_38 
REMARK   12  A    between atoms: C13_38  and  O6_39 
REMARK   13  A    between atoms: C13_38  and  C14_41 
REMARK   14  A    between atoms: C14_41  and  O7_42 
REMARK   15  A    between atoms: C14_41  and  C15_44 
REMARK   16  A    between atoms: C15_44  and  O8_45 
REMARK   17  A    between atoms: C19_51  and  N11_52 
ROOT
HETATM    1  N5  UNL     1     -12.901   3.699   8.418  1.00  0.00    -0.287 N 
ATOM      2  H5  UNL     1     -12.472   3.716   7.493  1.00  0.00     0.172 HD
HETATM    3  C8  UNL     1     -14.259   3.468   8.396  1.00  0.00     0.279 C 
HETATM    4  O3  UNL     1     -14.820   3.233   7.249  1.00  0.00    -0.265 OA
ENDROOT
BRANCH   1   5
HETATM    5  C7  UNL     1     -12.000   3.915   9.458  1.00  0.00     0.220 C 
BRANCH   5   6
HETATM    6  N4  UNL     1     -11.031   3.042   9.979  1.00  0.00    -0.352 N 
ATOM      7  H4  UNL     1     -11.308   2.302  10.624  1.00  0.00     0.163 HD
BRANCH   6   8
HETATM    8  C6  UNL     1      -9.645   3.190   9.603  1.00  0.00     0.165 C 
BRANCH   8   9
HETATM    9  C5  UNL     1      -8.801   3.275  10.819  1.00  0.00     0.004 A 
HETATM   10  C4  UNL     1      -8.191   2.130  11.326  1.00  0.00     0.073 A 
HETATM   11  N3  UNL     1      -8.166   0.853  10.938  1.00  0.00    -0.348 N 
HETATM   12  C18 UNL     1      -7.498   2.520  12.451  1.00  0.00     0.107 A 
HETATM   13  C3  UNL     1      -7.467  -0.093  11.625  1.00  0.00     0.209 A 
ATOM     14  H3  UNL     1      -8.683   0.578  10.104  1.00  0.00     0.167 HD
HETATM   15  N2  UNL     1      -6.778   0.218  12.716  1.00  0.00    -0.231 N 
HETATM   16  C19 UNL     1      -6.790   1.534  13.136  1.00  0.00     0.151 A 
HETATM   17  N10 UNL     1      -7.673   3.848  12.630  1.00  0.00    -0.356 N 
HETATM   18  C16 UNL     1      -8.472   4.319  11.632  1.00  0.00     0.102 A 
HETATM   19  C17 UNL     1      -7.139   4.666  13.680  1.00  0.00     0.156 C 
BRANCH  15  20
HETATM   20  N1  UNL     1      -6.023  -0.672  13.483  1.00  0.00    -0.261 N 
HETATM   21  C2  UNL     1      -6.300  -2.010  13.779  1.00  0.00     0.232 C 
HETATM   22  C1  UNL     1      -5.348  -2.804  14.640  1.00  0.00     0.119 C 
HETATM   23  O1  UNL     1      -7.300  -2.627  13.381  1.00  0.00    -0.272 OA
ATOM     24  H1  UNL     1      -5.161  -0.298  13.878  1.00  0.00     0.190 HD
ENDBRANCH  15  20
BRANCH  16  25
HETATM   25  N11 UNL     1      -6.137   1.833  14.171  1.00  0.00    -0.382 N 
ATOM     26 2H11 UNL     1      -5.938   1.119  14.872  1.00  0.00     0.157 HD
ATOM     27 1H11 UNL     1      -5.821   2.797  14.279  1.00  0.00     0.157 HD
ENDBRANCH  16  25
ENDBRANCH   8   9
ENDBRANCH   6   8
ENDBRANCH   5   6
BRANCH   5  28
HETATM   28  O2  UNL     1     -12.091   5.110  10.006  1.00  0.00    -0.332 OA
ATOM     29  H2  UNL     1     -12.768   5.237  10.660  1.00  0.00     0.220 HD
ENDBRANCH   5  28
ENDBRANCH   1   5
BRANCH   3  30
HETATM   30  C9  UNL     1     -15.174   3.453   9.505  1.00  0.00     0.158 A 
HETATM   31  N6  UNL     1     -15.972   4.511   9.836  1.00  0.00    -0.234 N 
HETATM   32  O4  UNL     1     -16.677   4.168  10.843  1.00  0.00    -0.156 OA
ATOM     33  H6  UNL     1     -15.999   5.414   9.362  1.00  0.00     0.197 HD
HETATM   34  N7  UNL     1     -16.427   2.973  11.221  1.00  0.00    -0.234 N 
HETATM   35  C10 UNL     1     -15.456   2.443  10.397  1.00  0.00     0.158 A 
ATOM     36  H7  UNL     1     -16.872   2.491  12.002  1.00  0.00     0.197 HD
BRANCH  35  37
HETATM   37  C11 UNL     1     -14.888   1.114  10.529  1.00  0.00     0.274 C 
HETATM   38  O5  UNL     1     -15.677   0.171  10.122  1.00  0.00    -0.266 OA
HETATM   39  N8  UNL     1     -13.623   0.786  11.035  1.00  0.00    -0.326 N 
ATOM     40  H8  UNL     1     -12.986   1.516  11.354  1.00  0.00     0.165 HD
BRANCH  39  41
HETATM   41  C12 UNL     1     -13.241  -0.598  11.096  1.00  0.00     0.316 C 
BRANCH  41  42
HETATM   42  N9  UNL     1     -13.840  -1.120  12.342  1.00  0.00    -0.056 N 
ATOM     43  H93 UNL     1     -14.276  -0.401  12.921  1.00  0.00     0.276 HD
ATOM     44  H92 UNL     1     -14.681  -1.678  12.191  1.00  0.00     0.276 HD
ATOM     45  H91 UNL     1     -13.092  -1.629  12.813  1.00  0.00     0.276 HD
ENDBRANCH  41  42
BRANCH  41  46
HETATM   46  C13 UNL     1     -11.810  -0.924  11.135  1.00  0.00     0.199 C 
BRANCH  46  47
HETATM   47  O6  UNL     1     -11.029  -0.146  10.272  1.00  0.00    -0.389 OA
ATOM     48  H6  UNL     1     -10.113  -0.100  10.519  1.00  0.00     0.210 HD
ENDBRANCH  46  47
BRANCH  46  49
HETATM   49  C14 UNL     1     -11.385  -2.344  11.140  1.00  0.00     0.174 C 
BRANCH  49  50
HETATM   50  O7  UNL     1     -11.766  -3.114  10.074  1.00  0.00    -0.391 OA
ATOM     51  H7  UNL     1     -11.464  -2.844   9.215  1.00  0.00     0.210 HD
ENDBRANCH  49  50
BRANCH  49  52
HETATM   52  C15 UNL     1      -9.923  -2.548  11.526  1.00  0.00     0.198 C 
BRANCH  52  53
HETATM   53  O8  UNL     1      -9.735  -3.842  12.002  1.00  0.00    -0.398 OA
ATOM     54  H8  UNL     1      -8.863  -4.145  11.776  1.00  0.00     0.209 HD
ENDBRANCH  52  53
ENDBRANCH  49  52
ENDBRANCH  46  49
ENDBRANCH  41  46
ENDBRANCH  39  41
ENDBRANCH  35  37
ENDBRANCH   3  30
TORSDOF 17
ENDMDL
MODEL 3
REMARK VINA RESULT: -8.527524836      1.294      1.558
REMARK  17 active torsions:
REMARK  status: ('A' for Active; 'I' for Inactive)
REMARK       I    between atoms: C2_2  and  N1_4 
REMARK    1  A    between atoms: N1_4  and  N2_6 
REMARK    2  A    between atoms: C5_11  and  C6_12 
REMARK    3  A    between atoms: C6_12  and  N4_13 
REMARK    4  A    between atoms: N4_13  and  C7_15 
REMARK    5  A    between atoms: C7_15  and  O2_16 
REMARK    6  A    between atoms: C7_15  and  N5_18 
REMARK       I    between atoms: N5_18  and  C8_20 
REMARK    7  A    between atoms: C8_20  and  C9_22 
REMARK    8  A    between atoms: C10_28  and  C11_29 
REMARK       I    between atoms: C11_29  and  N8_31 
REMARK    9  A    between atoms: N8_31  and  C12_33 
REMARK   10  A    between atoms: C12_33  and  N9_34 
REMARK   11  A    between atoms: C12_33  and  C13_38 
REMARK   12  A    between atoms: C13_38  and  O6_39 
REMARK   13  A    between atoms: C13_38  and  C14_41 
REMARK   14  A    between atoms: C14_41  and  O7_42 
REMARK   15  A    between atoms: C14_41  and  C15_44 
REMARK   16  A    between atoms: C15_44  and  O8_45 
REMARK   17  A    between atoms: C19_51  and  N11_52 
ROOT
HETATM    1  N5  UNL     1     -13.625   4.560   8.435  1.00  0.00    -0.287 N 
ATOM      2  H5  UNL     1     -13.536   5.019   7.528  1.00  0.00     0.172 HD
HETATM    3  C8  UNL     1     -14.799   3.855   8.587  1.00  0.00     0.279 C 
HETATM    4  O3  UNL     1     -15.607   3.790   7.574  1.00  0.00    -0.265 OA
ENDROOT
BRANCH   1   5
HETATM    5  C7  UNL     1     -12.536   4.769   9.279  1.00  0.00     0.220 C 
BRANCH   5   6
HETATM    6  N4  UNL     1     -11.360   4.011   9.402  1.00  0.00    -0.352 N 
ATOM      7  H4  UNL     1     -11.403   2.994   9.350  1.00  0.00     0.163 HD
BRANCH   6   8
HETATM    8  C6  UNL     1     -10.092   4.670   9.603  1.00  0.00     0.165 C 
BRANCH   8   9
HETATM    9  C5  UNL     1      -8.985   3.742   9.270  1.00  0.00     0.004 A 
HETATM   10  C4  UNL     1      -8.619   2.742  10.168  1.00  0.00     0.073 A 
HETATM   11  N3  UNL     1      -9.076   2.369  11.366  1.00  0.00    -0.348 N 
HETATM   12  C18 UNL     1      -7.567   2.063   9.593  1.00  0.00     0.107 A 
HETATM   13  C3  UNL     1      -8.532   1.325  12.049  1.00  0.00     0.209 A 
ATOM     14  H3  UNL     1      -9.855   2.881  11.780  1.00  0.00     0.167 HD
HETATM   15  N2  UNL     1      -7.518   0.629  11.550  1.00  0.00    -0.231 N 
HETATM   16  C19 UNL     1      -7.028   0.997  10.311  1.00  0.00     0.151 A 
HETATM   17  N10 UNL     1      -7.297   2.620   8.392  1.00  0.00    -0.356 N 
HETATM   18  C16 UNL     1      -8.163   3.651   8.186  1.00  0.00     0.102 A 
HETATM   19  C17 UNL     1      -6.276   2.235   7.460  1.00  0.00     0.156 C 
BRANCH  15  20
HETATM   20  N1  UNL     1      -6.898  -0.461  12.164  1.00  0.00    -0.261 N 
HETATM   21  C2  UNL     1      -6.002  -0.456  13.237  1.00  0.00     0.232 C 
HETATM   22  C1  UNL     1      -5.436  -1.756  13.753  1.00  0.00     0.119 C 
HETATM   23  O1  UNL     1      -5.614   0.565  13.826  1.00  0.00    -0.272 OA
ATOM     24  H1  UNL     1      -7.128  -1.377  11.781  1.00  0.00     0.190 HD
ENDBRANCH  15  20
BRANCH  16  25
HETATM   25  N11 UNL     1      -6.066   0.340   9.834  1.00  0.00    -0.382 N 
ATOM     26 2H11 UNL     1      -5.161   0.790   9.694  1.00  0.00     0.157 HD
ATOM     27 1H11 UNL     1      -6.223  -0.639   9.597  1.00  0.00     0.157 HD
ENDBRANCH  16  25
ENDBRANCH   8   9
ENDBRANCH   6   8
ENDBRANCH   5   6
BRANCH   5  28
HETATM   28  O2  UNL     1     -12.654   5.829  10.052  1.00  0.00    -0.332 OA
ATOM     29  H2  UNL     1     -13.113   6.580   9.693  1.00  0.00     0.220 HD
ENDBRANCH   5  28
ENDBRANCH   1   5
BRANCH   3  30
HETATM   30  C9  UNL     1     -15.270   3.159   9.754  1.00  0.00     0.158 A 
HETATM   31  N6  UNL     1     -16.390   3.525  10.446  1.00  0.00    -0.234 N 
HETATM   32  O4  UNL     1     -16.545   2.694  11.403  1.00  0.00    -0.156 OA
ATOM     33  H6  UNL     1     -16.994   4.319  10.235  1.00  0.00     0.197 HD
HETATM   34  N7  UNL     1     -15.631   1.802  11.418  1.00  0.00    -0.234 N 
HETATM   35  C10 UNL     1     -14.762   2.040  10.374  1.00  0.00     0.158 A 
ATOM     36  H7  UNL     1     -15.555   1.039  12.091  1.00  0.00     0.197 HD
BRANCH  35  37
HETATM   37  C11 UNL     1     -13.578   1.254  10.080  1.00  0.00     0.274 C 
HETATM   38  O5  UNL     1     -13.062   1.509   8.920  1.00  0.00    -0.266 OA
HETATM   39  N8  UNL     1     -12.981   0.291  10.904  1.00  0.00    -0.326 N 
ATOM     40  H8  UNL     1     -13.370   0.081  11.823  1.00  0.00     0.165 HD
BRANCH  39  41
HETATM   41  C12 UNL     1     -11.811  -0.395  10.430  1.00  0.00     0.316 C 
BRANCH  41  42
HETATM   42  N9  UNL     1     -12.254  -1.166   9.249  1.00  0.00    -0.056 N 
ATOM     43  H93 UNL     1     -12.301  -2.173   9.411  1.00  0.00     0.276 HD
ATOM     44  H92 UNL     1     -13.240  -1.035   9.020  1.00  0.00     0.276 HD
ATOM     45  H91 UNL     1     -11.620  -0.901   8.495  1.00  0.00     0.276 HD
ENDBRANCH  41  42
BRANCH  41  46
HETATM   46  C13 UNL     1     -11.142  -1.337  11.335  1.00  0.00     0.199 C 
BRANCH  46  47
HETATM   47  O6  UNL     1     -10.712  -0.760  12.536  1.00  0.00    -0.389 OA
ATOM     48  H6  UNL     1     -10.692   0.189  12.520  1.00  0.00     0.210 HD
ENDBRANCH  46  47
BRANCH  46  49
HETATM   49  C14 UNL     1     -10.146  -2.290  10.789  1.00  0.00     0.174 C 
BRANCH  49  50
HETATM   50  O7  UNL     1      -9.138  -1.770  10.022  1.00  0.00    -0.391 OA
ATOM     51  H7  UNL     1      -8.828  -2.300   9.297  1.00  0.00     0.210 HD
ENDBRANCH  49  50
BRANCH  49  52
HETATM   52  C15 UNL     1      -9.647  -3.311  11.809  1.00  0.00     0.198 C 
BRANCH  52  53
HETATM   53  O8  UNL     1      -8.494  -2.837  12.428  1.00  0.00    -0.398 OA
ATOM     54  H8  UNL     1      -8.699  -2.538  13.306  1.00  0.00     0.209 HD
ENDBRANCH  52  53
ENDBRANCH  49  52
ENDBRANCH  46  49
ENDBRANCH  41  46
ENDBRANCH  39  41
ENDBRANCH  35  37
ENDBRANCH   3  30
TORSDOF 17
ENDMDL
MODEL 4
REMARK VINA RESULT: -8.505831818      2.402      8.546
REMARK  17 active torsions:
REMARK  status: ('A' for Active; 'I' for Inactive)
REMARK       I    between atoms: C2_2  and  N1_4 
REMARK    1  A    between atoms: N1_4  and  N2_6 
REMARK    2  A    between atoms: C5_11  and  C6_12 
REMARK    3  A    between atoms: C6_12  and  N4_13 
REMARK    4  A    between atoms: N4_13  and  C7_15 
REMARK    5  A    between atoms: C7_15  and  O2_16 
REMARK    6  A    between atoms: C7_15  and  N5_18 
REMARK       I    between atoms: N5_18  and  C8_20 
REMARK    7  A    between atoms: C8_20  and  C9_22 
REMARK    8  A    between atoms: C10_28  and  C11_29 
REMARK       I    between atoms: C11_29  and  N8_31 
REMARK    9  A    between atoms: N8_31  and  C12_33 
REMARK   10  A    between atoms: C12_33  and  N9_34 
REMARK   11  A    between atoms: C12_33  and  C13_38 
REMARK   12  A    between atoms: C13_38  and  O6_39 
REMARK   13  A    between atoms: C13_38  and  C14_41 
REMARK   14  A    between atoms: C14_41  and  O7_42 
REMARK   15  A    between atoms: C14_41  and  C15_44 
REMARK   16  A    between atoms: C15_44  and  O8_45 
REMARK   17  A    between atoms: C19_51  and  N11_52 
ROOT
HETATM    1  N5  UNL     1      -8.833  -0.996  10.637  1.00  0.00    -0.287 N 
ATOM      2  H5  UNL     1      -8.582  -1.717   9.960  1.00  0.00     0.172 HD
HETATM    3  C8  UNL     1      -8.340   0.252  10.328  1.00  0.00     0.279 C 
HETATM    4  O3  UNL     1      -7.691   0.393   9.213  1.00  0.00    -0.265 OA
ENDROOT
BRANCH   1   5
HETATM    5  C7  UNL     1      -9.609  -1.467  11.695  1.00  0.00     0.220 C 
BRANCH   5   6
HETATM    6  N4  UNL     1     -11.006  -1.452  11.837  1.00  0.00    -0.352 N 
ATOM      7  H4  UNL     1     -11.423  -1.513  12.765  1.00  0.00     0.163 HD
BRANCH   6   8
HETATM    8  C6  UNL     1     -11.851  -1.352  10.671  1.00  0.00     0.165 C 
BRANCH   8   9
HETATM    9  C5  UNL     1     -13.062  -0.561  10.996  1.00  0.00     0.004 A 
HETATM   10  C4  UNL     1     -13.477   0.461  10.145  1.00  0.00     0.073 A 
HETATM   11  N3  UNL     1     -13.014   0.939   8.987  1.00  0.00    -0.348 N 
HETATM   12  C18 UNL     1     -14.605   1.013  10.713  1.00  0.00     0.107 A 
HETATM   13  C3  UNL     1     -13.627   1.968   8.339  1.00  0.00     0.209 A 
ATOM     14  H3  UNL     1     -12.179   0.522   8.577  1.00  0.00     0.167 HD
HETATM   15  N2  UNL     1     -14.716   2.542   8.832  1.00  0.00    -0.231 N 
HETATM   16  C19 UNL     1     -15.213   2.063  10.030  1.00  0.00     0.151 A 
HETATM   17  N10 UNL     1     -14.873   0.359  11.865  1.00  0.00    -0.356 N 
HETATM   18  C16 UNL     1     -13.931  -0.609  12.046  1.00  0.00     0.102 A 
HETATM   19  C17 UNL     1     -15.947   0.610  12.782  1.00  0.00     0.156 C 
BRANCH  15  20
HETATM   20  N1  UNL     1     -15.422   3.592   8.242  1.00  0.00    -0.261 N 
HETATM   21  C2  UNL     1     -15.466   3.955   6.893  1.00  0.00     0.232 C 
HETATM   22  C1  UNL     1     -16.295   5.139   6.459  1.00  0.00     0.119 C 
HETATM   23  O1  UNL     1     -14.859   3.367   5.985  1.00  0.00    -0.272 OA
ATOM     24  H1  UNL     1     -15.975   4.167   8.877  1.00  0.00     0.190 HD
ENDBRANCH  15  20
BRANCH  16  25
HETATM   25  N11 UNL     1     -16.248   2.605  10.503  1.00  0.00    -0.382 N 
ATOM     26 2H11 UNL     1     -16.921   3.047   9.877  1.00  0.00     0.157 HD
ATOM     27 1H11 UNL     1     -16.382   2.585  11.513  1.00  0.00     0.157 HD
ENDBRANCH  16  25
ENDBRANCH   8   9
ENDBRANCH   6   8
ENDBRANCH   5   6
BRANCH   5  28
HETATM   28  O2  UNL     1      -8.909  -1.994  12.679  1.00  0.00    -0.332 OA
ATOM     29  H2  UNL     1      -8.371  -2.750  12.474  1.00  0.00     0.220 HD
ENDBRANCH   5  28
ENDBRANCH   1   5
BRANCH   3  30
HETATM   30  C9  UNL     1      -8.445   1.462  11.098  1.00  0.00     0.158 A 
HETATM   31  N6  UNL     1      -9.296   2.482  10.782  1.00  0.00    -0.234 N 
HETATM   32  O4  UNL     1      -9.166   3.388  11.672  1.00  0.00    -0.156 OA
ATOM     33  H6  UNL     1      -9.924   2.515   9.978  1.00  0.00     0.197 HD
HETATM   34  N7  UNL     1      -8.304   3.070  12.559  1.00  0.00    -0.234 N 
HETATM   35  C10 UNL     1      -7.790   1.828  12.252  1.00  0.00     0.158 A 
ATOM     36  H7  UNL     1      -8.039   3.641  13.363  1.00  0.00     0.197 HD
BRANCH  35  37
HETATM   37  C11 UNL     1      -6.763   1.141  13.013  1.00  0.00     0.274 C 
HETATM   38  O5  UNL     1      -5.955   1.941  13.634  1.00  0.00    -0.266 OA
HETATM   39  N8  UNL     1      -6.581  -0.244  13.122  1.00  0.00    -0.326 N 
ATOM     40  H8  UNL     1      -7.211  -0.890  12.645  1.00  0.00     0.165 HD
BRANCH  39  41
HETATM   41  C12 UNL     1      -5.493  -0.738  13.919  1.00  0.00     0.316 C 
BRANCH  41  42
HETATM   42  N9  UNL     1      -4.270  -0.459  13.136  1.00  0.00    -0.056 N 
ATOM     43  H93 UNL     1      -4.151   0.526  12.899  1.00  0.00     0.276 HD
ATOM     44  H92 UNL     1      -3.408  -0.559  13.672  1.00  0.00     0.276 HD
ATOM     45  H91 UNL     1      -4.320  -1.074  12.323  1.00  0.00     0.276 HD
ENDBRANCH  41  42
BRANCH  41  46
HETATM   46  C13 UNL     1      -5.471  -2.166  14.259  1.00  0.00     0.199 C 
BRANCH  46  47
HETATM   47  O6  UNL     1      -6.743  -2.732  14.405  1.00  0.00    -0.389 OA
ATOM     48  H6  UNL     1      -7.162  -2.953  13.582  1.00  0.00     0.210 HD
ENDBRANCH  46  47
BRANCH  46  49
HETATM   49  C14 UNL     1      -4.524  -2.655  15.290  1.00  0.00     0.174 C 
BRANCH  49  50
HETATM   50  O7  UNL     1      -5.001  -2.786  16.566  1.00  0.00    -0.391 OA
ATOM     51  H7  UNL     1      -5.623  -3.486  16.727  1.00  0.00     0.210 HD
ENDBRANCH  49  50
BRANCH  49  52
HETATM   52  C15 UNL     1      -3.694  -3.856  14.842  1.00  0.00     0.198 C 
BRANCH  52  53
HETATM   53  O8  UNL     1      -4.366  -4.548  13.838  1.00  0.00    -0.398 OA
ATOM     54  H8  UNL     1      -5.123  -4.991  14.203  1.00  0.00     0.209 HD
ENDBRANCH  52  53
ENDBRANCH  49  52
ENDBRANCH  46  49
ENDBRANCH  41  46
ENDBRANCH  39  41
ENDBRANCH  35  37
ENDBRANCH   3  30
TORSDOF 17
ENDMDL
MODEL 5
REMARK VINA RESULT: -8.473897388      1.670      3.325
REMARK  17 active torsions:
REMARK  status: ('A' for Active; 'I' for Inactive)
REMARK       I    between atoms: C2_2  and  N1_4 
REMARK    1  A    between atoms: N1_4  and  N2_6 
REMARK    2  A    between atoms: C5_11  and  C6_12 
REMARK    3  A    between atoms: C6_12  and  N4_13 
REMARK    4  A    between atoms: N4_13  and  C7_15 
REMARK    5  A    between atoms: C7_15  and  O2_16 
REMARK    6  A    between atoms: C7_15  and  N5_18 
REMARK       I    between atoms: N5_18  and  C8_20 
REMARK    7  A    between atoms: C8_20  and  C9_22 
REMARK    8  A    between atoms: C10_28  and  C11_29 
REMARK       I    between atoms: C11_29  and  N8_31 
REMARK    9  A    between atoms: N8_31  and  C12_33 
REMARK   10  A    between atoms: C12_33  and  N9_34 
REMARK   11  A    between atoms: C12_33  and  C13_38 
REMARK   12  A    between atoms: C13_38  and  O6_39 
REMARK   13  A    between atoms: C13_38  and  C14_41 
REMARK   14  A    between atoms: C14_41  and  O7_42 
REMARK   15  A    between atoms: C14_41  and  C15_44 
REMARK   16  A    between atoms: C15_44  and  O8_45 
REMARK   17  A    between atoms: C19_51  and  N11_52 
ROOT
HETATM    1  N5  UNL     1     -13.299   3.983   8.485  1.00  0.00    -0.287 N 
ATOM      2  H5  UNL     1     -13.004   4.105   7.516  1.00  0.00     0.172 HD
HETATM    3  C8  UNL     1     -14.634   3.670   8.623  1.00  0.00     0.279 C 
HETATM    4  O3  UNL     1     -15.335   3.498   7.544  1.00  0.00    -0.265 OA
ENDROOT
BRANCH   1   5
HETATM    5  C7  UNL     1     -12.274   4.166   9.411  1.00  0.00     0.220 C 
BRANCH   5   6
HETATM    6  N4  UNL     1     -11.187   3.325   9.698  1.00  0.00    -0.352 N 
ATOM      7  H4  UNL     1     -11.292   2.313   9.623  1.00  0.00     0.163 HD
BRANCH   6   8
HETATM    8  C6  UNL     1      -9.920   3.890  10.098  1.00  0.00     0.165 C 
BRANCH   8   9
HETATM    9  C5  UNL     1      -8.895   2.822  10.174  1.00  0.00     0.004 A 
HETATM   10  C4  UNL     1      -8.140   2.498   9.049  1.00  0.00     0.073 A 
HETATM   11  N3  UNL     1      -8.099   2.972   7.801  1.00  0.00    -0.348 N 
HETATM   12  C18 UNL     1      -7.296   1.475   9.423  1.00  0.00     0.107 A 
HETATM   13  C3  UNL     1      -7.239   2.471   6.871  1.00  0.00     0.209 A 
ATOM     14  H3  UNL     1      -8.728   3.729   7.538  1.00  0.00     0.167 HD
HETATM   15  N2  UNL     1      -6.401   1.487   7.168  1.00  0.00    -0.231 N 
HETATM   16  C19 UNL     1      -6.426   0.981   8.454  1.00  0.00     0.151 A 
HETATM   17  N10 UNL     1      -7.522   1.180  10.722  1.00  0.00    -0.356 N 
HETATM   18  C16 UNL     1      -8.502   2.003  11.191  1.00  0.00     0.102 A 
HETATM   19  C17 UNL     1      -6.875   0.175  11.516  1.00  0.00     0.156 C 
BRANCH  15  20
HETATM   20  N1  UNL     1      -5.477   0.913   6.292  1.00  0.00    -0.261 N 
HETATM   21  C2  UNL     1      -5.725   0.223   5.102  1.00  0.00     0.232 C 
HETATM   22  C1  UNL     1      -4.573  -0.329   4.298  1.00  0.00     0.119 C 
HETATM   23  O1  UNL     1      -6.853   0.015   4.631  1.00  0.00    -0.272 OA
ATOM     24  H1  UNL     1      -4.496   1.009   6.555  1.00  0.00     0.190 HD
ENDBRANCH  15  20
BRANCH  16  25
HETATM   25  N11 UNL     1      -5.632   0.046   8.740  1.00  0.00    -0.382 N 
ATOM     26 2H11 UNL     1      -5.972  -0.915   8.784  1.00  0.00     0.157 HD
ATOM     27 1H11 UNL     1      -4.656   0.282   8.921  1.00  0.00     0.157 HD
ENDBRANCH  16  25
ENDBRANCH   8   9
ENDBRANCH   6   8
ENDBRANCH   5   6
BRANCH   5  28
HETATM   28  O2  UNL     1     -12.364   5.290  10.093  1.00  0.00    -0.332 OA
ATOM     29  H2  UNL     1     -13.152   5.807   9.976  1.00  0.00     0.220 HD
ENDBRANCH   5  28
ENDBRANCH   1   5
BRANCH   3  30
HETATM   30  C9  UNL     1     -15.384   3.504   9.838  1.00  0.00     0.158 A 
HETATM   31  N6  UNL     1     -16.155   4.489  10.386  1.00  0.00    -0.234 N 
HETATM   32  O4  UNL     1     -16.704   4.016  11.437  1.00  0.00    -0.156 OA
ATOM     33  H6  UNL     1     -16.271   5.435  10.021  1.00  0.00     0.197 HD
HETATM   34  N7  UNL     1     -16.373   2.800  11.646  1.00  0.00    -0.234 N 
HETATM   35  C10 UNL     1     -15.514   2.396  10.646  1.00  0.00     0.158 A 
ATOM     36  H7  UNL     1     -16.692   2.222  12.424  1.00  0.00     0.197 HD
BRANCH  35  37
HETATM   37  C11 UNL     1     -14.899   1.085  10.555  1.00  0.00     0.274 C 
HETATM   38  O5  UNL     1     -15.707   0.162  10.141  1.00  0.00    -0.266 OA
HETATM   39  N8  UNL     1     -13.573   0.754  10.866  1.00  0.00    -0.326 N 
ATOM     40  H8  UNL     1     -12.921   1.468  11.188  1.00  0.00     0.165 HD
BRANCH  39  41
HETATM   41  C12 UNL     1     -13.150  -0.612  10.721  1.00  0.00     0.316 C 
BRANCH  41  42
HETATM   42  N9  UNL     1     -13.398  -1.245  12.034  1.00  0.00    -0.056 N 
ATOM     43  H93 UNL     1     -13.177  -0.642  12.828  1.00  0.00     0.276 HD
ATOM     44  H92 UNL     1     -14.387  -1.370  12.249  1.00  0.00     0.276 HD
ATOM     45  H91 UNL     1     -12.868  -2.116  12.022  1.00  0.00     0.276 HD
ENDBRANCH  41  42
BRANCH  41  46
HETATM   46  C13 UNL     1     -11.749  -0.873  10.373  1.00  0.00     0.199 C 
BRANCH  46  47
HETATM   47  O6  UNL     1     -11.580  -1.902   9.438  1.00  0.00    -0.389 OA
ATOM     48  H6  UNL     1     -11.280  -1.603   8.588  1.00  0.00     0.210 HD
ENDBRANCH  46  47
BRANCH  46  49
HETATM   49  C14 UNL     1     -10.728  -0.926  11.446  1.00  0.00     0.174 C 
BRANCH  49  50
HETATM   50  O7  UNL     1     -11.059  -0.367  12.652  1.00  0.00    -0.391 OA
ATOM     51  H7  UNL     1     -11.497   0.475  12.632  1.00  0.00     0.210 HD
ENDBRANCH  49  50
BRANCH  49  52
HETATM   52  C15 UNL     1     -10.056  -2.289  11.590  1.00  0.00     0.198 C 
BRANCH  52  53
HETATM   53  O8  UNL     1     -11.001  -3.249  11.940  1.00  0.00    -0.398 OA
ATOM     54  H8  UNL     1     -11.647  -2.868  12.524  1.00  0.00     0.209 HD
ENDBRANCH  52  53
ENDBRANCH  49  52
ENDBRANCH  46  49
ENDBRANCH  41  46
ENDBRANCH  39  41
ENDBRANCH  35  37
ENDBRANCH   3  30
TORSDOF 17
ENDMDL
