MODEL 1
REMARK VINA RESULT: -3.965673299      0.000      0.000
REMARK  3 active torsions:
REMARK  status: ('A' for Active; 'I' for Inactive)
REMARK    1  A    between atoms: C1_4  and  N2_5 
REMARK    2  A    between atoms: N2_5  and  N3_7 
REMARK    3  A    between atoms: C2_9  and  C3_10 
ROOT
HETATM    1  N3  UNL     1       5.996  37.865  -1.122  1.00  0.00    -0.313 N 
ATOM      2  H3  UNL     1       6.114  36.873  -0.917  1.00  0.00     0.185 HD
HETATM    3  C2  UNL     1       4.795  38.333  -1.278  1.00  0.00     0.113 C 
ENDROOT
BRANCH   1   4
HETATM    4  N2  UNL     1       7.118  38.658  -1.222  1.00  0.00    -0.297 N 
ATOM      5  H2  UNL     1       7.305  39.371  -0.517  1.00  0.00     0.187 HD
BRANCH   4   6
HETATM    6  C1  UNL     1       8.016  38.480  -2.310  1.00  0.00     0.190 C 
HETATM    7  N1  UNL     1       9.102  37.807  -2.177  1.00  0.00    -0.394 N 
ATOM      8  H12 UNL     1       9.310  37.399  -1.266  1.00  0.00     0.156 HD
ATOM      9  H11 UNL     1       9.746  37.680  -2.958  1.00  0.00     0.156 HD
ENDBRANCH   4   6
ENDBRANCH   1   4
BRANCH   3  10
HETATM   10  C3  UNL     1       4.594  39.746  -1.570  1.00  0.00     0.225 C 
HETATM   11  C4  UNL     1       3.369  40.283  -0.859  1.00  0.00     0.040 C 
HETATM   12  C5  UNL     1       2.332  40.443  -1.927  1.00  0.00     0.030 C 
HETATM   13  C6  UNL     1       3.023  40.187  -3.221  1.00  0.00     0.233 C 
HETATM   14  N4  UNL     1       4.434  40.058  -2.963  1.00  0.00    -0.066 N 
ATOM     15  H42 UNL     1       4.967  40.879  -3.250  1.00  0.00     0.278 HD
ATOM     16  H41 UNL     1       4.890  39.382  -3.576  1.00  0.00     0.278 HD
ENDBRANCH   3  10
TORSDOF 3
ENDMDL
MODEL 2
REMARK VINA RESULT: -3.708618206      1.509      4.672
REMARK  3 active torsions:
REMARK  status: ('A' for Active; 'I' for Inactive)
REMARK    1  A    between atoms: C1_4  and  N2_5 
REMARK    2  A    between atoms: N2_5  and  N3_7 
REMARK    3  A    between atoms: C2_9  and  C3_10 
ROOT
HETATM    1  N3  UNL     1       4.358  40.192  -2.804  1.00  0.00    -0.313 N 
ATOM      2  H3  UNL     1       3.817  40.382  -3.648  1.00  0.00     0.185 HD
HETATM    3  C2  UNL     1       5.579  39.768  -2.927  1.00  0.00     0.113 C 
ENDROOT
BRANCH   1   4
HETATM    4  N2  UNL     1       3.764  40.394  -1.578  1.00  0.00    -0.297 N 
ATOM      5  H2  UNL     1       4.233  40.959  -0.870  1.00  0.00     0.187 HD
BRANCH   4   6
HETATM    6  C1  UNL     1       2.497  39.812  -1.300  1.00  0.00     0.190 C 
HETATM    7  N1  UNL     1       2.306  38.546  -1.404  1.00  0.00    -0.394 N 
ATOM      8  H12 UNL     1       3.089  37.961  -1.693  1.00  0.00     0.156 HD
ATOM      9  H11 UNL     1       1.397  38.129  -1.205  1.00  0.00     0.156 HD
ENDBRANCH   4   6
ENDBRANCH   1   4
BRANCH   3  10
HETATM   10  C3  UNL     1       6.378  39.488  -1.742  1.00  0.00     0.225 C 
HETATM   11  C4  UNL     1       7.827  39.874  -1.955  1.00  0.00     0.040 C 
HETATM   12  C5  UNL     1       8.559  38.578  -2.124  1.00  0.00     0.030 C 
HETATM   13  C6  UNL     1       7.576  37.501  -1.820  1.00  0.00     0.233 C 
HETATM   14  N4  UNL     1       6.372  38.115  -1.321  1.00  0.00    -0.066 N 
ATOM     15  H42 UNL     1       6.261  38.009  -0.312  1.00  0.00     0.278 HD
ATOM     16  H41 UNL     1       5.527  37.617  -1.601  1.00  0.00     0.278 HD
ENDBRANCH   3  10
TORSDOF 3
ENDMDL
MODEL 3
REMARK VINA RESULT: -3.543690765      1.412      1.995
REMARK  3 active torsions:
REMARK  status: ('A' for Active; 'I' for Inactive)
REMARK    1  A    between atoms: C1_4  and  N2_5 
REMARK    2  A    between atoms: N2_5  and  N3_7 
REMARK    3  A    between atoms: C2_9  and  C3_10 
ROOT
HETATM    1  N3  UNL     1       7.501  39.858  -2.062  1.00  0.00    -0.313 N 
ATOM      2  H3  UNL     1       8.305  40.435  -1.816  1.00  0.00     0.185 HD
HETATM    3  C2  UNL     1       6.310  40.294  -1.782  1.00  0.00     0.113 C 
ENDROOT
BRANCH   1   4
HETATM    4  N2  UNL     1       7.719  38.647  -2.680  1.00  0.00    -0.297 N 
ATOM      5  H2  UNL     1       7.542  38.543  -3.679  1.00  0.00     0.187 HD
BRANCH   4   6
HETATM    6  C1  UNL     1       8.192  37.540  -1.922  1.00  0.00     0.190 C 
HETATM    7  N1  UNL     1       7.679  37.243  -0.783  1.00  0.00    -0.394 N 
ATOM      8  H12 UNL     1       6.918  37.822  -0.429  1.00  0.00     0.156 HD
ATOM      9  H11 UNL     1       8.019  36.449  -0.240  1.00  0.00     0.156 HD
ENDBRANCH   4   6
ENDBRANCH   1   4
BRANCH   3  10
HETATM   10  C3  UNL     1       5.141  39.495  -2.122  1.00  0.00     0.225 C 
HETATM   11  C4  UNL     1       4.027  40.361  -2.674  1.00  0.00     0.040 C 
HETATM   12  C5  UNL     1       3.012  40.444  -1.576  1.00  0.00     0.030 C 
HETATM   13  C6  UNL     1       3.460  39.494  -0.521  1.00  0.00     0.233 C 
HETATM   14  N4  UNL     1       4.581  38.747  -1.030  1.00  0.00    -0.066 N 
ATOM     15  H42 UNL     1       4.338  37.790  -1.286  1.00  0.00     0.278 HD
ATOM     16  H41 UNL     1       5.268  38.522  -0.310  1.00  0.00     0.278 HD
ENDBRANCH   3  10
TORSDOF 3
ENDMDL
MODEL 4
REMARK VINA RESULT: -3.456402599      1.122      1.570
REMARK  3 active torsions:
REMARK  status: ('A' for Active; 'I' for Inactive)
REMARK    1  A    between atoms: C1_4  and  N2_5 
REMARK    2  A    between atoms: N2_5  and  N3_7 
REMARK    3  A    between atoms: C2_9  and  C3_10 
ROOT
HETATM    1  N3  UNL     1       6.632  39.412  -1.139  1.00  0.00    -0.313 N 
ATOM      2  H3  UNL     1       7.387  39.967  -0.735  1.00  0.00     0.185 HD
HETATM    3  C2  UNL     1       5.542  40.014  -1.509  1.00  0.00     0.113 C 
ENDROOT
BRANCH   1   4
HETATM    4  N2  UNL     1       6.808  38.053  -1.272  1.00  0.00    -0.297 N 
ATOM      5  H2  UNL     1       6.142  37.408  -0.847  1.00  0.00     0.187 HD
BRANCH   4   6
HETATM    6  C1  UNL     1       7.920  37.551  -2.004  1.00  0.00     0.190 C 
HETATM    7  N1  UNL     1       9.039  38.179  -2.032  1.00  0.00    -0.394 N 
ATOM      8  H12 UNL     1       9.116  39.054  -1.514  1.00  0.00     0.156 HD
ATOM      9  H11 UNL     1       9.836  37.819  -2.556  1.00  0.00     0.156 HD
ENDBRANCH   4   6
ENDBRANCH   1   4
BRANCH   3  10
HETATM   10  C3  UNL     1       4.447  39.251  -2.092  1.00  0.00     0.225 C 
HETATM   11  C4  UNL     1       3.701  40.067  -3.127  1.00  0.00     0.040 C 
HETATM   12  C5  UNL     1       2.408  40.444  -2.473  1.00  0.00     0.030 C 
HETATM   13  C6  UNL     1       2.357  39.697  -1.186  1.00  0.00     0.233 C 
HETATM   14  N4  UNL     1       3.469  38.783  -1.149  1.00  0.00    -0.066 N 
ATOM     15  H42 UNL     1       3.193  37.814  -1.310  1.00  0.00     0.278 HD
ATOM     16  H41 UNL     1       3.850  38.659  -0.210  1.00  0.00     0.278 HD
ENDBRANCH   3  10
TORSDOF 3
ENDMDL
MODEL 5
REMARK VINA RESULT: -3.276214761      1.322      1.720
REMARK  3 active torsions:
REMARK  status: ('A' for Active; 'I' for Inactive)
REMARK    1  A    between atoms: C1_4  and  N2_5 
REMARK    2  A    between atoms: N2_5  and  N3_7 
REMARK    3  A    between atoms: C2_9  and  C3_10 
ROOT
HETATM    1  N3  UNL     1       6.573  39.425  -1.904  1.00  0.00    -0.313 N 
ATOM      2  H3  UNL     1       7.250  39.842  -2.543  1.00  0.00     0.185 HD
HETATM    3  C2  UNL     1       5.486  40.079  -1.629  1.00  0.00     0.113 C 
ENDROOT
BRANCH   1   4
HETATM    4  N2  UNL     1       6.848  38.188  -1.364  1.00  0.00    -0.297 N 
ATOM      5  H2  UNL     1       6.257  37.809  -0.625  1.00  0.00     0.187 HD
BRANCH   4   6
HETATM    6  C1  UNL     1       7.960  37.439  -1.841  1.00  0.00     0.190 C 
HETATM    7  N1  UNL     1       9.046  38.017  -2.210  1.00  0.00    -0.394 N 
ATOM      8  H12 UNL     1       9.095  39.034  -2.155  1.00  0.00     0.156 HD
ATOM      9  H11 UNL     1       9.842  37.480  -2.552  1.00  0.00     0.156 HD
ENDBRANCH   4   6
ENDBRANCH   1   4
BRANCH   3  10
HETATM   10  C3  UNL     1       4.500  39.510  -0.721  1.00  0.00     0.225 C 
HETATM   11  C4  UNL     1       3.727  38.389  -1.385  1.00  0.00     0.040 C 
HETATM   12  C5  UNL     1       2.373  38.962  -1.672  1.00  0.00     0.030 C 
HETATM   13  C6  UNL     1       2.335  40.297  -1.012  1.00  0.00     0.233 C 
HETATM   14  N4  UNL     1       3.529  40.444  -0.221  1.00  0.00    -0.066 N 
ATOM     15  H42 UNL     1       3.358  40.341   0.780  1.00  0.00     0.278 HD
ATOM     16  H41 UNL     1       3.876  41.403  -0.199  1.00  0.00     0.278 HD
ENDBRANCH   3  10
TORSDOF 3
ENDMDL
