MODEL 1
REMARK VINA RESULT: -8.246782360      0.000      0.000
REMARK  10 active torsions:
REMARK  status: ('A' for Active; 'I' for Inactive)
REMARK    1  A    between atoms: N1_1  and  N2_4 
REMARK    2  A    between atoms: C1_6  and  C2_7 
REMARK    3  A    between atoms: C1_6  and  C7_16 
REMARK    4  A    between atoms: C2_7  and  C3_8 
REMARK    5  A    between atoms: C3_8  and  C4_9 
REMARK    6  A    between atoms: C4_9  and  C5_10 
REMARK    7  A    between atoms: C5_10  and  N3_11 
REMARK    8  A    between atoms: C7_16  and  C8_17 
REMARK       I    between atoms: C8_17  and  N6_19 
REMARK    9  A    between atoms: N6_19  and  N7_21 
REMARK   10  A    between atoms: N7_21  and  C9_23 
ROOT
HETATM    1  C7  UNL     1      87.929 -30.703  -2.322  1.00  0.00     0.158 C 
ENDROOT
BRANCH   1   2
HETATM    2  C1  UNL     1      86.778 -30.102  -1.636  1.00  0.00     0.012 C 
HETATM    3  N2  UNL     1      86.333 -28.965  -2.024  1.00  0.00    -0.315 N 
ATOM      4  H2  UNL     1      85.533 -28.550  -1.545  1.00  0.00     0.185 HD
BRANCH   3   5
HETATM    5  N1  UNL     1      86.924 -28.284  -3.091  1.00  0.00    -0.345 N 
ATOM      6  H12 UNL     1      87.679 -28.742  -3.601  1.00  0.00     0.176 HD
ATOM      7  H11 UNL     1      86.612 -27.351  -3.358  1.00  0.00     0.176 HD
ENDBRANCH   3   5
BRANCH   2   8
HETATM    8  C2  UNL     1      86.127 -30.786  -0.507  1.00  0.00     0.054 C 
BRANCH   8   9
HETATM    9  C3  UNL     1      84.930 -30.017   0.007  1.00  0.00     0.007 C 
BRANCH   9  10
HETATM   10  C4  UNL     1      84.595 -30.497   1.391  1.00  0.00     0.020 C 
BRANCH  10  11
HETATM   11  C5  UNL     1      84.442 -29.407   2.402  1.00  0.00     0.122 C 
BRANCH  11  12
HETATM   12  N3  UNL     1      85.366 -28.331   2.067  1.00  0.00    -0.367 N 
HETATM   13  C6  UNL     1      86.156 -27.771   2.888  1.00  0.00     0.196 C 
HETATM   14  N4  UNL     1      86.276 -28.089   4.253  1.00  0.00    -0.067 NA
HETATM   15  N5  UNL     1      86.988 -26.724   2.353  1.00  0.00    -0.067 NA
ATOM     16  H3  UNL     1      85.380 -28.004   1.100  1.00  0.00     0.161 HD
ENDBRANCH  11  12
ENDBRANCH  10  11
ENDBRANCH   9  10
ENDBRANCH   8   9
ENDBRANCH   2   8
ENDBRANCH   1   2
BRANCH   1  17
HETATM   17  C8  UNL     1      87.747 -32.106  -2.730  1.00  0.00     0.241 C 
HETATM   18  O1  UNL     1      86.645 -32.531  -3.158  1.00  0.00    -0.271 OA
HETATM   19  N6  UNL     1      88.824 -33.024  -2.647  1.00  0.00    -0.255 N 
ATOM     20  H6  UNL     1      89.734 -32.717  -2.304  1.00  0.00     0.190 HD
BRANCH  19  21
HETATM   21  N7  UNL     1      88.632 -34.350  -3.038  1.00  0.00    -0.127 N 
ATOM     22  H7  UNL     1      87.789 -34.606  -3.552  1.00  0.00     0.206 HD
BRANCH  21  23
HETATM   23  C9  UNL     1      89.518 -35.268  -2.754  1.00  0.00     0.728 A 
HETATM   24  N8  UNL     1      89.410 -36.247  -1.840  1.00  0.00    -0.114 N 
HETATM   25  N9  UNL     1      90.529 -36.956  -1.872  1.00  0.00    -0.213 N 
ATOM     26  H8  UNL     1      88.610 -36.414  -1.230  1.00  0.00     0.207 HD
HETATM   27  N10 UNL     1      91.355 -36.469  -2.775  1.00  0.00    -0.213 N 
ATOM     28  H9  UNL     1      90.723 -37.765  -1.282  1.00  0.00     0.210 HD
HETATM   29  N11 UNL     1      90.728 -35.421  -3.322  1.00  0.00    -0.114 N 
ATOM     30  H10 UNL     1      92.284 -36.820  -3.010  1.00  0.00     0.210 HD
ATOM     31  H11 UNL     1      91.110 -34.828  -4.058  1.00  0.00     0.207 HD
ENDBRANCH  21  23
ENDBRANCH  19  21
ENDBRANCH   1  17
TORSDOF 10
ENDMDL
MODEL 2
REMARK VINA RESULT: -7.966285165      1.105      1.586
REMARK  10 active torsions:
REMARK  status: ('A' for Active; 'I' for Inactive)
REMARK    1  A    between atoms: N1_1  and  N2_4 
REMARK    2  A    between atoms: C1_6  and  C2_7 
REMARK    3  A    between atoms: C1_6  and  C7_16 
REMARK    4  A    between atoms: C2_7  and  C3_8 
REMARK    5  A    between atoms: C3_8  and  C4_9 
REMARK    6  A    between atoms: C4_9  and  C5_10 
REMARK    7  A    between atoms: C5_10  and  N3_11 
REMARK    8  A    between atoms: C7_16  and  C8_17 
REMARK       I    between atoms: C8_17  and  N6_19 
REMARK    9  A    between atoms: N6_19  and  N7_21 
REMARK   10  A    between atoms: N7_21  and  C9_23 
ROOT
HETATM    1  C7  UNL     1      88.066 -30.568  -2.359  1.00  0.00     0.158 C 
ENDROOT
BRANCH   1   2
HETATM    2  C1  UNL     1      86.946 -29.823  -1.770  1.00  0.00     0.012 C 
HETATM    3  N2  UNL     1      86.580 -28.712  -2.293  1.00  0.00    -0.315 N 
ATOM      4  H2  UNL     1      85.801 -28.197  -1.881  1.00  0.00     0.185 HD
BRANCH   3   5
HETATM    5  N1  UNL     1      87.228 -28.194  -3.417  1.00  0.00    -0.345 N 
ATOM      6  H12 UNL     1      87.693 -28.843  -4.052  1.00  0.00     0.176 HD
ATOM      7  H11 UNL     1      87.241 -27.192  -3.603  1.00  0.00     0.176 HD
ENDBRANCH   3   5
BRANCH   2   8
HETATM    8  C2  UNL     1      86.236 -30.333  -0.586  1.00  0.00     0.054 C 
BRANCH   8   9
HETATM    9  C3  UNL     1      84.735 -30.293  -0.765  1.00  0.00     0.007 C 
BRANCH   9  10
HETATM   10  C4  UNL     1      84.094 -31.186   0.260  1.00  0.00     0.020 C 
BRANCH  10  11
HETATM   11  C5  UNL     1      83.066 -30.512   1.109  1.00  0.00     0.122 C 
BRANCH  11  12
HETATM   12  N3  UNL     1      83.711 -29.439   1.855  1.00  0.00    -0.367 N 
HETATM   13  C6  UNL     1      84.197 -29.558   3.022  1.00  0.00     0.196 C 
HETATM   14  N4  UNL     1      84.198 -30.736   3.792  1.00  0.00    -0.067 NA
HETATM   15  N5  UNL     1      84.792 -28.373   3.584  1.00  0.00    -0.067 NA
ATOM     16  H3  UNL     1      83.777 -28.525   1.407  1.00  0.00     0.161 HD
ENDBRANCH  11  12
ENDBRANCH  10  11
ENDBRANCH   9  10
ENDBRANCH   8   9
ENDBRANCH   2   8
ENDBRANCH   1   2
BRANCH   1  17
HETATM   17  C8  UNL     1      87.783 -31.982  -2.660  1.00  0.00     0.241 C 
HETATM   18  O1  UNL     1      86.624 -32.379  -2.937  1.00  0.00    -0.271 OA
HETATM   19  N6  UNL     1      88.825 -32.942  -2.642  1.00  0.00    -0.255 N 
ATOM     20  H6  UNL     1      89.780 -32.659  -2.420  1.00  0.00     0.190 HD
BRANCH  19  21
HETATM   21  N7  UNL     1      88.539 -34.277  -2.928  1.00  0.00    -0.127 N 
ATOM     22  H7  UNL     1      87.621 -34.526  -3.297  1.00  0.00     0.206 HD
BRANCH  21  23
HETATM   23  C9  UNL     1      89.429 -35.212  -2.730  1.00  0.00     0.728 A 
HETATM   24  N8  UNL     1      90.610 -35.357  -3.354  1.00  0.00    -0.114 N 
HETATM   25  N9  UNL     1      91.204 -36.432  -2.857  1.00  0.00    -0.213 N 
ATOM     26  H8  UNL     1      90.984 -34.747  -4.082  1.00  0.00     0.207 HD
HETATM   27  N10 UNL     1      90.446 -36.987  -1.933  1.00  0.00    -0.213 N 
ATOM     28  H9  UNL     1      92.117 -36.780  -3.148  1.00  0.00     0.210 HD
HETATM   29  N11 UNL     1      89.346 -36.231  -1.855  1.00  0.00    -0.114 N 
ATOM     30  H10 UNL     1      90.657 -37.824  -1.388  1.00  0.00     0.210 HD
ATOM     31  H11 UNL     1      88.561 -36.401  -1.226  1.00  0.00     0.207 HD
ENDBRANCH  21  23
ENDBRANCH  19  21
ENDBRANCH   1  17
TORSDOF 10
ENDMDL
MODEL 3
REMARK VINA RESULT: -7.803163232      1.053      1.307
REMARK  10 active torsions:
REMARK  status: ('A' for Active; 'I' for Inactive)
REMARK    1  A    between atoms: N1_1  and  N2_4 
REMARK    2  A    between atoms: C1_6  and  C2_7 
REMARK    3  A    between atoms: C1_6  and  C7_16 
REMARK    4  A    between atoms: C2_7  and  C3_8 
REMARK    5  A    between atoms: C3_8  and  C4_9 
REMARK    6  A    between atoms: C4_9  and  C5_10 
REMARK    7  A    between atoms: C5_10  and  N3_11 
REMARK    8  A    between atoms: C7_16  and  C8_17 
REMARK       I    between atoms: C8_17  and  N6_19 
REMARK    9  A    between atoms: N6_19  and  N7_21 
REMARK   10  A    between atoms: N7_21  and  C9_23 
ROOT
HETATM    1  C7  UNL     1      88.058 -30.970  -2.592  1.00  0.00     0.158 C 
ENDROOT
BRANCH   1   2
HETATM    2  C1  UNL     1      86.896 -30.388  -1.907  1.00  0.00     0.012 C 
HETATM    3  N2  UNL     1      86.556 -29.177  -2.155  1.00  0.00    -0.315 N 
ATOM      4  H2  UNL     1      85.749 -28.776  -1.678  1.00  0.00     0.185 HD
BRANCH   3   5
HETATM    5  N1  UNL     1      87.272 -28.399  -3.068  1.00  0.00    -0.345 N 
ATOM      6  H12 UNL     1      86.772 -27.994  -3.860  1.00  0.00     0.176 HD
ATOM      7  H11 UNL     1      88.272 -28.234  -2.950  1.00  0.00     0.176 HD
ENDBRANCH   3   5
BRANCH   2   8
HETATM    8  C2  UNL     1      86.115 -31.173  -0.938  1.00  0.00     0.054 C 
BRANCH   8   9
HETATM    9  C3  UNL     1      85.463 -30.296   0.106  1.00  0.00     0.007 C 
BRANCH   9  10
HETATM   10  C4  UNL     1      84.225 -30.979   0.618  1.00  0.00     0.020 C 
BRANCH  10  11
HETATM   11  C5  UNL     1      83.263 -30.072   1.314  1.00  0.00     0.122 C 
BRANCH  11  12
HETATM   12  N3  UNL     1      84.020 -29.043   2.016  1.00  0.00    -0.367 N 
HETATM   13  C6  UNL     1      84.342 -29.089   3.243  1.00  0.00     0.196 C 
HETATM   14  N4  UNL     1      84.025 -30.132   4.133  1.00  0.00    -0.067 NA
HETATM   15  N5  UNL     1      85.093 -27.966   3.744  1.00  0.00    -0.067 NA
ATOM     16  H3  UNL     1      84.314 -28.226   1.481  1.00  0.00     0.161 HD
ENDBRANCH  11  12
ENDBRANCH  10  11
ENDBRANCH   9  10
ENDBRANCH   8   9
ENDBRANCH   2   8
ENDBRANCH   1   2
BRANCH   1  17
HETATM   17  C8  UNL     1      87.903 -32.380  -2.989  1.00  0.00     0.241 C 
HETATM   18  O1  UNL     1      86.906 -32.775  -3.643  1.00  0.00    -0.271 OA
HETATM   19  N6  UNL     1      88.888 -33.336  -2.639  1.00  0.00    -0.255 N 
ATOM     20  H6  UNL     1      89.712 -33.054  -2.109  1.00  0.00     0.190 HD
BRANCH  19  21
HETATM   21  N7  UNL     1      88.725 -34.667  -3.024  1.00  0.00    -0.127 N 
ATOM     22  H7  UNL     1      88.161 -34.888  -3.845  1.00  0.00     0.206 HD
BRANCH  21  23
HETATM   23  C9  UNL     1      89.283 -35.636  -2.347  1.00  0.00     0.728 A 
HETATM   24  N8  UNL     1      88.770 -36.293  -1.293  1.00  0.00    -0.114 N 
HETATM   25  N9  UNL     1      89.659 -37.196  -0.906  1.00  0.00    -0.213 N 
ATOM     26  H8  UNL     1      87.858 -36.127  -0.867  1.00  0.00     0.207 HD
HETATM   27  N10 UNL     1      90.729 -37.144  -1.673  1.00  0.00    -0.213 N 
ATOM     28  H9  UNL     1      89.533 -37.839  -0.125  1.00  0.00     0.210 HD
HETATM   29  N11 UNL     1      90.496 -36.176  -2.566  1.00  0.00    -0.114 N 
ATOM     30  H10 UNL     1      91.565 -37.724  -1.600  1.00  0.00     0.210 HD
ATOM     31  H11 UNL     1      91.141 -35.890  -3.303  1.00  0.00     0.207 HD
ENDBRANCH  21  23
ENDBRANCH  19  21
ENDBRANCH   1  17
TORSDOF 10
ENDMDL
MODEL 4
REMARK VINA RESULT: -7.771064728      1.627      8.274
REMARK  10 active torsions:
REMARK  status: ('A' for Active; 'I' for Inactive)
REMARK    1  A    between atoms: N1_1  and  N2_4 
REMARK    2  A    between atoms: C1_6  and  C2_7 
REMARK    3  A    between atoms: C1_6  and  C7_16 
REMARK    4  A    between atoms: C2_7  and  C3_8 
REMARK    5  A    between atoms: C3_8  and  C4_9 
REMARK    6  A    between atoms: C4_9  and  C5_10 
REMARK    7  A    between atoms: C5_10  and  N3_11 
REMARK    8  A    between atoms: C7_16  and  C8_17 
REMARK       I    between atoms: C8_17  and  N6_19 
REMARK    9  A    between atoms: N6_19  and  N7_21 
REMARK   10  A    between atoms: N7_21  and  C9_23 
ROOT
HETATM    1  C7  UNL     1      84.777 -30.687  -1.012  1.00  0.00     0.158 C 
ENDROOT
BRANCH   1   2
HETATM    2  C1  UNL     1      86.164 -30.603  -1.485  1.00  0.00     0.012 C 
HETATM    3  N2  UNL     1      86.593 -29.511  -2.001  1.00  0.00    -0.315 N 
ATOM      4  H2  UNL     1      87.557 -29.457  -2.329  1.00  0.00     0.185 HD
BRANCH   3   5
HETATM    5  N1  UNL     1      85.762 -28.395  -2.123  1.00  0.00    -0.345 N 
ATOM      6  H12 UNL     1      84.910 -28.481  -2.678  1.00  0.00     0.176 HD
ATOM      7  H11 UNL     1      85.995 -27.512  -1.669  1.00  0.00     0.176 HD
ENDBRANCH   3   5
BRANCH   2   8
HETATM    8  C2  UNL     1      87.072 -31.756  -1.377  1.00  0.00     0.054 C 
BRANCH   8   9
HETATM    9  C3  UNL     1      87.915 -31.932  -2.620  1.00  0.00     0.007 C 
BRANCH   9  10
HETATM   10  C4  UNL     1      87.769 -33.343  -3.117  1.00  0.00     0.020 C 
BRANCH  10  11
HETATM   11  C5  UNL     1      88.948 -34.219  -2.842  1.00  0.00     0.122 C 
BRANCH  11  12
HETATM   12  N3  UNL     1      88.492 -35.397  -2.116  1.00  0.00    -0.367 N 
HETATM   13  C6  UNL     1      89.212 -36.407  -1.847  1.00  0.00     0.196 C 
HETATM   14  N4  UNL     1      90.565 -36.564  -2.199  1.00  0.00    -0.067 NA
HETATM   15  N5  UNL     1      88.566 -37.469  -1.118  1.00  0.00    -0.067 NA
ATOM     16  H3  UNL     1      87.521 -35.411  -1.801  1.00  0.00     0.161 HD
ENDBRANCH  11  12
ENDBRANCH  10  11
ENDBRANCH   9  10
ENDBRANCH   8   9
ENDBRANCH   2   8
ENDBRANCH   1   2
BRANCH   1  17
HETATM   17  C8  UNL     1      84.611 -30.597   0.448  1.00  0.00     0.241 C 
HETATM   18  O1  UNL     1      84.750 -31.600   1.191  1.00  0.00    -0.271 OA
HETATM   19  N6  UNL     1      84.284 -29.361   1.059  1.00  0.00    -0.255 N 
ATOM     20  H6  UNL     1      84.162 -28.524   0.490  1.00  0.00     0.190 HD
BRANCH  19  21
HETATM   21  N7  UNL     1      84.129 -29.296   2.445  1.00  0.00    -0.127 N 
ATOM     22  H7  UNL     1      83.468 -29.919   2.907  1.00  0.00     0.206 HD
BRANCH  21  23
HETATM   23  C9  UNL     1      84.821 -28.447   3.158  1.00  0.00     0.728 A 
HETATM   24  N8  UNL     1      85.353 -28.650   4.375  1.00  0.00    -0.114 N 
HETATM   25  N9  UNL     1      85.972 -27.537   4.739  1.00  0.00    -0.213 N 
ATOM     26  H8  UNL     1      85.291 -29.509   4.923  1.00  0.00     0.207 HD
HETATM   27  N10 UNL     1      85.858 -26.621   3.798  1.00  0.00    -0.213 N 
ATOM     28  H9  UNL     1      86.466 -27.407   5.621  1.00  0.00     0.210 HD
HETATM   29  N11 UNL     1      85.144 -27.186   2.818  1.00  0.00    -0.114 N 
ATOM     30  H10 UNL     1      86.238 -25.674   3.815  1.00  0.00     0.210 HD
ATOM     31  H11 UNL     1      84.883 -26.729   1.945  1.00  0.00     0.207 HD
ENDBRANCH  21  23
ENDBRANCH  19  21
ENDBRANCH   1  17
TORSDOF 10
ENDMDL
MODEL 5
REMARK VINA RESULT: -7.762096155      1.503      2.269
REMARK  10 active torsions:
REMARK  status: ('A' for Active; 'I' for Inactive)
REMARK    1  A    between atoms: N1_1  and  N2_4 
REMARK    2  A    between atoms: C1_6  and  C2_7 
REMARK    3  A    between atoms: C1_6  and  C7_16 
REMARK    4  A    between atoms: C2_7  and  C3_8 
REMARK    5  A    between atoms: C3_8  and  C4_9 
REMARK    6  A    between atoms: C4_9  and  C5_10 
REMARK    7  A    between atoms: C5_10  and  N3_11 
REMARK    8  A    between atoms: C7_16  and  C8_17 
REMARK       I    between atoms: C8_17  and  N6_19 
REMARK    9  A    between atoms: N6_19  and  N7_21 
REMARK   10  A    between atoms: N7_21  and  C9_23 
ROOT
HETATM    1  C7  UNL     1      88.069 -30.909  -2.487  1.00  0.00     0.158 C 
ENDROOT
BRANCH   1   2
HETATM    2  C1  UNL     1      86.906 -30.295  -1.836  1.00  0.00     0.012 C 
HETATM    3  N2  UNL     1      86.558 -29.103  -2.153  1.00  0.00    -0.315 N 
ATOM      4  H2  UNL     1      85.749 -28.679  -1.699  1.00  0.00     0.185 HD
BRANCH   3   5
HETATM    5  N1  UNL     1      87.269 -28.374  -3.111  1.00  0.00    -0.345 N 
ATOM      6  H12 UNL     1      88.281 -28.489  -3.156  1.00  0.00     0.176 HD
ATOM      7  H11 UNL     1      86.791 -27.742  -3.753  1.00  0.00     0.176 HD
ENDBRANCH   3   5
BRANCH   2   8
HETATM    8  C2  UNL     1      86.130 -31.027  -0.822  1.00  0.00     0.054 C 
BRANCH   8   9
HETATM    9  C3  UNL     1      85.207 -30.114  -0.047  1.00  0.00     0.007 C 
BRANCH   9  10
HETATM   10  C4  UNL     1      85.744 -29.938   1.345  1.00  0.00     0.020 C 
BRANCH  10  11
HETATM   11  C5  UNL     1      84.943 -29.014   2.204  1.00  0.00     0.122 C 
BRANCH  11  12
HETATM   12  N3  UNL     1      84.294 -29.796   3.248  1.00  0.00    -0.367 N 
HETATM   13  C6  UNL     1      83.180 -30.392   3.122  1.00  0.00     0.196 C 
HETATM   14  N4  UNL     1      82.385 -30.402   1.961  1.00  0.00    -0.067 NA
HETATM   15  N5  UNL     1      82.712 -31.112   4.278  1.00  0.00    -0.067 NA
ATOM     16  H3  UNL     1      84.770 -29.870   4.147  1.00  0.00     0.161 HD
ENDBRANCH  11  12
ENDBRANCH  10  11
ENDBRANCH   9  10
ENDBRANCH   8   9
ENDBRANCH   2   8
ENDBRANCH   1   2
BRANCH   1  17
HETATM   17  C8  UNL     1      87.885 -32.312  -2.896  1.00  0.00     0.241 C 
HETATM   18  O1  UNL     1      86.843 -32.698  -3.481  1.00  0.00    -0.271 OA
HETATM   19  N6  UNL     1      88.893 -33.274  -2.634  1.00  0.00    -0.255 N 
ATOM     20  H6  UNL     1      89.753 -33.000  -2.161  1.00  0.00     0.190 HD
BRANCH  19  21
HETATM   21  N7  UNL     1      88.700 -34.599  -3.028  1.00  0.00    -0.127 N 
ATOM     22  H7  UNL     1      88.109 -34.804  -3.833  1.00  0.00     0.206 HD
BRANCH  21  23
HETATM   23  C9  UNL     1      89.268 -35.581  -2.379  1.00  0.00     0.728 A 
HETATM   24  N8  UNL     1      90.465 -36.137  -2.630  1.00  0.00    -0.114 N 
HETATM   25  N9  UNL     1      90.660 -37.100  -1.740  1.00  0.00    -0.213 N 
ATOM     26  H8  UNL     1      91.109 -35.868  -3.373  1.00  0.00     0.207 HD
HETATM   27  N10 UNL     1      89.630 -37.184  -0.923  1.00  0.00    -0.213 N 
ATOM     28  H9  UNL     1      91.489 -37.691  -1.694  1.00  0.00     0.210 HD
HETATM   29  N11 UNL     1      88.766 -36.242  -1.320  1.00  0.00    -0.114 N 
ATOM     30  H10 UNL     1      89.514 -37.835  -0.146  1.00  0.00     0.210 HD
ATOM     31  H11 UNL     1      87.863 -36.054  -0.885  1.00  0.00     0.207 HD
ENDBRANCH  21  23
ENDBRANCH  19  21
ENDBRANCH   1  17
TORSDOF 10
ENDMDL
