MODEL 1
REMARK VINA RESULT: -7.816964052      0.000      0.000
REMARK  8 active torsions:
REMARK  status: ('A' for Active; 'I' for Inactive)
REMARK    1  A    between atoms: C2_2  and  C3_3 
REMARK    2  A    between atoms: C3_3  and  N1_4 
REMARK    3  A    between atoms: N1_4  and  C4_6 
REMARK    4  A    between atoms: C7_14  and  N4_15 
REMARK    5  A    between atoms: N6_23  and  C10_24 
REMARK    6  A    between atoms: C10_24  and  C11_25 
REMARK    7  A    between atoms: C11_25  and  N7_26 
REMARK    8  A    between atoms: N7_26  and  C12_28 
ROOT
HETATM    1  C4  UNL     1      53.607  12.844  81.337  1.00  0.00     0.684 A 
HETATM    2  N2  UNL     1      52.860  13.487  80.459  1.00  0.00    -0.154 N 
ATOM      3  H2  UNL     1      52.517  13.019  79.621  1.00  0.00     0.187 HD
HETATM    4  C5  UNL     1      52.566  14.770  80.701  1.00  0.00     0.289 A 
HETATM    5  O1  UNL     1      51.854  15.386  79.865  1.00  0.00    -0.265 OA
HETATM    6  C6  UNL     1      53.041  15.383  81.841  1.00  0.00     0.150 A 
HETATM    7  N3  UNL     1      52.753  16.677  82.093  1.00  0.00    -0.184 N 
ATOM      8  H3  UNL     1      52.177  17.202  81.435  1.00  0.00     0.184 HD
HETATM    9  C7  UNL     1      53.215  17.283  83.201  1.00  0.00     0.679 A 
HETATM   10  N5  UNL     1      53.974  16.614  84.084  1.00  0.00    -0.154 N 
ATOM     11  H5  UNL     1      54.311  17.097  84.917  1.00  0.00     0.187 HD
HETATM   12  C8  UNL     1      54.304  15.308  83.896  1.00  0.00     0.289 A 
HETATM   13  O2  UNL     1      55.017  14.730  84.751  1.00  0.00    -0.265 OA
HETATM   14  C9  UNL     1      53.839  14.684  82.772  1.00  0.00     0.153 A 
HETATM   15  N6  UNL     1      54.106  13.408  82.489  1.00  0.00    -0.174 N 
ENDROOT
BRANCH  15  16
HETATM   16  C10 UNL     1      54.906  12.589  83.354  1.00  0.00     0.167 C 
BRANCH  16  17
HETATM   17  C11 UNL     1      54.072  11.915  84.425  1.00  0.00     0.143 C 
BRANCH  17  18
HETATM   18  N7  UNL     1      54.695  11.832  85.710  1.00  0.00    -0.367 N 
ATOM     19  H7  UNL     1      55.612  12.260  85.840  1.00  0.00     0.161 HD
BRANCH  18  20
HETATM   20  C12 UNL     1      54.092  11.184  86.800  1.00  0.00     0.348 C 
HETATM   21  O3  UNL     1      52.935  11.419  87.218  1.00  0.00    -0.284 OA
ENDBRANCH  18  20
ENDBRANCH  17  18
ENDBRANCH  16  17
ENDBRANCH  15  16
BRANCH   1  22
HETATM   22  N1  UNL     1      53.904  11.614  81.133  1.00  0.00    -0.226 N 
ATOM     23  H1  UNL     1      54.481  11.164  81.843  1.00  0.00     0.177 HD
BRANCH  22  24
HETATM   24  C3  UNL     1      53.518  10.809  80.026  1.00  0.00     0.137 C 
BRANCH  24  25
HETATM   25  C2  UNL     1      52.220  10.065  80.224  1.00  0.00     0.016 C 
HETATM   26  C1  UNL     1      51.283  10.478  79.097  1.00  0.00     0.006 C 
ENDBRANCH  24  25
ENDBRANCH  22  24
ENDBRANCH   1  22
BRANCH   9  27
HETATM   27  N4  UNL     1      52.925  18.523  83.420  1.00  0.00    -0.234 N 
ATOM     28  H42 UNL     1      53.095  19.216  82.692  1.00  0.00     0.174 HD
ATOM     29  H41 UNL     1      52.528  18.798  84.319  1.00  0.00     0.174 HD
ENDBRANCH   9  27
TORSDOF 8
ENDMDL
MODEL 2
REMARK VINA RESULT: -7.727641307      1.499      2.251
REMARK  8 active torsions:
REMARK  status: ('A' for Active; 'I' for Inactive)
REMARK    1  A    between atoms: C2_2  and  C3_3 
REMARK    2  A    between atoms: C3_3  and  N1_4 
REMARK    3  A    between atoms: N1_4  and  C4_6 
REMARK    4  A    between atoms: C7_14  and  N4_15 
REMARK    5  A    between atoms: N6_23  and  C10_24 
REMARK    6  A    between atoms: C10_24  and  C11_25 
REMARK    7  A    between atoms: C11_25  and  N7_26 
REMARK    8  A    between atoms: N7_26  and  C12_28 
ROOT
HETATM    1  C4  UNL     1      53.625  12.900  81.446  1.00  0.00     0.684 A 
HETATM    2  N2  UNL     1      52.895  13.519  80.538  1.00  0.00    -0.154 N 
ATOM      3  H2  UNL     1      52.572  13.031  79.703  1.00  0.00     0.187 HD
HETATM    4  C5  UNL     1      52.590  14.806  80.744  1.00  0.00     0.289 A 
HETATM    5  O1  UNL     1      51.894  15.400  79.879  1.00  0.00    -0.265 OA
HETATM    6  C6  UNL     1      53.038  15.447  81.879  1.00  0.00     0.150 A 
HETATM    7  N3  UNL     1      52.739  16.745  82.096  1.00  0.00    -0.184 N 
ATOM      8  H3  UNL     1      52.176  17.253  81.414  1.00  0.00     0.184 HD
HETATM    9  C7  UNL     1      53.174  17.378  83.200  1.00  0.00     0.679 A 
HETATM   10  N5  UNL     1      53.917  16.733  84.114  1.00  0.00    -0.154 N 
ATOM     11  H5  UNL     1      54.234  17.236  84.942  1.00  0.00     0.187 HD
HETATM   12  C8  UNL     1      54.257  15.425  83.963  1.00  0.00     0.289 A 
HETATM   13  O2  UNL     1      54.953  14.870  84.846  1.00  0.00    -0.265 OA
HETATM   14  C9  UNL     1      53.819  14.773  82.843  1.00  0.00     0.153 A 
HETATM   15  N6  UNL     1      54.096  13.492  82.595  1.00  0.00    -0.174 N 
ENDROOT
BRANCH  15  16
HETATM   16  C10 UNL     1      54.881  12.697  83.496  1.00  0.00     0.167 C 
BRANCH  16  17
HETATM   17  C11 UNL     1      56.349  12.699  83.119  1.00  0.00     0.143 C 
BRANCH  17  18
HETATM   18  N7  UNL     1      57.202  13.404  84.028  1.00  0.00    -0.367 N 
ATOM     19  H7  UNL     1      57.112  13.222  85.027  1.00  0.00     0.161 HD
BRANCH  18  20
HETATM   20  C12 UNL     1      58.159  14.336  83.594  1.00  0.00     0.348 C 
HETATM   21  O3  UNL     1      58.232  15.520  83.993  1.00  0.00    -0.284 OA
ENDBRANCH  18  20
ENDBRANCH  17  18
ENDBRANCH  16  17
ENDBRANCH  15  16
BRANCH   1  22
HETATM   22  N1  UNL     1      53.932  11.667  81.276  1.00  0.00    -0.226 N 
ATOM     23  H1  UNL     1      54.447  11.220  82.035  1.00  0.00     0.177 HD
BRANCH  22  24
HETATM   24  C3  UNL     1      53.633  10.854  80.148  1.00  0.00     0.137 C 
BRANCH  24  25
HETATM   25  C2  UNL     1      52.352  10.067  80.273  1.00  0.00     0.016 C 
HETATM   26  C1  UNL     1      51.465  10.452  79.096  1.00  0.00     0.006 C 
ENDBRANCH  24  25
ENDBRANCH  22  24
ENDBRANCH   1  22
BRANCH   9  27
HETATM   27  N4  UNL     1      52.875  18.621  83.384  1.00  0.00    -0.234 N 
ATOM     28  H42 UNL     1      53.547  19.240  83.836  1.00  0.00     0.174 HD
ATOM     29  H41 UNL     1      51.968  18.973  83.076  1.00  0.00     0.174 HD
ENDBRANCH   9  27
TORSDOF 8
ENDMDL
MODEL 3
REMARK VINA RESULT: -7.177189376      2.332      5.771
REMARK  8 active torsions:
REMARK  status: ('A' for Active; 'I' for Inactive)
REMARK    1  A    between atoms: C2_2  and  C3_3 
REMARK    2  A    between atoms: C3_3  and  N1_4 
REMARK    3  A    between atoms: N1_4  and  C4_6 
REMARK    4  A    between atoms: C7_14  and  N4_15 
REMARK    5  A    between atoms: N6_23  and  C10_24 
REMARK    6  A    between atoms: C10_24  and  C11_25 
REMARK    7  A    between atoms: C11_25  and  N7_26 
REMARK    8  A    between atoms: N7_26  and  C12_28 
ROOT
HETATM    1  C4  UNL     1      55.091  14.871  82.329  1.00  0.00     0.684 A 
HETATM    2  N2  UNL     1      55.200  13.814  83.111  1.00  0.00    -0.154 N 
ATOM      3  H2  UNL     1      55.984  13.716  83.755  1.00  0.00     0.187 HD
HETATM    4  C5  UNL     1      54.251  12.872  83.035  1.00  0.00     0.289 A 
HETATM    5  O1  UNL     1      54.352  11.862  83.779  1.00  0.00    -0.265 OA
HETATM    6  C6  UNL     1      53.199  13.024  82.156  1.00  0.00     0.150 A 
HETATM    7  N3  UNL     1      52.239  12.080  82.069  1.00  0.00    -0.184 N 
ATOM      8  H3  UNL     1      52.292  11.251  82.660  1.00  0.00     0.184 HD
HETATM    9  C7  UNL     1      51.211  12.219  81.212  1.00  0.00     0.679 A 
HETATM   10  N5  UNL     1      51.116  13.301  80.424  1.00  0.00    -0.154 N 
ATOM     11  H5  UNL     1      50.326  13.382  79.783  1.00  0.00     0.187 HD
HETATM   12  C8  UNL     1      52.047  14.293  80.457  1.00  0.00     0.289 A 
HETATM   13  O2  UNL     1      51.911  15.282  79.698  1.00  0.00    -0.265 OA
HETATM   14  C9  UNL     1      53.095  14.160  81.324  1.00  0.00     0.153 A 
HETATM   15  N6  UNL     1      54.064  15.071  81.436  1.00  0.00    -0.174 N 
ENDROOT
BRANCH  15  16
HETATM   16  C10 UNL     1      54.073  16.269  80.647  1.00  0.00     0.167 C 
BRANCH  16  17
HETATM   17  C11 UNL     1      53.809  17.502  81.488  1.00  0.00     0.143 C 
BRANCH  17  18
HETATM   18  N7  UNL     1      52.470  17.620  81.979  1.00  0.00    -0.367 N 
ATOM     19  H7  UNL     1      51.804  18.191  81.459  1.00  0.00     0.161 HD
BRANCH  18  20
HETATM   20  C12 UNL     1      52.038  16.977  83.151  1.00  0.00     0.348 C 
HETATM   21  O3  UNL     1      51.029  16.240  83.229  1.00  0.00    -0.284 OA
ENDBRANCH  18  20
ENDBRANCH  17  18
ENDBRANCH  16  17
ENDBRANCH  15  16
BRANCH   1  22
HETATM   22  N1  UNL     1      55.984  15.789  82.380  1.00  0.00    -0.226 N 
ATOM     23  H1  UNL     1      55.944  16.501  81.651  1.00  0.00     0.177 HD
BRANCH  22  24
HETATM   24  C3  UNL     1      57.023  15.925  83.342  1.00  0.00     0.137 C 
BRANCH  24  25
HETATM   25  C2  UNL     1      58.396  15.574  82.824  1.00  0.00     0.016 C 
HETATM   26  C1  UNL     1      58.892  14.378  83.625  1.00  0.00     0.006 C 
ENDBRANCH  24  25
ENDBRANCH  22  24
ENDBRANCH   1  22
BRANCH   9  27
HETATM   27  N4  UNL     1      50.304  11.301  81.148  1.00  0.00    -0.234 N 
ATOM     28  H42 UNL     1      50.471  10.396  81.587  1.00  0.00     0.174 HD
ATOM     29  H41 UNL     1      49.429  11.489  80.658  1.00  0.00     0.174 HD
ENDBRANCH   9  27
TORSDOF 8
ENDMDL
MODEL 4
REMARK VINA RESULT: -6.957696294      2.078      4.125
REMARK  8 active torsions:
REMARK  status: ('A' for Active; 'I' for Inactive)
REMARK    1  A    between atoms: C2_2  and  C3_3 
REMARK    2  A    between atoms: C3_3  and  N1_4 
REMARK    3  A    between atoms: N1_4  and  C4_6 
REMARK    4  A    between atoms: C7_14  and  N4_15 
REMARK    5  A    between atoms: N6_23  and  C10_24 
REMARK    6  A    between atoms: C10_24  and  C11_25 
REMARK    7  A    between atoms: C11_25  and  N7_26 
REMARK    8  A    between atoms: N7_26  and  C12_28 
ROOT
HETATM    1  C4  UNL     1      53.425  12.597  82.470  1.00  0.00     0.684 A 
HETATM    2  N2  UNL     1      54.066  12.002  83.457  1.00  0.00    -0.154 N 
ATOM      3  H2  UNL     1      53.734  11.116  83.839  1.00  0.00     0.187 HD
HETATM    4  C5  UNL     1      55.164  12.593  83.943  1.00  0.00     0.289 A 
HETATM    5  O1  UNL     1      55.778  12.027  84.886  1.00  0.00    -0.265 OA
HETATM    6  C6  UNL     1      55.595  13.791  83.412  1.00  0.00     0.150 A 
HETATM    7  N3  UNL     1      56.699  14.396  83.896  1.00  0.00    -0.184 N 
ATOM      8  H3  UNL     1      57.219  13.962  84.659  1.00  0.00     0.184 HD
HETATM    9  C7  UNL     1      57.124  15.566  83.385  1.00  0.00     0.679 A 
HETATM   10  N5  UNL     1      56.459  16.158  82.380  1.00  0.00    -0.154 N 
ATOM     11  H5  UNL     1      56.803  17.044  82.011  1.00  0.00     0.187 HD
HETATM   12  C8  UNL     1      55.339  15.606  81.842  1.00  0.00     0.289 A 
HETATM   13  O2  UNL     1      54.755  16.201  80.905  1.00  0.00    -0.265 OA
HETATM   14  C9  UNL     1      54.899  14.417  82.356  1.00  0.00     0.153 A 
HETATM   15  N6  UNL     1      53.811  13.790  81.904  1.00  0.00    -0.174 N 
ENDROOT
BRANCH  15  16
HETATM   16  C10 UNL     1      53.017  14.324  80.834  1.00  0.00     0.167 C 
BRANCH  16  17
HETATM   17  C11 UNL     1      51.765  15.008  81.347  1.00  0.00     0.143 C 
BRANCH  17  18
HETATM   18  N7  UNL     1      51.983  16.287  81.951  1.00  0.00    -0.367 N 
ATOM     19  H7  UNL     1      52.239  17.075  81.355  1.00  0.00     0.161 HD
BRANCH  18  20
HETATM   20  C12 UNL     1      51.858  16.499  83.334  1.00  0.00     0.348 C 
HETATM   21  O3  UNL     1      52.743  16.232  84.178  1.00  0.00    -0.284 OA
ENDBRANCH  18  20
ENDBRANCH  17  18
ENDBRANCH  16  17
ENDBRANCH  15  16
BRANCH   1  22
HETATM   22  N1  UNL     1      52.370  12.055  81.983  1.00  0.00    -0.226 N 
ATOM     23  H1  UNL     1      51.510  12.600  82.044  1.00  0.00     0.177 HD
BRANCH  22  24
HETATM   24  C3  UNL     1      52.267  10.776  81.368  1.00  0.00     0.137 C 
BRANCH  24  25
HETATM   25  C2  UNL     1      53.071  10.634  80.098  1.00  0.00     0.016 C 
HETATM   26  C1  UNL     1      52.223   9.843  79.111  1.00  0.00     0.006 C 
ENDBRANCH  24  25
ENDBRANCH  22  24
ENDBRANCH   1  22
BRANCH   9  27
HETATM   27  N4  UNL     1      58.184  16.126  83.866  1.00  0.00    -0.234 N 
ATOM     28  H42 UNL     1      58.292  16.217  84.876  1.00  0.00     0.174 HD
ATOM     29  H41 UNL     1      58.904  16.472  83.232  1.00  0.00     0.174 HD
ENDBRANCH   9  27
TORSDOF 8
ENDMDL
MODEL 5
REMARK VINA RESULT: -6.949123244      2.536      5.118
REMARK  8 active torsions:
REMARK  status: ('A' for Active; 'I' for Inactive)
REMARK    1  A    between atoms: C2_2  and  C3_3 
REMARK    2  A    between atoms: C3_3  and  N1_4 
REMARK    3  A    between atoms: N1_4  and  C4_6 
REMARK    4  A    between atoms: C7_14  and  N4_15 
REMARK    5  A    between atoms: N6_23  and  C10_24 
REMARK    6  A    between atoms: C10_24  and  C11_25 
REMARK    7  A    between atoms: C11_25  and  N7_26 
REMARK    8  A    between atoms: N7_26  and  C12_28 
ROOT
HETATM    1  C4  UNL     1      55.342  14.189  81.769  1.00  0.00     0.684 A 
HETATM    2  N2  UNL     1      56.585  14.629  81.818  1.00  0.00    -0.154 N 
ATOM      3  H2  UNL     1      56.984  15.161  81.045  1.00  0.00     0.187 HD
HETATM    4  C5  UNL     1      57.307  14.358  82.912  1.00  0.00     0.289 A 
HETATM    5  O1  UNL     1      58.494  14.776  82.962  1.00  0.00    -0.265 OA
HETATM    6  C6  UNL     1      56.748  13.636  83.945  1.00  0.00     0.150 A 
HETATM    7  N3  UNL     1      57.468  13.354  85.051  1.00  0.00    -0.184 N 
ATOM      8  H3  UNL     1      58.431  13.680  85.122  1.00  0.00     0.184 HD
HETATM    9  C7  UNL     1      56.930  12.648  86.062  1.00  0.00     0.679 A 
HETATM   10  N5  UNL     1      55.664  12.208  85.995  1.00  0.00    -0.154 N 
ATOM     11  H5  UNL     1      55.281  11.675  86.776  1.00  0.00     0.187 HD
HETATM   12  C8  UNL     1      54.879  12.454  84.912  1.00  0.00     0.289 A 
HETATM   13  O2  UNL     1      53.703  12.019  84.900  1.00  0.00    -0.265 OA
HETATM   14  C9  UNL     1      55.417  13.171  83.879  1.00  0.00     0.153 A 
HETATM   15  N6  UNL     1      54.737  13.466  82.770  1.00  0.00    -0.174 N 
ENDROOT
BRANCH  15  16
HETATM   16  C10 UNL     1      53.376  13.050  82.581  1.00  0.00     0.167 C 
BRANCH  16  17
HETATM   17  C11 UNL     1      53.285  11.750  81.808  1.00  0.00     0.143 C 
BRANCH  17  18
HETATM   18  N7  UNL     1      52.159  10.931  82.139  1.00  0.00    -0.367 N 
ATOM     19  H7  UNL     1      52.212  10.332  82.963  1.00  0.00     0.161 HD
BRANCH  18  20
HETATM   20  C12 UNL     1      50.983  10.921  81.371  1.00  0.00     0.348 C 
HETATM   21  O3  UNL     1      49.825  10.992  81.841  1.00  0.00    -0.284 OA
ENDBRANCH  18  20
ENDBRANCH  17  18
ENDBRANCH  16  17
ENDBRANCH  15  16
BRANCH   1  22
HETATM   22  N1  UNL     1      54.626  14.435  80.734  1.00  0.00    -0.226 N 
ATOM     23  H1  UNL     1      54.369  13.632  80.160  1.00  0.00     0.177 HD
BRANCH  22  24
HETATM   24  C3  UNL     1      54.150  15.703  80.299  1.00  0.00     0.137 C 
BRANCH  24  25
HETATM   25  C2  UNL     1      54.118  16.756  81.380  1.00  0.00     0.016 C 
HETATM   26  C1  UNL     1      52.699  16.796  81.932  1.00  0.00     0.006 C 
ENDBRANCH  24  25
ENDBRANCH  22  24
ENDBRANCH   1  22
BRANCH   9  27
HETATM   27  N4  UNL     1      57.641  12.391  87.111  1.00  0.00    -0.234 N 
ATOM     28  H42 UNL     1      58.455  11.783  87.031  1.00  0.00     0.174 HD
ATOM     29  H41 UNL     1      57.380  12.799  88.009  1.00  0.00     0.174 HD
ENDBRANCH   9  27
TORSDOF 8
ENDMDL
