MODEL 1
REMARK VINA RESULT: -9.198059917      0.000      0.000
REMARK  14 active torsions:
REMARK  status: ('A' for Active; 'I' for Inactive)
REMARK    1  A    between atoms: C2_2  and  S1_3 
REMARK    2  A    between atoms: S1_3  and  C3_4 
REMARK    3  A    between atoms: C4_7  and  C5_8 
REMARK    4  A    between atoms: C8_13  and  C9_14 
REMARK    5  A    between atoms: C10_17  and  O3_18 
REMARK    6  A    between atoms: C10_17  and  C11_20 
REMARK    7  A    between atoms: C11_20  and  O4_21 
REMARK    8  A    between atoms: N3_24  and  N4_26 
REMARK       I    between atoms: N4_26  and  C13_28 
REMARK    9  A    between atoms: C13_28  and  C14_30 
REMARK   10  A    between atoms: C14_30  and  N5_31 
REMARK   11  A    between atoms: N5_31  and  S3_33 
REMARK   12  A    between atoms: N7_40  and  C16_42 
REMARK   13  A    between atoms: C19_47  and  N9_48 
REMARK   14  A    between atoms: N9_48  and  N10_50 
ROOT
HETATM    1  C5  UNL     1      18.219 -12.096  -9.547  1.00  0.00     0.072 C 
HETATM    2  C6  UNL     1      18.058 -10.857  -9.919  1.00  0.00     0.055 A 
HETATM    3  S2  UNL     1      16.824  -9.854  -9.208  1.00  0.00     0.012 SA
HETATM    4  N2  UNL     1      17.591  -8.889 -10.311  1.00  0.00    -0.113 N 
HETATM    5  C7  UNL     1      18.488  -9.836 -10.737  1.00  0.00     0.099 A 
HETATM    6  C8  UNL     1      19.418  -9.675 -11.706  1.00  0.00     0.092 C 
HETATM    7  C10 UNL     1      19.760  -8.466 -12.519  1.00  0.00     0.174 C 
HETATM    8  C12 UNL     1      19.571  -7.157 -11.897  1.00  0.00     0.154 C 
HETATM    9  N3  UNL     1      20.581  -6.358 -11.938  1.00  0.00    -0.283 N 
ATOM     10  H3  UNL     1      21.450  -6.649 -12.386  1.00  0.00     0.188 HD
HETATM   11  N6  UNL     1      18.380  -6.671 -11.263  1.00  0.00    -0.175 N 
ATOM     12  H6  UNL     1      18.236  -5.662 -11.221  1.00  0.00     0.185 HD
HETATM   13  C15 UNL     1      17.383  -7.518 -10.684  1.00  0.00     0.693 C 
HETATM   14  N7  UNL     1      16.227  -6.981 -10.488  1.00  0.00    -0.220 N 
ATOM     15  H7  UNL     1      15.497  -7.558 -10.069  1.00  0.00     0.178 HD
ENDROOT
BRANCH   1  16
HETATM   16  C4  UNL     1      17.311 -12.651  -8.484  1.00  0.00     0.124 A 
HETATM   17  N1  UNL     1      17.704 -13.725  -7.776  1.00  0.00    -0.322 N 
HETATM   18  C3  UNL     1      16.902 -14.244  -6.812  1.00  0.00     0.161 A 
ATOM     19  H1  UNL     1      18.610 -14.153  -7.966  1.00  0.00     0.169 HD
HETATM   20  N11 UNL     1      15.730 -13.617  -6.633  1.00  0.00    -0.169 N 
HETATM   21  C19 UNL     1      15.309 -12.559  -7.308  1.00  0.00     0.700 A 
ATOM     22  H11 UNL     1      15.108 -13.987  -5.913  1.00  0.00     0.186 HD
HETATM   23  N8  UNL     1      16.132 -12.052  -8.274  1.00  0.00    -0.175 N 
ATOM     24  H8  UNL     1      15.854 -11.237  -8.821  1.00  0.00     0.186 HD
BRANCH  18  25
HETATM   25  S1  UNL     1      17.295 -15.647  -5.815  1.00  0.00    -0.094 SA
BRANCH  25  26
HETATM   26  C2  UNL     1      16.238 -15.793  -4.359  1.00  0.00     0.078 C 
HETATM   27  C1  UNL     1      16.624 -14.672  -3.408  1.00  0.00     0.016 C 
ENDBRANCH  25  26
ENDBRANCH  18  25
BRANCH  21  28
HETATM   28  N9  UNL     1      14.197 -11.952  -7.147  1.00  0.00    -0.138 N 
ATOM     29  H9  UNL     1      14.046 -11.417  -6.292  1.00  0.00     0.205 HD
BRANCH  28  30
HETATM   30  N10 UNL     1      13.185 -11.998  -8.098  1.00  0.00    -0.331 N 
ATOM     31 2H10 UNL     1      12.599 -11.171  -8.210  1.00  0.00     0.177 HD
ATOM     32 1H10 UNL     1      13.019 -12.822  -8.675  1.00  0.00     0.177 HD
ENDBRANCH  28  30
ENDBRANCH  21  28
ENDBRANCH   1  16
BRANCH   6  33
HETATM   33  C9  UNL     1      20.244 -10.810 -12.074  1.00  0.00     0.211 C 
HETATM   34  O1  UNL     1      21.445 -10.817 -11.561  1.00  0.00    -0.644 OA
HETATM   35  O2  UNL     1      19.962 -11.858 -12.864  1.00  0.00    -0.644 OA
ENDBRANCH   6  33
BRANCH   7  36
HETATM   36  O3  UNL     1      21.100  -8.530 -12.935  1.00  0.00    -0.374 OA
ATOM     37  H3  UNL     1      21.567  -7.754 -12.649  1.00  0.00     0.211 HD
ENDBRANCH   7  36
BRANCH   7  38
HETATM   38  C11 UNL     1      18.929  -8.472 -13.799  1.00  0.00     0.215 C 
BRANCH  38  39
HETATM   39  O4  UNL     1      18.604  -7.161 -14.136  1.00  0.00    -0.397 OA
ATOM     40  H4  UNL     1      17.716  -7.138 -14.474  1.00  0.00     0.209 HD
ENDBRANCH  38  39
ENDBRANCH   7  38
BRANCH  14  41
HETATM   41  C16 UNL     1      15.905  -5.629 -10.819  1.00  0.00     0.099 A 
HETATM   42  C17 UNL     1      14.888  -4.833 -10.085  1.00  0.00     0.028 A 
HETATM   43  C18 UNL     1      16.327  -4.559  -9.845  1.00  0.00     0.028 A 
ENDBRANCH  14  41
BRANCH   9  44
HETATM   44  N4  UNL     1      20.474  -5.093 -11.366  1.00  0.00    -0.267 N 
HETATM   45  C13 UNL     1      21.408  -4.066 -11.658  1.00  0.00     0.254 C 
HETATM   46  O5  UNL     1      22.351  -4.341 -12.464  1.00  0.00    -0.270 OA
ATOM     47  H4  UNL     1      19.706  -4.900 -10.722  1.00  0.00     0.190 HD
BRANCH  45  48
HETATM   48  C14 UNL     1      21.295  -2.716 -11.050  1.00  0.00     0.239 C 
BRANCH  48  49
HETATM   49  N5  UNL     1      22.411  -2.475 -10.135  1.00  0.00    -0.292 N 
ATOM     50  H5  UNL     1      23.282  -3.006 -10.141  1.00  0.00     0.175 HD
BRANCH  49  51
HETATM   51  S3  UNL     1      22.074  -1.199  -9.059  1.00  0.00     0.204 S 
HETATM   52  O6  UNL     1      20.665  -1.164  -8.585  1.00  0.00    -0.578 OA
HETATM   53  O7  UNL     1      22.985  -1.333  -7.850  1.00  0.00    -0.578 OA
HETATM   54  O8  UNL     1      22.431   0.307  -9.735  1.00  0.00    -0.578 OA
ENDBRANCH  49  51
ENDBRANCH  48  49
ENDBRANCH  45  48
ENDBRANCH   9  44
TORSDOF 14
ENDMDL
MODEL 2
REMARK VINA RESULT: -8.933683562      4.465      6.374
REMARK  14 active torsions:
REMARK  status: ('A' for Active; 'I' for Inactive)
REMARK    1  A    between atoms: C2_2  and  S1_3 
REMARK    2  A    between atoms: S1_3  and  C3_4 
REMARK    3  A    between atoms: C4_7  and  C5_8 
REMARK    4  A    between atoms: C8_13  and  C9_14 
REMARK    5  A    between atoms: C10_17  and  O3_18 
REMARK    6  A    between atoms: C10_17  and  C11_20 
REMARK    7  A    between atoms: C11_20  and  O4_21 
REMARK    8  A    between atoms: N3_24  and  N4_26 
REMARK       I    between atoms: N4_26  and  C13_28 
REMARK    9  A    between atoms: C13_28  and  C14_30 
REMARK   10  A    between atoms: C14_30  and  N5_31 
REMARK   11  A    between atoms: N5_31  and  S3_33 
REMARK   12  A    between atoms: N7_40  and  C16_42 
REMARK   13  A    between atoms: C19_47  and  N9_48 
REMARK   14  A    between atoms: N9_48  and  N10_50 
ROOT
HETATM    1  C5  UNL     1      18.410 -10.630 -10.363  1.00  0.00     0.072 C 
HETATM    2  C6  UNL     1      18.800  -9.696 -11.184  1.00  0.00     0.055 A 
HETATM    3  S2  UNL     1      20.223  -9.894 -12.168  1.00  0.00     0.012 SA
HETATM    4  N2  UNL     1      19.629  -8.399 -12.553  1.00  0.00    -0.113 N 
HETATM    5  C7  UNL     1      18.555  -8.443 -11.700  1.00  0.00     0.099 A 
HETATM    6  C8  UNL     1      17.650  -7.457 -11.506  1.00  0.00     0.092 C 
HETATM    7  C10 UNL     1      17.528  -6.120 -12.167  1.00  0.00     0.174 C 
HETATM    8  C12 UNL     1      17.983  -6.005 -13.551  1.00  0.00     0.154 C 
HETATM    9  N3  UNL     1      17.147  -5.486 -14.384  1.00  0.00    -0.283 N 
ATOM     10  H3  UNL     1      16.227  -5.181 -14.066  1.00  0.00     0.188 HD
HETATM   11  N6  UNL     1      19.262  -6.396 -14.071  1.00  0.00    -0.175 N 
ATOM     12  H6  UNL     1      19.600  -5.932 -14.913  1.00  0.00     0.185 HD
HETATM   13  C15 UNL     1      20.090  -7.400 -13.476  1.00  0.00     0.693 C 
HETATM   14  N7  UNL     1      21.333  -7.387 -13.820  1.00  0.00    -0.220 N 
ATOM     15  H7  UNL     1      21.948  -8.096 -13.418  1.00  0.00     0.178 HD
ENDROOT
BRANCH   1  16
HETATM   16  C4  UNL     1      19.220 -11.895 -10.278  1.00  0.00     0.124 A 
HETATM   17  N1  UNL     1      18.955 -12.784  -9.303  1.00  0.00    -0.322 N 
HETATM   18  C3  UNL     1      19.671 -13.932  -9.206  1.00  0.00     0.161 A 
ATOM     19  H1  UNL     1      18.209 -12.593  -8.634  1.00  0.00     0.169 HD
HETATM   20  N11 UNL     1      20.631 -14.097 -10.130  1.00  0.00    -0.169 N 
HETATM   21  C19 UNL     1      20.921 -13.247 -11.101  1.00  0.00     0.700 A 
ATOM     22  H11 UNL     1      21.184 -14.953 -10.079  1.00  0.00     0.186 HD
HETATM   23  N8  UNL     1      20.187 -12.098 -11.183  1.00  0.00    -0.175 N 
ATOM     24  H8  UNL     1      20.371 -11.411 -11.914  1.00  0.00     0.186 HD
BRANCH  18  25
HETATM   25  S1  UNL     1      19.427 -15.177  -7.979  1.00  0.00    -0.094 SA
BRANCH  25  26
HETATM   26  C2  UNL     1      17.791 -15.108  -7.222  1.00  0.00     0.078 C 
HETATM   27  C1  UNL     1      17.847 -14.062  -6.121  1.00  0.00     0.016 C 
ENDBRANCH  25  26
ENDBRANCH  18  25
BRANCH  21  28
HETATM   28  N9  UNL     1      21.830 -13.392 -11.987  1.00  0.00    -0.138 N 
ATOM     29  H9  UNL     1      22.673 -12.820 -11.927  1.00  0.00     0.205 HD
BRANCH  28  30
HETATM   30  N10 UNL     1      21.709 -14.304 -13.028  1.00  0.00    -0.331 N 
ATOM     31 2H10 UNL     1      21.617 -15.291 -12.789  1.00  0.00     0.177 HD
ATOM     32 1H10 UNL     1      21.709 -14.014 -14.006  1.00  0.00     0.177 HD
ENDBRANCH  28  30
ENDBRANCH  21  28
ENDBRANCH   1  16
BRANCH   6  33
HETATM   33  C9  UNL     1      16.610  -7.651 -10.514  1.00  0.00     0.211 C 
HETATM   34  O1  UNL     1      15.559  -8.308 -10.925  1.00  0.00    -0.644 OA
HETATM   35  O2  UNL     1      16.561  -7.258  -9.231  1.00  0.00    -0.644 OA
ENDBRANCH   6  33
BRANCH   7  36
HETATM   36  O3  UNL     1      16.191  -5.690 -12.141  1.00  0.00    -0.374 OA
ATOM     37  H3  UNL     1      16.121  -4.873 -11.664  1.00  0.00     0.211 HD
ENDBRANCH   7  36
BRANCH   7  38
HETATM   38  C11 UNL     1      18.309  -5.088 -11.357  1.00  0.00     0.215 C 
BRANCH  38  39
HETATM   39  O4  UNL     1      18.901  -4.178 -12.231  1.00  0.00    -0.397 OA
ATOM     40  H4  UNL     1      19.184  -3.417 -11.740  1.00  0.00     0.209 HD
ENDBRANCH  38  39
ENDBRANCH   7  38
BRANCH  14  41
HETATM   41  C16 UNL     1      21.903  -6.442 -14.728  1.00  0.00     0.099 A 
HETATM   42  C17 UNL     1      23.221  -5.794 -14.504  1.00  0.00     0.028 A 
HETATM   43  C18 UNL     1      23.114  -6.880 -15.510  1.00  0.00     0.028 A 
ENDBRANCH  14  41
BRANCH   9  44
HETATM   44  N4  UNL     1      17.513  -5.345 -15.720  1.00  0.00    -0.267 N 
HETATM   45  C13 UNL     1      17.001  -4.292 -16.521  1.00  0.00     0.254 C 
HETATM   46  O5  UNL     1      16.193  -3.477 -15.975  1.00  0.00    -0.270 OA
ATOM     47  H4  UNL     1      18.163  -6.014 -16.132  1.00  0.00     0.190 HD
BRANCH  45  48
HETATM   48  C14 UNL     1      17.390  -4.139 -17.945  1.00  0.00     0.239 C 
BRANCH  48  49
HETATM   49  N5  UNL     1      16.617  -3.067 -18.572  1.00  0.00    -0.292 N 
ATOM     50  H5  UNL     1      15.642  -3.156 -18.861  1.00  0.00     0.175 HD
BRANCH  49  51
HETATM   51  S3  UNL     1      17.546  -1.651 -18.758  1.00  0.00     0.204 S 
HETATM   52  O6  UNL     1      16.873  -0.418 -18.266  1.00  0.00    -0.578 OA
HETATM   53  O7  UNL     1      18.848  -1.824 -17.995  1.00  0.00    -0.578 OA
HETATM   54  O8  UNL     1      17.988  -1.394 -20.366  1.00  0.00    -0.578 OA
ENDBRANCH  49  51
ENDBRANCH  48  49
ENDBRANCH  45  48
ENDBRANCH   9  44
TORSDOF 14
ENDMDL
MODEL 3
REMARK VINA RESULT: -8.772532693      4.095      6.046
REMARK  14 active torsions:
REMARK  status: ('A' for Active; 'I' for Inactive)
REMARK    1  A    between atoms: C2_2  and  S1_3 
REMARK    2  A    between atoms: S1_3  and  C3_4 
REMARK    3  A    between atoms: C4_7  and  C5_8 
REMARK    4  A    between atoms: C8_13  and  C9_14 
REMARK    5  A    between atoms: C10_17  and  O3_18 
REMARK    6  A    between atoms: C10_17  and  C11_20 
REMARK    7  A    between atoms: C11_20  and  O4_21 
REMARK    8  A    between atoms: N3_24  and  N4_26 
REMARK       I    between atoms: N4_26  and  C13_28 
REMARK    9  A    between atoms: C13_28  and  C14_30 
REMARK   10  A    between atoms: C14_30  and  N5_31 
REMARK   11  A    between atoms: N5_31  and  S3_33 
REMARK   12  A    between atoms: N7_40  and  C16_42 
REMARK   13  A    between atoms: C19_47  and  N9_48 
REMARK   14  A    between atoms: N9_48  and  N10_50 
ROOT
HETATM    1  C5  UNL     1      18.320 -10.624 -10.285  1.00  0.00     0.072 C 
HETATM    2  C6  UNL     1      18.737  -9.707 -11.111  1.00  0.00     0.055 A 
HETATM    3  S2  UNL     1      20.172  -9.939 -12.070  1.00  0.00     0.012 SA
HETATM    4  N2  UNL     1      19.607  -8.440 -12.482  1.00  0.00    -0.113 N 
HETATM    5  C7  UNL     1      18.519  -8.456 -11.647  1.00  0.00     0.099 A 
HETATM    6  C8  UNL     1      17.626  -7.455 -11.480  1.00  0.00     0.092 C 
HETATM    7  C10 UNL     1      17.535  -6.124 -12.159  1.00  0.00     0.174 C 
HETATM    8  C12 UNL     1      18.014  -6.034 -13.537  1.00  0.00     0.154 C 
HETATM    9  N3  UNL     1      17.200  -5.513 -14.389  1.00  0.00    -0.283 N 
ATOM     10  H3  UNL     1      16.279  -5.191 -14.091  1.00  0.00     0.188 HD
HETATM   11  N6  UNL     1      19.295  -6.451 -14.031  1.00  0.00    -0.175 N 
ATOM     12  H6  UNL     1      19.654  -6.003 -14.874  1.00  0.00     0.185 HD
HETATM   13  C15 UNL     1      20.098  -7.460 -13.411  1.00  0.00     0.693 C 
HETATM   14  N7  UNL     1      21.346  -7.469 -13.734  1.00  0.00    -0.220 N 
ATOM     15  H7  UNL     1      21.944  -8.182 -13.314  1.00  0.00     0.178 HD
ENDROOT
BRANCH   1  16
HETATM   16  C4  UNL     1      19.109 -11.900 -10.171  1.00  0.00     0.124 A 
HETATM   17  N1  UNL     1      18.784 -12.793  -9.219  1.00  0.00    -0.322 N 
HETATM   18  C3  UNL     1      19.481 -13.951  -9.096  1.00  0.00     0.161 A 
ATOM     19  H1  UNL     1      18.008 -12.600  -8.586  1.00  0.00     0.169 HD
HETATM   20  N11 UNL     1      20.484 -14.121  -9.972  1.00  0.00    -0.169 N 
HETATM   21  C19 UNL     1      20.833 -13.266 -10.920  1.00  0.00     0.700 A 
ATOM     22  H11 UNL     1      21.024 -14.984  -9.901  1.00  0.00     0.186 HD
HETATM   23  N8  UNL     1      20.118 -12.106 -11.027  1.00  0.00    -0.175 N 
ATOM     24  H8  UNL     1      20.347 -11.416 -11.742  1.00  0.00     0.186 HD
BRANCH  18  25
HETATM   25  S1  UNL     1      19.160 -15.204  -7.895  1.00  0.00    -0.094 SA
BRANCH  25  26
HETATM   26  C2  UNL     1      17.558 -15.011  -7.088  1.00  0.00     0.078 C 
HETATM   27  C1  UNL     1      17.733 -13.988  -5.979  1.00  0.00     0.016 C 
ENDBRANCH  25  26
ENDBRANCH  18  25
BRANCH  21  28
HETATM   28  N9  UNL     1      21.784 -13.415 -11.759  1.00  0.00    -0.138 N 
ATOM     29  H9  UNL     1      22.717 -13.083 -11.513  1.00  0.00     0.205 HD
BRANCH  28  30
HETATM   30  N10 UNL     1      21.590 -14.013 -12.998  1.00  0.00    -0.331 N 
ATOM     31 2H10 UNL     1      22.169 -13.698 -13.776  1.00  0.00     0.177 HD
ATOM     32 1H10 UNL     1      20.896 -14.746 -13.143  1.00  0.00     0.177 HD
ENDBRANCH  28  30
ENDBRANCH  21  28
ENDBRANCH   1  16
BRANCH   6  33
HETATM   33  C9  UNL     1      16.568  -7.621 -10.502  1.00  0.00     0.211 C 
HETATM   34  O1  UNL     1      15.541  -8.322 -10.901  1.00  0.00    -0.644 OA
HETATM   35  O2  UNL     1      16.481  -7.162  -9.243  1.00  0.00    -0.644 OA
ENDBRANCH   6  33
BRANCH   7  36
HETATM   36  O3  UNL     1      16.205  -5.675 -12.160  1.00  0.00    -0.374 OA
ATOM     37  H3  UNL     1      16.169  -4.764 -11.893  1.00  0.00     0.211 HD
ENDBRANCH   7  36
BRANCH   7  38
HETATM   38  C11 UNL     1      18.319  -5.094 -11.350  1.00  0.00     0.215 C 
BRANCH  38  39
HETATM   39  O4  UNL     1      18.919  -4.191 -12.224  1.00  0.00    -0.397 OA
ATOM     40  H4  UNL     1      19.564  -3.681 -11.749  1.00  0.00     0.209 HD
ENDBRANCH  38  39
ENDBRANCH   7  38
BRANCH  14  41
HETATM   41  C16 UNL     1      21.945  -6.545 -14.645  1.00  0.00     0.099 A 
HETATM   42  C17 UNL     1      23.344  -6.063 -14.510  1.00  0.00     0.028 A 
HETATM   43  C18 UNL     1      23.028  -7.071 -15.552  1.00  0.00     0.028 A 
ENDBRANCH  14  41
BRANCH   9  44
HETATM   44  N4  UNL     1      17.588  -5.395 -15.721  1.00  0.00    -0.267 N 
HETATM   45  C13 UNL     1      17.105  -4.345 -16.543  1.00  0.00     0.254 C 
HETATM   46  O5  UNL     1      16.300  -3.512 -16.021  1.00  0.00    -0.270 OA
ATOM     47  H4  UNL     1      18.235  -6.079 -16.114  1.00  0.00     0.190 HD
BRANCH  45  48
HETATM   48  C14 UNL     1      17.519  -4.216 -17.964  1.00  0.00     0.239 C 
BRANCH  48  49
HETATM   49  N5  UNL     1      17.983  -2.857 -18.237  1.00  0.00    -0.292 N 
ATOM     50  H5  UNL     1      17.408  -2.129 -18.663  1.00  0.00     0.175 HD
BRANCH  49  51
HETATM   51  S3  UNL     1      19.602  -2.638 -17.755  1.00  0.00     0.204 S 
HETATM   52  O6  UNL     1      20.085  -3.654 -16.782  1.00  0.00    -0.578 OA
HETATM   53  O7  UNL     1      20.485  -2.697 -18.990  1.00  0.00    -0.578 OA
HETATM   54  O8  UNL     1      19.859  -1.111 -17.082  1.00  0.00    -0.578 OA
ENDBRANCH  49  51
ENDBRANCH  48  49
ENDBRANCH  45  48
ENDBRANCH   9  44
TORSDOF 14
ENDMDL
MODEL 4
REMARK VINA RESULT: -8.707352706      3.947     10.292
REMARK  14 active torsions:
REMARK  status: ('A' for Active; 'I' for Inactive)
REMARK    1  A    between atoms: C2_2  and  S1_3 
REMARK    2  A    between atoms: S1_3  and  C3_4 
REMARK    3  A    between atoms: C4_7  and  C5_8 
REMARK    4  A    between atoms: C8_13  and  C9_14 
REMARK    5  A    between atoms: C10_17  and  O3_18 
REMARK    6  A    between atoms: C10_17  and  C11_20 
REMARK    7  A    between atoms: C11_20  and  O4_21 
REMARK    8  A    between atoms: N3_24  and  N4_26 
REMARK       I    between atoms: N4_26  and  C13_28 
REMARK    9  A    between atoms: C13_28  and  C14_30 
REMARK   10  A    between atoms: C14_30  and  N5_31 
REMARK   11  A    between atoms: N5_31  and  S3_33 
REMARK   12  A    between atoms: N7_40  and  C16_42 
REMARK   13  A    between atoms: C19_47  and  N9_48 
REMARK   14  A    between atoms: N9_48  and  N10_50 
ROOT
HETATM    1  C5  UNL     1      20.747  -4.696 -12.470  1.00  0.00     0.072 C 
HETATM    2  C6  UNL     1      20.389  -5.938 -12.305  1.00  0.00     0.055 A 
HETATM    3  S2  UNL     1      21.558  -7.228 -12.344  1.00  0.00     0.012 SA
HETATM    4  N2  UNL     1      20.102  -7.964 -12.072  1.00  0.00    -0.113 N 
HETATM    5  C7  UNL     1      19.352  -6.815 -12.078  1.00  0.00     0.099 A 
HETATM    6  C8  UNL     1      18.009  -6.739 -11.936  1.00  0.00     0.092 C 
HETATM    7  C10 UNL     1      17.005  -7.821 -11.691  1.00  0.00     0.174 C 
HETATM    8  C12 UNL     1      17.441  -8.989 -10.929  1.00  0.00     0.154 C 
HETATM    9  N3  UNL     1      16.703  -9.322  -9.926  1.00  0.00    -0.283 N 
ATOM     10  H3  UNL     1      15.868  -8.781  -9.700  1.00  0.00     0.188 HD
HETATM   11  N6  UNL     1      18.591  -9.806 -11.191  1.00  0.00    -0.175 N 
ATOM     12  H6  UNL     1      18.579 -10.771 -10.863  1.00  0.00     0.185 HD
HETATM   13  C15 UNL     1      19.754  -9.345 -11.887  1.00  0.00     0.693 C 
HETATM   14  N7  UNL     1      20.529 -10.259 -12.363  1.00  0.00    -0.220 N 
ATOM     15  H7  UNL     1      21.370  -9.962 -12.858  1.00  0.00     0.178 HD
ENDROOT
BRANCH   1  16
HETATM   16  C4  UNL     1      22.203  -4.393 -12.699  1.00  0.00     0.124 A 
HETATM   17  N1  UNL     1      22.937  -3.884 -11.693  1.00  0.00    -0.322 N 
HETATM   18  C3  UNL     1      24.252  -3.602 -11.875  1.00  0.00     0.161 A 
ATOM     19  H1  UNL     1      22.502  -3.709 -10.787  1.00  0.00     0.169 HD
HETATM   20  N11 UNL     1      24.737  -3.865 -13.099  1.00  0.00    -0.169 N 
HETATM   21  C19 UNL     1      24.048  -4.364 -14.111  1.00  0.00     0.700 A 
ATOM     22  H11 UNL     1      25.724  -3.663 -13.262  1.00  0.00     0.186 HD
HETATM   23  N8  UNL     1      22.726  -4.642 -13.907  1.00  0.00    -0.175 N 
ATOM     24  H8  UNL     1      22.151  -5.029 -14.656  1.00  0.00     0.186 HD
BRANCH  18  25
HETATM   25  S1  UNL     1      25.325  -2.934 -10.644  1.00  0.00    -0.094 SA
BRANCH  25  26
HETATM   26  C2  UNL     1      24.865  -3.424  -8.969  1.00  0.00     0.078 C 
HETATM   27  C1  UNL     1      24.482  -2.159  -8.219  1.00  0.00     0.016 C 
ENDBRANCH  25  26
ENDBRANCH  18  25
BRANCH  21  28
HETATM   28  N9  UNL     1      24.497  -4.620 -15.280  1.00  0.00    -0.138 N 
ATOM     29  H9  UNL     1      24.991  -3.887 -15.790  1.00  0.00     0.205 HD
BRANCH  28  30
HETATM   30  N10 UNL     1      24.336  -5.863 -15.878  1.00  0.00    -0.331 N 
ATOM     31 2H10 UNL     1      23.463  -6.363 -15.712  1.00  0.00     0.177 HD
ATOM     32 1H10 UNL     1      25.056  -6.279 -16.468  1.00  0.00     0.177 HD
ENDBRANCH  28  30
ENDBRANCH  21  28
ENDBRANCH   1  16
BRANCH   6  33
HETATM   33  C9  UNL     1      17.372  -5.439 -12.032  1.00  0.00     0.211 C 
HETATM   34  O1  UNL     1      17.196  -4.990 -13.246  1.00  0.00    -0.644 OA
HETATM   35  O2  UNL     1      16.933  -4.623 -11.061  1.00  0.00    -0.644 OA
ENDBRANCH   6  33
BRANCH   7  36
HETATM   36  O3  UNL     1      15.885  -7.296 -11.026  1.00  0.00    -0.374 OA
ATOM     37  H3  UNL     1      15.213  -7.962 -10.944  1.00  0.00     0.211 HD
ENDBRANCH   7  36
BRANCH   7  38
HETATM   38  C11 UNL     1      16.487  -8.335 -13.032  1.00  0.00     0.215 C 
BRANCH  38  39
HETATM   39  O4  UNL     1      15.763  -9.506 -12.821  1.00  0.00    -0.397 OA
ATOM     40  H4  UNL     1      14.972  -9.298 -12.337  1.00  0.00     0.209 HD
ENDBRANCH  38  39
ENDBRANCH   7  38
BRANCH  14  41
HETATM   41  C16 UNL     1      20.283 -11.662 -12.241  1.00  0.00     0.099 A 
HETATM   42  C17 UNL     1      21.360 -12.683 -12.303  1.00  0.00     0.028 A 
HETATM   43  C18 UNL     1      20.767 -12.341 -10.986  1.00  0.00     0.028 A 
ENDBRANCH  14  41
BRANCH   9  44
HETATM   44  N4  UNL     1      17.057 -10.425  -9.155  1.00  0.00    -0.267 N 
HETATM   45  C13 UNL     1      16.327 -10.781  -7.992  1.00  0.00     0.254 C 
HETATM   46  O5  UNL     1      15.334 -10.054  -7.676  1.00  0.00    -0.270 OA
ATOM     47  H4  UNL     1      17.860 -10.990  -9.432  1.00  0.00     0.190 HD
BRANCH  45  48
HETATM   48  C14 UNL     1      16.702 -11.957  -7.167  1.00  0.00     0.239 C 
BRANCH  48  49
HETATM   49  N5  UNL     1      15.961 -13.141  -7.603  1.00  0.00    -0.292 N 
ATOM     50  H5  UNL     1      16.080 -13.590  -8.511  1.00  0.00     0.175 HD
BRANCH  49  51
HETATM   51  S3  UNL     1      14.874 -13.675  -6.404  1.00  0.00     0.204 S 
HETATM   52  O6  UNL     1      14.239 -14.986  -6.707  1.00  0.00    -0.578 OA
HETATM   53  O7  UNL     1      15.627 -13.798  -5.090  1.00  0.00    -0.578 OA
HETATM   54  O8  UNL     1      13.643 -12.555  -6.124  1.00  0.00    -0.578 OA
ENDBRANCH  49  51
ENDBRANCH  48  49
ENDBRANCH  45  48
ENDBRANCH   9  44
TORSDOF 14
ENDMDL
MODEL 5
REMARK VINA RESULT: -8.680614161      4.062     10.451
REMARK  14 active torsions:
REMARK  status: ('A' for Active; 'I' for Inactive)
REMARK    1  A    between atoms: C2_2  and  S1_3 
REMARK    2  A    between atoms: S1_3  and  C3_4 
REMARK    3  A    between atoms: C4_7  and  C5_8 
REMARK    4  A    between atoms: C8_13  and  C9_14 
REMARK    5  A    between atoms: C10_17  and  O3_18 
REMARK    6  A    between atoms: C10_17  and  C11_20 
REMARK    7  A    between atoms: C11_20  and  O4_21 
REMARK    8  A    between atoms: N3_24  and  N4_26 
REMARK       I    between atoms: N4_26  and  C13_28 
REMARK    9  A    between atoms: C13_28  and  C14_30 
REMARK   10  A    between atoms: C14_30  and  N5_31 
REMARK   11  A    between atoms: N5_31  and  S3_33 
REMARK   12  A    between atoms: N7_40  and  C16_42 
REMARK   13  A    between atoms: C19_47  and  N9_48 
REMARK   14  A    between atoms: N9_48  and  N10_50 
ROOT
HETATM    1  C5  UNL     1      20.690  -4.747 -12.435  1.00  0.00     0.072 C 
HETATM    2  C6  UNL     1      20.337  -5.991 -12.272  1.00  0.00     0.055 A 
HETATM    3  S2  UNL     1      21.512  -7.276 -12.311  1.00  0.00     0.012 SA
HETATM    4  N2  UNL     1      20.058  -8.020 -12.042  1.00  0.00    -0.113 N 
HETATM    5  C7  UNL     1      19.303  -6.874 -12.048  1.00  0.00     0.099 A 
HETATM    6  C8  UNL     1      17.960  -6.804 -11.909  1.00  0.00     0.092 C 
HETATM    7  C10 UNL     1      16.960  -7.891 -11.668  1.00  0.00     0.174 C 
HETATM    8  C12 UNL     1      17.400  -9.058 -10.907  1.00  0.00     0.154 C 
HETATM    9  N3  UNL     1      16.662  -9.395  -9.906  1.00  0.00    -0.283 N 
ATOM     10  H3  UNL     1      15.823  -8.859  -9.681  1.00  0.00     0.188 HD
HETATM   11  N6  UNL     1      18.554  -9.869 -11.167  1.00  0.00    -0.175 N 
ATOM     12  H6  UNL     1      18.546 -10.834 -10.840  1.00  0.00     0.185 HD
HETATM   13  C15 UNL     1      19.716  -9.402 -11.859  1.00  0.00     0.693 C 
HETATM   14  N7  UNL     1      20.496 -10.312 -12.336  1.00  0.00    -0.220 N 
ATOM     15  H7  UNL     1      21.338 -10.010 -12.828  1.00  0.00     0.178 HD
ENDROOT
BRANCH   1  16
HETATM   16  C4  UNL     1      22.144  -4.437 -12.661  1.00  0.00     0.124 A 
HETATM   17  N1  UNL     1      22.635  -4.456 -13.913  1.00  0.00    -0.322 N 
HETATM   18  C3  UNL     1      23.944  -4.179 -14.142  1.00  0.00     0.161 A 
ATOM     19  H1  UNL     1      22.020  -4.678 -14.695  1.00  0.00     0.169 HD
HETATM   20  N11 UNL     1      24.677  -3.898 -13.054  1.00  0.00    -0.169 N 
HETATM   21  C19 UNL     1      24.230  -3.870 -11.809  1.00  0.00     0.700 A 
ATOM     22  H11 UNL     1      25.665  -3.686 -13.199  1.00  0.00     0.186 HD
HETATM   23  N8  UNL     1      22.910  -4.150 -11.599  1.00  0.00    -0.175 N 
ATOM     24  H8  UNL     1      22.516  -4.141 -10.658  1.00  0.00     0.186 HD
BRANCH  18  25
HETATM   25  S1  UNL     1      24.714  -4.170 -15.730  1.00  0.00    -0.094 SA
BRANCH  25  26
HETATM   26  C2  UNL     1      23.696  -4.932 -17.011  1.00  0.00     0.078 C 
HETATM   27  C1  UNL     1      23.721  -6.432 -16.773  1.00  0.00     0.016 C 
ENDBRANCH  25  26
ENDBRANCH  18  25
BRANCH  21  28
HETATM   28  N9  UNL     1      24.916  -3.603 -10.765  1.00  0.00    -0.138 N 
ATOM     29  H9  UNL     1      25.853  -3.216 -10.876  1.00  0.00     0.205 HD
BRANCH  28  30
HETATM   30  N10 UNL     1      24.428  -3.823  -9.483  1.00  0.00    -0.331 N 
ATOM     31 2H10 UNL     1      23.826  -4.633  -9.335  1.00  0.00     0.177 HD
ATOM     32 1H10 UNL     1      24.653  -3.207  -8.703  1.00  0.00     0.177 HD
ENDBRANCH  28  30
ENDBRANCH  21  28
ENDBRANCH   1  16
BRANCH   6  33
HETATM   33  C9  UNL     1      17.317  -5.507 -12.005  1.00  0.00     0.211 C 
HETATM   34  O1  UNL     1      17.129  -5.063 -13.219  1.00  0.00    -0.644 OA
HETATM   35  O2  UNL     1      16.883  -4.688 -11.033  1.00  0.00    -0.644 OA
ENDBRANCH   6  33
BRANCH   7  36
HETATM   36  O3  UNL     1      15.836  -7.371 -11.005  1.00  0.00    -0.374 OA
ATOM     37  H3  UNL     1      15.180  -8.050 -10.897  1.00  0.00     0.211 HD
ENDBRANCH   7  36
BRANCH   7  38
HETATM   38  C11 UNL     1      16.447  -8.405 -13.011  1.00  0.00     0.215 C 
BRANCH  38  39
HETATM   39  O4  UNL     1      15.748  -9.592 -12.805  1.00  0.00    -0.397 OA
ATOM     40  H4  UNL     1      16.295 -10.193 -12.314  1.00  0.00     0.209 HD
ENDBRANCH  38  39
ENDBRANCH   7  38
BRANCH  14  41
HETATM   41  C16 UNL     1      20.257 -11.716 -12.216  1.00  0.00     0.099 A 
HETATM   42  C17 UNL     1      21.338 -12.733 -12.290  1.00  0.00     0.028 A 
HETATM   43  C18 UNL     1      20.754 -12.397 -10.967  1.00  0.00     0.028 A 
ENDBRANCH  14  41
BRANCH   9  44
HETATM   44  N4  UNL     1      17.019 -10.498  -9.135  1.00  0.00    -0.267 N 
HETATM   45  C13 UNL     1      16.299 -10.848  -7.963  1.00  0.00     0.254 C 
HETATM   46  O5  UNL     1      15.312 -10.116  -7.639  1.00  0.00    -0.270 OA
ATOM     47  H4  UNL     1      17.817 -11.067  -9.418  1.00  0.00     0.190 HD
BRANCH  45  48
HETATM   48  C14 UNL     1      16.678 -12.024  -7.140  1.00  0.00     0.239 C 
BRANCH  48  49
HETATM   49  N5  UNL     1      15.914 -13.201  -7.552  1.00  0.00    -0.292 N 
ATOM     50  H5  UNL     1      16.057 -13.698  -8.432  1.00  0.00     0.175 HD
BRANCH  49  51
HETATM   51  S3  UNL     1      14.757 -13.639  -6.381  1.00  0.00     0.204 S 
HETATM   52  O6  UNL     1      13.638 -12.668  -6.244  1.00  0.00    -0.578 OA
HETATM   53  O7  UNL     1      14.177 -14.992  -6.757  1.00  0.00    -0.578 OA
HETATM   54  O8  UNL     1      15.451 -13.848  -4.856  1.00  0.00    -0.578 OA
ENDBRANCH  49  51
ENDBRANCH  48  49
ENDBRANCH  45  48
ENDBRANCH   9  44
TORSDOF 14
ENDMDL
