MODEL 1
REMARK VINA RESULT: -8.994661555      0.000      0.000
REMARK  15 active torsions:
REMARK  status: ('A' for Active; 'I' for Inactive)
REMARK    1  A    between atoms: C3_4  and  C4_5 
REMARK    2  A    between atoms: C6_8  and  C7_9 
REMARK    3  A    between atoms: C7_9  and  O2_10 
REMARK    4  A    between atoms: C7_9  and  O3_12 
REMARK    5  A    between atoms: C8_14  and  N2_15 
REMARK    6  A    between atoms: C11_18  and  N3_19 
REMARK    7  A    between atoms: C12_24  and  N7_25 
REMARK    8  A    between atoms: C13_28  and  C14_29 
REMARK    9  A    between atoms: C16_33  and  O6_34 
REMARK   10  A    between atoms: C19_42  and  O9_43 
REMARK   11  A    between atoms: C19_42  and  C20_45 
REMARK   12  A    between atoms: C20_45  and  C21_46 
REMARK   13  A    between atoms: C21_46  and  C22_47 
REMARK   14  A    between atoms: C22_47  and  N9_48 
REMARK   15  A    between atoms: C25_51  and  O10_52 
ROOT
HETATM    1  N1  UNL     1      22.313  -6.415 -12.319  1.00  0.00    -0.191 NA
HETATM    2  C1  UNL     1      21.225  -6.354 -12.687  1.00  0.00     0.101 C 
HETATM    3  C2  UNL     1      19.892  -6.267 -13.184  1.00  0.00     0.089 C 
HETATM    4  C3  UNL     1      18.785  -6.850 -12.899  1.00  0.00     0.051 C 
HETATM    5  N8  UNL     1      17.778  -6.462 -13.907  1.00  0.00    -0.325 N 
ATOM      6  H8  UNL     1      16.802  -6.758 -13.938  1.00  0.00     0.168 HD
HETATM    7  C18 UNL     1      18.425  -5.606 -14.816  1.00  0.00     0.262 C 
HETATM    8  O8  UNL     1      17.925  -5.394 -15.986  1.00  0.00    -0.269 OA
HETATM    9  C19 UNL     1      19.632  -5.094 -14.201  1.00  0.00     0.177 C 
ENDROOT
BRANCH   4  10
HETATM   10  C4  UNL     1      18.409  -7.846 -11.929  1.00  0.00     0.184 C 
HETATM   11  C5  UNL     1      19.205  -9.130 -12.097  1.00  0.00     0.179 C 
HETATM   12  O1  UNL     1      20.023  -9.342 -12.988  1.00  0.00    -0.291 OA
HETATM   13  C6  UNL     1      18.945 -10.190 -11.086  1.00  0.00     0.069 C 
HETATM   14  C8  UNL     1      17.941 -10.118 -10.251  1.00  0.00     0.066 C 
HETATM   15  C16 UNL     1      16.955  -8.954 -10.241  1.00  0.00     0.239 C 
HETATM   16  C17 UNL     1      17.088  -8.268 -11.606  1.00  0.00     0.178 C 
HETATM   17  O7  UNL     1      16.087  -8.184 -12.209  1.00  0.00    -0.293 OA
BRANCH  13  18
HETATM   18  C7  UNL     1      19.904 -11.316 -11.120  1.00  0.00     0.294 C 
BRANCH  18  19
HETATM   19  O2  UNL     1      19.716 -12.064 -12.304  1.00  0.00    -0.367 OA
ATOM     20  H2  UNL     1      20.559 -12.253 -12.699  1.00  0.00     0.213 HD
ENDBRANCH  18  19
BRANCH  18  21
HETATM   21  O3  UNL     1      21.195 -10.873 -11.158  1.00  0.00    -0.367 OA
ATOM     22  H3  UNL     1      21.482 -10.710 -12.048  1.00  0.00     0.213 HD
ENDBRANCH  18  21
ENDBRANCH  13  18
BRANCH  14  23
HETATM   23  N2  UNL     1      17.609 -11.090  -9.244  1.00  0.00    -0.332 N 
HETATM   24  C9  UNL     1      16.684 -10.842  -8.282  1.00  0.00     0.099 A 
HETATM   25  C10 UNL     1      16.307 -11.749  -7.329  1.00  0.00     0.050 A 
HETATM   26  C11 UNL     1      16.925 -13.005  -7.364  1.00  0.00     0.092 A 
HETATM   27  C13 UNL     1      17.867 -13.308  -8.314  1.00  0.00     0.085 A 
HETATM   28  C15 UNL     1      18.176 -12.309  -9.238  1.00  0.00     0.117 A 
BRANCH  26  29
HETATM   29  N3  UNL     1      16.541 -13.959  -6.395  1.00  0.00    -0.071 N 
HETATM   30  N4  UNL     1      17.174 -14.242  -5.271  1.00  0.00     0.014 NA
HETATM   31  N5  UNL     1      16.512 -15.179  -4.603  1.00  0.00     0.007 NA
HETATM   32  N6  UNL     1      15.436 -15.485  -5.335  1.00  0.00    -0.117 N 
HETATM   33  C12 UNL     1      15.444 -14.736  -6.446  1.00  0.00     0.708 A 
ATOM     34  H6  UNL     1      14.726 -16.174  -5.088  1.00  0.00     0.202 HD
BRANCH  33  35
HETATM   35  N7  UNL     1      14.521 -14.806  -7.362  1.00  0.00    -0.232 N 
ATOM     36  H72 UNL     1      14.165 -13.992  -7.861  1.00  0.00     0.174 HD
ATOM     37  H71 UNL     1      14.025 -15.622  -7.721  1.00  0.00     0.174 HD
ENDBRANCH  33  35
ENDBRANCH  26  29
BRANCH  27  38
HETATM   38  C14 UNL     1      18.562 -14.604  -8.399  1.00  0.00     0.213 C 
HETATM   39  O4  UNL     1      19.819 -14.649  -8.358  1.00  0.00    -0.644 OA
HETATM   40  O5  UNL     1      17.879 -15.790  -8.524  1.00  0.00    -0.644 OA
ENDBRANCH  27  38
ENDBRANCH  14  23
BRANCH  15  41
HETATM   41  O6  UNL     1      17.394  -8.031  -9.303  1.00  0.00    -0.382 OA
ATOM     42  H6  UNL     1      16.652  -7.789  -8.761  1.00  0.00     0.211 HD
ENDBRANCH  15  41
ENDBRANCH   4  10
BRANCH   9  43
HETATM   43  O9  UNL     1      20.724  -5.130 -15.078  1.00  0.00    -0.374 OA
ATOM     44  H9  UNL     1      21.169  -4.301 -14.947  1.00  0.00     0.211 HD
ENDBRANCH   9  43
BRANCH   9  45
HETATM   45  C20 UNL     1      19.593  -3.871 -13.387  1.00  0.00     0.055 C 
BRANCH  45  46
HETATM   46  C21 UNL     1      20.494  -2.758 -13.702  1.00  0.00     0.034 C 
BRANCH  46  47
HETATM   47  C22 UNL     1      21.192  -2.050 -12.603  1.00  0.00     0.272 C 
BRANCH  47  48
HETATM   48  N9  UNL     1      21.500  -2.995 -11.488  1.00  0.00     0.091 N 
HETATM   49  C23 UNL     1      21.007  -2.307 -10.295  1.00  0.00     0.275 C 
HETATM   50  C24 UNL     1      21.960  -1.160 -10.065  1.00  0.00     0.064 C 
HETATM   51  C25 UNL     1      23.253  -1.688 -10.614  1.00  0.00     0.148 C 
HETATM   52  C26 UNL     1      22.908  -3.037 -11.238  1.00  0.00     0.303 C 
BRANCH  51  53
HETATM   53  O10 UNL     1      24.221  -1.840  -9.616  1.00  0.00    -0.394 OA
ATOM     54  H10 UNL     1      24.180  -2.697  -9.209  1.00  0.00     0.210 HD
ENDBRANCH  51  53
ENDBRANCH  47  48
ENDBRANCH  46  47
ENDBRANCH  45  46
ENDBRANCH   9  45
TORSDOF 15
ENDMDL
MODEL 2
REMARK VINA RESULT: -8.988597638      5.810      9.627
REMARK  15 active torsions:
REMARK  status: ('A' for Active; 'I' for Inactive)
REMARK    1  A    between atoms: C3_4  and  C4_5 
REMARK    2  A    between atoms: C6_8  and  C7_9 
REMARK    3  A    between atoms: C7_9  and  O2_10 
REMARK    4  A    between atoms: C7_9  and  O3_12 
REMARK    5  A    between atoms: C8_14  and  N2_15 
REMARK    6  A    between atoms: C11_18  and  N3_19 
REMARK    7  A    between atoms: C12_24  and  N7_25 
REMARK    8  A    between atoms: C13_28  and  C14_29 
REMARK    9  A    between atoms: C16_33  and  O6_34 
REMARK   10  A    between atoms: C19_42  and  O9_43 
REMARK   11  A    between atoms: C19_42  and  C20_45 
REMARK   12  A    between atoms: C20_45  and  C21_46 
REMARK   13  A    between atoms: C21_46  and  C22_47 
REMARK   14  A    between atoms: C22_47  and  N9_48 
REMARK   15  A    between atoms: C25_51  and  O10_52 
ROOT
HETATM    1  N1  UNL     1      25.863   1.412 -10.801  1.00  0.00    -0.191 NA
HETATM    2  C1  UNL     1      25.584   0.742  -9.909  1.00  0.00     0.101 C 
HETATM    3  C2  UNL     1      25.251  -0.057  -8.776  1.00  0.00     0.089 C 
HETATM    4  C3  UNL     1      24.391  -0.980  -8.546  1.00  0.00     0.051 C 
HETATM    5  N8  UNL     1      24.409  -1.289  -7.102  1.00  0.00    -0.325 N 
ATOM      6  H8  UNL     1      23.842  -1.988  -6.622  1.00  0.00     0.168 HD
HETATM    7  C18 UNL     1      25.359  -0.434  -6.517  1.00  0.00     0.262 C 
HETATM    8  O8  UNL     1      25.346  -0.210  -5.248  1.00  0.00    -0.269 OA
HETATM    9  C19 UNL     1      26.235   0.074  -7.553  1.00  0.00     0.177 C 
ENDROOT
BRANCH   4  10
HETATM   10  C4  UNL     1      23.388  -1.626  -9.354  1.00  0.00     0.184 C 
HETATM   11  C5  UNL     1      23.989  -2.689 -10.259  1.00  0.00     0.179 C 
HETATM   12  O1  UNL     1      25.188  -2.936 -10.359  1.00  0.00    -0.291 OA
HETATM   13  C6  UNL     1      23.019  -3.469 -11.073  1.00  0.00     0.069 C 
HETATM   14  C8  UNL     1      21.764  -3.117 -11.181  1.00  0.00     0.066 C 
HETATM   15  C16 UNL     1      21.189  -1.884 -10.490  1.00  0.00     0.239 C 
HETATM   16  C17 UNL     1      22.386  -0.991 -10.142  1.00  0.00     0.178 C 
HETATM   17  O7  UNL     1      22.325   0.097 -10.573  1.00  0.00    -0.293 OA
BRANCH  13  18
HETATM   18  C7  UNL     1      23.597  -4.654 -11.745  1.00  0.00     0.294 C 
BRANCH  18  19
HETATM   19  O2  UNL     1      24.577  -4.240 -12.676  1.00  0.00    -0.367 OA
ATOM     20  H2  UNL     1      25.436  -4.275 -12.271  1.00  0.00     0.213 HD
ENDBRANCH  18  19
BRANCH  18  21
HETATM   21  O3  UNL     1      24.243  -5.467 -10.859  1.00  0.00    -0.367 OA
ATOM     22  H3  UNL     1      24.827  -6.072 -11.302  1.00  0.00     0.213 HD
ENDBRANCH  18  21
ENDBRANCH  13  18
BRANCH  14  23
HETATM   23  N2  UNL     1      20.756  -3.804 -11.942  1.00  0.00    -0.332 N 
HETATM   24  C9  UNL     1      20.843  -3.945 -13.290  1.00  0.00     0.099 A 
HETATM   25  C10 UNL     1      19.931  -4.623 -14.050  1.00  0.00     0.050 A 
HETATM   26  C11 UNL     1      18.846  -5.202 -13.381  1.00  0.00     0.092 A 
HETATM   27  C13 UNL     1      18.709  -5.089 -12.020  1.00  0.00     0.085 A 
HETATM   28  C15 UNL     1      19.698  -4.376 -11.343  1.00  0.00     0.117 A 
BRANCH  26  29
HETATM   29  N3  UNL     1      17.899  -5.916 -14.147  1.00  0.00    -0.071 N 
HETATM   30  N4  UNL     1      16.904  -5.406 -14.851  1.00  0.00     0.014 NA
HETATM   31  N5  UNL     1      16.231  -6.377 -15.454  1.00  0.00     0.007 NA
HETATM   32  N6  UNL     1      16.826  -7.525 -15.115  1.00  0.00    -0.117 N 
HETATM   33  C12 UNL     1      17.859  -7.252 -14.307  1.00  0.00     0.708 A 
ATOM     34  H6  UNL     1      16.542  -8.455 -15.421  1.00  0.00     0.202 HD
BRANCH  33  35
HETATM   35  N7  UNL     1      18.638  -8.168 -13.806  1.00  0.00    -0.232 N 
ATOM     36  H72 UNL     1      19.168  -8.042 -12.944  1.00  0.00     0.174 HD
ATOM     37  H71 UNL     1      18.845  -9.104 -14.155  1.00  0.00     0.174 HD
ENDBRANCH  33  35
ENDBRANCH  26  29
BRANCH  27  38
HETATM   38  C14 UNL     1      17.587  -5.664 -11.257  1.00  0.00     0.213 C 
HETATM   39  O4  UNL     1      16.687  -4.913 -10.799  1.00  0.00    -0.644 OA
HETATM   40  O5  UNL     1      17.482  -7.013 -11.020  1.00  0.00    -0.644 OA
ENDBRANCH  27  38
ENDBRANCH  14  23
BRANCH  15  41
HETATM   41  O6  UNL     1      20.646  -2.287  -9.279  1.00  0.00    -0.382 OA
ATOM     42  H6  UNL     1      21.106  -1.829  -8.585  1.00  0.00     0.211 HD
ENDBRANCH  15  41
ENDBRANCH   4  10
BRANCH   9  43
HETATM   43  O9  UNL     1      26.464   1.449  -7.420  1.00  0.00    -0.374 OA
ATOM     44  H9  UNL     1      26.896   1.703  -8.228  1.00  0.00     0.211 HD
ENDBRANCH   9  43
BRANCH   9  45
HETATM   45  C20 UNL     1      27.441  -0.672  -7.941  1.00  0.00     0.055 C 
BRANCH  45  46
HETATM   46  C21 UNL     1      27.791  -1.908  -7.233  1.00  0.00     0.034 C 
BRANCH  46  47
HETATM   47  C22 UNL     1      27.407  -3.215  -7.815  1.00  0.00     0.272 C 
BRANCH  47  48
HETATM   48  N9  UNL     1      28.611  -4.080  -7.992  1.00  0.00     0.091 N 
HETATM   49  C23 UNL     1      28.060  -5.374  -8.397  1.00  0.00     0.275 C 
HETATM   50  C24 UNL     1      27.396  -5.935  -7.164  1.00  0.00     0.064 C 
HETATM   51  C25 UNL     1      28.216  -5.352  -6.051  1.00  0.00     0.148 C 
HETATM   52  C26 UNL     1      29.195  -4.397  -6.726  1.00  0.00     0.303 C 
BRANCH  51  53
HETATM   53  O10 UNL     1      28.904  -6.340  -5.336  1.00  0.00    -0.394 OA
ATOM     54  H10 UNL     1      29.202  -7.043  -5.901  1.00  0.00     0.210 HD
ENDBRANCH  51  53
ENDBRANCH  47  48
ENDBRANCH  46  47
ENDBRANCH  45  46
ENDBRANCH   9  45
TORSDOF 15
ENDMDL
MODEL 3
REMARK VINA RESULT: -8.878020989      2.358      4.647
REMARK  15 active torsions:
REMARK  status: ('A' for Active; 'I' for Inactive)
REMARK    1  A    between atoms: C3_4  and  C4_5 
REMARK    2  A    between atoms: C6_8  and  C7_9 
REMARK    3  A    between atoms: C7_9  and  O2_10 
REMARK    4  A    between atoms: C7_9  and  O3_12 
REMARK    5  A    between atoms: C8_14  and  N2_15 
REMARK    6  A    between atoms: C11_18  and  N3_19 
REMARK    7  A    between atoms: C12_24  and  N7_25 
REMARK    8  A    between atoms: C13_28  and  C14_29 
REMARK    9  A    between atoms: C16_33  and  O6_34 
REMARK   10  A    between atoms: C19_42  and  O9_43 
REMARK   11  A    between atoms: C19_42  and  C20_45 
REMARK   12  A    between atoms: C20_45  and  C21_46 
REMARK   13  A    between atoms: C21_46  and  C22_47 
REMARK   14  A    between atoms: C22_47  and  N9_48 
REMARK   15  A    between atoms: C25_51  and  O10_52 
ROOT
HETATM    1  N1  UNL     1      19.139  -3.913 -10.049  1.00  0.00    -0.191 NA
HETATM    2  C1  UNL     1      19.184  -4.680 -10.906  1.00  0.00     0.101 C 
HETATM    3  C2  UNL     1      19.274  -5.609 -11.983  1.00  0.00     0.089 C 
HETATM    4  C3  UNL     1      18.959  -6.843 -12.137  1.00  0.00     0.051 C 
HETATM    5  N8  UNL     1      19.481  -7.301 -13.440  1.00  0.00    -0.325 N 
ATOM      6  H8  UNL     1      19.378  -8.233 -13.844  1.00  0.00     0.168 HD
HETATM    7  C18 UNL     1      20.148  -6.207 -14.016  1.00  0.00     0.262 C 
HETATM    8  O8  UNL     1      21.003  -6.385 -14.965  1.00  0.00    -0.269 OA
HETATM    9  C19 UNL     1      19.704  -4.991 -13.366  1.00  0.00     0.177 C 
ENDROOT
BRANCH   4  10
HETATM   10  C4  UNL     1      18.354  -7.827 -11.277  1.00  0.00     0.184 C 
HETATM   11  C5  UNL     1      19.007  -9.191 -11.428  1.00  0.00     0.179 C 
HETATM   12  O1  UNL     1      19.896  -9.463 -12.230  1.00  0.00    -0.291 OA
HETATM   13  C6  UNL     1      18.503 -10.254 -10.518  1.00  0.00     0.069 C 
HETATM   14  C8  UNL     1      17.421 -10.096  -9.800  1.00  0.00     0.066 C 
HETATM   15  C16 UNL     1      16.586  -8.821  -9.834  1.00  0.00     0.239 C 
HETATM   16  C17 UNL     1      16.963  -8.095 -11.132  1.00  0.00     0.178 C 
HETATM   17  O7  UNL     1      16.059  -7.861 -11.840  1.00  0.00    -0.293 OA
BRANCH  13  18
HETATM   18  C7  UNL     1      19.320 -11.488 -10.508  1.00  0.00     0.294 C 
BRANCH  18  19
HETATM   19  O2  UNL     1      18.927 -12.326 -11.576  1.00  0.00    -0.367 OA
ATOM     20  H2  UNL     1      18.277 -11.881 -12.107  1.00  0.00     0.213 HD
ENDBRANCH  18  19
BRANCH  18  21
HETATM   21  O3  UNL     1      20.642 -11.216 -10.713  1.00  0.00    -0.367 OA
ATOM     22  H3  UNL     1      21.200 -11.820 -10.237  1.00  0.00     0.213 HD
ENDBRANCH  18  21
ENDBRANCH  13  18
BRANCH  14  23
HETATM   23  N2  UNL     1      16.858 -11.063  -8.897  1.00  0.00    -0.332 N 
HETATM   24  C9  UNL     1      17.596 -12.076  -8.376  1.00  0.00     0.099 A 
HETATM   25  C10 UNL     1      17.115 -12.995  -7.483  1.00  0.00     0.050 A 
HETATM   26  C11 UNL     1      15.775 -12.867  -7.095  1.00  0.00     0.092 A 
HETATM   27  C13 UNL     1      14.985 -11.862  -7.592  1.00  0.00     0.085 A 
HETATM   28  C15 UNL     1      15.578 -10.980  -8.496  1.00  0.00     0.117 A 
BRANCH  26  29
HETATM   29  N3  UNL     1      15.263 -13.798  -6.166  1.00  0.00    -0.071 N 
HETATM   30  N4  UNL     1      15.540 -13.862  -4.876  1.00  0.00     0.014 NA
HETATM   31  N5  UNL     1      14.862 -14.857  -4.316  1.00  0.00     0.007 NA
HETATM   32  N6  UNL     1      14.143 -15.427  -5.289  1.00  0.00    -0.117 N 
HETATM   33  C12 UNL     1      14.383 -14.781  -6.437  1.00  0.00     0.708 A 
ATOM     34  H6  UNL     1      13.515 -16.222  -5.175  1.00  0.00     0.202 HD
BRANCH  33  35
HETATM   35  N7  UNL     1      13.828 -15.103  -7.570  1.00  0.00    -0.232 N 
ATOM     36  H72 UNL     1      14.342 -15.164  -8.449  1.00  0.00     0.174 HD
ATOM     37  H71 UNL     1      12.856 -15.337  -7.772  1.00  0.00     0.174 HD
ENDBRANCH  33  35
ENDBRANCH  26  29
BRANCH  27  38
HETATM   38  C14 UNL     1      13.568 -11.677  -7.234  1.00  0.00     0.213 C 
HETATM   39  O4  UNL     1      12.697 -11.582  -8.138  1.00  0.00    -0.644 OA
HETATM   40  O5  UNL     1      13.150 -11.604  -5.927  1.00  0.00    -0.644 OA
ENDBRANCH  27  38
ENDBRANCH  14  23
BRANCH  15  41
HETATM   41  O6  UNL     1      17.014  -8.002  -8.799  1.00  0.00    -0.382 OA
ATOM     42  H6  UNL     1      17.393  -7.220  -9.182  1.00  0.00     0.211 HD
ENDBRANCH  15  41
ENDBRANCH   4  10
BRANCH   9  43
HETATM   43  O9  UNL     1      20.772  -4.137 -13.062  1.00  0.00    -0.374 OA
ATOM     44  H9  UNL     1      20.505  -3.286 -13.388  1.00  0.00     0.211 HD
ENDBRANCH   9  43
BRANCH   9  45
HETATM   45  C20 UNL     1      18.520  -4.272 -13.858  1.00  0.00     0.055 C 
BRANCH  45  46
HETATM   46  C21 UNL     1      18.314  -4.110 -15.300  1.00  0.00     0.034 C 
BRANCH  46  47
HETATM   47  C22 UNL     1      16.965  -4.324 -15.873  1.00  0.00     0.272 C 
BRANCH  47  48
HETATM   48  N9  UNL     1      17.009  -5.374 -16.934  1.00  0.00     0.091 N 
HETATM   49  C23 UNL     1      16.860  -4.623 -18.181  1.00  0.00     0.275 C 
HETATM   50  C24 UNL     1      15.426  -4.153 -18.203  1.00  0.00     0.064 C 
HETATM   51  C25 UNL     1      14.713  -5.229 -17.437  1.00  0.00     0.148 C 
HETATM   52  C26 UNL     1      15.810  -6.154 -16.921  1.00  0.00     0.303 C 
BRANCH  51  53
HETATM   53  O10 UNL     1      13.812  -5.934 -18.243  1.00  0.00    -0.394 OA
ATOM     54  H10 UNL     1      13.732  -6.841 -17.975  1.00  0.00     0.210 HD
ENDBRANCH  51  53
ENDBRANCH  47  48
ENDBRANCH  46  47
ENDBRANCH  45  46
ENDBRANCH   9  45
TORSDOF 15
ENDMDL
MODEL 4
REMARK VINA RESULT: -8.839703080      2.118      3.900
REMARK  15 active torsions:
REMARK  status: ('A' for Active; 'I' for Inactive)
REMARK    1  A    between atoms: C3_4  and  C4_5 
REMARK    2  A    between atoms: C6_8  and  C7_9 
REMARK    3  A    between atoms: C7_9  and  O2_10 
REMARK    4  A    between atoms: C7_9  and  O3_12 
REMARK    5  A    between atoms: C8_14  and  N2_15 
REMARK    6  A    between atoms: C11_18  and  N3_19 
REMARK    7  A    between atoms: C12_24  and  N7_25 
REMARK    8  A    between atoms: C13_28  and  C14_29 
REMARK    9  A    between atoms: C16_33  and  O6_34 
REMARK   10  A    between atoms: C19_42  and  O9_43 
REMARK   11  A    between atoms: C19_42  and  C20_45 
REMARK   12  A    between atoms: C20_45  and  C21_46 
REMARK   13  A    between atoms: C21_46  and  C22_47 
REMARK   14  A    between atoms: C22_47  and  N9_48 
REMARK   15  A    between atoms: C25_51  and  O10_52 
ROOT
HETATM    1  N1  UNL     1      19.257  -3.843 -10.300  1.00  0.00    -0.191 NA
HETATM    2  C1  UNL     1      19.283  -4.629 -11.140  1.00  0.00     0.101 C 
HETATM    3  C2  UNL     1      19.351  -5.582 -12.198  1.00  0.00     0.089 C 
HETATM    4  C3  UNL     1      19.036  -6.820 -12.316  1.00  0.00     0.051 C 
HETATM    5  N8  UNL     1      19.529  -7.306 -13.621  1.00  0.00    -0.325 N 
ATOM      6  H8  UNL     1      19.419  -8.247 -14.001  1.00  0.00     0.168 HD
HETATM    7  C18 UNL     1      20.179  -6.223 -14.237  1.00  0.00     0.262 C 
HETATM    8  O8  UNL     1      21.012  -6.421 -15.201  1.00  0.00    -0.269 OA
HETATM    9  C19 UNL     1      19.747  -4.994 -13.604  1.00  0.00     0.177 C 
ENDROOT
BRANCH   4  10
HETATM   10  C4  UNL     1      18.454  -7.786 -11.420  1.00  0.00     0.184 C 
HETATM   11  C5  UNL     1      19.105  -9.152 -11.558  1.00  0.00     0.179 C 
HETATM   12  O1  UNL     1      19.975  -9.440 -12.376  1.00  0.00    -0.291 OA
HETATM   13  C6  UNL     1      18.626 -10.196 -10.613  1.00  0.00     0.069 C 
HETATM   14  C8  UNL     1      17.563 -10.024  -9.872  1.00  0.00     0.066 C 
HETATM   15  C16 UNL     1      16.725  -8.750  -9.913  1.00  0.00     0.239 C 
HETATM   16  C17 UNL     1      17.068  -8.052 -11.235  1.00  0.00     0.178 C 
HETATM   17  O7  UNL     1      16.146  -7.834 -11.925  1.00  0.00    -0.293 OA
BRANCH  13  18
HETATM   18  C7  UNL     1      19.445 -11.428 -10.597  1.00  0.00     0.294 C 
BRANCH  18  19
HETATM   19  O2  UNL     1      19.169 -12.197 -11.750  1.00  0.00    -0.367 OA
ATOM     20  H2  UNL     1      19.392 -13.106 -11.589  1.00  0.00     0.213 HD
ENDBRANCH  18  19
BRANCH  18  21
HETATM   21  O3  UNL     1      20.779 -11.145 -10.647  1.00  0.00    -0.367 OA
ATOM     22  H3  UNL     1      21.153 -11.071  -9.777  1.00  0.00     0.213 HD
ENDBRANCH  18  21
ENDBRANCH  13  18
BRANCH  14  23
HETATM   23  N2  UNL     1      17.024 -10.971  -8.934  1.00  0.00    -0.332 N 
HETATM   24  C9  UNL     1      15.910 -10.707  -8.204  1.00  0.00     0.099 A 
HETATM   25  C10 UNL     1      15.339 -11.592  -7.331  1.00  0.00     0.050 A 
HETATM   26  C11 UNL     1      15.954 -12.843  -7.195  1.00  0.00     0.092 A 
HETATM   27  C13 UNL     1      17.081 -13.161  -7.909  1.00  0.00     0.085 A 
HETATM   28  C15 UNL     1      17.580 -12.184  -8.771  1.00  0.00     0.117 A 
BRANCH  26  29
HETATM   29  N3  UNL     1      15.372 -13.773  -6.307  1.00  0.00    -0.071 N 
HETATM   30  N4  UNL     1      15.731 -14.003  -5.056  1.00  0.00     0.014 NA
HETATM   31  N5  UNL     1      14.949 -14.935  -4.525  1.00  0.00     0.007 NA
HETATM   32  N6  UNL     1      14.079 -15.293  -5.474  1.00  0.00    -0.117 N 
HETATM   33  C12 UNL     1      14.331 -14.581  -6.581  1.00  0.00     0.708 A 
ATOM     34  H6  UNL     1      13.344 -15.993  -5.373  1.00  0.00     0.202 HD
BRANCH  33  35
HETATM   35  N7  UNL     1      13.649 -14.705  -7.683  1.00  0.00    -0.232 N 
ATOM     36  H72 UNL     1      12.664 -14.455  -7.764  1.00  0.00     0.174 HD
ATOM     37  H71 UNL     1      13.950 -15.049  -8.595  1.00  0.00     0.174 HD
ENDBRANCH  33  35
ENDBRANCH  26  29
BRANCH  27  38
HETATM   38  C14 UNL     1      17.783 -14.452  -7.804  1.00  0.00     0.213 C 
HETATM   39  O4  UNL     1      18.868 -14.530  -7.172  1.00  0.00    -0.644 OA
HETATM   40  O5  UNL     1      17.290 -15.598  -8.381  1.00  0.00    -0.644 OA
ENDBRANCH  27  38
ENDBRANCH  14  23
BRANCH  15  41
HETATM   41  O6  UNL     1      17.177  -7.908  -8.907  1.00  0.00    -0.382 OA
ATOM     42  H6  UNL     1      18.115  -7.805  -9.011  1.00  0.00     0.211 HD
ENDBRANCH  15  41
ENDBRANCH   4  10
BRANCH   9  43
HETATM   43  O9  UNL     1      20.819  -4.131 -13.345  1.00  0.00    -0.374 OA
ATOM     44  H9  UNL     1      20.935  -3.639 -14.148  1.00  0.00     0.211 HD
ENDBRANCH   9  43
BRANCH   9  45
HETATM   45  C20 UNL     1      18.549  -4.289 -14.083  1.00  0.00     0.055 C 
BRANCH  45  46
HETATM   46  C21 UNL     1      17.988  -4.619 -15.397  1.00  0.00     0.034 C 
BRANCH  46  47
HETATM   47  C22 UNL     1      18.405  -3.838 -16.585  1.00  0.00     0.272 C 
BRANCH  47  48
HETATM   48  N9  UNL     1      17.497  -4.118 -17.737  1.00  0.00     0.091 N 
HETATM   49  C23 UNL     1      18.319  -3.834 -18.913  1.00  0.00     0.275 C 
HETATM   50  C24 UNL     1      18.482  -2.334 -18.943  1.00  0.00     0.064 C 
HETATM   51  C25 UNL     1      17.212  -1.851 -18.306  1.00  0.00     0.148 C 
HETATM   52  C26 UNL     1      16.488  -3.109 -17.840  1.00  0.00     0.303 C 
BRANCH  51  53
HETATM   53  O10 UNL     1      16.419  -1.130 -19.206  1.00  0.00    -0.394 OA
ATOM     54  H10 UNL     1      15.731  -0.646 -18.764  1.00  0.00     0.210 HD
ENDBRANCH  51  53
ENDBRANCH  47  48
ENDBRANCH  46  47
ENDBRANCH  45  46
ENDBRANCH   9  45
TORSDOF 15
ENDMDL
MODEL 5
REMARK VINA RESULT: -8.795250686      5.194      8.772
REMARK  15 active torsions:
REMARK  status: ('A' for Active; 'I' for Inactive)
REMARK    1  A    between atoms: C3_4  and  C4_5 
REMARK    2  A    between atoms: C6_8  and  C7_9 
REMARK    3  A    between atoms: C7_9  and  O2_10 
REMARK    4  A    between atoms: C7_9  and  O3_12 
REMARK    5  A    between atoms: C8_14  and  N2_15 
REMARK    6  A    between atoms: C11_18  and  N3_19 
REMARK    7  A    between atoms: C12_24  and  N7_25 
REMARK    8  A    between atoms: C13_28  and  C14_29 
REMARK    9  A    between atoms: C16_33  and  O6_34 
REMARK   10  A    between atoms: C19_42  and  O9_43 
REMARK   11  A    between atoms: C19_42  and  C20_45 
REMARK   12  A    between atoms: C20_45  and  C21_46 
REMARK   13  A    between atoms: C21_46  and  C22_47 
REMARK   14  A    between atoms: C22_47  and  N9_48 
REMARK   15  A    between atoms: C25_51  and  O10_52 
ROOT
HETATM    1  N1  UNL     1      19.508   0.731 -17.457  1.00  0.00    -0.191 NA
HETATM    2  C1  UNL     1      19.897  -0.253 -17.910  1.00  0.00     0.101 C 
HETATM    3  C2  UNL     1      20.411  -1.449 -18.490  1.00  0.00     0.089 C 
HETATM    4  C3  UNL     1      20.406  -2.687 -18.154  1.00  0.00     0.051 C 
HETATM    5  N8  UNL     1      21.279  -3.429 -19.085  1.00  0.00    -0.325 N 
ATOM      6  H8  UNL     1      21.465  -4.433 -19.076  1.00  0.00     0.168 HD
HETATM    7  C18 UNL     1      21.805  -2.486 -19.985  1.00  0.00     0.262 C 
HETATM    8  O8  UNL     1      22.860  -2.756 -20.674  1.00  0.00    -0.269 OA
HETATM    9  C19 UNL     1      20.984  -1.293 -19.948  1.00  0.00     0.177 C 
ENDROOT
BRANCH   4  10
HETATM   10  C4  UNL     1      19.854  -3.410 -17.036  1.00  0.00     0.184 C 
HETATM   11  C5  UNL     1      18.358  -3.626 -17.184  1.00  0.00     0.179 C 
HETATM   12  O1  UNL     1      17.668  -3.186 -18.100  1.00  0.00    -0.291 OA
HETATM   13  C6  UNL     1      17.712  -4.437 -16.117  1.00  0.00     0.069 C 
HETATM   14  C8  UNL     1      18.336  -4.748 -15.011  1.00  0.00     0.066 C 
HETATM   15  C16 UNL     1      19.767  -4.309 -14.718  1.00  0.00     0.239 C 
HETATM   16  C17 UNL     1      20.055  -3.129 -15.655  1.00  0.00     0.178 C 
HETATM   17  O7  UNL     1      20.396  -2.148 -15.113  1.00  0.00    -0.293 OA
BRANCH  13  18
HETATM   18  C7  UNL     1      16.320  -4.843 -16.414  1.00  0.00     0.294 C 
BRANCH  18  19
HETATM   19  O2  UNL     1      15.509  -3.693 -16.546  1.00  0.00    -0.367 OA
ATOM     20  H2  UNL     1      15.784  -3.036 -15.918  1.00  0.00     0.213 HD
ENDBRANCH  18  19
BRANCH  18  21
HETATM   21  O3  UNL     1      16.234  -5.500 -17.607  1.00  0.00    -0.367 OA
ATOM     22  H3  UNL     1      16.488  -4.941 -18.333  1.00  0.00     0.213 HD
ENDBRANCH  18  21
ENDBRANCH  13  18
BRANCH  14  23
HETATM   23  N2  UNL     1      17.797  -5.523 -13.926  1.00  0.00    -0.332 N 
HETATM   24  C9  UNL     1      17.590  -6.860 -14.030  1.00  0.00     0.099 A 
HETATM   25  C10 UNL     1      17.117  -7.644 -13.013  1.00  0.00     0.050 A 
HETATM   26  C11 UNL     1      16.835  -7.011 -11.797  1.00  0.00     0.092 A 
HETATM   27  C13 UNL     1      17.026  -5.662 -11.638  1.00  0.00     0.085 A 
HETATM   28  C15 UNL     1      17.512  -4.958 -12.740  1.00  0.00     0.117 A 
BRANCH  26  29
HETATM   29  N3  UNL     1      16.357  -7.805 -10.732  1.00  0.00    -0.071 N 
HETATM   30  N4  UNL     1      17.082  -8.536  -9.903  1.00  0.00     0.014 NA
HETATM   31  N5  UNL     1      16.293  -9.134  -9.019  1.00  0.00     0.007 NA
HETATM   32  N6  UNL     1      15.041  -8.763  -9.308  1.00  0.00    -0.117 N 
HETATM   33  C12 UNL     1      15.069  -7.941 -10.366  1.00  0.00     0.708 A 
ATOM     34  H6  UNL     1      14.204  -9.057  -8.806  1.00  0.00     0.202 HD
BRANCH  33  35
HETATM   35  N7  UNL     1      14.001  -7.410 -10.888  1.00  0.00    -0.232 N 
ATOM     36  H72 UNL     1      13.857  -6.404 -10.969  1.00  0.00     0.174 HD
ATOM     37  H71 UNL     1      13.177  -7.866 -11.281  1.00  0.00     0.174 HD
ENDBRANCH  33  35
ENDBRANCH  26  29
BRANCH  27  38
HETATM   38  C14 UNL     1      16.739  -4.933 -10.390  1.00  0.00     0.213 C 
HETATM   39  O4  UNL     1      17.685  -4.542  -9.657  1.00  0.00    -0.644 OA
HETATM   40  O5  UNL     1      15.456  -4.657  -9.985  1.00  0.00    -0.644 OA
ENDBRANCH  27  38
ENDBRANCH  14  23
BRANCH  15  41
HETATM   41  O6  UNL     1      20.618  -5.331 -15.115  1.00  0.00    -0.382 OA
ATOM     42  H6  UNL     1      21.257  -5.465 -14.425  1.00  0.00     0.211 HD
ENDBRANCH  15  41
ENDBRANCH   4  10
BRANCH   9  43
HETATM   43  O9  UNL     1      21.756  -0.126 -19.908  1.00  0.00    -0.374 OA
ATOM     44  H9  UNL     1      22.257  -0.137 -20.715  1.00  0.00     0.211 HD
ENDBRANCH   9  43
BRANCH   9  45
HETATM   45  C20 UNL     1      19.807  -1.171 -20.820  1.00  0.00     0.055 C 
BRANCH  45  46
HETATM   46  C21 UNL     1      19.496   0.118 -21.446  1.00  0.00     0.034 C 
BRANCH  46  47
HETATM   47  C22 UNL     1      18.098   0.607 -21.454  1.00  0.00     0.272 C 
BRANCH  47  48
HETATM   48  N9  UNL     1      17.213  -0.335 -20.706  1.00  0.00     0.091 N 
HETATM   49  C23 UNL     1      16.010  -0.424 -21.535  1.00  0.00     0.275 C 
HETATM   50  C24 UNL     1      15.317   0.908 -21.390  1.00  0.00     0.064 C 
HETATM   51  C25 UNL     1      15.709   1.337 -20.006  1.00  0.00     0.148 C 
HETATM   52  C26 UNL     1      16.703   0.286 -19.522  1.00  0.00     0.303 C 
BRANCH  51  53
HETATM   53  O10 UNL     1      14.606   1.404 -19.148  1.00  0.00    -0.394 OA
ATOM     54  H10 UNL     1      14.240   0.546 -18.973  1.00  0.00     0.210 HD
ENDBRANCH  51  53
ENDBRANCH  47  48
ENDBRANCH  46  47
ENDBRANCH  45  46
ENDBRANCH   9  45
TORSDOF 15
ENDMDL
