MODEL 1
REMARK VINA RESULT: -6.798143754      0.000      0.000
REMARK  5 active torsions:
REMARK  status: ('A' for Active; 'I' for Inactive)
REMARK    1  A    between atoms: C2_2  and  C4_4 
REMARK       I    between atoms: C4_4  and  N1_6 
REMARK    2  A    between atoms: N1_6  and  C5_8 
REMARK    3  A    between atoms: C8_11  and  C9_12 
REMARK       I    between atoms: C9_12  and  N2_14 
REMARK    4  A    between atoms: N2_14  and  C10_16 
REMARK       I    between atoms: N4_24  and  C15_25 
REMARK       I    between atoms: C15_25  and  N5_27 
REMARK    5  A    between atoms: N5_27  and  C16_29 
ROOT
HETATM    1  C5  UNL     1      -9.223  12.614  19.000  1.00  0.00     0.102 C 
HETATM    2  C6  UNL     1      -8.535  13.909  18.714  1.00  0.00     0.029 C 
HETATM    3  C7  UNL     1      -8.503  14.796  19.949  1.00  0.00     0.037 C 
HETATM    4  C8  UNL     1      -7.611  14.038  20.946  1.00  0.00     0.181 C 
HETATM    5  N4  UNL     1      -8.347  12.835  21.290  1.00  0.00    -0.319 N 
HETATM    6  C15 UNL     1      -8.009  12.148  22.479  1.00  0.00     0.319 C 
HETATM    7  O3  UNL     1      -8.653  11.115  22.768  1.00  0.00    -0.247 OA
HETATM    8  N5  UNL     1      -6.982  12.567  23.358  1.00  0.00    -0.334 N 
ATOM      9  H5  UNL     1      -6.470  13.412  23.100  1.00  0.00     0.165 HD
HETATM   10  C26 UNL     1      -9.402  12.322  20.460  1.00  0.00     0.153 C 
ENDROOT
BRANCH   4  11
HETATM   11  C9  UNL     1      -6.360  13.725  20.215  1.00  0.00     0.246 C 
HETATM   12  O2  UNL     1      -5.797  12.631  20.451  1.00  0.00    -0.271 OA
HETATM   13  N2  UNL     1      -5.828  14.626  19.291  1.00  0.00    -0.311 N 
ATOM     14  H2  UNL     1      -6.453  14.947  18.552  1.00  0.00     0.170 HD
BRANCH  13  15
HETATM   15  C10 UNL     1      -4.634  15.090  19.277  1.00  0.00     0.110 A 
HETATM   16  C11 UNL     1      -3.755  14.627  18.309  1.00  0.00     0.090 A 
HETATM   17  C12 UNL     1      -2.449  15.068  18.216  1.00  0.00     0.121 A 
HETATM   18  F1  UNL     1      -1.587  14.617  17.271  1.00  0.00    -0.206 F 
HETATM   19  C13 UNL     1      -1.976  16.010  19.113  1.00  0.00     0.059 A 
HETATM   20  C14 UNL     1      -2.866  16.455  20.066  1.00  0.00     0.092 A 
HETATM   21  N3  UNL     1      -4.149  16.003  20.134  1.00  0.00    -0.352 N 
ATOM     22  H3  UNL     1      -4.762  16.371  20.862  1.00  0.00     0.166 HD
ENDBRANCH  13  15
ENDBRANCH   4  11
BRANCH   8  23
HETATM   23  C16 UNL     1      -6.588  11.919  24.582  1.00  0.00     0.035 C 
HETATM   24  C17 UNL     1      -7.774  11.435  25.373  1.00  0.00     0.035 C 
HETATM   25  C18 UNL     1      -7.303  10.838  26.689  1.00  0.00    -0.012 C 
HETATM   26  C19 UNL     1      -6.557  11.834  27.517  1.00  0.00     0.009 C 
HETATM   27  C23 UNL     1      -6.374   9.668  26.406  1.00  0.00     0.009 C 
HETATM   28  C20 UNL     1      -5.365  12.322  26.719  1.00  0.00    -0.012 C 
HETATM   29  C21 UNL     1      -4.411  11.221  26.378  1.00  0.00     0.009 C 
HETATM   30  C25 UNL     1      -5.870  12.940  25.447  1.00  0.00     0.035 C 
HETATM   31  C22 UNL     1      -5.183  10.172  25.620  1.00  0.00    -0.012 C 
HETATM   32  C24 UNL     1      -5.694  10.721  24.310  1.00  0.00     0.035 C 
ENDBRANCH   8  23
BRANCH   1  33
HETATM   33  N1  UNL     1     -10.487  12.572  18.293  1.00  0.00    -0.355 N 
HETATM   34  C4  UNL     1     -10.599  12.083  16.962  1.00  0.00     0.221 C 
HETATM   35  O1  UNL     1      -9.573  11.670  16.363  1.00  0.00    -0.273 OA
ATOM     36  H1  UNL     1     -11.327  12.906  18.767  1.00  0.00     0.162 HD
BRANCH  34  37
HETATM   37  C2  UNL     1     -11.912  12.063  16.293  1.00  0.00     0.070 C 
HETATM   38  C1  UNL     1     -12.984  12.626  17.192  1.00  0.00     0.019 C 
HETATM   39  C3  UNL     1     -12.306  10.707  15.799  1.00  0.00     0.019 C 
ENDBRANCH  34  37
ENDBRANCH   1  33
TORSDOF 5
ENDMDL
MODEL 2
REMARK VINA RESULT: -6.713994974      0.207      1.281
REMARK  5 active torsions:
REMARK  status: ('A' for Active; 'I' for Inactive)
REMARK    1  A    between atoms: C2_2  and  C4_4 
REMARK       I    between atoms: C4_4  and  N1_6 
REMARK    2  A    between atoms: N1_6  and  C5_8 
REMARK    3  A    between atoms: C8_11  and  C9_12 
REMARK       I    between atoms: C9_12  and  N2_14 
REMARK    4  A    between atoms: N2_14  and  C10_16 
REMARK       I    between atoms: N4_24  and  C15_25 
REMARK       I    between atoms: C15_25  and  N5_27 
REMARK    5  A    between atoms: N5_27  and  C16_29 
ROOT
HETATM    1  C5  UNL     1      -9.281  12.374  19.099  1.00  0.00     0.102 C 
HETATM    2  C6  UNL     1      -8.654  13.680  18.735  1.00  0.00     0.029 C 
HETATM    3  C7  UNL     1      -8.660  14.639  19.915  1.00  0.00     0.037 C 
HETATM    4  C8  UNL     1      -7.732  13.982  20.951  1.00  0.00     0.181 C 
HETATM    5  N4  UNL     1      -8.411  12.769  21.368  1.00  0.00    -0.319 N 
HETATM    6  C15 UNL     1      -8.039  12.169  22.593  1.00  0.00     0.319 C 
HETATM    7  O3  UNL     1      -8.634  11.126  22.945  1.00  0.00    -0.247 OA
HETATM    8  N5  UNL     1      -7.030  12.686  23.442  1.00  0.00    -0.334 N 
ATOM      9  H5  UNL     1      -6.559  13.536  23.132  1.00  0.00     0.165 HD
HETATM   10  C26 UNL     1      -9.443  12.161  20.574  1.00  0.00     0.153 C 
ENDROOT
BRANCH   4  11
HETATM   11  C9  UNL     1      -6.470  13.685  20.233  1.00  0.00     0.246 C 
HETATM   12  O2  UNL     1      -5.897  12.596  20.472  1.00  0.00    -0.271 OA
HETATM   13  N2  UNL     1      -5.936  14.594  19.318  1.00  0.00    -0.311 N 
ATOM     14  H2  UNL     1      -6.556  14.911  18.572  1.00  0.00     0.170 HD
BRANCH  13  15
HETATM   15  C10 UNL     1      -4.747  15.070  19.319  1.00  0.00     0.110 A 
HETATM   16  C11 UNL     1      -3.845  14.603  18.374  1.00  0.00     0.090 A 
HETATM   17  C12 UNL     1      -2.543  15.056  18.299  1.00  0.00     0.121 A 
HETATM   18  F1  UNL     1      -1.658  14.600  17.378  1.00  0.00    -0.206 F 
HETATM   19  C13 UNL     1      -2.096  16.016  19.191  1.00  0.00     0.059 A 
HETATM   20  C14 UNL     1      -3.008  16.466  20.120  1.00  0.00     0.092 A 
HETATM   21  N3  UNL     1      -4.287  16.001  20.172  1.00  0.00    -0.352 N 
ATOM     22  H3  UNL     1      -4.917  16.373  20.882  1.00  0.00     0.166 HD
ENDBRANCH  13  15
ENDBRANCH   4  11
BRANCH   8  23
HETATM   23  C16 UNL     1      -6.605  12.128  24.699  1.00  0.00     0.035 C 
HETATM   24  C17 UNL     1      -5.788  13.104  25.503  1.00  0.00     0.035 C 
HETATM   25  C18 UNL     1      -5.296  12.434  26.776  1.00  0.00    -0.012 C 
HETATM   26  C19 UNL     1      -4.451  11.236  26.485  1.00  0.00     0.009 C 
HETATM   27  C23 UNL     1      -6.492  11.979  27.598  1.00  0.00     0.009 C 
HETATM   28  C20 UNL     1      -5.273  10.257  25.673  1.00  0.00    -0.012 C 
HETATM   29  C21 UNL     1      -6.486   9.778  26.406  1.00  0.00     0.009 C 
HETATM   30  C25 UNL     1      -5.707  10.938  24.408  1.00  0.00     0.035 C 
HETATM   31  C22 UNL     1      -7.297  10.992  26.781  1.00  0.00    -0.012 C 
HETATM   32  C24 UNL     1      -7.793  11.710  25.549  1.00  0.00     0.035 C 
ENDBRANCH   8  23
BRANCH   1  33
HETATM   33  N1  UNL     1     -10.543  12.233  18.402  1.00  0.00    -0.355 N 
HETATM   34  C4  UNL     1     -10.616  11.907  17.019  1.00  0.00     0.221 C 
HETATM   35  O1  UNL     1      -9.557  11.734  16.364  1.00  0.00    -0.273 OA
ATOM     36  H1  UNL     1     -11.410  12.372  18.921  1.00  0.00     0.162 HD
BRANCH  34  37
HETATM   37  C2  UNL     1     -11.930  11.776  16.363  1.00  0.00     0.070 C 
HETATM   38  C1  UNL     1     -12.970  12.611  17.066  1.00  0.00     0.019 C 
HETATM   39  C3  UNL     1     -12.393  10.358  16.243  1.00  0.00     0.019 C 
ENDBRANCH  34  37
ENDBRANCH   1  33
TORSDOF 5
ENDMDL
MODEL 3
REMARK VINA RESULT: -6.664287618      2.642      3.765
REMARK  5 active torsions:
REMARK  status: ('A' for Active; 'I' for Inactive)
REMARK    1  A    between atoms: C2_2  and  C4_4 
REMARK       I    between atoms: C4_4  and  N1_6 
REMARK    2  A    between atoms: N1_6  and  C5_8 
REMARK    3  A    between atoms: C8_11  and  C9_12 
REMARK       I    between atoms: C9_12  and  N2_14 
REMARK    4  A    between atoms: N2_14  and  C10_16 
REMARK       I    between atoms: N4_24  and  C15_25 
REMARK       I    between atoms: C15_25  and  N5_27 
REMARK    5  A    between atoms: N5_27  and  C16_29 
ROOT
HETATM    1  C5  UNL     1     -10.276  10.108  18.328  1.00  0.00     0.102 C 
HETATM    2  C6  UNL     1     -11.406  10.903  18.897  1.00  0.00     0.029 C 
HETATM    3  C7  UNL     1     -11.871  10.321  20.223  1.00  0.00     0.037 C 
HETATM    4  C8  UNL     1     -10.677  10.520  21.171  1.00  0.00     0.181 C 
HETATM    5  N4  UNL     1      -9.626   9.659  20.659  1.00  0.00    -0.319 N 
HETATM    6  C15 UNL     1      -8.569   9.289  21.524  1.00  0.00     0.319 C 
HETATM    7  O3  UNL     1      -7.672   8.543  21.073  1.00  0.00    -0.247 OA
HETATM    8  N5  UNL     1      -8.473   9.719  22.869  1.00  0.00    -0.334 N 
ATOM      9  H5  UNL     1      -9.216  10.328  23.212  1.00  0.00     0.165 HD
HETATM   10  C26 UNL     1      -9.627   9.176  19.306  1.00  0.00     0.153 C 
ENDROOT
BRANCH   4  11
HETATM   11  C9  UNL     1     -10.310  11.952  21.067  1.00  0.00     0.246 C 
HETATM   12  O2  UNL     1     -11.216  12.776  20.799  1.00  0.00    -0.271 OA
HETATM   13  N2  UNL     1      -8.992  12.369  21.263  1.00  0.00    -0.311 N 
ATOM     14  H2  UNL     1      -8.544  12.078  22.132  1.00  0.00     0.170 HD
BRANCH  13  15
HETATM   15  C10 UNL     1      -8.288  13.080  20.462  1.00  0.00     0.110 A 
HETATM   16  C11 UNL     1      -6.939  12.786  20.328  1.00  0.00     0.090 A 
HETATM   17  C12 UNL     1      -6.102  13.497  19.490  1.00  0.00     0.121 A 
HETATM   18  F1  UNL     1      -4.782  13.214  19.357  1.00  0.00    -0.206 F 
HETATM   19  C13 UNL     1      -6.607  14.548  18.744  1.00  0.00     0.059 A 
HETATM   20  C14 UNL     1      -7.948  14.822  18.893  1.00  0.00     0.092 A 
HETATM   21  N3  UNL     1      -8.751  14.104  19.727  1.00  0.00    -0.352 N 
ATOM     22  H3  UNL     1      -9.738  14.353  19.794  1.00  0.00     0.166 HD
ENDBRANCH  13  15
ENDBRANCH   4  11
BRANCH   8  23
HETATM   23  C16 UNL     1      -7.429   9.381  23.801  1.00  0.00     0.035 C 
HETATM   24  C17 UNL     1      -7.562  10.134  25.098  1.00  0.00     0.035 C 
HETATM   25  C18 UNL     1      -6.388   9.801  26.005  1.00  0.00    -0.012 C 
HETATM   26  C19 UNL     1      -5.080  10.163  25.379  1.00  0.00     0.009 C 
HETATM   27  C23 UNL     1      -6.380   8.307  26.288  1.00  0.00     0.009 C 
HETATM   28  C20 UNL     1      -4.949   9.407  24.073  1.00  0.00    -0.012 C 
HETATM   29  C21 UNL     1      -4.957   7.923  24.264  1.00  0.00     0.009 C 
HETATM   30  C25 UNL     1      -6.100   9.789  23.189  1.00  0.00     0.035 C 
HETATM   31  C22 UNL     1      -6.236   7.565  24.976  1.00  0.00    -0.012 C 
HETATM   32  C24 UNL     1      -7.437   7.896  24.125  1.00  0.00     0.035 C 
ENDBRANCH   8  23
BRANCH   1  33
HETATM   33  N1  UNL     1     -10.728   9.404  17.145  1.00  0.00    -0.355 N 
HETATM   34  C4  UNL     1     -10.693   9.992  15.850  1.00  0.00     0.221 C 
HETATM   35  O1  UNL     1     -10.260  11.164  15.711  1.00  0.00    -0.273 OA
ATOM     36  H1  UNL     1     -11.083   8.452  17.244  1.00  0.00     0.162 HD
BRANCH  34  37
HETATM   37  C2  UNL     1     -11.165   9.226  14.682  1.00  0.00     0.070 C 
HETATM   38  C1  UNL     1     -11.348  10.126  13.486  1.00  0.00     0.019 C 
HETATM   39  C3  UNL     1     -12.417   8.451  14.948  1.00  0.00     0.019 C 
ENDBRANCH  34  37
ENDBRANCH   1  33
TORSDOF 5
ENDMDL
MODEL 4
REMARK VINA RESULT: -6.643870135      5.519     11.546
REMARK  5 active torsions:
REMARK  status: ('A' for Active; 'I' for Inactive)
REMARK    1  A    between atoms: C2_2  and  C4_4 
REMARK       I    between atoms: C4_4  and  N1_6 
REMARK    2  A    between atoms: N1_6  and  C5_8 
REMARK    3  A    between atoms: C8_11  and  C9_12 
REMARK       I    between atoms: C9_12  and  N2_14 
REMARK    4  A    between atoms: N2_14  and  C10_16 
REMARK       I    between atoms: N4_24  and  C15_25 
REMARK       I    between atoms: C15_25  and  N5_27 
REMARK    5  A    between atoms: N5_27  and  C16_29 
ROOT
HETATM    1  C5  UNL     1     -10.830  11.942  16.990  1.00  0.00     0.102 C 
HETATM    2  C6  UNL     1     -12.180  12.010  17.627  1.00  0.00     0.029 C 
HETATM    3  C7  UNL     1     -13.273  12.147  16.579  1.00  0.00     0.037 C 
HETATM    4  C8  UNL     1     -13.226  10.824  15.797  1.00  0.00     0.181 C 
HETATM    5  N4  UNL     1     -11.951  10.829  15.102  1.00  0.00    -0.319 N 
HETATM    6  C15 UNL     1     -11.783   9.978  13.985  1.00  0.00     0.319 C 
HETATM    7  O3  UNL     1     -10.681   9.993  13.392  1.00  0.00    -0.247 OA
HETATM    8  N5  UNL     1     -12.793   9.111  13.504  1.00  0.00    -0.334 N 
ATOM      9  H5  UNL     1     -13.681   9.115  14.006  1.00  0.00     0.165 HD
HETATM   10  C26 UNL     1     -10.859  11.666  15.517  1.00  0.00     0.153 C 
ENDROOT
BRANCH   4  11
HETATM   11  C9  UNL     1     -13.292   9.748  16.813  1.00  0.00     0.246 C 
HETATM   12  O2  UNL     1     -14.121   9.867  17.746  1.00  0.00    -0.271 OA
HETATM   13  N2  UNL     1     -12.453   8.634  16.732  1.00  0.00    -0.311 N 
ATOM     14  H2  UNL     1     -12.459   8.121  15.851  1.00  0.00     0.170 HD
BRANCH  13  15
HETATM   15  C10 UNL     1     -11.678   8.193  17.652  1.00  0.00     0.110 A 
HETATM   16  C11 UNL     1     -11.581   6.821  17.833  1.00  0.00     0.090 A 
HETATM   17  C12 UNL     1     -10.773   6.253  18.799  1.00  0.00     0.121 A 
HETATM   18  F1  UNL     1     -10.676   4.913  18.980  1.00  0.00    -0.206 F 
HETATM   19  C13 UNL     1     -10.020   7.065  19.629  1.00  0.00     0.059 A 
HETATM   20  C14 UNL     1     -10.132   8.423  19.431  1.00  0.00     0.092 A 
HETATM   21  N3  UNL     1     -10.937   8.957  18.471  1.00  0.00    -0.352 N 
ATOM     22  H3  UNL     1     -10.977   9.971  18.371  1.00  0.00     0.166 HD
ENDBRANCH  13  15
ENDBRANCH   4  11
BRANCH   8  23
HETATM   23  C16 UNL     1     -12.689   8.223  12.375  1.00  0.00     0.035 C 
HETATM   24  C17 UNL     1     -11.274   7.764  12.144  1.00  0.00     0.035 C 
HETATM   25  C18 UNL     1     -11.212   6.903  10.894  1.00  0.00    -0.012 C 
HETATM   26  C19 UNL     1     -11.673   7.646   9.681  1.00  0.00     0.009 C 
HETATM   27  C23 UNL     1     -12.113   5.690  11.074  1.00  0.00     0.009 C 
HETATM   28  C20 UNL     1     -13.096   8.109   9.916  1.00  0.00    -0.012 C 
HETATM   29  C21 UNL     1     -14.044   6.972  10.128  1.00  0.00     0.009 C 
HETATM   30  C25 UNL     1     -13.111   8.989  11.133  1.00  0.00     0.035 C 
HETATM   31  C22 UNL     1     -13.532   6.167  11.296  1.00  0.00    -0.012 C 
HETATM   32  C24 UNL     1     -13.551   6.986  12.563  1.00  0.00     0.035 C 
ENDBRANCH   8  23
BRANCH   1  33
HETATM   33  N1  UNL     1     -10.094  13.154  17.287  1.00  0.00    -0.355 N 
HETATM   34  C4  UNL     1      -9.158  13.234  18.355  1.00  0.00     0.221 C 
HETATM   35  O1  UNL     1      -8.951  12.225  19.077  1.00  0.00    -0.273 OA
ATOM     36  H1  UNL     1     -10.254  13.981  16.710  1.00  0.00     0.162 HD
BRANCH  34  37
HETATM   37  C2  UNL     1      -8.437  14.494  18.610  1.00  0.00     0.070 C 
HETATM   38  C1  UNL     1      -7.004  14.228  18.993  1.00  0.00     0.019 C 
HETATM   39  C3  UNL     1      -9.100  15.359  19.636  1.00  0.00     0.019 C 
ENDBRANCH  34  37
ENDBRANCH   1  33
TORSDOF 5
ENDMDL
MODEL 5
REMARK VINA RESULT: -6.598134416      2.647      3.823
REMARK  5 active torsions:
REMARK  status: ('A' for Active; 'I' for Inactive)
REMARK    1  A    between atoms: C2_2  and  C4_4 
REMARK       I    between atoms: C4_4  and  N1_6 
REMARK    2  A    between atoms: N1_6  and  C5_8 
REMARK    3  A    between atoms: C8_11  and  C9_12 
REMARK       I    between atoms: C9_12  and  N2_14 
REMARK    4  A    between atoms: N2_14  and  C10_16 
REMARK       I    between atoms: N4_24  and  C15_25 
REMARK       I    between atoms: C15_25  and  N5_27 
REMARK    5  A    between atoms: N5_27  and  C16_29 
ROOT
HETATM    1  C5  UNL     1     -10.285  10.040  18.189  1.00  0.00     0.102 C 
HETATM    2  C6  UNL     1     -11.427  10.784  18.802  1.00  0.00     0.029 C 
HETATM    3  C7  UNL     1     -11.832  10.167  20.131  1.00  0.00     0.037 C 
HETATM    4  C8  UNL     1     -10.619  10.396  21.048  1.00  0.00     0.181 C 
HETATM    5  N4  UNL     1      -9.553   9.582  20.494  1.00  0.00    -0.319 N 
HETATM    6  C15 UNL     1      -8.459   9.239  21.323  1.00  0.00     0.319 C 
HETATM    7  O3  UNL     1      -7.548   8.533  20.836  1.00  0.00    -0.247 OA
HETATM    8  N5  UNL     1      -8.340   9.652  22.671  1.00  0.00    -0.334 N 
ATOM      9  H5  UNL     1      -9.095  10.228  23.044  1.00  0.00     0.165 HD
HETATM   10  C26 UNL     1      -9.575   9.119  19.134  1.00  0.00     0.153 C 
ENDROOT
BRANCH   4  11
HETATM   11  C9  UNL     1     -10.308  11.842  20.957  1.00  0.00     0.246 C 
HETATM   12  O2  UNL     1     -11.229  12.624  20.623  1.00  0.00    -0.271 OA
HETATM   13  N2  UNL     1      -9.025  12.317  21.235  1.00  0.00    -0.311 N 
ATOM     14  H2  UNL     1      -8.623  12.050  22.134  1.00  0.00     0.170 HD
BRANCH  13  15
HETATM   15  C10 UNL     1      -8.301  13.053  20.476  1.00  0.00     0.110 A 
HETATM   16  C11 UNL     1      -6.957  12.738  20.335  1.00  0.00     0.090 A 
HETATM   17  C12 UNL     1      -6.100  13.473  19.540  1.00  0.00     0.121 A 
HETATM   18  F1  UNL     1      -4.785  13.170  19.401  1.00  0.00    -0.206 F 
HETATM   19  C13 UNL     1      -6.577  14.571  18.846  1.00  0.00     0.059 A 
HETATM   20  C14 UNL     1      -7.914  14.865  19.001  1.00  0.00     0.092 A 
HETATM   21  N3  UNL     1      -8.738  14.123  19.792  1.00  0.00    -0.352 N 
ATOM     22  H3  UNL     1      -9.719  14.389  19.866  1.00  0.00     0.166 HD
ENDBRANCH  13  15
ENDBRANCH   4  11
BRANCH   8  23
HETATM   23  C16 UNL     1      -7.258   9.339  23.568  1.00  0.00     0.035 C 
HETATM   24  C17 UNL     1      -7.073   7.854  23.734  1.00  0.00     0.035 C 
HETATM   25  C18 UNL     1      -5.978   7.586  24.754  1.00  0.00    -0.012 C 
HETATM   26  C19 UNL     1      -6.304   8.174  26.089  1.00  0.00     0.009 C 
HETATM   27  C23 UNL     1      -4.677   8.205  24.269  1.00  0.00     0.009 C 
HETATM   28  C20 UNL     1      -6.493   9.667  25.920  1.00  0.00    -0.012 C 
HETATM   29  C21 UNL     1      -5.259  10.351  25.420  1.00  0.00     0.009 C 
HETATM   30  C25 UNL     1      -7.606   9.894  24.939  1.00  0.00     0.035 C 
HETATM   31  C22 UNL     1      -4.876   9.698  24.117  1.00  0.00    -0.012 C 
HETATM   32  C24 UNL     1      -5.944   9.916  23.072  1.00  0.00     0.035 C 
ENDBRANCH   8  23
BRANCH   1  33
HETATM   33  N1  UNL     1     -10.744   9.337  17.008  1.00  0.00    -0.355 N 
HETATM   34  C4  UNL     1     -10.734   9.933  15.717  1.00  0.00     0.221 C 
HETATM   35  O1  UNL     1     -10.317  11.111  15.578  1.00  0.00    -0.273 OA
ATOM     36  H1  UNL     1     -11.086   8.381  17.107  1.00  0.00     0.162 HD
BRANCH  34  37
HETATM   37  C2  UNL     1     -11.213   9.168  14.550  1.00  0.00     0.070 C 
HETATM   38  C1  UNL     1     -11.435  10.074  13.366  1.00  0.00     0.019 C 
HETATM   39  C3  UNL     1     -12.444   8.366  14.832  1.00  0.00     0.019 C 
ENDBRANCH  34  37
ENDBRANCH   1  33
TORSDOF 5
ENDMDL
