MODEL 1
REMARK VINA RESULT: -6.100211007      0.000      0.000
REMARK  3 active torsions:
REMARK  status: ('A' for Active; 'I' for Inactive)
REMARK    1  A    between atoms: S1_3  and  C2_4 
REMARK    2  A    between atoms: C2_4  and  C3_5 
REMARK    3  A    between atoms: C3_5  and  N2_6 
ROOT
HETATM    1  N1  UNL     1      43.236  80.775  42.584  1.00  0.00    -0.184 NA
HETATM    2  C1  UNL     1      42.614  80.288  41.709  1.00  0.00     0.133 C 
HETATM    3  S1  UNL     1      41.704  79.528  40.426  1.00  0.00    -0.048 SA
ENDROOT
BRANCH   3   4
HETATM    4  C2  UNL     1      41.987  80.283  38.836  1.00  0.00     0.128 C 
BRANCH   4   5
HETATM    5  C3  UNL     1      43.021  79.650  38.003  1.00  0.00     0.133 C 
HETATM    6  C4  UNL     1      42.447  78.421  37.263  1.00  0.00     0.039 C 
HETATM    7  C5  UNL     1      43.716  77.974  36.577  1.00  0.00     0.002 C 
HETATM    8  C6  UNL     1      44.257  79.269  36.021  1.00  0.00     0.002 C 
HETATM    9  C7  UNL     1      43.640  80.395  36.881  1.00  0.00     0.039 C 
BRANCH   5  10
HETATM   10  N2  UNL     1      44.121  79.108  38.818  1.00  0.00    -0.070 N 
ATOM     11  H23 UNL     1      44.925  78.860  38.241  1.00  0.00     0.275 HD
ATOM     12  H22 UNL     1      44.553  79.834  39.390  1.00  0.00     0.275 HD
ATOM     13  H21 UNL     1      43.815  78.319  39.387  1.00  0.00     0.275 HD
ENDBRANCH   5  10
ENDBRANCH   4   5
ENDBRANCH   3   4
TORSDOF 3
ENDMDL
MODEL 2
REMARK VINA RESULT: -5.719620155      1.271      1.775
REMARK  3 active torsions:
REMARK  status: ('A' for Active; 'I' for Inactive)
REMARK    1  A    between atoms: S1_3  and  C2_4 
REMARK    2  A    between atoms: C2_4  and  C3_5 
REMARK    3  A    between atoms: C3_5  and  N2_6 
ROOT
HETATM    1  N1  UNL     1      43.040  80.798  42.479  1.00  0.00    -0.184 NA
HETATM    2  C1  UNL     1      42.659  80.405  41.435  1.00  0.00     0.133 C 
HETATM    3  S1  UNL     1      42.058  79.818  39.903  1.00  0.00    -0.048 SA
ENDROOT
BRANCH   3   4
HETATM    4  C2  UNL     1      43.120  78.590  39.168  1.00  0.00     0.128 C 
BRANCH   4   5
HETATM    5  C3  UNL     1      43.280  78.674  37.708  1.00  0.00     0.133 C 
HETATM    6  C4  UNL     1      44.041  79.960  37.317  1.00  0.00     0.039 C 
HETATM    7  C5  UNL     1      43.985  79.792  35.816  1.00  0.00     0.002 C 
HETATM    8  C6  UNL     1      44.378  78.345  35.637  1.00  0.00     0.002 C 
HETATM    9  C7  UNL     1      44.061  77.646  36.978  1.00  0.00     0.039 C 
BRANCH   5  10
HETATM   10  N2  UNL     1      41.981  78.793  37.024  1.00  0.00    -0.070 N 
ATOM     11  H23 UNL     1      41.742  79.769  36.845  1.00  0.00     0.275 HD
ATOM     12  H22 UNL     1      42.036  78.464  36.059  1.00  0.00     0.275 HD
ATOM     13  H21 UNL     1      41.240  78.316  37.536  1.00  0.00     0.275 HD
ENDBRANCH   5  10
ENDBRANCH   4   5
ENDBRANCH   3   4
TORSDOF 3
ENDMDL
MODEL 3
REMARK VINA RESULT: -5.642006642      1.421      1.421
REMARK  3 active torsions:
REMARK  status: ('A' for Active; 'I' for Inactive)
REMARK    1  A    between atoms: S1_3  and  C2_4 
REMARK    2  A    between atoms: C2_4  and  C3_5 
REMARK    3  A    between atoms: C3_5  and  N2_6 
ROOT
HETATM    1  N1  UNL     1      40.258  78.374  42.133  1.00  0.00    -0.184 NA
HETATM    2  C1  UNL     1      41.108  79.020  41.634  1.00  0.00     0.133 C 
HETATM    3  S1  UNL     1      42.366  80.004  40.925  1.00  0.00    -0.048 SA
ENDROOT
BRANCH   3   4
HETATM    4  C2  UNL     1      42.094  80.334  39.195  1.00  0.00     0.128 C 
BRANCH   4   5
HETATM    5  C3  UNL     1      43.052  79.715  38.267  1.00  0.00     0.133 C 
HETATM    6  C4  UNL     1      42.369  78.606  37.437  1.00  0.00     0.039 C 
HETATM    7  C5  UNL     1      43.581  78.141  36.664  1.00  0.00     0.002 C 
HETATM    8  C6  UNL     1      44.197  79.444  36.213  1.00  0.00     0.002 C 
HETATM    9  C7  UNL     1      43.689  80.521  37.198  1.00  0.00     0.039 C 
BRANCH   5  10
HETATM   10  N2  UNL     1      44.135  79.021  38.985  1.00  0.00    -0.070 N 
ATOM     11  H23 UNL     1      43.782  78.215  39.502  1.00  0.00     0.275 HD
ATOM     12  H22 UNL     1      44.759  78.536  38.341  1.00  0.00     0.275 HD
ATOM     13  H21 UNL     1      44.650  79.656  39.594  1.00  0.00     0.275 HD
ENDBRANCH   5  10
ENDBRANCH   4   5
ENDBRANCH   3   4
TORSDOF 3
ENDMDL
MODEL 4
REMARK VINA RESULT: -5.244647463      1.709      2.098
REMARK  3 active torsions:
REMARK  status: ('A' for Active; 'I' for Inactive)
REMARK    1  A    between atoms: S1_3  and  C2_4 
REMARK    2  A    between atoms: C2_4  and  C3_5 
REMARK    3  A    between atoms: C3_5  and  N2_6 
ROOT
HETATM    1  N1  UNL     1      40.729  78.603  42.063  1.00  0.00    -0.184 NA
HETATM    2  C1  UNL     1      41.403  79.219  41.319  1.00  0.00     0.133 C 
HETATM    3  S1  UNL     1      42.369  80.148  40.198  1.00  0.00    -0.048 SA
ENDROOT
BRANCH   3   4
HETATM    4  C2  UNL     1      43.643  79.178  39.413  1.00  0.00     0.128 C 
BRANCH   4   5
HETATM    5  C3  UNL     1      43.515  79.013  37.957  1.00  0.00     0.133 C 
HETATM    6  C4  UNL     1      44.370  80.062  37.212  1.00  0.00     0.039 C 
HETATM    7  C5  UNL     1      43.986  79.686  35.800  1.00  0.00     0.002 C 
HETATM    8  C6  UNL     1      44.106  78.181  35.822  1.00  0.00     0.002 C 
HETATM    9  C7  UNL     1      43.963  77.761  37.302  1.00  0.00     0.039 C 
BRANCH   5  10
HETATM   10  N2  UNL     1      42.138  79.269  37.499  1.00  0.00    -0.070 N 
ATOM     11  H23 UNL     1      41.791  78.504  36.920  1.00  0.00     0.275 HD
ATOM     12  H22 UNL     1      41.471  79.202  38.268  1.00  0.00     0.275 HD
ATOM     13  H21 UNL     1      42.062  80.165  37.018  1.00  0.00     0.275 HD
ENDBRANCH   5  10
ENDBRANCH   4   5
ENDBRANCH   3   4
TORSDOF 3
ENDMDL
MODEL 5
REMARK VINA RESULT: -4.955382987      1.793      2.139
REMARK  3 active torsions:
REMARK  status: ('A' for Active; 'I' for Inactive)
REMARK    1  A    between atoms: S1_3  and  C2_4 
REMARK    2  A    between atoms: C2_4  and  C3_5 
REMARK    3  A    between atoms: C3_5  and  N2_6 
ROOT
HETATM    1  N1  UNL     1      40.337  78.515  41.987  1.00  0.00    -0.184 NA
HETATM    2  C1  UNL     1      41.268  79.107  41.572  1.00  0.00     0.133 C 
HETATM    3  S1  UNL     1      42.646  80.009  40.990  1.00  0.00    -0.048 SA
ENDROOT
BRANCH   3   4
HETATM    4  C2  UNL     1      42.476  80.511  39.288  1.00  0.00     0.128 C 
BRANCH   4   5
HETATM    5  C3  UNL     1      42.760  79.474  38.284  1.00  0.00     0.133 C 
HETATM    6  C4  UNL     1      43.860  79.948  37.308  1.00  0.00     0.039 C 
HETATM    7  C5  UNL     1      43.872  78.741  36.400  1.00  0.00     0.002 C 
HETATM    8  C6  UNL     1      43.882  77.595  37.384  1.00  0.00     0.002 C 
HETATM    9  C7  UNL     1      43.294  78.155  38.698  1.00  0.00     0.039 C 
BRANCH   5  10
HETATM   10  N2  UNL     1      41.593  79.215  37.424  1.00  0.00    -0.070 N 
ATOM     11  H23 UNL     1      41.612  79.796  36.585  1.00  0.00     0.275 HD
ATOM     12  H22 UNL     1      41.651  78.297  36.983  1.00  0.00     0.275 HD
ATOM     13  H21 UNL     1      40.717  79.327  37.934  1.00  0.00     0.275 HD
ENDBRANCH   5  10
ENDBRANCH   4   5
ENDBRANCH   3   4
TORSDOF 3
ENDMDL
