MODEL 1
REMARK VINA RESULT: -6.232900744      0.000      0.000
REMARK  5 active torsions:
REMARK  status: ('A' for Active; 'I' for Inactive)
REMARK    1  A    between atoms: C2_2  and  C3_3 
REMARK    2  A    between atoms: C3_3  and  C4_4 
REMARK    3  A    between atoms: C4_4  and  C5_5 
REMARK    4  A    between atoms: C5_5  and  C6_6 
REMARK    5  A    between atoms: C8_12  and  N3_13 
ROOT
HETATM    1  C6  UNL     1      44.077  35.755  86.695  1.00  0.00     0.005 A 
HETATM    2  C7  UNL     1      45.275  35.073  86.519  1.00  0.00     0.118 A 
HETATM    3  N1  UNL     1      45.061  34.050  85.673  1.00  0.00    -0.310 N 
ATOM      4  H1  UNL     1      45.760  33.377  85.360  1.00  0.00     0.186 HD
HETATM    5  N2  UNL     1      43.802  34.069  85.322  1.00  0.00    -0.285 N 
ATOM      6  H2  UNL     1      43.366  33.404  84.685  1.00  0.00     0.188 HD
HETATM    7  C8  UNL     1      43.151  35.108  85.931  1.00  0.00     0.139 A 
ENDROOT
BRANCH   7   8
HETATM    8  N3  UNL     1      41.776  35.397  85.748  1.00  0.00    -0.236 N 
HETATM    9  C9  UNL     1      41.348  36.026  84.630  1.00  0.00     0.189 A 
HETATM   10  S1  UNL     1      42.491  36.430  83.509  1.00  0.00    -0.040 SA
HETATM   11  N4  UNL     1      40.082  36.333  84.385  1.00  0.00    -0.312 N 
HETATM   12  C10 UNL     1      39.105  36.012  85.296  1.00  0.00     0.168 A 
ATOM     13  H4  UNL     1      39.832  36.810  83.518  1.00  0.00     0.170 HD
HETATM   14  C11 UNL     1      39.537  35.374  86.429  1.00  0.00     0.122 A 
HETATM   15  O2  UNL     1      37.783  36.254  85.191  1.00  0.00    -0.324 OA
HETATM   16  C12 UNL     1      40.850  35.065  86.665  1.00  0.00     0.277 A 
HETATM   17  S2  UNL     1      38.009  35.128  87.376  1.00  0.00    -0.093 SA
HETATM   18  O1  UNL     1      41.142  34.487  87.721  1.00  0.00    -0.266 OA
HETATM   19  C13 UNL     1      37.073  36.389  86.400  1.00  0.00     0.257 C 
ENDBRANCH   7   8
BRANCH   1  20
HETATM   20  C5  UNL     1      43.863  36.939  87.548  1.00  0.00     0.044 C 
BRANCH  20  21
HETATM   21  C4  UNL     1      45.025  37.181  88.501  1.00  0.00     0.005 C 
BRANCH  21  22
HETATM   22  C3  UNL     1      44.854  38.521  89.184  1.00  0.00    -0.000 C 
BRANCH  22  23
HETATM   23  C2  UNL     1      44.725  38.369  90.676  1.00  0.00    -0.005 C 
HETATM   24  C1  UNL     1      45.117  39.594  91.448  1.00  0.00     0.005 C 
ENDBRANCH  22  23
ENDBRANCH  21  22
ENDBRANCH  20  21
ENDBRANCH   1  20
TORSDOF 5
ENDMDL
MODEL 2
REMARK VINA RESULT: -5.975121045      3.087      6.353
REMARK  5 active torsions:
REMARK  status: ('A' for Active; 'I' for Inactive)
REMARK    1  A    between atoms: C2_2  and  C3_3 
REMARK    2  A    between atoms: C3_3  and  C4_4 
REMARK    3  A    between atoms: C4_4  and  C5_5 
REMARK    4  A    between atoms: C5_5  and  C6_6 
REMARK    5  A    between atoms: C8_12  and  N3_13 
ROOT
HETATM    1  C6  UNL     1      40.846  37.945  86.046  1.00  0.00     0.005 A 
HETATM    2  C7  UNL     1      40.356  39.126  85.500  1.00  0.00     0.118 A 
HETATM    3  N1  UNL     1      41.361  39.746  84.857  1.00  0.00    -0.310 N 
ATOM      4  H1  UNL     1      41.296  40.635  84.361  1.00  0.00     0.186 HD
HETATM    5  N2  UNL     1      42.435  39.011  84.978  1.00  0.00    -0.285 N 
ATOM      6  H2  UNL     1      43.346  39.244  84.585  1.00  0.00     0.188 HD
HETATM    7  C8  UNL     1      42.165  37.884  85.708  1.00  0.00     0.139 A 
ENDROOT
BRANCH   7   8
HETATM    8  N3  UNL     1      43.126  36.888  86.008  1.00  0.00    -0.236 N 
HETATM    9  C9  UNL     1      43.817  36.926  87.170  1.00  0.00     0.189 A 
HETATM   10  S1  UNL     1      43.486  38.172  88.203  1.00  0.00    -0.040 SA
HETATM   11  N4  UNL     1      44.732  36.035  87.524  1.00  0.00    -0.312 N 
HETATM   12  C10 UNL     1      45.033  34.986  86.689  1.00  0.00     0.168 A 
ATOM     13  H4  UNL     1      45.214  36.128  88.419  1.00  0.00     0.170 HD
HETATM   14  C11 UNL     1      44.334  34.945  85.512  1.00  0.00     0.122 A 
HETATM   15  O2  UNL     1      45.931  34.004  86.907  1.00  0.00    -0.324 OA
HETATM   16  C12 UNL     1      43.391  35.875  85.163  1.00  0.00     0.277 A 
HETATM   17  S2  UNL     1      44.992  33.469  84.688  1.00  0.00    -0.093 SA
HETATM   18  O1  UNL     1      42.812  35.752  84.075  1.00  0.00    -0.266 OA
HETATM   19  C13 UNL     1      46.495  33.406  85.763  1.00  0.00     0.257 C 
ENDBRANCH   7   8
BRANCH   1  20
HETATM   20  C5  UNL     1      40.079  36.965  86.837  1.00  0.00     0.044 C 
BRANCH  20  21
HETATM   21  C4  UNL     1      39.717  35.728  86.027  1.00  0.00     0.005 C 
BRANCH  21  22
HETATM   22  C3  UNL     1      38.839  34.814  86.857  1.00  0.00    -0.000 C 
BRANCH  22  23
HETATM   23  C2  UNL     1      37.404  34.866  86.406  1.00  0.00    -0.005 C 
HETATM   24  C1  UNL     1      37.229  35.322  84.988  1.00  0.00     0.005 C 
ENDBRANCH  22  23
ENDBRANCH  21  22
ENDBRANCH  20  21
ENDBRANCH   1  20
TORSDOF 5
ENDMDL
MODEL 3
REMARK VINA RESULT: -5.903959900      2.898      4.425
REMARK  5 active torsions:
REMARK  status: ('A' for Active; 'I' for Inactive)
REMARK    1  A    between atoms: C2_2  and  C3_3 
REMARK    2  A    between atoms: C3_3  and  C4_4 
REMARK    3  A    between atoms: C4_4  and  C5_5 
REMARK    4  A    between atoms: C5_5  and  C6_6 
REMARK    5  A    between atoms: C8_12  and  N3_13 
ROOT
HETATM    1  C6  UNL     1      42.873  35.613  84.834  1.00  0.00     0.005 A 
HETATM    2  C7  UNL     1      43.062  35.791  83.468  1.00  0.00     0.118 A 
HETATM    3  N1  UNL     1      42.110  36.624  83.013  1.00  0.00    -0.310 N 
ATOM      4  H1  UNL     1      41.998  36.936  82.049  1.00  0.00     0.186 HD
HETATM    5  N2  UNL     1      41.353  36.966  84.023  1.00  0.00    -0.285 N 
ATOM      6  H2  UNL     1      40.551  37.593  83.962  1.00  0.00     0.188 HD
HETATM    7  C8  UNL     1      41.787  36.363  85.173  1.00  0.00     0.139 A 
ENDROOT
BRANCH   7   8
HETATM    8  N3  UNL     1      41.175  36.539  86.438  1.00  0.00    -0.236 N 
HETATM    9  C9  UNL     1      41.681  37.420  87.331  1.00  0.00     0.189 A 
HETATM   10  S1  UNL     1      43.024  38.266  86.876  1.00  0.00    -0.040 SA
HETATM   11  N4  UNL     1      41.170  37.640  88.534  1.00  0.00    -0.312 N 
HETATM   12  C10 UNL     1      40.053  36.954  88.945  1.00  0.00     0.168 A 
ATOM     13  H4  UNL     1      41.607  38.321  89.156  1.00  0.00     0.170 HD
HETATM   14  C11 UNL     1      39.539  36.062  88.042  1.00  0.00     0.122 A 
HETATM   15  O2  UNL     1      39.419  37.068  90.129  1.00  0.00    -0.324 OA
HETATM   16  C12 UNL     1      40.081  35.848  86.803  1.00  0.00     0.277 A 
HETATM   17  S2  UNL     1      38.115  35.356  88.919  1.00  0.00    -0.093 SA
HETATM   18  O1  UNL     1      39.542  35.018  86.056  1.00  0.00    -0.266 OA
HETATM   19  C13 UNL     1      38.710  35.933  90.572  1.00  0.00     0.257 C 
ENDBRANCH   7   8
BRANCH   1  20
HETATM   20  C5  UNL     1      43.692  34.771  85.726  1.00  0.00     0.044 C 
BRANCH  20  21
HETATM   21  C4  UNL     1      44.542  33.771  84.955  1.00  0.00     0.005 C 
BRANCH  21  22
HETATM   22  C3  UNL     1      46.009  34.035  85.222  1.00  0.00    -0.000 C 
BRANCH  22  23
HETATM   23  C2  UNL     1      46.735  32.776  85.615  1.00  0.00    -0.005 C 
HETATM   24  C1  UNL     1      48.152  32.715  85.127  1.00  0.00     0.005 C 
ENDBRANCH  22  23
ENDBRANCH  21  22
ENDBRANCH  20  21
ENDBRANCH   1  20
TORSDOF 5
ENDMDL
MODEL 4
REMARK VINA RESULT: -5.883557172      3.210      5.100
REMARK  5 active torsions:
REMARK  status: ('A' for Active; 'I' for Inactive)
REMARK    1  A    between atoms: C2_2  and  C3_3 
REMARK    2  A    between atoms: C3_3  and  C4_4 
REMARK    3  A    between atoms: C4_4  and  C5_5 
REMARK    4  A    between atoms: C5_5  and  C6_6 
REMARK    5  A    between atoms: C8_12  and  N3_13 
ROOT
HETATM    1  C6  UNL     1      43.181  35.827  84.862  1.00  0.00     0.005 A 
HETATM    2  C7  UNL     1      43.101  35.758  83.477  1.00  0.00     0.118 A 
HETATM    3  N1  UNL     1      42.094  36.552  83.070  1.00  0.00    -0.310 N 
ATOM      4  H1  UNL     1      41.802  36.699  82.104  1.00  0.00     0.186 HD
HETATM    5  N2  UNL     1      41.557  37.100  84.127  1.00  0.00    -0.285 N 
ATOM      6  H2  UNL     1      40.772  37.750  84.109  1.00  0.00     0.188 HD
HETATM    7  C8  UNL     1      42.197  36.681  85.263  1.00  0.00     0.139 A 
ENDROOT
BRANCH   7   8
HETATM    8  N3  UNL     1      41.849  37.103  86.569  1.00  0.00    -0.236 N 
HETATM    9  C9  UNL     1      41.044  36.343  87.346  1.00  0.00     0.189 A 
HETATM   10  S1  UNL     1      40.502  34.920  86.704  1.00  0.00    -0.040 SA
HETATM   11  N4  UNL     1      40.670  36.667  88.576  1.00  0.00    -0.312 N 
HETATM   12  C10 UNL     1      41.102  37.843  89.141  1.00  0.00     0.168 A 
ATOM     13  H4  UNL     1      40.059  36.042  89.104  1.00  0.00     0.170 HD
HETATM   14  C11 UNL     1      41.917  38.614  88.356  1.00  0.00     0.122 A 
HETATM   15  O2  UNL     1      40.812  38.307  90.372  1.00  0.00    -0.324 OA
HETATM   16  C12 UNL     1      42.293  38.262  87.087  1.00  0.00     0.277 A 
HETATM   17  S2  UNL     1      42.266  40.053  89.405  1.00  0.00    -0.093 SA
HETATM   18  O1  UNL     1      43.034  39.027  86.455  1.00  0.00    -0.266 OA
HETATM   19  C13 UNL     1      40.846  39.706  90.538  1.00  0.00     0.257 C 
ENDBRANCH   7   8
BRANCH   1  20
HETATM   20  C5  UNL     1      44.143  35.107  85.718  1.00  0.00     0.044 C 
BRANCH  20  21
HETATM   21  C4  UNL     1      44.686  33.853  85.047  1.00  0.00     0.005 C 
BRANCH  21  22
HETATM   22  C3  UNL     1      46.198  33.913  85.000  1.00  0.00    -0.000 C 
BRANCH  22  23
HETATM   23  C2  UNL     1      46.820  32.704  85.645  1.00  0.00    -0.005 C 
HETATM   24  C1  UNL     1      48.245  32.466  85.242  1.00  0.00     0.005 C 
ENDBRANCH  22  23
ENDBRANCH  21  22
ENDBRANCH  20  21
ENDBRANCH   1  20
TORSDOF 5
ENDMDL
MODEL 5
REMARK VINA RESULT: -5.871445333      2.317      3.740
REMARK  5 active torsions:
REMARK  status: ('A' for Active; 'I' for Inactive)
REMARK    1  A    between atoms: C2_2  and  C3_3 
REMARK    2  A    between atoms: C3_3  and  C4_4 
REMARK    3  A    between atoms: C4_4  and  C5_5 
REMARK    4  A    between atoms: C5_5  and  C6_6 
REMARK    5  A    between atoms: C8_12  and  N3_13 
ROOT
HETATM    1  C6  UNL     1      43.891  35.518  86.481  1.00  0.00     0.005 A 
HETATM    2  C7  UNL     1      45.034  35.805  87.218  1.00  0.00     0.118 A 
HETATM    3  N1  UNL     1      44.726  36.743  88.131  1.00  0.00    -0.310 N 
ATOM      4  H1  UNL     1      45.368  37.149  88.812  1.00  0.00     0.186 HD
HETATM    5  N2  UNL     1      43.461  37.043  87.994  1.00  0.00    -0.285 N 
ATOM      6  H2  UNL     1      42.962  37.728  88.561  1.00  0.00     0.188 HD
HETATM    7  C8  UNL     1      42.901  36.310  86.983  1.00  0.00     0.139 A 
ENDROOT
BRANCH   7   8
HETATM    8  N3  UNL     1      41.543  36.406  86.594  1.00  0.00    -0.236 N 
HETATM    9  C9  UNL     1      41.126  37.415  85.795  1.00  0.00     0.189 A 
HETATM   10  S1  UNL     1      42.264  38.506  85.303  1.00  0.00    -0.040 SA
HETATM   11  N4  UNL     1      39.874  37.577  85.389  1.00  0.00    -0.312 N 
HETATM   12  C10 UNL     1      38.902  36.688  85.779  1.00  0.00     0.168 A 
ATOM     13  H4  UNL     1      39.633  38.364  84.786  1.00  0.00     0.170 HD
HETATM   14  C11 UNL     1      39.322  35.666  86.588  1.00  0.00     0.122 A 
HETATM   15  O2  UNL     1      37.595  36.717  85.451  1.00  0.00    -0.324 OA
HETATM   16  C12 UNL     1      40.620  35.515  86.997  1.00  0.00     0.277 A 
HETATM   17  S2  UNL     1      37.800  34.729  86.899  1.00  0.00    -0.093 SA
HETATM   18  O1  UNL     1      40.903  34.556  87.730  1.00  0.00    -0.266 OA
HETATM   19  C13 UNL     1      36.706  36.120  86.366  1.00  0.00     0.257 C 
ENDBRANCH   7   8
BRANCH   1  20
HETATM   20  C5  UNL     1      43.787  34.550  85.374  1.00  0.00     0.044 C 
BRANCH  20  21
HETATM   21  C4  UNL     1      45.122  34.322  84.679  1.00  0.00     0.005 C 
BRANCH  21  22
HETATM   22  C3  UNL     1      45.797  33.097  85.258  1.00  0.00    -0.000 C 
BRANCH  22  23
HETATM   23  C2  UNL     1      47.296  33.211  85.201  1.00  0.00    -0.005 C 
HETATM   24  C1  UNL     1      48.017  31.964  85.616  1.00  0.00     0.005 C 
ENDBRANCH  22  23
ENDBRANCH  21  22
ENDBRANCH  20  21
ENDBRANCH   1  20
TORSDOF 5
ENDMDL
