MODEL 1
REMARK VINA RESULT: -6.863763697      0.000      0.000
REMARK  5 active torsions:
REMARK  status: ('A' for Active; 'I' for Inactive)
REMARK    1  A    between atoms: O1_2  and  C2_3 
REMARK    2  A    between atoms: C4_5  and  C5_6 
REMARK    3  A    between atoms: C6_7  and  C7_8 
REMARK    4  A    between atoms: C9_15  and  N3_16 
REMARK    5  A    between atoms: C12_19  and  N4_20 
ROOT
HETATM    1  C7  UNL     1      41.204  35.844  85.228  1.00  0.00     0.071 A 
HETATM    2  N1  UNL     1      40.961  36.205  83.964  1.00  0.00    -0.331 N 
ATOM      3  H1  UNL     1      41.676  36.072  83.249  1.00  0.00     0.168 HD
HETATM    4  C8  UNL     1      39.791  36.735  83.640  1.00  0.00     0.178 A 
HETATM    5  S1  UNL     1      39.507  37.174  82.075  1.00  0.00    -0.040 SA
HETATM    6  N2  UNL     1      38.878  36.898  84.588  1.00  0.00    -0.317 N 
ATOM      7  H2  UNL     1      37.981  37.308  84.329  1.00  0.00     0.170 HD
HETATM    8  C9  UNL     1      39.075  36.545  85.901  1.00  0.00     0.140 A 
HETATM    9  C12 UNL     1      40.268  35.999  86.256  1.00  0.00     0.173 A 
ENDROOT
BRANCH   1  10
HETATM   10  C6  UNL     1      42.508  35.268  85.560  1.00  0.00     0.033 C 
HETATM   11  C5  UNL     1      43.357  34.905  84.594  1.00  0.00     0.015 C 
BRANCH  11  12
HETATM   12  C4  UNL     1      44.651  34.335  84.911  1.00  0.00    -0.017 A 
HETATM   13  C3  UNL     1      44.962  33.020  85.137  1.00  0.00     0.068 A 
HETATM   14  C2  UNL     1      46.331  32.954  85.381  1.00  0.00     0.142 A 
HETATM   15  N5  UNL     1      46.853  34.189  85.308  1.00  0.00    -0.346 N 
HETATM   16  C13 UNL     1      45.834  35.044  85.021  1.00  0.00     0.101 A 
ATOM     17  H5  UNL     1      47.832  34.440  85.443  1.00  0.00     0.167 HD
BRANCH  14  18
HETATM   18  O1  UNL     1      47.042  31.784  85.658  1.00  0.00    -0.341 OA
HETATM   19  C1  UNL     1      48.459  31.771  85.704  1.00  0.00     0.211 C 
ENDBRANCH  14  18
ENDBRANCH  11  12
ENDBRANCH   1  10
BRANCH   9  20
HETATM   20  N4  UNL     1      40.610  35.605  87.572  1.00  0.00    -0.109 N 
HETATM   21  O2  UNL     1      41.030  36.448  88.408  1.00  0.00    -0.532 OA
HETATM   22  O3  UNL     1      40.514  34.313  87.994  1.00  0.00    -0.532 OA
ENDBRANCH   9  20
BRANCH   8  23
HETATM   23  N3  UNL     1      38.018  36.738  86.812  1.00  0.00    -0.374 N 
HETATM   24  C10 UNL     1      37.794  37.923  87.605  1.00  0.00     0.150 C 
HETATM   25  C11 UNL     1      37.065  35.630  86.923  1.00  0.00     0.150 C 
ENDBRANCH   8  23
TORSDOF 5
ENDMDL
MODEL 2
REMARK VINA RESULT: -6.187971222      0.949      1.094
REMARK  5 active torsions:
REMARK  status: ('A' for Active; 'I' for Inactive)
REMARK    1  A    between atoms: O1_2  and  C2_3 
REMARK    2  A    between atoms: C4_5  and  C5_6 
REMARK    3  A    between atoms: C6_7  and  C7_8 
REMARK    4  A    between atoms: C9_15  and  N3_16 
REMARK    5  A    between atoms: C12_19  and  N4_20 
ROOT
HETATM    1  C7  UNL     1      41.344  36.522  85.004  1.00  0.00     0.071 A 
HETATM    2  N1  UNL     1      40.937  36.479  83.731  1.00  0.00    -0.331 N 
ATOM      3  H1  UNL     1      41.513  36.019  83.026  1.00  0.00     0.168 HD
HETATM    4  C8  UNL     1      39.785  37.035  83.385  1.00  0.00     0.178 A 
HETATM    5  S1  UNL     1      39.298  36.973  81.810  1.00  0.00    -0.040 SA
HETATM    6  N2  UNL     1      39.056  37.628  84.321  1.00  0.00    -0.317 N 
ATOM      7  H2  UNL     1      38.171  38.053  84.044  1.00  0.00     0.170 HD
HETATM    8  C9  UNL     1      39.426  37.699  85.641  1.00  0.00     0.140 A 
HETATM    9  C12 UNL     1      40.603  37.136  86.019  1.00  0.00     0.173 A 
ENDROOT
BRANCH   1  10
HETATM   10  C6  UNL     1      42.624  35.906  85.357  1.00  0.00     0.033 C 
HETATM   11  C5  UNL     1      43.249  35.095  84.498  1.00  0.00     0.015 C 
BRANCH  11  12
HETATM   12  C4  UNL     1      44.517  34.481  84.836  1.00  0.00    -0.017 A 
HETATM   13  C3  UNL     1      44.781  33.156  85.061  1.00  0.00     0.068 A 
HETATM   14  C2  UNL     1      46.142  33.043  85.331  1.00  0.00     0.142 A 
HETATM   15  N5  UNL     1      46.705  34.261  85.276  1.00  0.00    -0.346 N 
HETATM   16  C13 UNL     1      45.720  35.150  84.974  1.00  0.00     0.101 A 
ATOM     17  H5  UNL     1      47.689  34.480  85.431  1.00  0.00     0.167 HD
BRANCH  14  18
HETATM   18  O1  UNL     1      46.808  31.849  85.615  1.00  0.00    -0.341 OA
HETATM   19  C1  UNL     1      48.221  31.797  85.727  1.00  0.00     0.211 C 
ENDBRANCH  14  18
ENDBRANCH  11  12
ENDBRANCH   1  10
BRANCH   9  20
HETATM   20  N4  UNL     1      41.112  37.150  87.339  1.00  0.00    -0.109 N 
HETATM   21  O2  UNL     1      41.859  38.085  87.732  1.00  0.00    -0.532 OA
HETATM   22  O3  UNL     1      40.834  36.164  88.238  1.00  0.00    -0.532 OA
ENDBRANCH   9  20
BRANCH   8  23
HETATM   23  N3  UNL     1      38.550  38.329  86.548  1.00  0.00    -0.374 N 
HETATM   24  C10 UNL     1      38.633  39.701  86.986  1.00  0.00     0.150 C 
HETATM   25  C11 UNL     1      37.455  37.497  87.055  1.00  0.00     0.150 C 
ENDBRANCH   8  23
TORSDOF 5
ENDMDL
MODEL 3
REMARK VINA RESULT: -6.041506544      2.221      2.565
REMARK  5 active torsions:
REMARK  status: ('A' for Active; 'I' for Inactive)
REMARK    1  A    between atoms: O1_2  and  C2_3 
REMARK    2  A    between atoms: C4_5  and  C5_6 
REMARK    3  A    between atoms: C6_7  and  C7_8 
REMARK    4  A    between atoms: C9_15  and  N3_16 
REMARK    5  A    between atoms: C12_19  and  N4_20 
ROOT
HETATM    1  C7  UNL     1      41.216  36.922  84.313  1.00  0.00     0.071 A 
HETATM    2  N1  UNL     1      40.681  36.550  83.146  1.00  0.00    -0.331 N 
ATOM      3  H1  UNL     1      40.943  35.659  82.725  1.00  0.00     0.168 HD
HETATM    4  C8  UNL     1      39.809  37.340  82.536  1.00  0.00     0.178 A 
HETATM    5  S1  UNL     1      39.158  36.866  81.096  1.00  0.00    -0.040 SA
HETATM    6  N2  UNL     1      39.485  38.493  83.104  1.00  0.00    -0.317 N 
ATOM      7  H2  UNL     1      38.814  39.094  82.626  1.00  0.00     0.170 HD
HETATM    8  C9  UNL     1      40.004  38.923  84.301  1.00  0.00     0.140 A 
HETATM    9  C12 UNL     1      40.900  38.130  84.944  1.00  0.00     0.173 A 
ENDROOT
BRANCH   1  10
HETATM   10  C6  UNL     1      42.183  36.034  84.962  1.00  0.00     0.033 C 
HETATM   11  C5  UNL     1      43.408  35.875  84.454  1.00  0.00     0.015 C 
BRANCH  11  12
HETATM   12  C4  UNL     1      44.374  35.000  85.087  1.00  0.00    -0.017 A 
HETATM   13  C3  UNL     1      44.855  33.802  84.631  1.00  0.00     0.068 A 
HETATM   14  C2  UNL     1      45.776  33.341  85.567  1.00  0.00     0.142 A 
HETATM   15  N5  UNL     1      45.863  34.226  86.574  1.00  0.00    -0.346 N 
HETATM   16  C13 UNL     1      45.009  35.246  86.291  1.00  0.00     0.101 A 
ATOM     17  H5  UNL     1      46.460  34.147  87.397  1.00  0.00     0.167 HD
BRANCH  14  18
HETATM   18  O1  UNL     1      46.491  32.145  85.469  1.00  0.00    -0.341 OA
HETATM   19  C1  UNL     1      47.899  32.107  85.636  1.00  0.00     0.211 C 
ENDBRANCH  14  18
ENDBRANCH  11  12
ENDBRANCH   1  10
BRANCH   9  20
HETATM   20  N4  UNL     1      41.522  38.454  86.173  1.00  0.00    -0.109 N 
HETATM   21  O2  UNL     1      42.604  39.102  86.196  1.00  0.00    -0.532 OA
HETATM   22  O3  UNL     1      41.001  38.083  87.376  1.00  0.00    -0.532 OA
ENDBRANCH   9  20
BRANCH   8  23
HETATM   23  N3  UNL     1      39.558  40.155  84.820  1.00  0.00    -0.374 N 
HETATM   24  C10 UNL     1      40.171  41.440  84.584  1.00  0.00     0.150 C 
HETATM   25  C11 UNL     1      38.350  40.095  85.648  1.00  0.00     0.150 C 
ENDBRANCH   8  23
TORSDOF 5
ENDMDL
MODEL 4
REMARK VINA RESULT: -5.994331047      2.826      3.266
REMARK  5 active torsions:
REMARK  status: ('A' for Active; 'I' for Inactive)
REMARK    1  A    between atoms: O1_2  and  C2_3 
REMARK    2  A    between atoms: C4_5  and  C5_6 
REMARK    3  A    between atoms: C6_7  and  C7_8 
REMARK    4  A    between atoms: C9_15  and  N3_16 
REMARK    5  A    between atoms: C12_19  and  N4_20 
ROOT
HETATM    1  C7  UNL     1      42.388  37.165  87.432  1.00  0.00     0.071 A 
HETATM    2  N1  UNL     1      42.940  38.301  87.873  1.00  0.00    -0.331 N 
ATOM      3  H1  UNL     1      43.886  38.552  87.587  1.00  0.00     0.168 HD
HETATM    4  C8  UNL     1      42.258  39.099  88.680  1.00  0.00     0.178 A 
HETATM    5  S1  UNL     1      42.954  40.496  89.214  1.00  0.00    -0.040 SA
HETATM    6  N2  UNL     1      41.030  38.749  89.037  1.00  0.00    -0.317 N 
ATOM      7  H2  UNL     1      40.514  39.369  89.660  1.00  0.00     0.170 HD
HETATM    8  C9  UNL     1      40.415  37.595  88.614  1.00  0.00     0.140 A 
HETATM    9  C12 UNL     1      41.096  36.761  87.786  1.00  0.00     0.173 A 
ENDROOT
BRANCH   1  10
HETATM   10  C6  UNL     1      43.167  36.298  86.547  1.00  0.00     0.033 C 
HETATM   11  C5  UNL     1      44.235  35.639  87.008  1.00  0.00     0.015 C 
BRANCH  11  12
HETATM   12  C4  UNL     1      45.013  34.776  86.141  1.00  0.00    -0.017 A 
HETATM   13  C3  UNL     1      45.959  33.852  86.498  1.00  0.00     0.068 A 
HETATM   14  C2  UNL     1      46.417  33.255  85.327  1.00  0.00     0.142 A 
HETATM   15  N5  UNL     1      45.776  33.792  84.277  1.00  0.00    -0.346 N 
HETATM   16  C13 UNL     1      44.913  34.725  84.763  1.00  0.00     0.101 A 
ATOM     17  H5  UNL     1      45.910  33.546  83.296  1.00  0.00     0.167 HD
BRANCH  14  18
HETATM   18  O1  UNL     1      47.392  32.256  85.264  1.00  0.00    -0.341 OA
HETATM   19  C1  UNL     1      48.749  32.562  84.988  1.00  0.00     0.211 C 
ENDBRANCH  14  18
ENDBRANCH  11  12
ENDBRANCH   1  10
BRANCH   9  20
HETATM   20  N4  UNL     1      40.591  35.537  87.287  1.00  0.00    -0.109 N 
HETATM   21  O2  UNL     1      39.884  35.509  86.244  1.00  0.00    -0.532 OA
HETATM   22  O3  UNL     1      40.829  34.345  87.902  1.00  0.00    -0.532 OA
ENDBRANCH   9  20
BRANCH   8  23
HETATM   23  N3  UNL     1      39.094  37.347  89.037  1.00  0.00    -0.374 N 
HETATM   24  C10 UNL     1      37.896  37.709  88.318  1.00  0.00     0.150 C 
HETATM   25  C11 UNL     1      38.959  36.637  90.313  1.00  0.00     0.150 C 
ENDBRANCH   8  23
TORSDOF 5
ENDMDL
MODEL 5
REMARK VINA RESULT: -5.976431460      1.590      1.779
REMARK  5 active torsions:
REMARK  status: ('A' for Active; 'I' for Inactive)
REMARK    1  A    between atoms: O1_2  and  C2_3 
REMARK    2  A    between atoms: C4_5  and  C5_6 
REMARK    3  A    between atoms: C6_7  and  C7_8 
REMARK    4  A    between atoms: C9_15  and  N3_16 
REMARK    5  A    between atoms: C12_19  and  N4_20 
ROOT
HETATM    1  C7  UNL     1      40.960  36.635  85.781  1.00  0.00     0.071 A 
HETATM    2  N1  UNL     1      41.045  37.863  85.261  1.00  0.00    -0.331 N 
ATOM      3  H1  UNL     1      41.849  38.120  84.688  1.00  0.00     0.168 HD
HETATM    4  C8  UNL     1      40.085  38.747  85.489  1.00  0.00     0.178 A 
HETATM    5  S1  UNL     1      40.206  40.259  84.839  1.00  0.00    -0.040 SA
HETATM    6  N2  UNL     1      39.051  38.388  86.238  1.00  0.00    -0.317 N 
ATOM      7  H2  UNL     1      38.318  39.076  86.409  1.00  0.00     0.170 HD
HETATM    8  C9  UNL     1      38.914  37.140  86.796  1.00  0.00     0.140 A 
HETATM    9  C12 UNL     1      39.886  36.218  86.575  1.00  0.00     0.173 A 
ENDROOT
BRANCH   1  10
HETATM   10  C6  UNL     1      42.039  35.680  85.519  1.00  0.00     0.033 C 
HETATM   11  C5  UNL     1      43.304  35.982  85.826  1.00  0.00     0.015 C 
BRANCH  11  12
HETATM   12  C4  UNL     1      44.380  35.046  85.572  1.00  0.00    -0.017 A 
HETATM   13  C3  UNL     1      45.145  34.371  86.486  1.00  0.00     0.068 A 
HETATM   14  C2  UNL     1      46.034  33.571  85.773  1.00  0.00     0.142 A 
HETATM   15  N5  UNL     1      45.828  33.745  84.457  1.00  0.00    -0.346 N 
HETATM   16  C13 UNL     1      44.817  34.646  84.322  1.00  0.00     0.101 A 
ATOM     17  H5  UNL     1      46.334  33.287  83.700  1.00  0.00     0.167 HD
BRANCH  14  18
HETATM   18  O1  UNL     1      46.989  32.726  86.343  1.00  0.00    -0.341 OA
HETATM   19  C1  UNL     1      47.977  32.084  85.553  1.00  0.00     0.211 C 
ENDBRANCH  14  18
ENDBRANCH  11  12
ENDBRANCH   1  10
BRANCH   9  20
HETATM   20  N4  UNL     1      39.880  34.903  87.099  1.00  0.00    -0.109 N 
HETATM   21  O2  UNL     1      39.073  34.039  86.662  1.00  0.00    -0.532 OA
HETATM   22  O3  UNL     1      40.724  34.511  88.094  1.00  0.00    -0.532 OA
ENDBRANCH   9  20
BRANCH   8  23
HETATM   23  N3  UNL     1      37.753  36.867  87.547  1.00  0.00    -0.374 N 
HETATM   24  C10 UNL     1      37.655  36.896  88.987  1.00  0.00     0.150 C 
HETATM   25  C11 UNL     1      36.551  36.554  86.768  1.00  0.00     0.150 C 
ENDBRANCH   8  23
TORSDOF 5
ENDMDL
