MODEL 1
REMARK VINA RESULT: -4.982831481      0.000      0.000
REMARK  3 active torsions:
REMARK  status: ('A' for Active; 'I' for Inactive)
REMARK    1  A    between atoms: C1_2  and  N1_3 
REMARK    2  A    between atoms: N1_3  and  C2_5 
REMARK    3  A    between atoms: C2_5  and  C3_6 
ROOT
HETATM    1  C3  UNL     1      26.071  15.130  11.177  1.00  0.00     0.025 A 
HETATM    2  S1  UNL     1      25.078  16.057  12.203  1.00  0.00    -0.084 SA
HETATM    3  C4  UNL     1      23.613  15.212  12.015  1.00  0.00     0.053 A 
HETATM    4 BR1  UNL     1      21.900  15.570  12.831  1.00  0.00    -0.043 Br
HETATM    5  C5  UNL     1      23.943  14.211  11.140  1.00  0.00     0.051 A 
HETATM    6  C6  UNL     1      25.220  14.173  10.708  1.00  0.00     0.050 A 
HETATM    7 CL2  UNL     1      25.784  12.923   9.567  1.00  0.00    -0.083 Cl
ENDROOT
BRANCH   1   8
HETATM    8  C2  UNL     1      27.523  15.333  10.876  1.00  0.00     0.193 C 
BRANCH   8   9
HETATM    9  N1  UNL     1      28.237  14.236  11.486  1.00  0.00    -0.262 N 
HETATM   10 CL1  UNL     1      27.831  13.769  13.104  1.00  0.00     0.016 Cl
BRANCH   9  11
HETATM   11  C1  UNL     1      29.245  13.580  10.734  1.00  0.00     0.366 C 
HETATM   12  O1  UNL     1      29.223  13.669   9.462  1.00  0.00    -0.282 OA
ENDBRANCH   9  11
ENDBRANCH   8   9
ENDBRANCH   1   8
TORSDOF 3
ENDMDL
MODEL 2
REMARK VINA RESULT: -4.733094530      1.329      2.200
REMARK  3 active torsions:
REMARK  status: ('A' for Active; 'I' for Inactive)
REMARK    1  A    between atoms: C1_2  and  N1_3 
REMARK    2  A    between atoms: N1_3  and  C2_5 
REMARK    3  A    between atoms: C2_5  and  C3_6 
ROOT
HETATM    1  C3  UNL     1      26.899  14.911  11.397  1.00  0.00     0.025 A 
HETATM    2  S1  UNL     1      25.429  15.712  11.089  1.00  0.00    -0.084 SA
HETATM    3  C4  UNL     1      24.537  15.190  12.442  1.00  0.00     0.053 A 
HETATM    4 BR1  UNL     1      22.717  15.617  12.924  1.00  0.00    -0.043 Br
HETATM    5  C5  UNL     1      25.426  14.391  13.110  1.00  0.00     0.051 A 
HETATM    6  C6  UNL     1      26.651  14.248  12.563  1.00  0.00     0.050 A 
HETATM    7 CL2  UNL     1      27.904  13.236  13.329  1.00  0.00    -0.083 Cl
ENDROOT
BRANCH   1   8
HETATM    8  C2  UNL     1      28.150  14.939  10.574  1.00  0.00     0.193 C 
BRANCH   8   9
HETATM    9  N1  UNL     1      28.275  13.639   9.957  1.00  0.00    -0.262 N 
HETATM   10 CL1  UNL     1      26.852  12.854   9.359  1.00  0.00     0.016 Cl
BRANCH   9  11
HETATM   11  C1  UNL     1      29.564  13.053   9.865  1.00  0.00     0.366 C 
HETATM   12  O1  UNL     1      30.365  13.165  10.851  1.00  0.00    -0.282 OA
ENDBRANCH   9  11
ENDBRANCH   8   9
ENDBRANCH   1   8
TORSDOF 3
ENDMDL
MODEL 3
REMARK VINA RESULT: -4.712602669      1.788      1.897
REMARK  3 active torsions:
REMARK  status: ('A' for Active; 'I' for Inactive)
REMARK    1  A    between atoms: C1_2  and  N1_3 
REMARK    2  A    between atoms: N1_3  and  C2_5 
REMARK    3  A    between atoms: C2_5  and  C3_6 
ROOT
HETATM    1  C3  UNL     1      24.969  14.460  12.523  1.00  0.00     0.025 A 
HETATM    2  S1  UNL     1      23.835  15.446  13.321  1.00  0.00    -0.084 SA
HETATM    3  C4  UNL     1      22.500  15.235  12.286  1.00  0.00     0.053 A 
HETATM    4 BR1  UNL     1      20.734  16.002  12.424  1.00  0.00    -0.043 Br
HETATM    5  C5  UNL     1      22.984  14.385  11.327  1.00  0.00     0.051 A 
HETATM    6  C6  UNL     1      24.266  13.986  11.454  1.00  0.00     0.050 A 
HETATM    7 CL2  UNL     1      25.021  12.880  10.275  1.00  0.00    -0.083 Cl
ENDROOT
BRANCH   1   8
HETATM    8  C2  UNL     1      26.389  14.192  12.913  1.00  0.00     0.193 C 
BRANCH   8   9
HETATM    9  N1  UNL     1      27.224  14.816  11.914  1.00  0.00    -0.262 N 
HETATM   10 CL1  UNL     1      26.711  16.312  11.208  1.00  0.00     0.016 Cl
BRANCH   9  11
HETATM   11  C1  UNL     1      28.437  14.177  11.547  1.00  0.00     0.366 C 
HETATM   12  O1  UNL     1      29.003  13.399  12.385  1.00  0.00    -0.282 OA
ENDBRANCH   9  11
ENDBRANCH   8   9
ENDBRANCH   1   8
TORSDOF 3
ENDMDL
MODEL 4
REMARK VINA RESULT: -4.606511745      4.001      5.193
REMARK  3 active torsions:
REMARK  status: ('A' for Active; 'I' for Inactive)
REMARK    1  A    between atoms: C1_2  and  N1_3 
REMARK    2  A    between atoms: N1_3  and  C2_5 
REMARK    3  A    between atoms: C2_5  and  C3_6 
ROOT
HETATM    1  C3  UNL     1      27.630  15.059  11.193  1.00  0.00     0.025 A 
HETATM    2  S1  UNL     1      28.503  14.956   9.735  1.00  0.00    -0.084 SA
HETATM    3  C4  UNL     1      29.474  13.601  10.084  1.00  0.00     0.053 A 
HETATM    4 BR1  UNL     1      30.800  12.749   8.970  1.00  0.00    -0.043 Br
HETATM    5  C5  UNL     1      29.083  13.259  11.352  1.00  0.00     0.051 A 
HETATM    6  C6  UNL     1      28.127  14.019  11.923  1.00  0.00     0.050 A 
HETATM    7 CL2  UNL     1      27.527  13.685  13.570  1.00  0.00    -0.083 Cl
ENDROOT
BRANCH   1   8
HETATM    8  C2  UNL     1      26.578  16.057  11.564  1.00  0.00     0.193 C 
BRANCH   8   9
HETATM    9  N1  UNL     1      25.325  15.342  11.626  1.00  0.00    -0.262 N 
HETATM   10 CL1  UNL     1      24.982  14.146  10.422  1.00  0.00     0.016 Cl
BRANCH   9  11
HETATM   11  C1  UNL     1      24.420  15.648  12.675  1.00  0.00     0.366 C 
HETATM   12  O1  UNL     1      23.997  14.704  13.421  1.00  0.00    -0.282 OA
ENDBRANCH   9  11
ENDBRANCH   8   9
ENDBRANCH   1   8
TORSDOF 3
ENDMDL
MODEL 5
REMARK VINA RESULT: -4.594202640      1.562      1.562
REMARK  3 active torsions:
REMARK  status: ('A' for Active; 'I' for Inactive)
REMARK    1  A    between atoms: C1_2  and  N1_3 
REMARK    2  A    between atoms: N1_3  and  C2_5 
REMARK    3  A    between atoms: C2_5  and  C3_6 
ROOT
HETATM    1  C3  UNL     1      25.893  15.317  11.087  1.00  0.00     0.025 A 
HETATM    2  S1  UNL     1      25.013  16.206  12.242  1.00  0.00    -0.084 SA
HETATM    3  C4  UNL     1      23.639  15.210  12.377  1.00  0.00     0.053 A 
HETATM    4 BR1  UNL     1      22.080  15.450  13.489  1.00  0.00    -0.043 Br
HETATM    5  C5  UNL     1      23.908  14.191  11.501  1.00  0.00     0.051 A 
HETATM    6  C6  UNL     1      25.079  14.252  10.834  1.00  0.00     0.050 A 
HETATM    7 CL2  UNL     1      25.554  12.991   9.664  1.00  0.00    -0.083 Cl
ENDROOT
BRANCH   1   8
HETATM    8  C2  UNL     1      27.232  15.643  10.503  1.00  0.00     0.193 C 
BRANCH   8   9
HETATM    9  N1  UNL     1      28.137  14.598  10.920  1.00  0.00    -0.262 N 
HETATM   10 CL1  UNL     1      29.029  13.731   9.715  1.00  0.00     0.016 Cl
BRANCH   9  11
HETATM   11  C1  UNL     1      28.262  14.321  12.306  1.00  0.00     0.366 C 
HETATM   12  O1  UNL     1      28.822  13.235  12.671  1.00  0.00    -0.282 OA
ENDBRANCH   9  11
ENDBRANCH   8   9
ENDBRANCH   1   8
TORSDOF 3
ENDMDL
