MODEL 1
REMARK VINA RESULT: -6.719999256      0.000      0.000
REMARK  7 active torsions:
REMARK  status: ('A' for Active; 'I' for Inactive)
REMARK    1  A    between atoms: C2_2  and  C3_3 
REMARK    2  A    between atoms: C2_2  and  C4_6 
REMARK    3  A    between atoms: C3_3  and  O1_4 
REMARK    4  A    between atoms: C4_6  and  C6_8 
REMARK    5  A    between atoms: C7_9  and  C8_10 
REMARK    6  A    between atoms: C8_10  and  C10_12 
REMARK    7  A    between atoms: C12_16  and  C13_17 
ROOT
HETATM    1  C10 UNL     1      41.451  36.852  84.302  1.00  0.00     0.207 A 
HETATM    2  O2  UNL     1      41.316  38.062  83.607  1.00  0.00    -0.279 OA
HETATM    3  C11 UNL     1      41.347  39.081  84.581  1.00  0.00     0.270 C 
HETATM    4  O3  UNL     1      40.672  40.160  84.545  1.00  0.00    -0.265 OA
HETATM    5  C12 UNL     1      42.312  38.591  85.590  1.00  0.00     0.143 C 
HETATM    6  C22 UNL     1      42.067  37.107  85.566  1.00  0.00     0.204 A 
HETATM    7  O5  UNL     1      40.769  36.627  85.469  1.00  0.00    -0.340 OA
ENDROOT
BRANCH   5   8
HETATM    8  C13 UNL     1      42.016  39.226  86.919  1.00  0.00     0.100 C 
HETATM    9  C14 UNL     1      43.324  39.586  87.569  1.00  0.00     0.044 C 
HETATM   10  C15 UNL     1      43.407  39.311  89.033  1.00  0.00     0.029 C 
HETATM   11  C16 UNL     1      42.704  40.336  89.857  1.00  0.00     0.024 C 
HETATM   12  C17 UNL     1      44.855  39.315  89.398  1.00  0.00     0.136 C 
HETATM   13  C20 UNL     1      43.035  37.888  89.392  1.00  0.00     0.068 C 
HETATM   14  O4  UNL     1      45.484  40.332  89.602  1.00  0.00    -0.297 OA
HETATM   15  C18 UNL     1      45.380  37.923  89.468  1.00  0.00     0.080 C 
HETATM   16  C19 UNL     1      44.219  37.112  88.922  1.00  0.00     0.021 C 
HETATM   17  C21 UNL     1      41.764  37.551  88.708  1.00  0.00     0.076 C 
HETATM   18  N1  UNL     1      41.194  36.437  89.006  1.00  0.00    -0.389 N 
HETATM   19  N2  UNL     1      41.157  38.405  87.748  1.00  0.00    -0.374 N 
ATOM     20  H12 UNL     1      41.630  35.825  89.695  1.00  0.00     0.157 HD
ATOM     21  H11 UNL     1      40.320  36.206  88.535  1.00  0.00     0.157 HD
ATOM     22  H2  UNL     1      40.143  38.439  87.645  1.00  0.00     0.161 HD
ENDBRANCH   5   8
BRANCH   1  23
HETATM   23  C8  UNL     1      41.669  35.606  83.461  1.00  0.00     0.070 C 
HETATM   24  C9  UNL     1      40.635  35.576  82.412  1.00  0.00     0.020 C 
BRANCH  23  25
HETATM   25  C7  UNL     1      43.065  35.394  83.112  1.00  0.00    -0.020 C 
HETATM   26  C6  UNL     1      43.955  34.527  83.450  1.00  0.00    -0.022 C 
BRANCH  26  27
HETATM   27  C4  UNL     1      43.935  33.368  84.344  1.00  0.00     0.034 C 
HETATM   28  C5  UNL     1      45.378  32.818  84.488  1.00  0.00     0.019 C 
BRANCH  27  29
HETATM   29  C2  UNL     1      43.516  33.714  85.729  1.00  0.00    -0.059 C 
HETATM   30  C1  UNL     1      44.366  34.251  86.570  1.00  0.00     0.017 C 
BRANCH  29  31
HETATM   31  C3  UNL     1      42.128  33.443  86.143  1.00  0.00     0.198 C 
BRANCH  31  32
HETATM   32  O1  UNL     1      41.789  34.235  87.231  1.00  0.00    -0.397 OA
ATOM     33  H1  UNL     1      40.844  34.302  87.306  1.00  0.00     0.209 HD
ENDBRANCH  31  32
ENDBRANCH  29  31
ENDBRANCH  27  29
ENDBRANCH  26  27
ENDBRANCH  23  25
ENDBRANCH   1  23
TORSDOF 7
ENDMDL
MODEL 2
REMARK VINA RESULT: -6.641804364      4.363      7.035
REMARK  7 active torsions:
REMARK  status: ('A' for Active; 'I' for Inactive)
REMARK    1  A    between atoms: C2_2  and  C3_3 
REMARK    2  A    between atoms: C2_2  and  C4_6 
REMARK    3  A    between atoms: C3_3  and  O1_4 
REMARK    4  A    between atoms: C4_6  and  C6_8 
REMARK    5  A    between atoms: C7_9  and  C8_10 
REMARK    6  A    between atoms: C8_10  and  C10_12 
REMARK    7  A    between atoms: C12_16  and  C13_17 
ROOT
HETATM    1  C10 UNL     1      43.284  40.777  84.533  1.00  0.00     0.207 A 
HETATM    2  O2  UNL     1      43.508  40.733  85.916  1.00  0.00    -0.279 OA
HETATM    3  C11 UNL     1      42.763  39.639  86.401  1.00  0.00     0.270 C 
HETATM    4  O3  UNL     1      42.165  39.590  87.524  1.00  0.00    -0.265 OA
HETATM    5  C12 UNL     1      42.855  38.628  85.324  1.00  0.00     0.143 C 
HETATM    6  C22 UNL     1      42.863  39.486  84.087  1.00  0.00     0.204 A 
HETATM    7  O5  UNL     1      42.029  40.592  84.014  1.00  0.00    -0.340 OA
ENDROOT
BRANCH   5   8
HETATM    8  C13 UNL     1      41.677  37.700  85.401  1.00  0.00     0.100 C 
HETATM    9  C14 UNL     1      42.134  36.411  86.026  1.00  0.00     0.044 C 
HETATM   10  C15 UNL     1      41.589  35.169  85.404  1.00  0.00     0.029 C 
HETATM   11  C16 UNL     1      40.185  34.882  85.816  1.00  0.00     0.024 C 
HETATM   12  C17 UNL     1      42.458  34.040  85.846  1.00  0.00     0.136 C 
HETATM   13  C20 UNL     1      41.802  35.114  83.906  1.00  0.00     0.068 C 
HETATM   14  O4  UNL     1      42.338  33.494  86.923  1.00  0.00    -0.297 OA
HETATM   15  C18 UNL     1      43.455  33.704  84.793  1.00  0.00     0.080 C 
HETATM   16  C19 UNL     1      43.263  34.831  83.794  1.00  0.00     0.021 C 
HETATM   17  C21 UNL     1      41.378  36.409  83.325  1.00  0.00     0.076 C 
HETATM   18  N1  UNL     1      41.334  36.511  82.044  1.00  0.00    -0.389 N 
HETATM   19  N2  UNL     1      41.019  37.529  84.122  1.00  0.00    -0.374 N 
ATOM     20  H12 UNL     1      41.592  35.707  81.472  1.00  0.00     0.157 HD
ATOM     21  H11 UNL     1      41.042  37.403  81.644  1.00  0.00     0.157 HD
ATOM     22  H2  UNL     1      40.316  38.196  83.801  1.00  0.00     0.161 HD
ENDBRANCH   5   8
BRANCH   1  23
HETATM   23  C8  UNL     1      44.150  41.735  83.734  1.00  0.00     0.070 C 
HETATM   24  C9  UNL     1      43.269  42.738  83.113  1.00  0.00     0.020 C 
BRANCH  23  25
HETATM   25  C7  UNL     1      45.340  42.160  84.455  1.00  0.00    -0.020 C 
HETATM   26  C6  UNL     1      46.548  42.445  84.110  1.00  0.00    -0.022 C 
BRANCH  26  27
HETATM   27  C4  UNL     1      47.243  42.464  82.822  1.00  0.00     0.034 C 
HETATM   28  C5  UNL     1      46.847  43.753  82.054  1.00  0.00     0.019 C 
BRANCH  27  29
HETATM   29  C2  UNL     1      48.721  42.542  82.965  1.00  0.00    -0.059 C 
HETATM   30  C1  UNL     1      49.270  43.404  83.786  1.00  0.00     0.017 C 
BRANCH  29  31
HETATM   31  C3  UNL     1      49.564  41.632  82.167  1.00  0.00     0.198 C 
BRANCH  31  32
HETATM   32  O1  UNL     1      48.972  40.380  82.084  1.00  0.00    -0.397 OA
ATOM     33  H1  UNL     1      48.753  40.180  81.182  1.00  0.00     0.209 HD
ENDBRANCH  31  32
ENDBRANCH  29  31
ENDBRANCH  27  29
ENDBRANCH  26  27
ENDBRANCH  23  25
ENDBRANCH   1  23
TORSDOF 7
ENDMDL
MODEL 3
REMARK VINA RESULT: -6.520747879      5.087      7.106
REMARK  7 active torsions:
REMARK  status: ('A' for Active; 'I' for Inactive)
REMARK    1  A    between atoms: C2_2  and  C3_3 
REMARK    2  A    between atoms: C2_2  and  C4_6 
REMARK    3  A    between atoms: C3_3  and  O1_4 
REMARK    4  A    between atoms: C4_6  and  C6_8 
REMARK    5  A    between atoms: C7_9  and  C8_10 
REMARK    6  A    between atoms: C8_10  and  C10_12 
REMARK    7  A    between atoms: C12_16  and  C13_17 
ROOT
HETATM    1  C10 UNL     1      39.762  34.931  87.763  1.00  0.00     0.207 A 
HETATM    2  O2  UNL     1      40.547  35.502  88.774  1.00  0.00    -0.279 OA
HETATM    3  C11 UNL     1      39.747  35.513  89.934  1.00  0.00     0.270 C 
HETATM    4  O3  UNL     1      39.749  36.423  90.826  1.00  0.00    -0.265 OA
HETATM    5  C12 UNL     1      38.956  34.266  89.844  1.00  0.00     0.143 C 
HETATM    6  C22 UNL     1      38.733  34.141  88.361  1.00  0.00     0.204 A 
HETATM    7  O5  UNL     1      38.443  35.273  87.614  1.00  0.00    -0.340 OA
ENDROOT
BRANCH   5   8
HETATM    8  C13 UNL     1      37.685  34.417  90.631  1.00  0.00     0.100 C 
HETATM    9  C14 UNL     1      36.877  33.159  90.465  1.00  0.00     0.044 C 
HETATM   10  C15 UNL     1      35.411  33.361  90.278  1.00  0.00     0.029 C 
HETATM   11  C16 UNL     1      34.700  33.662  91.554  1.00  0.00     0.024 C 
HETATM   12  C17 UNL     1      34.863  32.093  89.712  1.00  0.00     0.136 C 
HETATM   13  C20 UNL     1      35.083  34.329  89.160  1.00  0.00     0.068 C 
HETATM   14  O4  UNL     1      34.594  31.126  90.392  1.00  0.00    -0.297 OA
HETATM   15  C18 UNL     1      34.706  32.205  88.235  1.00  0.00     0.080 C 
HETATM   16  C19 UNL     1      35.385  33.530  87.938  1.00  0.00     0.021 C 
HETATM   17  C21 UNL     1      35.920  35.539  89.330  1.00  0.00     0.076 C 
HETATM   18  N1  UNL     1      35.682  36.550  88.571  1.00  0.00    -0.389 N 
HETATM   19  N2  UNL     1      36.962  35.626  90.292  1.00  0.00    -0.374 N 
ATOM     20  H12 UNL     1      34.934  36.487  87.880  1.00  0.00     0.157 HD
ATOM     21  H11 UNL     1      36.259  37.383  88.688  1.00  0.00     0.157 HD
ATOM     22  H2  UNL     1      37.196  36.516  90.732  1.00  0.00     0.161 HD
ENDBRANCH   5   8
BRANCH   1  23
HETATM   23  C8  UNL     1      40.468  34.600  86.459  1.00  0.00     0.070 C 
HETATM   24  C9  UNL     1      39.462  34.599  85.383  1.00  0.00     0.020 C 
BRANCH  23  25
HETATM   25  C7  UNL     1      41.715  35.329  86.288  1.00  0.00    -0.020 C 
HETATM   26  C6  UNL     1      42.816  35.095  85.662  1.00  0.00    -0.022 C 
BRANCH  26  27
HETATM   27  C4  UNL     1      43.282  33.977  84.841  1.00  0.00     0.034 C 
HETATM   28  C5  UNL     1      43.631  34.502  83.424  1.00  0.00     0.019 C 
BRANCH  27  29
HETATM   29  C2  UNL     1      44.544  33.376  85.348  1.00  0.00    -0.059 C 
HETATM   30  C1  UNL     1      44.920  33.559  86.591  1.00  0.00     0.017 C 
BRANCH  29  31
HETATM   31  C3  UNL     1      45.370  32.568  84.431  1.00  0.00     0.198 C 
BRANCH  31  32
HETATM   32  O1  UNL     1      45.796  31.410  85.065  1.00  0.00    -0.397 OA
ATOM     33  H1  UNL     1      46.293  31.628  85.845  1.00  0.00     0.209 HD
ENDBRANCH  31  32
ENDBRANCH  29  31
ENDBRANCH  27  29
ENDBRANCH  26  27
ENDBRANCH  23  25
ENDBRANCH   1  23
TORSDOF 7
ENDMDL
MODEL 4
REMARK VINA RESULT: -6.508579652      2.271      3.136
REMARK  7 active torsions:
REMARK  status: ('A' for Active; 'I' for Inactive)
REMARK    1  A    between atoms: C2_2  and  C3_3 
REMARK    2  A    between atoms: C2_2  and  C4_6 
REMARK    3  A    between atoms: C3_3  and  O1_4 
REMARK    4  A    between atoms: C4_6  and  C6_8 
REMARK    5  A    between atoms: C7_9  and  C8_10 
REMARK    6  A    between atoms: C8_10  and  C10_12 
REMARK    7  A    between atoms: C12_16  and  C13_17 
ROOT
HETATM    1  C10 UNL     1      41.115  37.657  86.375  1.00  0.00     0.207 A 
HETATM    2  O2  UNL     1      41.919  38.331  85.446  1.00  0.00    -0.279 OA
HETATM    3  C11 UNL     1      42.961  38.926  86.186  1.00  0.00     0.270 C 
HETATM    4  O3  UNL     1      43.495  40.055  85.937  1.00  0.00    -0.265 OA
HETATM    5  C12 UNL     1      43.249  37.951  87.261  1.00  0.00     0.143 C 
HETATM    6  C22 UNL     1      41.884  37.388  87.550  1.00  0.00     0.204 A 
HETATM    7  O5  UNL     1      40.785  38.233  87.574  1.00  0.00    -0.340 OA
ENDROOT
BRANCH   5   8
HETATM    8  C13 UNL     1      43.866  38.659  88.433  1.00  0.00     0.100 C 
HETATM    9  C14 UNL     1      43.969  37.681  89.571  1.00  0.00     0.044 C 
HETATM   10  C15 UNL     1      43.620  38.226  90.916  1.00  0.00     0.029 C 
HETATM   11  C16 UNL     1      44.713  39.049  91.510  1.00  0.00     0.024 C 
HETATM   12  C17 UNL     1      43.362  37.058  91.808  1.00  0.00     0.136 C 
HETATM   13  C20 UNL     1      42.267  38.904  90.948  1.00  0.00     0.068 C 
HETATM   14  O4  UNL     1      44.248  36.427  92.347  1.00  0.00    -0.297 OA
HETATM   15  C18 UNL     1      41.900  36.802  91.925  1.00  0.00     0.080 C 
HETATM   16  C19 UNL     1      41.323  37.751  90.890  1.00  0.00     0.021 C 
HETATM   17  C21 UNL     1      42.182  39.831  89.795  1.00  0.00     0.076 C 
HETATM   18  N1  UNL     1      41.169  40.621  89.729  1.00  0.00    -0.389 N 
HETATM   19  N2  UNL     1      43.167  39.882  88.773  1.00  0.00    -0.374 N 
ATOM     20  H12 UNL     1      40.461  40.585  90.463  1.00  0.00     0.157 HD
ATOM     21  H11 UNL     1      41.110  41.259  88.935  1.00  0.00     0.157 HD
ATOM     22  H2  UNL     1      43.377  40.756  88.291  1.00  0.00     0.161 HD
ENDBRANCH   5   8
BRANCH   1  23
HETATM   23  C8  UNL     1      40.041  36.745  85.809  1.00  0.00     0.070 C 
HETATM   24  C9  UNL     1      38.767  37.484  85.810  1.00  0.00     0.020 C 
BRANCH  23  25
HETATM   25  C7  UNL     1      40.469  36.037  84.613  1.00  0.00    -0.020 C 
HETATM   26  C6  UNL     1      41.479  35.292  84.321  1.00  0.00    -0.022 C 
BRANCH  26  27
HETATM   27  C4  UNL     1      42.640  34.835  85.085  1.00  0.00     0.034 C 
HETATM   28  C5  UNL     1      42.196  33.704  86.049  1.00  0.00     0.019 C 
BRANCH  27  29
HETATM   29  C2  UNL     1      43.689  34.220  84.229  1.00  0.00    -0.059 C 
HETATM   30  C1  UNL     1      43.841  34.597  82.983  1.00  0.00     0.017 C 
BRANCH  29  31
HETATM   31  C3  UNL     1      44.558  33.176  84.804  1.00  0.00     0.198 C 
BRANCH  31  32
HETATM   32  O1  UNL     1      45.705  33.032  84.037  1.00  0.00    -0.397 OA
ATOM     33  H1  UNL     1      45.810  33.781  83.461  1.00  0.00     0.209 HD
ENDBRANCH  31  32
ENDBRANCH  29  31
ENDBRANCH  27  29
ENDBRANCH  26  27
ENDBRANCH  23  25
ENDBRANCH   1  23
TORSDOF 7
ENDMDL
MODEL 5
REMARK VINA RESULT: -6.279941766      3.145      4.319
REMARK  7 active torsions:
REMARK  status: ('A' for Active; 'I' for Inactive)
REMARK    1  A    between atoms: C2_2  and  C3_3 
REMARK    2  A    between atoms: C2_2  and  C4_6 
REMARK    3  A    between atoms: C3_3  and  O1_4 
REMARK    4  A    between atoms: C4_6  and  C6_8 
REMARK    5  A    between atoms: C7_9  and  C8_10 
REMARK    6  A    between atoms: C8_10  and  C10_12 
REMARK    7  A    between atoms: C12_16  and  C13_17 
ROOT
HETATM    1  C10 UNL     1      41.033  36.161  83.520  1.00  0.00     0.207 A 
HETATM    2  O2  UNL     1      41.685  37.242  84.129  1.00  0.00    -0.279 OA
HETATM    3  C11 UNL     1      40.815  37.711  85.135  1.00  0.00     0.270 C 
HETATM    4  O3  UNL     1      40.662  38.929  85.472  1.00  0.00    -0.265 OA
HETATM    5  C12 UNL     1      40.170  36.487  85.659  1.00  0.00     0.143 C 
HETATM    6  C22 UNL     1      40.058  35.636  84.423  1.00  0.00     0.204 A 
HETATM    7  O5  UNL     1      39.697  36.221  83.218  1.00  0.00    -0.340 OA
ENDROOT
BRANCH   5   8
HETATM    8  C13 UNL     1      38.843  36.838  86.268  1.00  0.00     0.100 C 
HETATM    9  C14 UNL     1      38.972  36.742  87.764  1.00  0.00     0.044 C 
HETATM   10  C15 UNL     1      37.813  36.117  88.467  1.00  0.00     0.029 C 
HETATM   11  C16 UNL     1      36.656  37.046  88.616  1.00  0.00     0.024 C 
HETATM   12  C17 UNL     1      38.287  35.721  89.825  1.00  0.00     0.136 C 
HETATM   13  C20 UNL     1      37.434  34.765  87.900  1.00  0.00     0.068 C 
HETATM   14  O4  UNL     1      38.367  36.500  90.752  1.00  0.00    -0.297 OA
HETATM   15  C18 UNL     1      38.631  34.273  89.857  1.00  0.00     0.080 C 
HETATM   16  C19 UNL     1      38.532  33.885  88.393  1.00  0.00     0.021 C 
HETATM   17  C21 UNL     1      37.351  34.884  86.425  1.00  0.00     0.076 C 
HETATM   18  N1  UNL     1      36.891  33.882  85.764  1.00  0.00    -0.389 N 
HETATM   19  N2  UNL     1      37.756  36.050  85.722  1.00  0.00    -0.374 N 
ATOM     20  H12 UNL     1      36.600  33.044  86.268  1.00  0.00     0.157 HD
ATOM     21  H11 UNL     1      36.834  33.963  84.748  1.00  0.00     0.157 HD
ATOM     22  H2  UNL     1      37.293  36.327  84.857  1.00  0.00     0.161 HD
ENDBRANCH   5   8
BRANCH   1  23
HETATM   23  C8  UNL     1      41.852  35.335  82.545  1.00  0.00     0.070 C 
HETATM   24  C9  UNL     1      41.478  35.737  81.178  1.00  0.00     0.020 C 
BRANCH  23  25
HETATM   25  C7  UNL     1      43.256  35.244  82.917  1.00  0.00    -0.020 C 
HETATM   26  C6  UNL     1      43.923  34.509  83.738  1.00  0.00    -0.022 C 
BRANCH  26  27
HETATM   27  C4  UNL     1      43.543  33.436  84.657  1.00  0.00     0.034 C 
HETATM   28  C5  UNL     1      44.820  32.674  85.100  1.00  0.00     0.019 C 
BRANCH  27  29
HETATM   29  C2  UNL     1      42.942  33.943  85.920  1.00  0.00    -0.059 C 
HETATM   30  C1  UNL     1      41.819  33.443  86.374  1.00  0.00     0.017 C 
BRANCH  29  31
HETATM   31  C3  UNL     1      43.630  35.020  86.657  1.00  0.00     0.198 C 
BRANCH  31  32
HETATM   32  O1  UNL     1      42.764  35.606  87.568  1.00  0.00    -0.397 OA
ATOM     33  H1  UNL     1      43.215  35.771  88.388  1.00  0.00     0.209 HD
ENDBRANCH  31  32
ENDBRANCH  29  31
ENDBRANCH  27  29
ENDBRANCH  26  27
ENDBRANCH  23  25
ENDBRANCH   1  23
TORSDOF 7
ENDMDL
