MODEL 1
REMARK VINA RESULT: -6.303034595      0.000      0.000
REMARK  4 active torsions:
REMARK  status: ('A' for Active; 'I' for Inactive)
REMARK    1  A    between atoms: C1_2  and  C2_3 
REMARK       I    between atoms: C1_2  and  N1_9 
REMARK    2  A    between atoms: C2_3  and  C3_4 
REMARK    3  A    between atoms: C3_4  and  S1_5 
REMARK    4  A    between atoms: N1_9  and  C4_11 
ROOT
HETATM    1  C4  UNL     1     -15.006   7.836  47.100  1.00  0.00     0.176 C 
HETATM    2  C5  UNL     1     -14.593   6.768  48.053  1.00  0.00     0.035 C 
HETATM    3  C6  UNL     1     -13.858   5.635  47.371  1.00  0.00     0.002 C 
HETATM    4  C7  UNL     1     -13.460   4.584  48.352  1.00  0.00     0.000 C 
HETATM    5  C8  UNL     1     -14.597   3.831  48.962  1.00  0.00     0.000 C 
HETATM    6  C9  UNL     1     -15.023   2.640  48.095  1.00  0.00     0.000 C 
HETATM    7  C10 UNL     1     -16.408   2.172  48.486  1.00  0.00     0.000 C 
HETATM    8  C11 UNL     1     -17.336   2.426  47.345  1.00  0.00     0.000 C 
HETATM    9  C12 UNL     1     -18.727   2.815  47.783  1.00  0.00     0.000 C 
HETATM   10  C13 UNL     1     -19.426   3.495  46.640  1.00  0.00     0.000 C 
HETATM   11  C14 UNL     1     -19.673   4.975  46.916  1.00  0.00     0.000 C 
HETATM   12  C15 UNL     1     -19.761   5.782  45.657  1.00  0.00     0.002 C 
HETATM   13  C16 UNL     1     -18.709   6.877  45.586  1.00  0.00     0.020 C 
HETATM   14  C17 UNL     1     -17.367   6.230  45.768  1.00  0.00     0.122 C 
HETATM   15  N2  UNL     1     -16.300   6.927  45.081  1.00  0.00    -0.359 N 
ATOM     16  H2  UNL     1     -16.427   7.137  44.091  1.00  0.00     0.162 HD
HETATM   17  C18 UNL     1     -15.088   7.339  45.698  1.00  0.00     0.240 C 
HETATM   18  O5  UNL     1     -13.999   7.297  45.060  1.00  0.00    -0.271 OA
ENDROOT
BRANCH   1  19
HETATM   19  N1  UNL     1     -14.045   8.943  47.172  1.00  0.00    -0.348 N 
HETATM   20  C1  UNL     1     -14.368  10.163  47.805  1.00  0.00     0.219 C 
HETATM   21  O1  UNL     1     -15.486  10.363  48.338  1.00  0.00    -0.274 OA
ATOM     22  H1  UNL     1     -13.121   8.828  46.755  1.00  0.00     0.163 HD
BRANCH  20  23
HETATM   23  C2  UNL     1     -13.366  11.241  47.850  1.00  0.00     0.120 C 
BRANCH  23  24
HETATM   24  C3  UNL     1     -13.011  11.668  49.236  1.00  0.00     0.174 C 
BRANCH  24  25
HETATM   25  S1  UNL     1     -12.041  10.343  49.964  1.00  0.00     0.102 S 
HETATM   26  O2  UNL     1     -11.522  10.738  51.312  1.00  0.00    -0.595 OA
HETATM   27  O3  UNL     1     -12.939   9.140  50.148  1.00  0.00    -0.595 OA
HETATM   28  O4  UNL     1     -10.820   9.932  48.915  1.00  0.00    -0.595 OA
ENDBRANCH  24  25
ENDBRANCH  23  24
ENDBRANCH  20  23
ENDBRANCH   1  19
TORSDOF 4
ENDMDL
MODEL 2
REMARK VINA RESULT: -6.271966194      0.832      1.334
REMARK  4 active torsions:
REMARK  status: ('A' for Active; 'I' for Inactive)
REMARK    1  A    between atoms: C1_2  and  C2_3 
REMARK       I    between atoms: C1_2  and  N1_9 
REMARK    2  A    between atoms: C2_3  and  C3_4 
REMARK    3  A    between atoms: C3_4  and  S1_5 
REMARK    4  A    between atoms: N1_9  and  C4_11 
ROOT
HETATM    1  C4  UNL     1     -14.916   7.870  47.197  1.00  0.00     0.176 C 
HETATM    2  C5  UNL     1     -14.538   6.770  48.130  1.00  0.00     0.035 C 
HETATM    3  C6  UNL     1     -13.803   5.647  47.433  1.00  0.00     0.002 C 
HETATM    4  C7  UNL     1     -13.440   4.563  48.393  1.00  0.00     0.000 C 
HETATM    5  C8  UNL     1     -14.600   3.810  48.956  1.00  0.00     0.000 C 
HETATM    6  C9  UNL     1     -15.022   2.649  48.048  1.00  0.00     0.000 C 
HETATM    7  C10 UNL     1     -16.421   2.189  48.394  1.00  0.00     0.000 C 
HETATM    8  C11 UNL     1     -17.319   2.486  47.240  1.00  0.00     0.000 C 
HETATM    9  C12 UNL     1     -18.714   2.881  47.658  1.00  0.00     0.000 C 
HETATM   10  C13 UNL     1     -19.379   3.601  46.518  1.00  0.00     0.000 C 
HETATM   11  C14 UNL     1     -19.613   5.077  46.830  1.00  0.00     0.000 C 
HETATM   12  C15 UNL     1     -19.662   5.919  45.592  1.00  0.00     0.002 C 
HETATM   13  C16 UNL     1     -18.595   7.002  45.576  1.00  0.00     0.020 C 
HETATM   14  C17 UNL     1     -17.266   6.332  45.769  1.00  0.00     0.122 C 
HETATM   15  N2  UNL     1     -16.175   7.033  45.126  1.00  0.00    -0.359 N 
ATOM     16  H2  UNL     1     -16.277   7.272  44.139  1.00  0.00     0.162 HD
HETATM   17  C18 UNL     1     -14.972   7.412  45.781  1.00  0.00     0.240 C 
HETATM   18  O5  UNL     1     -13.870   7.373  45.166  1.00  0.00    -0.271 OA
ENDROOT
BRANCH   1  19
HETATM   19  N1  UNL     1     -13.942   8.961  47.322  1.00  0.00    -0.348 N 
HETATM   20  C1  UNL     1     -14.019   9.905  48.369  1.00  0.00     0.219 C 
HETATM   21  O1  UNL     1     -14.918   9.860  49.244  1.00  0.00    -0.274 OA
ATOM     22  H1  UNL     1     -13.192   9.039  46.636  1.00  0.00     0.163 HD
BRANCH  20  23
HETATM   23  C2  UNL     1     -13.017  10.980  48.448  1.00  0.00     0.120 C 
BRANCH  23  24
HETATM   24  C3  UNL     1     -13.400  12.084  49.378  1.00  0.00     0.174 C 
BRANCH  24  25
HETATM   25  S1  UNL     1     -12.410  11.888  50.864  1.00  0.00     0.102 S 
HETATM   26  O2  UNL     1     -11.916  10.481  50.997  1.00  0.00    -0.595 OA
HETATM   27  O3  UNL     1     -11.204  12.795  50.758  1.00  0.00    -0.595 OA
HETATM   28  O4  UNL     1     -13.311  12.365  52.176  1.00  0.00    -0.595 OA
ENDBRANCH  24  25
ENDBRANCH  23  24
ENDBRANCH  20  23
ENDBRANCH   1  19
TORSDOF 4
ENDMDL
MODEL 3
REMARK VINA RESULT: -6.265393360      6.194      8.031
REMARK  4 active torsions:
REMARK  status: ('A' for Active; 'I' for Inactive)
REMARK    1  A    between atoms: C1_2  and  C2_3 
REMARK       I    between atoms: C1_2  and  N1_9 
REMARK    2  A    between atoms: C2_3  and  C3_4 
REMARK    3  A    between atoms: C3_4  and  S1_5 
REMARK    4  A    between atoms: N1_9  and  C4_11 
ROOT
HETATM    1  C4  UNL     1     -17.461   1.654  47.607  1.00  0.00     0.176 C 
HETATM    2  C5  UNL     1     -18.084   3.004  47.715  1.00  0.00     0.035 C 
HETATM    3  C6  UNL     1     -19.560   2.989  47.389  1.00  0.00     0.002 C 
HETATM    4  C7  UNL     1     -20.152   4.354  47.506  1.00  0.00     0.000 C 
HETATM    5  C8  UNL     1     -19.668   5.336  46.490  1.00  0.00     0.000 C 
HETATM    6  C9  UNL     1     -20.482   5.264  45.193  1.00  0.00     0.000 C 
HETATM    7  C10 UNL     1     -19.729   5.925  44.059  1.00  0.00     0.000 C 
HETATM    8  C11 UNL     1     -19.368   4.880  43.056  1.00  0.00     0.000 C 
HETATM    9  C12 UNL     1     -18.033   5.124  42.396  1.00  0.00     0.000 C 
HETATM   10  C13 UNL     1     -17.545   3.838  41.791  1.00  0.00     0.000 C 
HETATM   11  C14 UNL     1     -16.312   3.296  42.510  1.00  0.00     0.000 C 
HETATM   12  C15 UNL     1     -16.189   1.809  42.385  1.00  0.00     0.002 C 
HETATM   13  C16 UNL     1     -16.195   1.104  43.732  1.00  0.00     0.020 C 
HETATM   14  C17 UNL     1     -17.439   1.524  44.459  1.00  0.00     0.122 C 
HETATM   15  N2  UNL     1     -17.941   0.510  45.362  1.00  0.00    -0.359 N 
ATOM     16  H2  UNL     1     -18.083  -0.430  44.993  1.00  0.00     0.162 HD
HETATM   17  C18 UNL     1     -18.247   0.740  46.731  1.00  0.00     0.240 C 
HETATM   18  O5  UNL     1     -19.229   0.160  47.273  1.00  0.00    -0.271 OA
ENDROOT
BRANCH   1  19
HETATM   19  N1  UNL     1     -17.347   1.069  48.948  1.00  0.00    -0.348 N 
HETATM   20  C1  UNL     1     -16.133   1.099  49.667  1.00  0.00     0.219 C 
HETATM   21  O1  UNL     1     -15.094   1.626  49.201  1.00  0.00    -0.274 OA
ATOM     22  H1  UNL     1     -18.165   0.630  49.371  1.00  0.00     0.163 HD
BRANCH  20  23
HETATM   23  C2  UNL     1     -16.072   0.497  51.010  1.00  0.00     0.120 C 
BRANCH  23  24
HETATM   24  C3  UNL     1     -15.358   1.344  52.011  1.00  0.00     0.174 C 
BRANCH  24  25
HETATM   25  S1  UNL     1     -14.830   0.257  53.340  1.00  0.00     0.102 S 
HETATM   26  O2  UNL     1     -13.836   0.941  54.227  1.00  0.00    -0.595 OA
HETATM   27  O3  UNL     1     -16.038  -0.092  54.180  1.00  0.00    -0.595 OA
HETATM   28  O4  UNL     1     -14.226  -1.143  52.681  1.00  0.00    -0.595 OA
ENDBRANCH  24  25
ENDBRANCH  23  24
ENDBRANCH  20  23
ENDBRANCH   1  19
TORSDOF 4
ENDMDL
MODEL 4
REMARK VINA RESULT: -6.195653625      5.847      7.937
REMARK  4 active torsions:
REMARK  status: ('A' for Active; 'I' for Inactive)
REMARK    1  A    between atoms: C1_2  and  C2_3 
REMARK       I    between atoms: C1_2  and  N1_9 
REMARK    2  A    between atoms: C2_3  and  C3_4 
REMARK    3  A    between atoms: C3_4  and  S1_5 
REMARK    4  A    between atoms: N1_9  and  C4_11 
ROOT
HETATM    1  C4  UNL     1     -17.109   1.694  47.816  1.00  0.00     0.176 C 
HETATM    2  C5  UNL     1     -16.417   2.867  47.212  1.00  0.00     0.035 C 
HETATM    3  C6  UNL     1     -17.361   4.011  46.920  1.00  0.00     0.002 C 
HETATM    4  C7  UNL     1     -16.637   5.168  46.316  1.00  0.00     0.000 C 
HETATM    5  C8  UNL     1     -16.091   4.921  44.948  1.00  0.00     0.000 C 
HETATM    6  C9  UNL     1     -17.131   5.205  43.858  1.00  0.00     0.000 C 
HETATM    7  C10 UNL     1     -16.724   4.550  42.556  1.00  0.00     0.000 C 
HETATM    8  C11 UNL     1     -17.714   3.482  42.230  1.00  0.00     0.000 C 
HETATM    9  C12 UNL     1     -17.096   2.282  41.556  1.00  0.00     0.000 C 
HETATM   10  C13 UNL     1     -18.026   1.110  41.699  1.00  0.00     0.000 C 
HETATM   11  C14 UNL     1     -17.451   0.028  42.609  1.00  0.00     0.000 C 
HETATM   12  C15 UNL     1     -18.520  -0.793  43.262  1.00  0.00     0.002 C 
HETATM   13  C16 UNL     1     -18.466  -0.727  44.780  1.00  0.00     0.020 C 
HETATM   14  C17 UNL     1     -18.524   0.720  45.174  1.00  0.00     0.122 C 
HETATM   15  N2  UNL     1     -19.150   0.935  46.462  1.00  0.00    -0.359 N 
ATOM     16  H2  UNL     1     -20.068   0.519  46.621  1.00  0.00     0.162 HD
HETATM   17  C18 UNL     1     -18.569   1.688  47.518  1.00  0.00     0.240 C 
HETATM   18  O5  UNL     1     -19.291   2.403  48.266  1.00  0.00    -0.271 OA
ENDROOT
BRANCH   1  19
HETATM   19  N1  UNL     1     -16.906   1.712  49.269  1.00  0.00    -0.348 N 
HETATM   20  C1  UNL     1     -15.702   1.262  49.853  1.00  0.00     0.219 C 
HETATM   21  O1  UNL     1     -14.747   0.828  49.164  1.00  0.00    -0.274 OA
ATOM     22  H1  UNL     1     -17.653   2.058  49.872  1.00  0.00     0.163 HD
BRANCH  20  23
HETATM   23  C2  UNL     1     -15.549   1.301  51.317  1.00  0.00     0.120 C 
BRANCH  23  24
HETATM   24  C3  UNL     1     -15.787  -0.017  51.976  1.00  0.00     0.174 C 
BRANCH  24  25
HETATM   25  S1  UNL     1     -14.843  -0.020  53.505  1.00  0.00     0.102 S 
HETATM   26  O2  UNL     1     -14.168   1.299  53.719  1.00  0.00    -0.595 OA
HETATM   27  O3  UNL     1     -15.798  -0.245  54.655  1.00  0.00    -0.595 OA
HETATM   28  O4  UNL     1     -13.762  -1.281  53.465  1.00  0.00    -0.595 OA
ENDBRANCH  24  25
ENDBRANCH  23  24
ENDBRANCH  20  23
ENDBRANCH   1  19
TORSDOF 4
ENDMDL
MODEL 5
REMARK VINA RESULT: -6.134421556      1.243      1.532
REMARK  4 active torsions:
REMARK  status: ('A' for Active; 'I' for Inactive)
REMARK    1  A    between atoms: C1_2  and  C2_3 
REMARK       I    between atoms: C1_2  and  N1_9 
REMARK    2  A    between atoms: C2_3  and  C3_4 
REMARK    3  A    between atoms: C3_4  and  S1_5 
REMARK    4  A    between atoms: N1_9  and  C4_11 
ROOT
HETATM    1  C4  UNL     1     -14.370   7.561  47.717  1.00  0.00     0.176 C 
HETATM    2  C5  UNL     1     -14.275   6.353  48.585  1.00  0.00     0.035 C 
HETATM    3  C6  UNL     1     -13.625   5.183  47.882  1.00  0.00     0.002 C 
HETATM    4  C7  UNL     1     -13.546   3.992  48.778  1.00  0.00     0.000 C 
HETATM    5  C8  UNL     1     -14.864   3.387  49.134  1.00  0.00     0.000 C 
HETATM    6  C9  UNL     1     -15.328   2.371  48.084  1.00  0.00     0.000 C 
HETATM    7  C10 UNL     1     -16.812   2.106  48.225  1.00  0.00     0.000 C 
HETATM    8  C11 UNL     1     -17.504   2.617  47.006  1.00  0.00     0.000 C 
HETATM    9  C12 UNL     1     -18.870   3.191  47.293  1.00  0.00     0.000 C 
HETATM   10  C13 UNL     1     -19.275   4.082  46.153  1.00  0.00     0.000 C 
HETATM   11  C14 UNL     1     -19.333   5.551  46.564  1.00  0.00     0.000 C 
HETATM   12  C15 UNL     1     -19.104   6.475  45.408  1.00  0.00     0.002 C 
HETATM   13  C16 UNL     1     -17.899   7.381  45.611  1.00  0.00     0.020 C 
HETATM   14  C17 UNL     1     -16.715   6.504  45.896  1.00  0.00     0.122 C 
HETATM   15  N2  UNL     1     -15.463   7.074  45.448  1.00  0.00    -0.359 N 
ATOM     16  H2  UNL     1     -15.403   7.394  44.481  1.00  0.00     0.162 HD
HETATM   17  C18 UNL     1     -14.310   7.218  46.268  1.00  0.00     0.240 C 
HETATM   18  O5  UNL     1     -13.156   7.054  45.784  1.00  0.00    -0.271 OA
ENDROOT
BRANCH   1  19
HETATM   19  N1  UNL     1     -13.275   8.479  48.049  1.00  0.00    -0.348 N 
HETATM   20  C1  UNL     1     -13.408   9.453  49.062  1.00  0.00     0.219 C 
HETATM   21  O1  UNL     1     -14.462   9.583  49.729  1.00  0.00    -0.274 OA
ATOM     22  H1  UNL     1     -12.396   8.412  47.535  1.00  0.00     0.163 HD
BRANCH  20  23
HETATM   23  C2  UNL     1     -12.278  10.350  49.355  1.00  0.00     0.120 C 
BRANCH  23  24
HETATM   24  C3  UNL     1     -12.692  11.754  49.650  1.00  0.00     0.174 C 
BRANCH  24  25
HETATM   25  S1  UNL     1     -12.112  12.139  51.306  1.00  0.00     0.102 S 
HETATM   26  O2  UNL     1     -13.262  12.400  52.229  1.00  0.00    -0.595 OA
HETATM   27  O3  UNL     1     -11.354  10.943  51.836  1.00  0.00    -0.595 OA
HETATM   28  O4  UNL     1     -11.068  13.428  51.223  1.00  0.00    -0.595 OA
ENDBRANCH  24  25
ENDBRANCH  23  24
ENDBRANCH  20  23
ENDBRANCH   1  19
TORSDOF 4
ENDMDL
