MODEL 1
REMARK VINA RESULT: -5.131571322      0.000      0.000
REMARK  6 active torsions:
REMARK  status: ('A' for Active; 'I' for Inactive)
REMARK    1  A    between atoms: C2_2  and  O1_4 
REMARK    2  A    between atoms: C2_2  and  C4_6 
REMARK    3  A    between atoms: C4_6  and  C5_7 
REMARK    4  A    between atoms: C12_15  and  O2_16 
REMARK    5  A    between atoms: C13_18  and  C15_20 
REMARK    6  A    between atoms: C15_20  and  O3_21 
ROOT
HETATM    1  C5  UNL     1      40.981  36.097  87.004  1.00  0.00    -0.008 C 
HETATM    2  C6  UNL     1      41.086  34.697  86.398  1.00  0.00     0.006 C 
HETATM    3  C7  UNL     1      42.379  34.561  85.581  1.00  0.00     0.018 C 
HETATM    4  C8  UNL     1      42.507  35.763  84.641  1.00  0.00     0.022 A 
HETATM    5  C9  UNL     1      41.163  36.318  84.544  1.00  0.00    -0.057 C 
HETATM    6  C10 UNL     1      40.306  36.288  83.554  1.00  0.00     0.088 C 
HETATM    7 CL1  UNL     1      38.719  37.067  83.731  1.00  0.00    -0.097 Cl
HETATM    8  C11 UNL     1      40.696  37.003  85.825  1.00  0.00     0.040 C 
HETATM    9  C12 UNL     1      43.557  36.788  84.990  1.00  0.00     0.143 A 
HETATM   10  C13 UNL     1      43.653  35.862  83.801  1.00  0.00     0.018 A 
HETATM   11  C14 UNL     1      44.655  34.685  83.924  1.00  0.00     0.021 C 
ENDROOT
BRANCH   9  12
HETATM   12  O2  UNL     1      44.411  36.637  86.050  1.00  0.00    -0.394 OA
ATOM     13  H2  UNL     1      45.140  37.225  86.207  1.00  0.00     0.210 HD
ENDBRANCH   9  12
BRANCH  10  14
HETATM   14  C15 UNL     1      43.845  36.571  82.507  1.00  0.00     0.177 C 
BRANCH  14  15
HETATM   15  O3  UNL     1      42.985  36.210  81.486  1.00  0.00    -0.400 OA
ATOM     16  H3  UNL     1      43.063  36.709  80.681  1.00  0.00     0.209 HD
ENDBRANCH  14  15
ENDBRANCH  10  14
BRANCH   1  17
HETATM   17  C4  UNL     1      39.910  36.037  88.033  1.00  0.00     0.041 C 
BRANCH  17  18
HETATM   18  C2  UNL     1      40.017  36.956  89.191  1.00  0.00     0.051 C 
HETATM   19  C1  UNL     1      39.292  36.267  90.365  1.00  0.00     0.045 C 
HETATM   20  C3  UNL     1      39.365  38.289  89.055  1.00  0.00     0.045 C 
BRANCH  18  21
HETATM   21  O1  UNL     1      41.333  37.153  89.595  1.00  0.00    -0.391 OA
ATOM     22  H1  UNL     1      41.763  37.635  88.899  1.00  0.00     0.210 HD
ENDBRANCH  18  21
ENDBRANCH  17  18
ENDBRANCH   1  17
TORSDOF 6
ENDMDL
MODEL 2
REMARK VINA RESULT: -5.053962781      2.573      5.551
REMARK  6 active torsions:
REMARK  status: ('A' for Active; 'I' for Inactive)
REMARK    1  A    between atoms: C2_2  and  O1_4 
REMARK    2  A    between atoms: C2_2  and  C4_6 
REMARK    3  A    between atoms: C4_6  and  C5_7 
REMARK    4  A    between atoms: C12_15  and  O2_16 
REMARK    5  A    between atoms: C13_18  and  C15_20 
REMARK    6  A    between atoms: C15_20  and  O3_21 
ROOT
HETATM    1  C5  UNL     1      43.508  35.845  85.630  1.00  0.00    -0.008 C 
HETATM    2  C6  UNL     1      42.471  34.854  86.160  1.00  0.00     0.006 C 
HETATM    3  C7  UNL     1      41.086  35.159  85.573  1.00  0.00     0.018 C 
HETATM    4  C8  UNL     1      40.795  36.655  85.726  1.00  0.00     0.022 A 
HETATM    5  C9  UNL     1      41.710  37.120  86.761  1.00  0.00    -0.057 C 
HETATM    6  C10 UNL     1      41.475  37.472  88.000  1.00  0.00     0.088 C 
HETATM    7 CL1  UNL     1      42.813  38.005  89.039  1.00  0.00    -0.097 Cl
HETATM    8  C11 UNL     1      43.167  37.155  86.310  1.00  0.00     0.040 C 
HETATM    9  C12 UNL     1      40.838  37.486  84.467  1.00  0.00     0.143 A 
HETATM   10  C13 UNL     1      39.568  37.174  85.221  1.00  0.00     0.018 A 
HETATM   11  C14 UNL     1      38.629  36.120  84.581  1.00  0.00     0.021 C 
ENDROOT
BRANCH   9  12
HETATM   12  O2  UNL     1      41.057  36.941  83.231  1.00  0.00    -0.394 OA
ATOM     13  H2  UNL     1      40.514  36.247  82.875  1.00  0.00     0.210 HD
ENDBRANCH   9  12
BRANCH  10  14
HETATM   14  C15 UNL     1      38.795  38.383  85.614  1.00  0.00     0.177 C 
BRANCH  14  15
HETATM   15  O3  UNL     1      38.183  38.334  86.853  1.00  0.00    -0.400 OA
ATOM     16  H3  UNL     1      38.207  39.136  87.361  1.00  0.00     0.209 HD
ENDBRANCH  14  15
ENDBRANCH  10  14
BRANCH   1  17
HETATM   17  C4  UNL     1      44.844  35.284  85.963  1.00  0.00     0.041 C 
BRANCH  17  18
HETATM   18  C2  UNL     1      45.625  34.672  84.864  1.00  0.00     0.051 C 
HETATM   19  C1  UNL     1      44.802  34.877  83.576  1.00  0.00     0.045 C 
HETATM   20  C3  UNL     1      45.868  33.204  84.946  1.00  0.00     0.045 C 
BRANCH  18  21
HETATM   21  O1  UNL     1      46.847  35.307  84.661  1.00  0.00    -0.391 OA
ATOM     22  H1  UNL     1      47.449  34.950  85.303  1.00  0.00     0.210 HD
ENDBRANCH  18  21
ENDBRANCH  17  18
ENDBRANCH   1  17
TORSDOF 6
ENDMDL
MODEL 3
REMARK VINA RESULT: -5.020431706      3.696      6.341
REMARK  6 active torsions:
REMARK  status: ('A' for Active; 'I' for Inactive)
REMARK    1  A    between atoms: C2_2  and  O1_4 
REMARK    2  A    between atoms: C2_2  and  C4_6 
REMARK    3  A    between atoms: C4_6  and  C5_7 
REMARK    4  A    between atoms: C12_15  and  O2_16 
REMARK    5  A    between atoms: C13_18  and  C15_20 
REMARK    6  A    between atoms: C15_20  and  O3_21 
ROOT
HETATM    1  C5  UNL     1      44.005  36.994  87.038  1.00  0.00    -0.008 C 
HETATM    2  C6  UNL     1      45.302  37.422  87.726  1.00  0.00     0.006 C 
HETATM    3  C7  UNL     1      45.003  38.053  89.093  1.00  0.00     0.018 C 
HETATM    4  C8  UNL     1      43.896  39.099  88.931  1.00  0.00     0.022 A 
HETATM    5  C9  UNL     1      43.879  39.422  87.510  1.00  0.00    -0.057 C 
HETATM    6  C10 UNL     1      44.280  40.500  86.885  1.00  0.00     0.088 C 
HETATM    7 CL1  UNL     1      44.129  40.608  85.118  1.00  0.00    -0.097 Cl
HETATM    8  C11 UNL     1      43.338  38.293  86.638  1.00  0.00     0.040 C 
HETATM    9  C12 UNL     1      42.538  38.740  89.483  1.00  0.00     0.143 A 
HETATM   10  C13 UNL     1      43.433  39.796  90.083  1.00  0.00     0.018 A 
HETATM   11  C14 UNL     1      44.151  39.421  91.405  1.00  0.00     0.021 C 
ENDROOT
BRANCH   9  12
HETATM   12  O2  UNL     1      42.302  37.573  90.158  1.00  0.00    -0.394 OA
ATOM     13  H2  UNL     1      41.434  37.312  90.442  1.00  0.00     0.210 HD
ENDBRANCH   9  12
BRANCH  10  14
HETATM   14  C15 UNL     1      42.782  41.128  90.211  1.00  0.00     0.177 C 
BRANCH  14  15
HETATM   15  O3  UNL     1      43.587  42.223  89.955  1.00  0.00    -0.400 OA
ATOM     16  H3  UNL     1      43.927  42.676  90.718  1.00  0.00     0.209 HD
ENDBRANCH  14  15
ENDBRANCH  10  14
BRANCH   1  17
HETATM   17  C4  UNL     1      44.392  36.104  85.912  1.00  0.00     0.041 C 
BRANCH  17  18
HETATM   18  C2  UNL     1      43.410  35.086  85.471  1.00  0.00     0.051 C 
HETATM   19  C1  UNL     1      44.227  33.900  84.921  1.00  0.00     0.045 C 
HETATM   20  C3  UNL     1      42.487  35.474  84.367  1.00  0.00     0.045 C 
BRANCH  18  21
HETATM   21  O1  UNL     1      42.648  34.590  86.524  1.00  0.00    -0.391 OA
ATOM     22  H1  UNL     1      42.582  35.288  87.165  1.00  0.00     0.210 HD
ENDBRANCH  18  21
ENDBRANCH  17  18
ENDBRANCH   1  17
TORSDOF 6
ENDMDL
MODEL 4
REMARK VINA RESULT: -4.976004886      2.906      4.416
REMARK  6 active torsions:
REMARK  status: ('A' for Active; 'I' for Inactive)
REMARK    1  A    between atoms: C2_2  and  O1_4 
REMARK    2  A    between atoms: C2_2  and  C4_6 
REMARK    3  A    between atoms: C4_6  and  C5_7 
REMARK    4  A    between atoms: C12_15  and  O2_16 
REMARK    5  A    between atoms: C13_18  and  C15_20 
REMARK    6  A    between atoms: C15_20  and  O3_21 
ROOT
HETATM    1  C5  UNL     1      40.022  36.459  84.028  1.00  0.00    -0.008 C 
HETATM    2  C6  UNL     1      41.150  36.312  83.007  1.00  0.00     0.006 C 
HETATM    3  C7  UNL     1      42.339  35.560  83.622  1.00  0.00     0.018 C 
HETATM    4  C8  UNL     1      42.675  36.182  84.981  1.00  0.00     0.022 A 
HETATM    5  C9  UNL     1      42.065  37.505  84.959  1.00  0.00    -0.057 C 
HETATM    6  C10 UNL     1      42.618  38.688  84.859  1.00  0.00     0.088 C 
HETATM    7 CL1  UNL     1      41.601  40.144  84.862  1.00  0.00    -0.097 Cl
HETATM    8  C11 UNL     1      40.542  37.471  85.028  1.00  0.00     0.040 C 
HETATM    9  C12 UNL     1      42.316  35.374  86.204  1.00  0.00     0.143 A 
HETATM   10  C13 UNL     1      43.735  35.622  85.751  1.00  0.00     0.018 A 
HETATM   11  C14 UNL     1      44.464  34.427  85.085  1.00  0.00     0.021 C 
ENDROOT
BRANCH   9  12
HETATM   12  O2  UNL     1      41.779  34.117  86.125  1.00  0.00    -0.394 OA
ATOM     13  H2  UNL     1      42.311  33.331  86.141  1.00  0.00     0.210 HD
ENDBRANCH   9  12
BRANCH  10  14
HETATM   14  C15 UNL     1      44.597  36.234  86.798  1.00  0.00     0.177 C 
BRANCH  14  15
HETATM   15  O3  UNL     1      45.940  36.342  86.490  1.00  0.00    -0.400 OA
ATOM     16  H3  UNL     1      46.414  37.036  86.934  1.00  0.00     0.209 HD
ENDBRANCH  14  15
ENDBRANCH  10  14
BRANCH   1  17
HETATM   17  C4  UNL     1      38.812  36.876  83.271  1.00  0.00     0.041 C 
BRANCH  17  18
HETATM   18  C2  UNL     1      37.657  35.949  83.258  1.00  0.00     0.051 C 
HETATM   19  C1  UNL     1      37.722  35.150  84.575  1.00  0.00     0.045 C 
HETATM   20  C3  UNL     1      37.629  34.923  82.177  1.00  0.00     0.045 C 
BRANCH  18  21
HETATM   21  O1  UNL     1      36.437  36.617  83.257  1.00  0.00    -0.391 OA
ATOM     22  H1  UNL     1      36.610  37.499  82.951  1.00  0.00     0.210 HD
ENDBRANCH  18  21
ENDBRANCH  17  18
ENDBRANCH   1  17
TORSDOF 6
ENDMDL
MODEL 5
REMARK VINA RESULT: -4.975758478      2.750      3.840
REMARK  6 active torsions:
REMARK  status: ('A' for Active; 'I' for Inactive)
REMARK    1  A    between atoms: C2_2  and  O1_4 
REMARK    2  A    between atoms: C2_2  and  C4_6 
REMARK    3  A    between atoms: C4_6  and  C5_7 
REMARK    4  A    between atoms: C12_15  and  O2_16 
REMARK    5  A    between atoms: C13_18  and  C15_20 
REMARK    6  A    between atoms: C15_20  and  O3_21 
ROOT
HETATM    1  C5  UNL     1      39.833  35.992  84.795  1.00  0.00    -0.008 C 
HETATM    2  C6  UNL     1      40.599  36.461  83.557  1.00  0.00     0.006 C 
HETATM    3  C7  UNL     1      42.030  35.906  83.568  1.00  0.00     0.018 C 
HETATM    4  C8  UNL     1      42.657  36.161  84.942  1.00  0.00     0.022 A 
HETATM    5  C9  UNL     1      41.852  37.219  85.539  1.00  0.00    -0.057 C 
HETATM    6  C10 UNL     1      42.135  38.480  85.747  1.00  0.00     0.088 C 
HETATM    7 CL1  UNL     1      40.934  39.544  86.509  1.00  0.00    -0.097 Cl
HETATM    8  C11 UNL     1      40.453  36.762  85.942  1.00  0.00     0.040 C 
HETATM    9  C12 UNL     1      42.836  34.961  85.839  1.00  0.00     0.143 A 
HETATM   10  C13 UNL     1      43.981  35.701  85.191  1.00  0.00     0.018 A 
HETATM   11  C14 UNL     1      44.664  34.997  83.990  1.00  0.00     0.021 C 
ENDROOT
BRANCH   9  12
HETATM   12  O2  UNL     1      42.524  33.689  85.440  1.00  0.00    -0.394 OA
ATOM     13  H2  UNL     1      41.838  33.178  85.851  1.00  0.00     0.210 HD
ENDBRANCH   9  12
BRANCH  10  14
HETATM   14  C15 UNL     1      45.006  36.180  86.159  1.00  0.00     0.177 C 
BRANCH  14  15
HETATM   15  O3  UNL     1      46.320  35.893  85.840  1.00  0.00    -0.400 OA
ATOM     16  H3  UNL     1      46.785  36.562  85.351  1.00  0.00     0.209 HD
ENDBRANCH  14  15
ENDBRANCH  10  14
BRANCH   1  17
HETATM   17  C4  UNL     1      38.396  36.278  84.541  1.00  0.00     0.041 C 
BRANCH  17  18
HETATM   18  C2  UNL     1      37.403  35.292  85.027  1.00  0.00     0.051 C 
HETATM   19  C1  UNL     1      36.190  36.102  85.525  1.00  0.00     0.045 C 
HETATM   20  C3  UNL     1      37.809  34.441  86.182  1.00  0.00     0.045 C 
BRANCH  18  21
HETATM   21  O1  UNL     1      36.938  34.460  84.014  1.00  0.00    -0.391 OA
ATOM     22  H1  UNL     1      37.698  34.025  83.648  1.00  0.00     0.210 HD
ENDBRANCH  18  21
ENDBRANCH  17  18
ENDBRANCH   1  17
TORSDOF 6
ENDMDL
