MODEL 1
REMARK VINA RESULT: -8.448227729      0.000      0.000
REMARK  5 active torsions:
REMARK  status: ('A' for Active; 'I' for Inactive)
REMARK    1  A    between atoms: N1_1  and  C1_4 
REMARK    2  A    between atoms: C2_7  and  N3_8 
REMARK    3  A    between atoms: N3_8  and  C3_10 
REMARK    4  A    between atoms: N5_21  and  C12_22 
REMARK    5  A    between atoms: C12_22  and  C13_23 
ROOT
HETATM    1  C1  UNL     1       9.151  27.964  32.836  1.00  0.00     0.678 A 
HETATM    2  N2  UNL     1      10.471  27.859  33.089  1.00  0.00    -0.176 N 
ATOM      3  H2  UNL     1      11.010  28.699  33.301  1.00  0.00     0.186 HD
HETATM    4  C2  UNL     1      11.086  26.667  33.068  1.00  0.00     0.134 A 
HETATM    5  C9  UNL     1      10.374  25.530  32.785  1.00  0.00     0.041 A 
HETATM    6  C10 UNL     1      10.987  24.294  32.757  1.00  0.00     0.037 A 
HETATM    7  C11 UNL     1      10.238  23.176  32.469  1.00  0.00     0.129 A 
HETATM    8  N4  UNL     1       8.919  23.284  32.217  1.00  0.00    -0.187 N 
HETATM    9  O1  UNL     1       7.750  22.755  31.916  1.00  0.00    -0.144 OA
HETATM   10  N5  UNL     1       7.138  23.897  31.932  1.00  0.00    -0.208 N 
HETATM   11  C18 UNL     1       8.304  24.480  32.239  1.00  0.00     0.187 A 
HETATM   12  C19 UNL     1       9.007  25.622  32.521  1.00  0.00     0.111 A 
HETATM   13  N7  UNL     1       8.435  26.835  32.553  1.00  0.00    -0.187 N 
ATOM     14  H7  UNL     1       7.437  26.917  32.361  1.00  0.00     0.184 HD
ENDROOT
BRANCH   4  15
HETATM   15  N3  UNL     1      12.350  26.587  33.313  1.00  0.00    -0.341 N 
ATOM     16  H3  UNL     1      12.937  26.040  32.684  1.00  0.00     0.167 HD
BRANCH  15  17
HETATM   17  C3  UNL     1      12.957  27.232  34.424  1.00  0.00     0.033 A 
HETATM   18  C4  UNL     1      13.956  28.148  34.163  1.00  0.00     0.029 A 
HETATM   19  C5  UNL     1      14.576  28.801  35.208  1.00  0.00     0.002 A 
HETATM   20  C6  UNL     1      14.210  28.550  36.534  1.00  0.00     0.000 A 
HETATM   21  C7  UNL     1      13.208  27.631  36.788  1.00  0.00     0.002 A 
HETATM   22  C8  UNL     1      12.601  26.990  35.733  1.00  0.00     0.029 A 
ENDBRANCH  15  17
ENDBRANCH   4  15
BRANCH   1  23
HETATM   23  N1  UNL     1       8.557  29.121  32.858  1.00  0.00    -0.234 N 
ATOM     24  H12 UNL     1       8.909  29.863  33.462  1.00  0.00     0.174 HD
ATOM     25  H11 UNL     1       7.738  29.300  32.277  1.00  0.00     0.174 HD
ENDBRANCH   1  23
BRANCH  10  26
HETATM   26  C12 UNL     1       5.768  24.290  31.704  1.00  0.00     0.199 C 
BRANCH  26  27
HETATM   27  C13 UNL     1       5.464  24.469  30.268  1.00  0.00    -0.035 A 
HETATM   28  C14 UNL     1       4.162  24.494  29.827  1.00  0.00     0.026 A 
HETATM   29  C15 UNL     1       3.907  24.663  28.470  1.00  0.00     0.088 A 
HETATM   30  N6  UNL     1       4.895  24.804  27.572  1.00  0.00    -0.375 N 
HETATM   31  C16 UNL     1       6.189  24.783  27.983  1.00  0.00     0.088 A 
ATOM     32  H6  UNL     1       4.674  24.925  26.584  1.00  0.00     0.164 HD
HETATM   33  C17 UNL     1       6.465  24.613  29.343  1.00  0.00     0.026 A 
ENDBRANCH  26  27
ENDBRANCH  10  26
TORSDOF 5
ENDMDL
MODEL 2
REMARK VINA RESULT: -8.346690871      4.142      9.070
REMARK  5 active torsions:
REMARK  status: ('A' for Active; 'I' for Inactive)
REMARK    1  A    between atoms: N1_1  and  C1_4 
REMARK    2  A    between atoms: C2_7  and  N3_8 
REMARK    3  A    between atoms: N3_8  and  C3_10 
REMARK    4  A    between atoms: N5_21  and  C12_22 
REMARK    5  A    between atoms: C12_22  and  C13_23 
ROOT
HETATM    1  C1  UNL     1      11.355  25.835  33.223  1.00  0.00     0.678 A 
HETATM    2  N2  UNL     1      10.079  25.896  33.653  1.00  0.00    -0.176 N 
ATOM      3  H2  UNL     1       9.345  25.433  33.117  1.00  0.00     0.186 HD
HETATM    4  C2  UNL     1       9.759  26.557  34.776  1.00  0.00     0.134 A 
HETATM    5  C9  UNL     1      10.734  27.185  35.508  1.00  0.00     0.041 A 
HETATM    6  C10 UNL     1      10.428  27.869  36.665  1.00  0.00     0.037 A 
HETATM    7  C11 UNL     1      11.435  28.486  37.371  1.00  0.00     0.129 A 
HETATM    8  N4  UNL     1      12.709  28.423  36.939  1.00  0.00    -0.187 N 
HETATM    9  O1  UNL     1      13.990  28.712  37.060  1.00  0.00    -0.144 OA
HETATM   10  N5  UNL     1      14.319  28.079  35.979  1.00  0.00    -0.208 N 
HETATM   11  C18 UNL     1      13.028  27.760  35.813  1.00  0.00     0.187 A 
HETATM   12  C19 UNL     1      12.061  27.130  35.076  1.00  0.00     0.111 A 
HETATM   13  N7  UNL     1      12.332  26.458  33.947  1.00  0.00    -0.187 N 
ATOM     14  H7  UNL     1      13.297  26.410  33.619  1.00  0.00     0.184 HD
ENDROOT
BRANCH   4  15
HETATM   15  N3  UNL     1       8.532  26.604  35.171  1.00  0.00    -0.341 N 
ATOM     16  H3  UNL     1       8.033  27.491  35.113  1.00  0.00     0.167 HD
BRANCH  15  17
HETATM   17  C3  UNL     1       7.848  25.470  35.684  1.00  0.00     0.033 A 
HETATM   18  C4  UNL     1       6.733  25.032  34.999  1.00  0.00     0.029 A 
HETATM   19  C5  UNL     1       6.035  23.934  35.457  1.00  0.00     0.002 A 
HETATM   20  C6  UNL     1       6.438  23.252  36.610  1.00  0.00     0.000 A 
HETATM   21  C7  UNL     1       7.555  23.697  37.292  1.00  0.00     0.002 A 
HETATM   22  C8  UNL     1       8.240  24.793  36.820  1.00  0.00     0.029 A 
ENDBRANCH  15  17
ENDBRANCH   4  15
BRANCH   1  23
HETATM   23  N1  UNL     1      11.662  25.194  32.134  1.00  0.00    -0.234 N 
ATOM     24  H12 UNL     1      11.146  25.375  31.273  1.00  0.00     0.174 HD
ATOM     25  H11 UNL     1      12.415  24.506  32.126  1.00  0.00     0.174 HD
ENDBRANCH   1  23
BRANCH  10  26
HETATM   26  C12 UNL     1      15.574  27.858  35.303  1.00  0.00     0.199 C 
BRANCH  26  27
HETATM   27  C13 UNL     1      16.425  26.870  36.002  1.00  0.00    -0.035 A 
HETATM   28  C14 UNL     1      16.028  26.331  37.203  1.00  0.00     0.026 A 
HETATM   29  C15 UNL     1      16.850  25.405  37.836  1.00  0.00     0.088 A 
HETATM   30  N6  UNL     1      18.023  25.017  37.312  1.00  0.00    -0.375 N 
HETATM   31  C16 UNL     1      18.437  25.535  36.126  1.00  0.00     0.088 A 
ATOM     32  H6  UNL     1      18.603  24.337  37.803  1.00  0.00     0.164 HD
HETATM   33  C17 UNL     1      17.625  26.468  35.475  1.00  0.00     0.026 A 
ENDBRANCH  26  27
ENDBRANCH  10  26
TORSDOF 5
ENDMDL
MODEL 3
REMARK VINA RESULT: -8.330538422      4.550      9.922
REMARK  5 active torsions:
REMARK  status: ('A' for Active; 'I' for Inactive)
REMARK    1  A    between atoms: N1_1  and  C1_4 
REMARK    2  A    between atoms: C2_7  and  N3_8 
REMARK    3  A    between atoms: N3_8  and  C3_10 
REMARK    4  A    between atoms: N5_21  and  C12_22 
REMARK    5  A    between atoms: C12_22  and  C13_23 
ROOT
HETATM    1  C1  UNL     1      12.253  26.986  38.320  1.00  0.00     0.678 A 
HETATM    2  N2  UNL     1      11.286  27.482  37.524  1.00  0.00    -0.176 N 
ATOM      3  H2  UNL     1      10.327  27.534  37.870  1.00  0.00     0.186 HD
HETATM    4  C2  UNL     1      11.564  27.910  36.283  1.00  0.00     0.134 A 
HETATM    5  C9  UNL     1      12.848  27.846  35.804  1.00  0.00     0.041 A 
HETATM    6  C10 UNL     1      13.156  28.280  34.532  1.00  0.00     0.037 A 
HETATM    7  C11 UNL     1      14.456  28.199  34.088  1.00  0.00     0.129 A 
HETATM    8  N4  UNL     1      15.420  27.702  34.886  1.00  0.00    -0.187 N 
HETATM    9  O1  UNL     1      16.674  27.368  35.118  1.00  0.00    -0.144 OA
HETATM   10  N5  UNL     1      16.426  26.951  36.319  1.00  0.00    -0.208 N 
HETATM   11  C18 UNL     1      15.139  27.274  36.129  1.00  0.00     0.187 A 
HETATM   12  C19 UNL     1      13.860  27.334  36.617  1.00  0.00     0.111 A 
HETATM   13  N7  UNL     1      13.534  26.918  37.850  1.00  0.00    -0.187 N 
ATOM     14  H7  UNL     1      14.264  26.541  38.454  1.00  0.00     0.184 HD
ENDROOT
BRANCH   4  15
HETATM   15  N3  UNL     1      10.625  28.383  35.536  1.00  0.00    -0.341 N 
ATOM     16  H3  UNL     1      10.519  29.394  35.463  1.00  0.00     0.167 HD
BRANCH  15  17
HETATM   17  C3  UNL     1       9.731  27.550  34.810  1.00  0.00     0.033 A 
HETATM   18  C4  UNL     1       9.698  27.692  33.438  1.00  0.00     0.029 A 
HETATM   19  C5  UNL     1       8.847  26.907  32.689  1.00  0.00     0.002 A 
HETATM   20  C6  UNL     1       8.012  25.963  33.297  1.00  0.00     0.000 A 
HETATM   21  C7  UNL     1       8.051  25.827  34.673  1.00  0.00     0.002 A 
HETATM   22  C8  UNL     1       8.906  26.619  35.404  1.00  0.00     0.029 A 
ENDBRANCH  15  17
ENDBRANCH   4  15
BRANCH   1  23
HETATM   23  N1  UNL     1      11.980  26.572  39.523  1.00  0.00    -0.234 N 
ATOM     24  H12 UNL     1      11.893  27.243  40.285  1.00  0.00     0.174 HD
ATOM     25  H11 UNL     1      11.851  25.579  39.718  1.00  0.00     0.174 HD
ENDBRANCH   1  23
BRANCH  10  26
HETATM   26  C12 UNL     1      17.248  26.386  37.362  1.00  0.00     0.199 C 
BRANCH  26  27
HETATM   27  C13 UNL     1      18.505  25.810  36.840  1.00  0.00    -0.035 A 
HETATM   28  C14 UNL     1      18.752  24.461  36.942  1.00  0.00     0.026 A 
HETATM   29  C15 UNL     1      19.945  23.948  36.441  1.00  0.00     0.088 A 
HETATM   30  N6  UNL     1      20.867  24.730  35.860  1.00  0.00    -0.375 N 
HETATM   31  C16 UNL     1      20.647  26.066  35.747  1.00  0.00     0.088 A 
ATOM     32  H6  UNL     1      21.732  24.322  35.504  1.00  0.00     0.164 HD
HETATM   33  C17 UNL     1      19.455  26.600  36.244  1.00  0.00     0.026 A 
ENDBRANCH  26  27
ENDBRANCH  10  26
TORSDOF 5
ENDMDL
MODEL 4
REMARK VINA RESULT: -7.954783026      1.662      2.768
REMARK  5 active torsions:
REMARK  status: ('A' for Active; 'I' for Inactive)
REMARK    1  A    between atoms: N1_1  and  C1_4 
REMARK    2  A    between atoms: C2_7  and  N3_8 
REMARK    3  A    between atoms: N3_8  and  C3_10 
REMARK    4  A    between atoms: N5_21  and  C12_22 
REMARK    5  A    between atoms: C12_22  and  C13_23 
ROOT
HETATM    1  C1  UNL     1       9.151  28.054  32.850  1.00  0.00     0.678 A 
HETATM    2  N2  UNL     1      10.478  27.947  33.066  1.00  0.00    -0.176 N 
ATOM      3  H2  UNL     1      11.026  28.788  33.247  1.00  0.00     0.186 HD
HETATM    4  C2  UNL     1      11.088  26.752  33.048  1.00  0.00     0.134 A 
HETATM    5  C9  UNL     1      10.363  25.613  32.806  1.00  0.00     0.041 A 
HETATM    6  C10 UNL     1      10.970  24.375  32.782  1.00  0.00     0.037 A 
HETATM    7  C11 UNL     1      10.208  23.255  32.536  1.00  0.00     0.129 A 
HETATM    8  N4  UNL     1       8.884  23.365  32.321  1.00  0.00    -0.187 N 
HETATM    9  O1  UNL     1       7.704  22.835  32.064  1.00  0.00    -0.144 OA
HETATM   10  N5  UNL     1       7.097  23.979  32.078  1.00  0.00    -0.208 N 
HETATM   11  C18 UNL     1       8.274  24.563  32.339  1.00  0.00     0.187 A 
HETATM   12  C19 UNL     1       8.989  25.707  32.580  1.00  0.00     0.111 A 
HETATM   13  N7  UNL     1       8.423  26.923  32.608  1.00  0.00    -0.187 N 
ATOM     14  H7  UNL     1       7.420  27.006  32.444  1.00  0.00     0.184 HD
ENDROOT
BRANCH   4  15
HETATM   15  N3  UNL     1      12.358  26.672  33.257  1.00  0.00    -0.341 N 
ATOM     16  H3  UNL     1      12.933  26.164  32.586  1.00  0.00     0.167 HD
BRANCH  15  17
HETATM   17  C3  UNL     1      12.987  27.261  34.386  1.00  0.00     0.033 A 
HETATM   18  C4  UNL     1      13.974  28.197  34.150  1.00  0.00     0.029 A 
HETATM   19  C5  UNL     1      14.614  28.798  35.214  1.00  0.00     0.002 A 
HETATM   20  C6  UNL     1      14.281  28.475  36.533  1.00  0.00     0.000 A 
HETATM   21  C7  UNL     1      13.292  27.537  36.762  1.00  0.00     0.002 A 
HETATM   22  C8  UNL     1      12.664  26.948  35.689  1.00  0.00     0.029 A 
ENDBRANCH  15  17
ENDBRANCH   4  15
BRANCH   1  23
HETATM   23  N1  UNL     1       8.563  29.213  32.869  1.00  0.00    -0.234 N 
ATOM     24  H12 UNL     1       8.142  29.558  33.731  1.00  0.00     0.174 HD
ATOM     25  H11 UNL     1       8.514  29.789  32.028  1.00  0.00     0.174 HD
ENDBRANCH   1  23
BRANCH  10  26
HETATM   26  C12 UNL     1       5.723  24.375  31.883  1.00  0.00     0.199 C 
BRANCH  26  27
HETATM   27  C13 UNL     1       5.007  24.578  33.162  1.00  0.00    -0.035 A 
HETATM   28  C14 UNL     1       3.670  24.898  33.172  1.00  0.00     0.026 A 
HETATM   29  C15 UNL     1       3.025  25.083  34.390  1.00  0.00     0.088 A 
HETATM   30  N6  UNL     1       3.667  24.959  35.562  1.00  0.00    -0.375 N 
HETATM   31  C16 UNL     1       4.988  24.643  35.579  1.00  0.00     0.088 A 
ATOM     32  H6  UNL     1       3.164  25.103  36.438  1.00  0.00     0.164 HD
HETATM   33  C17 UNL     1       5.654  24.453  34.364  1.00  0.00     0.026 A 
ENDBRANCH  26  27
ENDBRANCH  10  26
TORSDOF 5
ENDMDL
MODEL 5
REMARK VINA RESULT: -7.939766389      4.822      6.035
REMARK  5 active torsions:
REMARK  status: ('A' for Active; 'I' for Inactive)
REMARK    1  A    between atoms: N1_1  and  C1_4 
REMARK    2  A    between atoms: C2_7  and  N3_8 
REMARK    3  A    between atoms: N3_8  and  C3_10 
REMARK    4  A    between atoms: N5_21  and  C12_22 
REMARK    5  A    between atoms: C12_22  and  C13_23 
ROOT
HETATM    1  C1  UNL     1      12.270  28.730  38.437  1.00  0.00     0.678 A 
HETATM    2  N2  UNL     1      13.492  28.808  37.874  1.00  0.00    -0.176 N 
ATOM      3  H2  UNL     1      14.240  29.300  38.364  1.00  0.00     0.186 HD
HETATM    4  C2  UNL     1      13.741  28.248  36.681  1.00  0.00     0.134 A 
HETATM    5  C9  UNL     1      12.746  27.584  36.011  1.00  0.00     0.041 A 
HETATM    6  C10 UNL     1      12.980  27.001  34.783  1.00  0.00     0.037 A 
HETATM    7  C11 UNL     1      11.954  26.343  34.142  1.00  0.00     0.129 A 
HETATM    8  N4  UNL     1      10.734  26.267  34.707  1.00  0.00    -0.187 N 
HETATM    9  O1  UNL     1       9.475  25.874  34.698  1.00  0.00    -0.144 OA
HETATM   10  N5  UNL     1       9.216  26.407  35.850  1.00  0.00    -0.208 N 
HETATM   11  C18 UNL     1      10.487  26.829  35.903  1.00  0.00     0.187 A 
HETATM   12  C19 UNL     1      11.474  27.494  36.580  1.00  0.00     0.111 A 
HETATM   13  N7  UNL     1      11.273  28.070  37.775  1.00  0.00    -0.187 N 
ATOM     14  H7  UNL     1      10.349  28.013  38.203  1.00  0.00     0.184 HD
ENDROOT
BRANCH   4  15
HETATM   15  N3  UNL     1      14.918  28.333  36.159  1.00  0.00    -0.341 N 
ATOM     16  H3  UNL     1      15.129  29.127  35.554  1.00  0.00     0.167 HD
BRANCH  15  17
HETATM   17  C3  UNL     1      15.932  27.367  36.394  1.00  0.00     0.033 A 
HETATM   18  C4  UNL     1      16.805  27.093  35.361  1.00  0.00     0.029 A 
HETATM   19  C5  UNL     1      17.806  26.162  35.539  1.00  0.00     0.002 A 
HETATM   20  C6  UNL     1      17.955  25.486  36.755  1.00  0.00     0.000 A 
HETATM   21  C7  UNL     1      17.076  25.764  37.785  1.00  0.00     0.002 A 
HETATM   22  C8  UNL     1      16.083  26.697  37.589  1.00  0.00     0.029 A 
ENDBRANCH  15  17
ENDBRANCH   4  15
BRANCH   1  23
HETATM   23  N1  UNL     1      12.032  29.274  39.594  1.00  0.00    -0.234 N 
ATOM     24  H12 UNL     1      12.734  29.230  40.332  1.00  0.00     0.174 HD
ATOM     25  H11 UNL     1      11.147  29.746  39.779  1.00  0.00     0.174 HD
ENDBRANCH   1  23
BRANCH  10  26
HETATM   26  C12 UNL     1       8.027  26.475  36.665  1.00  0.00     0.199 C 
BRANCH  26  27
HETATM   27  C13 UNL     1       7.471  25.138  36.965  1.00  0.00    -0.035 A 
HETATM   28  C14 UNL     1       8.231  24.006  36.777  1.00  0.00     0.026 A 
HETATM   29  C15 UNL     1       7.680  22.762  37.067  1.00  0.00     0.088 A 
HETATM   30  N6  UNL     1       6.426  22.628  37.525  1.00  0.00    -0.375 N 
HETATM   31  C16 UNL     1       5.655  23.730  37.719  1.00  0.00     0.088 A 
ATOM     32  H6  UNL     1       6.052  21.701  37.727  1.00  0.00     0.164 HD
HETATM   33  C17 UNL     1       6.191  24.989  37.433  1.00  0.00     0.026 A 
ENDBRANCH  26  27
ENDBRANCH  10  26
TORSDOF 5
ENDMDL
