MODEL 1
REMARK VINA RESULT: -7.276247794      0.000      0.000
REMARK  12 active torsions:
REMARK  status: ('A' for Active; 'I' for Inactive)
REMARK    1  A    between atoms: S1_2  and  C2_3 
REMARK    2  A    between atoms: C3_6  and  N2_7 
REMARK    3  A    between atoms: C6_15  and  N5_16 
REMARK    4  A    between atoms: N5_16  and  N6_18 
REMARK    5  A    between atoms: C7_20  and  C8_21 
REMARK    6  A    between atoms: C7_20  and  C10_24 
REMARK    7  A    between atoms: C10_24  and  C11_25 
REMARK    8  A    between atoms: C10_24  and  C14_37 
REMARK       I    between atoms: C11_25  and  N7_27 
REMARK    9  A    between atoms: N7_27  and  C12_29 
REMARK   10  A    between atoms: C12_29  and  C13_30 
REMARK       I    between atoms: C13_30  and  N8_32 
REMARK   11  A    between atoms: N8_32  and  N9_34 
REMARK   12  A    between atoms: C14_37  and  N10_40 
ROOT
HETATM    1  N6  UNL     1       3.936   3.605  52.926  1.00  0.00    -0.299 N 
ATOM      2  H6  UNL     1       4.538   4.119  53.571  1.00  0.00     0.186 HD
HETATM    3  C7  UNL     1       2.890   3.286  53.530  1.00  0.00     0.086 C 
ENDROOT
BRANCH   1   4
HETATM    4  N5  UNL     1       4.535   3.524  51.784  1.00  0.00    -0.283 N 
ATOM      5  H5  UNL     1       5.349   2.916  51.886  1.00  0.00     0.188 HD
BRANCH   4   6
HETATM    6  C6  UNL     1       4.478   3.923  50.592  1.00  0.00     0.152 A 
HETATM    7  C5  UNL     1       3.871   5.125  50.203  1.00  0.00     0.139 A 
HETATM    8  N4  UNL     1       3.256   6.090  50.901  1.00  0.00    -0.184 N 
HETATM    9  C18 UNL     1       3.815   5.537  48.891  1.00  0.00     0.163 A 
HETATM   10  C4  UNL     1       2.821   7.084  50.072  1.00  0.00     0.686 A 
ATOM     11  H4  UNL     1       3.130   6.083  51.913  1.00  0.00     0.184 HD
HETATM   12  N2  UNL     1       3.179   6.721  48.829  1.00  0.00    -0.113 N 
HETATM   13  N3  UNL     1       2.190   8.158  50.429  1.00  0.00    -0.234 N 
ATOM     14  H32 UNL     1       1.865   8.900  49.809  1.00  0.00     0.174 HD
ATOM     15  H31 UNL     1       1.919   8.434  51.373  1.00  0.00     0.174 HD
HETATM   16  N12 UNL     1       4.372   4.736  47.974  1.00  0.00    -0.336 N 
HETATM   17  C17 UNL     1       4.959   3.579  48.328  1.00  0.00     0.183 A 
ATOM     18  H12 UNL     1       4.351   5.009  46.991  1.00  0.00     0.168 HD
HETATM   19  N11 UNL     1       5.011   3.187  49.583  1.00  0.00    -0.336 N 
ATOM     20  H11 UNL     1       5.467   2.301  49.805  1.00  0.00     0.168 HD
BRANCH  12  21
HETATM   21  C3  UNL     1       2.940   7.443  47.623  1.00  0.00     0.155 A 
HETATM   22  N1  UNL     1       3.729   8.379  47.043  1.00  0.00    -0.315 N 
HETATM   23  C2  UNL     1       3.110   8.789  45.923  1.00  0.00     0.188 A 
ATOM     24  H1  UNL     1       4.628   8.711  47.392  1.00  0.00     0.170 HD
HETATM   25  O4  UNL     1       1.983   8.140  45.806  1.00  0.00    -0.296 OA
HETATM   26  C19 UNL     1       1.828   7.308  46.810  1.00  0.00     0.194 A 
BRANCH  23  27
HETATM   27  S1  UNL     1       3.733  10.017  44.791  1.00  0.00    -0.091 SA
HETATM   28  C1  UNL     1       3.306   9.484  43.107  1.00  0.00     0.099 C 
ENDBRANCH  23  27
ENDBRANCH  12  21
ENDBRANCH   4   6
ENDBRANCH   1   4
BRANCH   3  29
HETATM   29  C8  UNL     1       1.841   2.544  52.868  1.00  0.00     0.170 C 
HETATM   30  C9  UNL     1       0.405   2.756  53.143  1.00  0.00     0.098 C 
HETATM   31  O1  UNL     1       2.130   1.673  52.013  1.00  0.00    -0.291 OA
ENDBRANCH   3  29
BRANCH   3  32
HETATM   32  C10 UNL     1       2.626   3.658  54.966  1.00  0.00     0.167 C 
BRANCH  32  33
HETATM   33  C11 UNL     1       3.333   4.934  55.243  1.00  0.00     0.230 C 
HETATM   34  O2  UNL     1       4.613   4.912  55.292  1.00  0.00    -0.273 OA
HETATM   35  N7  UNL     1       2.732   6.181  55.462  1.00  0.00    -0.352 N 
ATOM     36  H7  UNL     1       1.714   6.231  55.422  1.00  0.00     0.162 HD
BRANCH  35  37
HETATM   37  C12 UNL     1       3.442   7.385  55.736  1.00  0.00     0.227 C 
BRANCH  37  38
HETATM   38  C13 UNL     1       3.318   8.439  54.706  1.00  0.00     0.253 C 
HETATM   39  O3  UNL     1       3.040   8.162  53.519  1.00  0.00    -0.270 OA
HETATM   40  N8  UNL     1       3.513   9.802  55.047  1.00  0.00    -0.275 N 
ATOM     41  H8  UNL     1       3.740  10.051  56.010  1.00  0.00     0.189 HD
BRANCH  40  42
HETATM   42  N9  UNL     1       3.398  10.823  54.072  1.00  0.00    -0.343 N 
ATOM     43  H92 UNL     1       2.565  10.842  53.483  1.00  0.00     0.176 HD
ATOM     44  H91 UNL     1       4.129  11.525  53.957  1.00  0.00     0.176 HD
ENDBRANCH  40  42
ENDBRANCH  37  38
ENDBRANCH  35  37
ENDBRANCH  32  33
BRANCH  32  45
HETATM   45  C14 UNL     1       3.149   2.593  55.895  1.00  0.00     0.134 C 
HETATM   46  C15 UNL     1       4.127   1.650  55.288  1.00  0.00     0.047 C 
HETATM   47  C16 UNL     1       2.019   1.767  56.467  1.00  0.00     0.047 C 
BRANCH  45  48
HETATM   48  N10 UNL     1       3.778   3.263  57.046  1.00  0.00    -0.070 N 
ATOM     49 3H10 UNL     1       3.117   3.821  57.587  1.00  0.00     0.275 HD
ATOM     50 2H10 UNL     1       4.043   2.611  57.785  1.00  0.00     0.275 HD
ATOM     51 1H10 UNL     1       4.566   3.810  56.700  1.00  0.00     0.275 HD
ENDBRANCH  45  48
ENDBRANCH  32  45
ENDBRANCH   3  32
TORSDOF 12
ENDMDL
MODEL 2
REMARK VINA RESULT: -7.275864616      1.768      1.968
REMARK  12 active torsions:
REMARK  status: ('A' for Active; 'I' for Inactive)
REMARK    1  A    between atoms: S1_2  and  C2_3 
REMARK    2  A    between atoms: C3_6  and  N2_7 
REMARK    3  A    between atoms: C6_15  and  N5_16 
REMARK    4  A    between atoms: N5_16  and  N6_18 
REMARK    5  A    between atoms: C7_20  and  C8_21 
REMARK    6  A    between atoms: C7_20  and  C10_24 
REMARK    7  A    between atoms: C10_24  and  C11_25 
REMARK    8  A    between atoms: C10_24  and  C14_37 
REMARK       I    between atoms: C11_25  and  N7_27 
REMARK    9  A    between atoms: N7_27  and  C12_29 
REMARK   10  A    between atoms: C12_29  and  C13_30 
REMARK       I    between atoms: C13_30  and  N8_32 
REMARK   11  A    between atoms: N8_32  and  N9_34 
REMARK   12  A    between atoms: C14_37  and  N10_40 
ROOT
HETATM    1  N6  UNL     1       2.506   4.422  52.457  1.00  0.00    -0.299 N 
ATOM      2  H6  UNL     1       3.412   4.209  52.876  1.00  0.00     0.186 HD
HETATM    3  C7  UNL     1       1.679   4.607  53.375  1.00  0.00     0.086 C 
ENDROOT
BRANCH   1   4
HETATM    4  N5  UNL     1       2.635   4.402  51.172  1.00  0.00    -0.283 N 
ATOM      5  H5  UNL     1       2.018   3.683  50.794  1.00  0.00     0.188 HD
BRANCH   4   6
HETATM    6  C6  UNL     1       3.248   4.948  50.217  1.00  0.00     0.152 A 
HETATM    7  C5  UNL     1       2.815   6.122  49.587  1.00  0.00     0.139 A 
HETATM    8  N4  UNL     1       1.756   6.918  49.794  1.00  0.00    -0.184 N 
HETATM    9  C18 UNL     1       3.498   6.698  48.540  1.00  0.00     0.163 A 
HETATM   10  C4  UNL     1       1.757   7.963  48.916  1.00  0.00     0.686 A 
ATOM     11  H4  UNL     1       1.046   6.763  50.510  1.00  0.00     0.184 HD
HETATM   12  N2  UNL     1       2.847   7.808  48.147  1.00  0.00    -0.113 N 
HETATM   13  N3  UNL     1       0.874   8.910  48.851  1.00  0.00    -0.234 N 
ATOM     14  H32 UNL     1       0.875   9.691  48.195  1.00  0.00     0.174 HD
ATOM     15  H31 UNL     1       0.046   9.028  49.436  1.00  0.00     0.174 HD
HETATM   16  N12 UNL     1       4.618   6.088  48.131  1.00  0.00    -0.336 N 
HETATM   17  C17 UNL     1       5.049   4.960  48.724  1.00  0.00     0.183 A 
ATOM     18  H12 UNL     1       5.152   6.485  47.358  1.00  0.00     0.168 HD
HETATM   19  N11 UNL     1       4.394   4.411  49.725  1.00  0.00    -0.336 N 
ATOM     20  H11 UNL     1       4.759   3.556  50.143  1.00  0.00     0.168 HD
BRANCH  12  21
HETATM   21  C3  UNL     1       3.274   8.656  47.083  1.00  0.00     0.155 A 
HETATM   22  N1  UNL     1       3.001   8.536  45.762  1.00  0.00    -0.315 N 
HETATM   23  C2  UNL     1       3.607   9.557  45.132  1.00  0.00     0.188 A 
ATOM     24  H1  UNL     1       2.438   7.805  45.325  1.00  0.00     0.170 HD
HETATM   25  O4  UNL     1       4.231  10.284  46.018  1.00  0.00    -0.296 OA
HETATM   26  C19 UNL     1       4.064   9.784  47.220  1.00  0.00     0.194 A 
BRANCH  23  27
HETATM   27  S1  UNL     1       3.559   9.858  43.376  1.00  0.00    -0.091 SA
HETATM   28  C1  UNL     1       4.830   8.816  42.600  1.00  0.00     0.099 C 
ENDBRANCH  23  27
ENDBRANCH  12  21
ENDBRANCH   4   6
ENDBRANCH   1   4
BRANCH   3  29
HETATM   29  C8  UNL     1       0.300   4.930  53.084  1.00  0.00     0.170 C 
HETATM   30  C9  UNL     1      -0.826   4.517  53.948  1.00  0.00     0.098 C 
HETATM   31  O1  UNL     1       0.011   5.590  52.058  1.00  0.00    -0.291 OA
ENDBRANCH   3  29
BRANCH   3  32
HETATM   32  C10 UNL     1       2.044   4.536  54.835  1.00  0.00     0.167 C 
BRANCH  32  33
HETATM   33  C11 UNL     1       3.050   5.593  55.105  1.00  0.00     0.230 C 
HETATM   34  O2  UNL     1       4.160   5.542  54.466  1.00  0.00    -0.273 OA
HETATM   35  N7  UNL     1       2.908   6.659  56.004  1.00  0.00    -0.352 N 
ATOM     36  H7  UNL     1       2.032   6.729  56.522  1.00  0.00     0.162 HD
BRANCH  35  37
HETATM   37  C12 UNL     1       3.901   7.651  56.247  1.00  0.00     0.227 C 
BRANCH  37  38
HETATM   38  C13 UNL     1       3.613   8.984  55.672  1.00  0.00     0.253 C 
HETATM   39  O3  UNL     1       3.834  10.033  56.315  1.00  0.00    -0.270 OA
HETATM   40  N8  UNL     1       3.075   9.100  54.365  1.00  0.00    -0.275 N 
ATOM     41  H8  UNL     1       2.887   8.257  53.823  1.00  0.00     0.189 HD
BRANCH  40  42
HETATM   42  N9  UNL     1       2.794  10.368  53.801  1.00  0.00    -0.343 N 
ATOM     43  H92 UNL     1       3.470  11.121  53.934  1.00  0.00     0.176 HD
ATOM     44  H91 UNL     1       1.936  10.530  53.273  1.00  0.00     0.176 HD
ENDBRANCH  40  42
ENDBRANCH  37  38
ENDBRANCH  35  37
ENDBRANCH  32  33
BRANCH  32  45
HETATM   45  C14 UNL     1       2.639   3.192  55.167  1.00  0.00     0.134 C 
HETATM   46  C15 UNL     1       1.719   2.034  54.997  1.00  0.00     0.047 C 
HETATM   47  C16 UNL     1       3.149   3.159  56.591  1.00  0.00     0.047 C 
BRANCH  45  48
HETATM   48  N10 UNL     1       3.823   2.995  54.314  1.00  0.00    -0.070 N 
ATOM     49 3H10 UNL     1       4.495   3.759  54.389  1.00  0.00     0.275 HD
ATOM     50 2H10 UNL     1       4.429   2.246  54.646  1.00  0.00     0.275 HD
ATOM     51 1H10 UNL     1       3.500   2.847  53.357  1.00  0.00     0.275 HD
ENDBRANCH  45  48
ENDBRANCH  32  45
ENDBRANCH   3  32
TORSDOF 12
ENDMDL
MODEL 3
REMARK VINA RESULT: -6.622838502      2.737      4.895
REMARK  12 active torsions:
REMARK  status: ('A' for Active; 'I' for Inactive)
REMARK    1  A    between atoms: S1_2  and  C2_3 
REMARK    2  A    between atoms: C3_6  and  N2_7 
REMARK    3  A    between atoms: C6_15  and  N5_16 
REMARK    4  A    between atoms: N5_16  and  N6_18 
REMARK    5  A    between atoms: C7_20  and  C8_21 
REMARK    6  A    between atoms: C7_20  and  C10_24 
REMARK    7  A    between atoms: C10_24  and  C11_25 
REMARK    8  A    between atoms: C10_24  and  C14_37 
REMARK       I    between atoms: C11_25  and  N7_27 
REMARK    9  A    between atoms: N7_27  and  C12_29 
REMARK   10  A    between atoms: C12_29  and  C13_30 
REMARK       I    between atoms: C13_30  and  N8_32 
REMARK   11  A    between atoms: N8_32  and  N9_34 
REMARK   12  A    between atoms: C14_37  and  N10_40 
ROOT
HETATM    1  N6  UNL     1       3.975   2.882  53.308  1.00  0.00    -0.299 N 
ATOM      2  H6  UNL     1       4.470   2.933  52.417  1.00  0.00     0.186 HD
HETATM    3  C7  UNL     1       4.001   1.699  53.708  1.00  0.00     0.086 C 
ENDROOT
BRANCH   1   4
HETATM    4  N5  UNL     1       3.550   4.065  53.608  1.00  0.00    -0.283 N 
ATOM      5  H5  UNL     1       3.245   4.064  54.582  1.00  0.00     0.188 HD
BRANCH   4   6
HETATM    6  C6  UNL     1       3.377   5.218  53.134  1.00  0.00     0.152 A 
HETATM    7  C5  UNL     1       3.199   5.478  51.769  1.00  0.00     0.139 A 
HETATM    8  N4  UNL     1       3.157   4.673  50.697  1.00  0.00    -0.184 N 
HETATM    9  C18 UNL     1       3.019   6.749  51.272  1.00  0.00     0.163 A 
HETATM   10  C4  UNL     1       2.957   5.397  49.557  1.00  0.00     0.686 A 
ATOM     11  H4  UNL     1       3.259   3.659  50.729  1.00  0.00     0.184 HD
HETATM   12  N2  UNL     1       2.874   6.683  49.936  1.00  0.00    -0.113 N 
HETATM   13  N3  UNL     1       2.867   4.923  48.354  1.00  0.00    -0.234 N 
ATOM     14  H32 UNL     1       2.718   5.463  47.502  1.00  0.00     0.174 HD
ATOM     15  H31 UNL     1       2.930   3.946  48.066  1.00  0.00     0.174 HD
HETATM   16  N12 UNL     1       3.017   7.755  52.155  1.00  0.00    -0.336 N 
HETATM   17  C17 UNL     1       3.187   7.526  53.469  1.00  0.00     0.183 A 
ATOM     18  H12 UNL     1       2.886   8.712  51.825  1.00  0.00     0.168 HD
HETATM   19  N11 UNL     1       3.359   6.309  53.941  1.00  0.00    -0.336 N 
ATOM     20  H11 UNL     1       3.484   6.183  54.946  1.00  0.00     0.168 HD
BRANCH  12  21
HETATM   21  C3  UNL     1       2.668   7.814  49.093  1.00  0.00     0.155 A 
HETATM   22  N1  UNL     1       3.491   8.297  48.132  1.00  0.00    -0.315 N 
HETATM   23  C2  UNL     1       2.892   9.374  47.594  1.00  0.00     0.188 A 
ATOM     24  H1  UNL     1       4.398   7.915  47.865  1.00  0.00     0.170 HD
HETATM   25  O4  UNL     1       1.746   9.557  48.190  1.00  0.00    -0.296 OA
HETATM   26  C19 UNL     1       1.557   8.639  49.110  1.00  0.00     0.194 A 
BRANCH  23  27
HETATM   27  S1  UNL     1       3.562  10.377  46.283  1.00  0.00    -0.091 SA
HETATM   28  C1  UNL     1       3.602   9.363  44.775  1.00  0.00     0.099 C 
ENDBRANCH  23  27
ENDBRANCH  12  21
ENDBRANCH   4   6
ENDBRANCH   1   4
BRANCH   3  29
HETATM   29  C8  UNL     1       3.374   1.317  54.954  1.00  0.00     0.170 C 
HETATM   30  C9  UNL     1       3.964   0.335  55.887  1.00  0.00     0.098 C 
HETATM   31  O1  UNL     1       2.278   1.825  55.288  1.00  0.00    -0.291 OA
ENDBRANCH   3  29
BRANCH   3  32
HETATM   32  C10 UNL     1       4.693   0.593  52.954  1.00  0.00     0.167 C 
BRANCH  32  33
HETATM   33  C11 UNL     1       5.596   1.219  51.956  1.00  0.00     0.230 C 
HETATM   34  O2  UNL     1       5.066   1.925  51.027  1.00  0.00    -0.273 OA
HETATM   35  N7  UNL     1       6.994   1.113  51.924  1.00  0.00    -0.352 N 
ATOM     36  H7  UNL     1       7.444   0.563  52.656  1.00  0.00     0.162 HD
BRANCH  35  37
HETATM   37  C12 UNL     1       7.830   1.719  50.943  1.00  0.00     0.227 C 
BRANCH  37  38
HETATM   38  C13 UNL     1       8.543   2.937  51.388  1.00  0.00     0.253 C 
HETATM   39  O3  UNL     1       8.100   3.652  52.313  1.00  0.00    -0.270 OA
HETATM   40  N8  UNL     1       9.759   3.322  50.767  1.00  0.00    -0.275 N 
ATOM     41  H8  UNL     1      10.139   2.753  50.011  1.00  0.00     0.189 HD
BRANCH  40  42
HETATM   42  N9  UNL     1      10.454   4.485  51.182  1.00  0.00    -0.343 N 
ATOM     43  H92 UNL     1      11.474   4.474  51.166  1.00  0.00     0.176 HD
ATOM     44  H91 UNL     1       9.949   5.317  51.489  1.00  0.00     0.176 HD
ENDBRANCH  40  42
ENDBRANCH  37  38
ENDBRANCH  35  37
ENDBRANCH  32  33
BRANCH  32  45
HETATM   45  C14 UNL     1       3.688  -0.270  52.237  1.00  0.00     0.134 C 
HETATM   46  C15 UNL     1       2.358   0.360  52.015  1.00  0.00     0.047 C 
HETATM   47  C16 UNL     1       3.456  -1.567  52.979  1.00  0.00     0.047 C 
BRANCH  45  48
HETATM   48  N10 UNL     1       4.262  -0.651  50.936  1.00  0.00    -0.070 N 
ATOM     49 3H10 UNL     1       4.407   0.148  50.319  1.00  0.00     0.275 HD
ATOM     50 2H10 UNL     1       5.236  -0.947  51.005  1.00  0.00     0.275 HD
ATOM     51 1H10 UNL     1       3.661  -1.364  50.523  1.00  0.00     0.275 HD
ENDBRANCH  45  48
ENDBRANCH  32  45
ENDBRANCH   3  32
TORSDOF 12
ENDMDL
MODEL 4
REMARK VINA RESULT: -6.504574812      4.094      9.334
REMARK  12 active torsions:
REMARK  status: ('A' for Active; 'I' for Inactive)
REMARK    1  A    between atoms: S1_2  and  C2_3 
REMARK    2  A    between atoms: C3_6  and  N2_7 
REMARK    3  A    between atoms: C6_15  and  N5_16 
REMARK    4  A    between atoms: N5_16  and  N6_18 
REMARK    5  A    between atoms: C7_20  and  C8_21 
REMARK    6  A    between atoms: C7_20  and  C10_24 
REMARK    7  A    between atoms: C10_24  and  C11_25 
REMARK    8  A    between atoms: C10_24  and  C14_37 
REMARK       I    between atoms: C11_25  and  N7_27 
REMARK    9  A    between atoms: N7_27  and  C12_29 
REMARK   10  A    between atoms: C12_29  and  C13_30 
REMARK       I    between atoms: C13_30  and  N8_32 
REMARK   11  A    between atoms: N8_32  and  N9_34 
REMARK   12  A    between atoms: C14_37  and  N10_40 
ROOT
HETATM    1  N6  UNL     1       1.614   5.245  52.155  1.00  0.00    -0.299 N 
ATOM      2  H6  UNL     1       1.650   4.749  51.264  1.00  0.00     0.186 HD
HETATM    3  C7  UNL     1       2.405   6.210  52.102  1.00  0.00     0.086 C 
ENDROOT
BRANCH   1   4
HETATM    4  N5  UNL     1       0.767   4.645  52.924  1.00  0.00    -0.283 N 
ATOM      5  H5  UNL     1      -0.148   5.081  52.803  1.00  0.00     0.188 HD
BRANCH   4   6
HETATM    6  C6  UNL     1       0.662   3.717  53.768  1.00  0.00     0.152 A 
HETATM    7  C5  UNL     1       1.582   3.499  54.802  1.00  0.00     0.139 A 
HETATM    8  N4  UNL     1       2.704   4.141  55.159  1.00  0.00    -0.184 N 
HETATM    9  C18 UNL     1       1.450   2.472  55.709  1.00  0.00     0.163 A 
HETATM   10  C4  UNL     1       3.271   3.552  56.252  1.00  0.00     0.686 A 
ATOM     11  H4  UNL     1       3.082   4.958  54.680  1.00  0.00     0.184 HD
HETATM   12  N2  UNL     1       2.477   2.518  56.577  1.00  0.00    -0.113 N 
HETATM   13  N3  UNL     1       4.360   3.927  56.847  1.00  0.00    -0.234 N 
ATOM     14  H32 UNL     1       4.783   3.486  57.663  1.00  0.00     0.174 HD
ATOM     15  H31 UNL     1       4.963   4.712  56.600  1.00  0.00     0.174 HD
HETATM   16  N12 UNL     1       0.389   1.668  55.572  1.00  0.00    -0.336 N 
HETATM   17  C17 UNL     1      -0.505   1.861  54.586  1.00  0.00     0.183 A 
ATOM     18  H12 UNL     1       0.257   0.896  56.226  1.00  0.00     0.168 HD
HETATM   19  N11 UNL     1      -0.377   2.843  53.719  1.00  0.00    -0.336 N 
ATOM     20  H11 UNL     1      -1.079   2.952  52.988  1.00  0.00     0.168 HD
BRANCH  12  21
HETATM   21  C3  UNL     1       2.660   1.602  57.655  1.00  0.00     0.155 A 
HETATM   22  N1  UNL     1       2.345   1.779  58.960  1.00  0.00    -0.315 N 
HETATM   23  C2  UNL     1       2.692   0.656  59.613  1.00  0.00     0.188 A 
ATOM     24  H1  UNL     1       1.923   2.611  59.373  1.00  0.00     0.170 HD
HETATM   25  O4  UNL     1       3.200  -0.187  58.755  1.00  0.00    -0.296 OA
HETATM   26  C19 UNL     1       3.206   0.334  57.550  1.00  0.00     0.194 A 
BRANCH  23  27
HETATM   27  S1  UNL     1       2.486   0.374  61.361  1.00  0.00    -0.091 SA
HETATM   28  C1  UNL     1       3.081   1.854  62.233  1.00  0.00     0.099 C 
ENDBRANCH  23  27
ENDBRANCH  12  21
ENDBRANCH   4   6
ENDBRANCH   1   4
BRANCH   3  29
HETATM   29  C8  UNL     1       2.571   7.104  53.227  1.00  0.00     0.170 C 
HETATM   30  C9  UNL     1       3.369   8.345  53.162  1.00  0.00     0.098 C 
HETATM   31  O1  UNL     1       2.024   6.841  54.324  1.00  0.00    -0.291 OA
ENDBRANCH   3  29
BRANCH   3  32
HETATM   32  C10 UNL     1       3.222   6.535  50.879  1.00  0.00     0.167 C 
BRANCH  32  33
HETATM   33  C11 UNL     1       2.351   7.279  49.935  1.00  0.00     0.230 C 
HETATM   34  O2  UNL     1       1.088   7.068  49.990  1.00  0.00    -0.273 OA
HETATM   35  N7  UNL     1       2.777   8.203  48.970  1.00  0.00    -0.352 N 
ATOM     36  H7  UNL     1       3.777   8.396  48.907  1.00  0.00     0.162 HD
BRANCH  35  37
HETATM   37  C12 UNL     1       1.913   8.892  48.071  1.00  0.00     0.227 C 
BRANCH  37  38
HETATM   38  C13 UNL     1       2.589   9.581  46.950  1.00  0.00     0.253 C 
HETATM   39  O3  UNL     1       2.771  10.818  46.958  1.00  0.00    -0.270 OA
HETATM   40  N8  UNL     1       3.050   8.843  45.829  1.00  0.00    -0.275 N 
ATOM     41  H8  UNL     1       2.913   7.833  45.802  1.00  0.00     0.189 HD
BRANCH  40  42
HETATM   42  N9  UNL     1       3.699   9.489  44.748  1.00  0.00    -0.343 N 
ATOM     43  H92 UNL     1       3.984  10.462  44.862  1.00  0.00     0.176 HD
ATOM     44  H91 UNL     1       3.879   8.995  43.873  1.00  0.00     0.176 HD
ENDBRANCH  40  42
ENDBRANCH  37  38
ENDBRANCH  35  37
ENDBRANCH  32  33
BRANCH  32  45
HETATM   45  C14 UNL     1       3.706   5.273  50.213  1.00  0.00     0.134 C 
HETATM   46  C15 UNL     1       4.317   4.270  51.128  1.00  0.00     0.047 C 
HETATM   47  C16 UNL     1       4.722   5.580  49.136  1.00  0.00     0.047 C 
BRANCH  45  48
HETATM   48  N10 UNL     1       2.562   4.657  49.520  1.00  0.00    -0.070 N 
ATOM     49 3H10 UNL     1       2.257   5.193  48.707  1.00  0.00     0.275 HD
ATOM     50 2H10 UNL     1       2.812   3.797  49.032  1.00  0.00     0.275 HD
ATOM     51 1H10 UNL     1       1.817   4.520  50.204  1.00  0.00     0.275 HD
ENDBRANCH  45  48
ENDBRANCH  32  45
ENDBRANCH   3  32
TORSDOF 12
ENDMDL
MODEL 5
REMARK VINA RESULT: -6.498190446      4.133      9.392
REMARK  12 active torsions:
REMARK  status: ('A' for Active; 'I' for Inactive)
REMARK    1  A    between atoms: S1_2  and  C2_3 
REMARK    2  A    between atoms: C3_6  and  N2_7 
REMARK    3  A    between atoms: C6_15  and  N5_16 
REMARK    4  A    between atoms: N5_16  and  N6_18 
REMARK    5  A    between atoms: C7_20  and  C8_21 
REMARK    6  A    between atoms: C7_20  and  C10_24 
REMARK    7  A    between atoms: C10_24  and  C11_25 
REMARK    8  A    between atoms: C10_24  and  C14_37 
REMARK       I    between atoms: C11_25  and  N7_27 
REMARK    9  A    between atoms: N7_27  and  C12_29 
REMARK   10  A    between atoms: C12_29  and  C13_30 
REMARK       I    between atoms: C13_30  and  N8_32 
REMARK   11  A    between atoms: N8_32  and  N9_34 
REMARK   12  A    between atoms: C14_37  and  N10_40 
ROOT
HETATM    1  N6  UNL     1       3.921   4.564  51.891  1.00  0.00    -0.299 N 
ATOM      2  H6  UNL     1       3.000   4.976  52.043  1.00  0.00     0.186 HD
HETATM    3  C7  UNL     1       4.095   4.426  50.662  1.00  0.00     0.086 C 
ENDROOT
BRANCH   1   4
HETATM    4  N5  UNL     1       4.479   4.376  53.041  1.00  0.00    -0.283 N 
ATOM      5  H5  UNL     1       5.473   4.197  52.895  1.00  0.00     0.188 HD
BRANCH   4   6
HETATM    6  C6  UNL     1       4.240   4.334  54.276  1.00  0.00     0.152 A 
HETATM    7  C5  UNL     1       3.957   3.152  54.973  1.00  0.00     0.139 A 
HETATM    8  N4  UNL     1       3.876   1.872  54.580  1.00  0.00    -0.184 N 
HETATM    9  C18 UNL     1       3.691   3.131  56.324  1.00  0.00     0.163 A 
HETATM   10  C4  UNL     1       3.571   1.061  55.635  1.00  0.00     0.686 A 
ATOM     11  H4  UNL     1       4.023   1.549  53.624  1.00  0.00     0.184 HD
HETATM   12  N2  UNL     1       3.461   1.862  56.707  1.00  0.00    -0.113 N 
HETATM   13  N3  UNL     1       3.421  -0.226  55.594  1.00  0.00    -0.234 N 
ATOM     14  H32 UNL     1       3.194  -0.832  56.382  1.00  0.00     0.174 HD
ATOM     15  H31 UNL     1       3.505  -0.835  54.780  1.00  0.00     0.174 HD
HETATM   16  N12 UNL     1       3.713   4.304  56.968  1.00  0.00    -0.336 N 
HETATM   17  C17 UNL     1       3.982   5.449  56.317  1.00  0.00     0.183 A 
ATOM     18  H12 UNL     1       3.521   4.329  57.970  1.00  0.00     0.168 HD
HETATM   19  N11 UNL     1       4.235   5.466  55.025  1.00  0.00    -0.336 N 
ATOM     20  H11 UNL     1       4.434   6.359  54.573  1.00  0.00     0.168 HD
BRANCH  12  21
HETATM   21  C3  UNL     1       3.153   1.470  58.043  1.00  0.00     0.155 A 
HETATM   22  N1  UNL     1       3.990   1.406  59.106  1.00  0.00    -0.315 N 
HETATM   23  C2  UNL     1       3.269   0.988  60.161  1.00  0.00     0.188 A 
ATOM     24  H1  UNL     1       4.985   1.633  59.106  1.00  0.00     0.170 HD
HETATM   25  O4  UNL     1       2.036   0.799  59.777  1.00  0.00    -0.296 OA
HETATM   26  C19 UNL     1       1.907   1.076  58.500  1.00  0.00     0.194 A 
BRANCH  23  27
HETATM   27  S1  UNL     1       3.903   0.737  61.808  1.00  0.00    -0.091 SA
HETATM   28  C1  UNL     1       3.295   2.099  62.847  1.00  0.00     0.099 C 
ENDBRANCH  23  27
ENDBRANCH  12  21
ENDBRANCH   4   6
ENDBRANCH   1   4
BRANCH   3  29
HETATM   29  C8  UNL     1       5.319   3.862  50.139  1.00  0.00     0.170 C 
HETATM   30  C9  UNL     1       5.512   3.533  48.712  1.00  0.00     0.098 C 
HETATM   31  O1  UNL     1       6.282   3.629  50.907  1.00  0.00    -0.291 OA
ENDBRANCH   3  29
BRANCH   3  32
HETATM   32  C10 UNL     1       3.075   4.848  49.636  1.00  0.00     0.167 C 
BRANCH  32  33
HETATM   33  C11 UNL     1       3.081   6.331  49.572  1.00  0.00     0.230 C 
HETATM   34  O2  UNL     1       3.406   6.976  50.631  1.00  0.00    -0.273 OA
HETATM   35  N7  UNL     1       2.762   7.111  48.452  1.00  0.00    -0.352 N 
ATOM     36  H7  UNL     1       2.507   6.625  47.592  1.00  0.00     0.162 HD
BRANCH  35  37
HETATM   37  C12 UNL     1       2.768   8.536  48.429  1.00  0.00     0.227 C 
BRANCH  37  38
HETATM   38  C13 UNL     1       3.420   9.144  47.248  1.00  0.00     0.253 C 
HETATM   39  O3  UNL     1       4.281  10.043  47.368  1.00  0.00    -0.270 OA
HETATM   40  N8  UNL     1       3.078   8.714  45.940  1.00  0.00    -0.275 N 
ATOM     41  H8  UNL     1       2.379   7.982  45.818  1.00  0.00     0.189 HD
BRANCH  40  42
HETATM   42  N9  UNL     1       3.694   9.287  44.800  1.00  0.00    -0.343 N 
ATOM     43  H92 UNL     1       4.586   9.768  44.918  1.00  0.00     0.176 HD
ATOM     44  H91 UNL     1       3.258   9.223  43.879  1.00  0.00     0.176 HD
ENDBRANCH  40  42
ENDBRANCH  37  38
ENDBRANCH  35  37
ENDBRANCH  32  33
BRANCH  32  45
HETATM   45  C14 UNL     1       1.699   4.378  50.031  1.00  0.00     0.134 C 
HETATM   46  C15 UNL     1       1.661   3.084  50.768  1.00  0.00     0.047 C 
HETATM   47  C16 UNL     1       0.803   4.236  48.821  1.00  0.00     0.047 C 
BRANCH  45  48
HETATM   48  N10 UNL     1       1.083   5.424  50.865  1.00  0.00    -0.070 N 
ATOM     49 3H10 UNL     1       1.241   5.278  51.862  1.00  0.00     0.275 HD
ATOM     50 2H10 UNL     1       1.556   6.324  50.781  1.00  0.00     0.275 HD
ATOM     51 1H10 UNL     1       0.092   5.474  50.626  1.00  0.00     0.275 HD
ENDBRANCH  45  48
ENDBRANCH  32  45
ENDBRANCH   3  32
TORSDOF 12
ENDMDL
