MODEL 1
REMARK VINA RESULT: -9.191350426      0.000      0.000
REMARK  13 active torsions:
REMARK  status: ('A' for Active; 'I' for Inactive)
REMARK    1  A    between atoms: N1_1  and  N2_4 
REMARK    2  A    between atoms: N2_4  and  C1_6 
REMARK    3  A    between atoms: C1_6  and  O1_7 
REMARK    4  A    between atoms: C1_6  and  C2_9 
REMARK    5  A    between atoms: C3_12  and  N4_13 
REMARK    6  A    between atoms: C5_20  and  C6_21 
REMARK    7  A    between atoms: N9_26  and  N10_28 
REMARK    8  A    between atoms: C10_30  and  C11_31 
REMARK       I    between atoms: C11_31  and  N11_33 
REMARK    9  A    between atoms: N11_33  and  C12_35 
REMARK   10  A    between atoms: C12_35  and  C13_36 
REMARK   11  A    between atoms: C13_36  and  C14_37 
REMARK   12  A    between atoms: C14_37  and  O3_38 
REMARK   13  A    between atoms: C18_50  and  O4_51 
ROOT
HETATM    1  C6  UNL     1       3.740   4.741  52.605  1.00  0.00     0.107 A 
HETATM    2  N8  UNL     1       3.428   5.543  51.589  1.00  0.00    -0.343 N 
ATOM      3  H8  UNL     1       3.107   6.494  51.769  1.00  0.00     0.167 HD
HETATM    4  C7  UNL     1       3.534   5.114  50.374  1.00  0.00     0.113 A 
HETATM    5  C8  UNL     1       3.243   5.840  49.196  1.00  0.00     0.152 A 
HETATM    6  N9  UNL     1       2.822   7.065  49.262  1.00  0.00    -0.263 N 
ATOM      7  H9  UNL     1       2.692   7.529  50.161  1.00  0.00     0.190 HD
HETATM    8  N13 UNL     1       3.417   5.221  48.029  1.00  0.00    -0.336 N 
ATOM      9  H13 UNL     1       3.200   5.765  47.194  1.00  0.00     0.168 HD
HETATM   10  C16 UNL     1       3.838   3.983  47.828  1.00  0.00     0.183 A 
HETATM   11  N14 UNL     1       4.123   3.268  48.949  1.00  0.00    -0.345 N 
ATOM     12  H14 UNL     1       4.452   2.306  48.869  1.00  0.00     0.167 HD
HETATM   13  C17 UNL     1       3.971   3.833  50.174  1.00  0.00     0.108 A 
HETATM   14  S1  UNL     1       4.198   3.336  51.804  1.00  0.00    -0.050 SA
ENDROOT
BRANCH   1  15
HETATM   15  C5  UNL     1       3.663   5.107  54.021  1.00  0.00     0.118 A 
HETATM   16  N7  UNL     1       3.824   4.112  54.942  1.00  0.00    -0.186 N 
HETATM   17  C3  UNL     1       3.765   4.383  56.263  1.00  0.00     0.685 A 
ATOM     18  H7  UNL     1       3.991   3.155  54.628  1.00  0.00     0.184 HD
HETATM   19  N3  UNL     1       3.548   5.631  56.673  1.00  0.00    -0.184 N 
HETATM   20  C2  UNL     1       3.380   6.667  55.815  1.00  0.00     0.136 A 
ATOM     21  H3  UNL     1       3.506   5.815  57.675  1.00  0.00     0.184 HD
HETATM   22  C18 UNL     1       3.441   6.386  54.460  1.00  0.00     0.127 A 
BRANCH  17  23
HETATM   23  N4  UNL     1       3.930   3.363  57.227  1.00  0.00    -0.166 N 
HETATM   24  C4  UNL     1       3.198   2.343  57.306  1.00  0.00     0.215 C 
HETATM   25  N5  UNL     1       2.122   2.125  56.416  1.00  0.00    -0.066 NA
HETATM   26  N6  UNL     1       3.495   1.410  58.332  1.00  0.00    -0.066 NA
ATOM     27  H4  UNL     1       4.689   3.459  57.901  1.00  0.00     0.186 HD
ENDBRANCH  17  23
BRANCH  20  28
HETATM   28  C1  UNL     1       3.150   7.980  56.358  1.00  0.00     0.185 C 
BRANCH  28  29
HETATM   29  N2  UNL     1       2.810   9.123  55.639  1.00  0.00    -0.285 N 
ATOM     30  H2  UNL     1       1.843   9.341  55.399  1.00  0.00     0.188 HD
BRANCH  29  31
HETATM   31  N1  UNL     1       3.896   9.975  55.257  1.00  0.00    -0.343 N 
ATOM     32  H12 UNL     1       4.797   9.923  55.732  1.00  0.00     0.176 HD
ATOM     33  H11 UNL     1       3.710  10.625  54.493  1.00  0.00     0.176 HD
ENDBRANCH  29  31
ENDBRANCH  28  29
BRANCH  28  34
HETATM   34  O1  UNL     1       3.279   8.096  57.655  1.00  0.00    -0.343 OA
ATOM     35  H1  UNL     1       3.881   7.505  58.092  1.00  0.00     0.219 HD
ENDBRANCH  28  34
ENDBRANCH  20  28
BRANCH  22  36
HETATM   36  O4  UNL     1       3.270   7.435  53.615  1.00  0.00    -0.356 OA
ATOM     37  H4  UNL     1       3.960   7.583  52.979  1.00  0.00     0.218 HD
ENDBRANCH  22  36
ENDBRANCH   1  15
BRANCH   6  38
HETATM   38  N10 UNL     1       2.551   7.729  48.063  1.00  0.00    -0.206 N 
HETATM   39  C9  UNL     1       3.491   8.206  47.196  1.00  0.00     0.155 A 
HETATM   40  C10 UNL     1       2.856   8.800  46.127  1.00  0.00     0.068 A 
HETATM   41  C15 UNL     1       1.506   8.667  46.372  1.00  0.00     0.127 A 
HETATM   42  N12 UNL     1       1.365   8.017  47.547  1.00  0.00    -0.290 N 
ATOM     43  H12 UNL     1       0.471   7.781  47.977  1.00  0.00     0.188 HD
BRANCH  40  44
HETATM   44  C11 UNL     1       3.488   9.442  44.964  1.00  0.00     0.254 C 
HETATM   45  O2  UNL     1       4.386  10.305  45.096  1.00  0.00    -0.268 OA
HETATM   46  N11 UNL     1       3.079   9.084  43.654  1.00  0.00    -0.357 N 
ATOM     47  H11 UNL     1       2.349   8.383  43.525  1.00  0.00     0.162 HD
BRANCH  46  48
HETATM   48  C12 UNL     1       3.682   9.696  42.514  1.00  0.00     0.125 C 
BRANCH  48  49
HETATM   49  C13 UNL     1       4.876   8.900  42.077  1.00  0.00     0.046 C 
BRANCH  49  50
HETATM   50  C14 UNL     1       4.556   8.183  40.807  1.00  0.00     0.165 C 
BRANCH  50  51
HETATM   51  O3  UNL     1       3.787   9.050  40.017  1.00  0.00    -0.401 OA
ATOM     52  H3  UNL     1       2.907   9.058  40.377  1.00  0.00     0.209 HD
ENDBRANCH  50  51
ENDBRANCH  49  50
ENDBRANCH  48  49
ENDBRANCH  46  48
ENDBRANCH  40  44
ENDBRANCH   6  38
TORSDOF 13
ENDMDL
MODEL 2
REMARK VINA RESULT: -9.094465072      1.874      3.664
REMARK  13 active torsions:
REMARK  status: ('A' for Active; 'I' for Inactive)
REMARK    1  A    between atoms: N1_1  and  N2_4 
REMARK    2  A    between atoms: N2_4  and  C1_6 
REMARK    3  A    between atoms: C1_6  and  O1_7 
REMARK    4  A    between atoms: C1_6  and  C2_9 
REMARK    5  A    between atoms: C3_12  and  N4_13 
REMARK    6  A    between atoms: C5_20  and  C6_21 
REMARK    7  A    between atoms: N9_26  and  N10_28 
REMARK    8  A    between atoms: C10_30  and  C11_31 
REMARK       I    between atoms: C11_31  and  N11_33 
REMARK    9  A    between atoms: N11_33  and  C12_35 
REMARK   10  A    between atoms: C12_35  and  C13_36 
REMARK   11  A    between atoms: C13_36  and  C14_37 
REMARK   12  A    between atoms: C14_37  and  O3_38 
REMARK   13  A    between atoms: C18_50  and  O4_51 
ROOT
HETATM    1  C6  UNL     1       4.220   3.600  52.875  1.00  0.00     0.107 A 
HETATM    2  N8  UNL     1       3.787   4.433  51.931  1.00  0.00    -0.343 N 
ATOM      3  H8  UNL     1       3.242   5.256  52.187  1.00  0.00     0.167 HD
HETATM    4  C7  UNL     1       4.059   4.196  50.690  1.00  0.00     0.113 A 
HETATM    5  C8  UNL     1       3.673   4.982  49.578  1.00  0.00     0.152 A 
HETATM    6  N9  UNL     1       2.974   6.061  49.744  1.00  0.00    -0.263 N 
ATOM      7  H9  UNL     1       2.688   6.366  50.674  1.00  0.00     0.190 HD
HETATM    8  N13 UNL     1       4.053   4.571  48.369  1.00  0.00    -0.336 N 
ATOM      9  H13 UNL     1       3.762   5.153  47.584  1.00  0.00     0.168 HD
HETATM   10  C16 UNL     1       4.762   3.496  48.069  1.00  0.00     0.183 A 
HETATM   11  N14 UNL     1       5.144   2.727  49.124  1.00  0.00    -0.345 N 
ATOM     12  H14 UNL     1       5.692   1.882  48.967  1.00  0.00     0.167 HD
HETATM   13  C17 UNL     1       4.794   3.083  50.387  1.00  0.00     0.108 A 
HETATM   14  S1  UNL     1       5.039   2.448  51.966  1.00  0.00    -0.050 SA
ENDROOT
BRANCH   1  15
HETATM   15  C5  UNL     1       3.979   3.757  54.311  1.00  0.00     0.118 A 
HETATM   16  N7  UNL     1       4.091   5.012  54.838  1.00  0.00    -0.186 N 
HETATM   17  C3  UNL     1       3.882   5.225  56.154  1.00  0.00     0.685 A 
ATOM     18  H7  UNL     1       4.335   5.795  54.231  1.00  0.00     0.184 HD
HETATM   19  N3  UNL     1       3.562   4.204  56.947  1.00  0.00    -0.184 N 
HETATM   20  C2  UNL     1       3.434   2.933  56.491  1.00  0.00     0.136 A 
ATOM     21  H3  UNL     1       3.408   4.385  57.939  1.00  0.00     0.184 HD
HETATM   22  C18 UNL     1       3.650   2.718  55.141  1.00  0.00     0.127 A 
BRANCH  17  23
HETATM   23  N4  UNL     1       3.994   6.518  56.714  1.00  0.00    -0.166 N 
HETATM   24  C4  UNL     1       3.376   7.526  56.287  1.00  0.00     0.215 C 
HETATM   25  N5  UNL     1       2.495   7.451  55.184  1.00  0.00    -0.066 NA
HETATM   26  N6  UNL     1       3.597   8.756  56.960  1.00  0.00    -0.066 NA
ATOM     27  H4  UNL     1       4.616   6.641  57.513  1.00  0.00     0.186 HD
ENDBRANCH  17  23
BRANCH  20  28
HETATM   28  C1  UNL     1       3.085   1.898  57.429  1.00  0.00     0.185 C 
BRANCH  28  29
HETATM   29  N2  UNL     1       3.477   0.564  57.369  1.00  0.00    -0.285 N 
ATOM     30  H2  UNL     1       4.414   0.264  57.641  1.00  0.00     0.188 HD
BRANCH  29  31
HETATM   31  N1  UNL     1       2.490  -0.365  56.905  1.00  0.00    -0.343 N 
ATOM     32  H12 UNL     1       1.602  -0.040  56.522  1.00  0.00     0.176 HD
ATOM     33  H11 UNL     1       2.730  -1.353  56.984  1.00  0.00     0.176 HD
ENDBRANCH  29  31
ENDBRANCH  28  29
BRANCH  28  34
HETATM   34  O1  UNL     1       2.323   2.262  58.429  1.00  0.00    -0.343 OA
ATOM     35  H1  UNL     1       1.417   2.476  58.238  1.00  0.00     0.219 HD
ENDBRANCH  28  34
ENDBRANCH  20  28
BRANCH  22  36
HETATM   36  O4  UNL     1       3.516   1.440  54.702  1.00  0.00    -0.356 OA
ATOM     37  H4  UNL     1       3.860   1.251  53.837  1.00  0.00     0.218 HD
ENDBRANCH  22  36
ENDBRANCH   1  15
BRANCH   6  38
HETATM   38  N10 UNL     1       2.624   6.793  48.607  1.00  0.00    -0.206 N 
HETATM   39  C9  UNL     1       3.264   7.914  48.161  1.00  0.00     0.155 A 
HETATM   40  C10 UNL     1       2.642   8.362  47.017  1.00  0.00     0.068 A 
HETATM   41  C15 UNL     1       1.608   7.482  46.782  1.00  0.00     0.127 A 
HETATM   42  N12 UNL     1       1.632   6.552  47.762  1.00  0.00    -0.290 N 
ATOM     43  H12 UNL     1       0.977   5.774  47.840  1.00  0.00     0.188 HD
BRANCH  40  44
HETATM   44  C11 UNL     1       3.005   9.538  46.211  1.00  0.00     0.254 C 
HETATM   45  O2  UNL     1       2.993  10.695  46.691  1.00  0.00    -0.268 OA
HETATM   46  N11 UNL     1       3.383   9.372  44.854  1.00  0.00    -0.357 N 
ATOM     47  H11 UNL     1       3.399   8.439  44.444  1.00  0.00     0.162 HD
BRANCH  46  48
HETATM   48  C12 UNL     1       3.740  10.502  44.057  1.00  0.00     0.125 C 
BRANCH  48  49
HETATM   49  C13 UNL     1       4.854  10.137  43.122  1.00  0.00     0.046 C 
BRANCH  49  50
HETATM   50  C14 UNL     1       4.395   9.054  42.203  1.00  0.00     0.165 C 
BRANCH  50  51
HETATM   51  O3  UNL     1       3.250   9.521  41.541  1.00  0.00    -0.401 OA
ATOM     52  H3  UNL     1       2.496   9.260  42.058  1.00  0.00     0.209 HD
ENDBRANCH  50  51
ENDBRANCH  49  50
ENDBRANCH  48  49
ENDBRANCH  46  48
ENDBRANCH  40  44
ENDBRANCH   6  38
TORSDOF 13
ENDMDL
MODEL 3
REMARK VINA RESULT: -7.931177515      4.017      5.984
REMARK  13 active torsions:
REMARK  status: ('A' for Active; 'I' for Inactive)
REMARK    1  A    between atoms: N1_1  and  N2_4 
REMARK    2  A    between atoms: N2_4  and  C1_6 
REMARK    3  A    between atoms: C1_6  and  O1_7 
REMARK    4  A    between atoms: C1_6  and  C2_9 
REMARK    5  A    between atoms: C3_12  and  N4_13 
REMARK    6  A    between atoms: C5_20  and  C6_21 
REMARK    7  A    between atoms: N9_26  and  N10_28 
REMARK    8  A    between atoms: C10_30  and  C11_31 
REMARK       I    between atoms: C11_31  and  N11_33 
REMARK    9  A    between atoms: N11_33  and  C12_35 
REMARK   10  A    between atoms: C12_35  and  C13_36 
REMARK   11  A    between atoms: C13_36  and  C14_37 
REMARK   12  A    between atoms: C14_37  and  O3_38 
REMARK   13  A    between atoms: C18_50  and  O4_51 
ROOT
HETATM    1  C6  UNL     1       4.590   3.177  52.664  1.00  0.00     0.107 A 
HETATM    2  N8  UNL     1       4.180   4.070  51.767  1.00  0.00    -0.343 N 
ATOM      3  H8  UNL     1       4.210   3.845  50.772  1.00  0.00     0.167 HD
HETATM    4  C7  UNL     1       3.742   5.222  52.157  1.00  0.00     0.113 A 
HETATM    5  C8  UNL     1       3.274   6.270  51.330  1.00  0.00     0.152 A 
HETATM    6  N9  UNL     1       3.252   6.134  50.041  1.00  0.00    -0.263 N 
ATOM      7  H9  UNL     1       3.571   5.273  49.597  1.00  0.00     0.190 HD
HETATM    8  N13 UNL     1       2.862   7.389  51.924  1.00  0.00    -0.336 N 
ATOM      9  H13 UNL     1       2.529   8.130  51.307  1.00  0.00     0.168 HD
HETATM   10  C16 UNL     1       2.834   7.651  53.220  1.00  0.00     0.183 A 
HETATM   11  N14 UNL     1       3.281   6.656  54.033  1.00  0.00    -0.345 N 
ATOM     12  H14 UNL     1       3.289   6.789  55.044  1.00  0.00     0.167 HD
HETATM   13  C17 UNL     1       3.716   5.486  53.499  1.00  0.00     0.108 A 
HETATM   14  S1  UNL     1       4.345   4.005  54.106  1.00  0.00    -0.050 SA
ENDROOT
BRANCH   1  15
HETATM   15  C5  UNL     1       5.104   1.843  52.350  1.00  0.00     0.118 A 
HETATM   16  N7  UNL     1       6.383   1.551  52.731  1.00  0.00    -0.186 N 
HETATM   17  C3  UNL     1       6.917   0.339  52.473  1.00  0.00     0.685 A 
ATOM     18  H7  UNL     1       6.939   2.256  53.216  1.00  0.00     0.184 HD
HETATM   19  N3  UNL     1       6.192  -0.582  51.841  1.00  0.00    -0.184 N 
HETATM   20  C2  UNL     1       4.918  -0.361  51.435  1.00  0.00     0.136 A 
ATOM     21  H3  UNL     1       6.614  -1.492  51.654  1.00  0.00     0.184 HD
HETATM   22  C18 UNL     1       4.373   0.884  51.702  1.00  0.00     0.127 A 
BRANCH  17  23
HETATM   23  N4  UNL     1       8.239   0.023  52.861  1.00  0.00    -0.166 N 
HETATM   24  C4  UNL     1       9.245   0.718  52.565  1.00  0.00     0.215 C 
HETATM   25  N5  UNL     1       9.137   1.901  51.799  1.00  0.00    -0.066 NA
HETATM   26  N6  UNL     1      10.506   0.265  53.032  1.00  0.00    -0.066 NA
ATOM     27  H4  UNL     1       8.387  -0.820  53.416  1.00  0.00     0.186 HD
ENDBRANCH  17  23
BRANCH  20  28
HETATM   28  C1  UNL     1       4.217  -1.422  50.759  1.00  0.00     0.185 C 
BRANCH  28  29
HETATM   29  N2  UNL     1       3.055  -2.053  51.195  1.00  0.00    -0.285 N 
ATOM     30  H2  UNL     1       3.071  -2.768  51.923  1.00  0.00     0.188 HD
BRANCH  29  31
HETATM   31  N1  UNL     1       1.838  -1.640  50.564  1.00  0.00    -0.343 N 
ATOM     32  H12 UNL     1       1.607  -1.944  49.618  1.00  0.00     0.176 HD
ATOM     33  H11 UNL     1       1.229  -1.034  51.114  1.00  0.00     0.176 HD
ENDBRANCH  29  31
ENDBRANCH  28  29
BRANCH  28  34
HETATM   34  O1  UNL     1       4.735  -1.821  49.625  1.00  0.00    -0.343 OA
ATOM     35  H1  UNL     1       5.551  -1.421  49.349  1.00  0.00     0.219 HD
ENDBRANCH  28  34
ENDBRANCH  20  28
BRANCH  22  36
HETATM   36  O4  UNL     1       3.095   1.087  51.288  1.00  0.00    -0.356 OA
ATOM     37  H4  UNL     1       2.900   1.940  50.920  1.00  0.00     0.218 HD
ENDBRANCH  22  36
ENDBRANCH   1  15
BRANCH   6  38
HETATM   38  N10 UNL     1       2.778   7.205  49.279  1.00  0.00    -0.206 N 
HETATM   39  C9  UNL     1       3.459   7.814  48.264  1.00  0.00     0.155 A 
HETATM   40  C10 UNL     1       2.682   8.827  47.746  1.00  0.00     0.068 A 
HETATM   41  C15 UNL     1       1.512   8.812  48.475  1.00  0.00     0.127 A 
HETATM   42  N12 UNL     1       1.610   7.821  49.387  1.00  0.00    -0.290 N 
ATOM     43  H12 UNL     1       0.886   7.582  50.065  1.00  0.00     0.188 HD
BRANCH  40  44
HETATM   44  C11 UNL     1       3.028   9.735  46.643  1.00  0.00     0.254 C 
HETATM   45  O2  UNL     1       2.996  10.980  46.780  1.00  0.00    -0.268 OA
HETATM   46  N11 UNL     1       3.410   9.202  45.385  1.00  0.00    -0.357 N 
ATOM     47  H11 UNL     1       3.442   8.191  45.253  1.00  0.00     0.162 HD
BRANCH  46  48
HETATM   48  C12 UNL     1       3.750  10.069  44.303  1.00  0.00     0.125 C 
BRANCH  48  49
HETATM   49  C13 UNL     1       4.817   9.438  43.458  1.00  0.00     0.046 C 
BRANCH  49  50
HETATM   50  C14 UNL     1       4.217   8.961  42.177  1.00  0.00     0.165 C 
BRANCH  50  51
HETATM   51  O3  UNL     1       2.968   9.585  42.039  1.00  0.00    -0.401 OA
ATOM     52  H3  UNL     1       2.721   9.529  41.123  1.00  0.00     0.209 HD
ENDBRANCH  50  51
ENDBRANCH  49  50
ENDBRANCH  48  49
ENDBRANCH  46  48
ENDBRANCH  40  44
ENDBRANCH   6  38
TORSDOF 13
ENDMDL
MODEL 4
REMARK VINA RESULT: -7.860420278      3.436      5.433
REMARK  13 active torsions:
REMARK  status: ('A' for Active; 'I' for Inactive)
REMARK    1  A    between atoms: N1_1  and  N2_4 
REMARK    2  A    between atoms: N2_4  and  C1_6 
REMARK    3  A    between atoms: C1_6  and  O1_7 
REMARK    4  A    between atoms: C1_6  and  C2_9 
REMARK    5  A    between atoms: C3_12  and  N4_13 
REMARK    6  A    between atoms: C5_20  and  C6_21 
REMARK    7  A    between atoms: N9_26  and  N10_28 
REMARK    8  A    between atoms: C10_30  and  C11_31 
REMARK       I    between atoms: C11_31  and  N11_33 
REMARK    9  A    between atoms: N11_33  and  C12_35 
REMARK   10  A    between atoms: C12_35  and  C13_36 
REMARK   11  A    between atoms: C13_36  and  C14_37 
REMARK   12  A    between atoms: C14_37  and  O3_38 
REMARK   13  A    between atoms: C18_50  and  O4_51 
ROOT
HETATM    1  C6  UNL     1       4.321   3.104  53.078  1.00  0.00     0.107 A 
HETATM    2  N8  UNL     1       4.027   3.962  52.104  1.00  0.00    -0.343 N 
ATOM      3  H8  UNL     1       4.075   3.664  51.130  1.00  0.00     0.167 HD
HETATM    4  C7  UNL     1       3.679   5.173  52.395  1.00  0.00     0.113 A 
HETATM    5  C8  UNL     1       3.339   6.195  51.479  1.00  0.00     0.152 A 
HETATM    6  N9  UNL     1       3.354   5.968  50.202  1.00  0.00    -0.263 N 
ATOM      7  H9  UNL     1       3.611   5.053  49.832  1.00  0.00     0.190 HD
HETATM    8  N13 UNL     1       3.005   7.385  51.975  1.00  0.00    -0.336 N 
ATOM      9  H13 UNL     1       2.764   8.105  51.295  1.00  0.00     0.168 HD
HETATM   10  C16 UNL     1       2.951   7.741  53.248  1.00  0.00     0.183 A 
HETATM   11  N14 UNL     1       3.276   6.772  54.146  1.00  0.00    -0.345 N 
ATOM     12  H14 UNL     1       3.256   6.976  55.145  1.00  0.00     0.167 HD
HETATM   13  C17 UNL     1       3.625   5.533  53.714  1.00  0.00     0.108 A 
HETATM   14  S1  UNL     1       4.095   4.051  54.448  1.00  0.00    -0.050 SA
ENDROOT
BRANCH   1  15
HETATM   15  C5  UNL     1       4.726   1.711  52.879  1.00  0.00     0.118 A 
HETATM   16  N7  UNL     1       4.886   0.933  53.991  1.00  0.00    -0.186 N 
HETATM   17  C3  UNL     1       5.257  -0.359  53.877  1.00  0.00     0.685 A 
ATOM     18  H7  UNL     1       4.723   1.333  54.915  1.00  0.00     0.184 HD
HETATM   19  N3  UNL     1       5.469  -0.882  52.671  1.00  0.00    -0.184 N 
HETATM   20  C2  UNL     1       5.329  -0.170  51.526  1.00  0.00     0.136 A 
ATOM     21  H3  UNL     1       5.750  -1.861  52.606  1.00  0.00     0.184 HD
HETATM   22  C18 UNL     1       4.948   1.156  51.646  1.00  0.00     0.127 A 
BRANCH  17  23
HETATM   23  N4  UNL     1       5.427  -1.176  55.018  1.00  0.00    -0.166 N 
HETATM   24  C4  UNL     1       4.533  -1.376  55.879  1.00  0.00     0.215 C 
HETATM   25  N5  UNL     1       3.253  -0.787  55.778  1.00  0.00    -0.066 NA
HETATM   26  N6  UNL     1       4.861  -2.224  56.969  1.00  0.00    -0.066 NA
ATOM     27  H4  UNL     1       6.330  -1.631  55.151  1.00  0.00     0.186 HD
ENDBRANCH  17  23
BRANCH  20  28
HETATM   28  C1  UNL     1       5.581  -0.827  50.271  1.00  0.00     0.185 C 
BRANCH  28  29
HETATM   29  N2  UNL     1       6.714  -0.681  49.475  1.00  0.00    -0.285 N 
ATOM     30  H2  UNL     1       7.427  -1.407  49.414  1.00  0.00     0.188 HD
BRANCH  29  31
HETATM   31  N1  UNL     1       6.819   0.547  48.746  1.00  0.00    -0.343 N 
ATOM     32  H12 UNL     1       7.244   1.374  49.167  1.00  0.00     0.176 HD
ATOM     33  H11 UNL     1       6.447   0.540  47.796  1.00  0.00     0.176 HD
ENDBRANCH  29  31
ENDBRANCH  28  29
BRANCH  28  34
HETATM   34  O1  UNL     1       4.644  -1.638  49.848  1.00  0.00    -0.343 OA
ATOM     35  H1  UNL     1       3.770  -1.525  50.205  1.00  0.00     0.219 HD
ENDBRANCH  28  34
ENDBRANCH  20  28
BRANCH  22  36
HETATM   36  O4  UNL     1       4.811   1.855  50.490  1.00  0.00    -0.356 OA
ATOM     37  H4  UNL     1       5.610   2.200  50.107  1.00  0.00     0.218 HD
ENDBRANCH  22  36
ENDBRANCH   1  15
BRANCH   6  38
HETATM   38  N10 UNL     1       3.008   7.018  49.348  1.00  0.00    -0.206 N 
HETATM   39  C9  UNL     1       3.839   7.602  48.436  1.00  0.00     0.155 A 
HETATM   40  C10 UNL     1       3.155   8.600  47.778  1.00  0.00     0.068 A 
HETATM   41  C15 UNL     1       1.886   8.603  48.315  1.00  0.00     0.127 A 
HETATM   42  N12 UNL     1       1.838   7.636  49.257  1.00  0.00    -0.290 N 
ATOM     43  H12 UNL     1       1.017   7.413  49.820  1.00  0.00     0.188 HD
BRANCH  40  44
HETATM   44  C11 UNL     1       3.671   9.480  46.718  1.00  0.00     0.254 C 
HETATM   45  O2  UNL     1       4.479  10.406  46.966  1.00  0.00    -0.268 OA
HETATM   46  N11 UNL     1       3.253   9.288  45.376  1.00  0.00    -0.357 N 
ATOM     47  H11 UNL     1       2.596   8.540  45.154  1.00  0.00     0.162 HD
BRANCH  46  48
HETATM   48  C12 UNL     1       3.745  10.132  44.336  1.00  0.00     0.125 C 
BRANCH  48  49
HETATM   49  C13 UNL     1       4.796   9.410  43.545  1.00  0.00     0.046 C 
BRANCH  49  50
HETATM   50  C14 UNL     1       4.226   8.990  42.231  1.00  0.00     0.165 C 
BRANCH  50  51
HETATM   51  O3  UNL     1       3.001   9.654  42.071  1.00  0.00    -0.401 OA
ATOM     52  H3  UNL     1       2.607   9.736  42.933  1.00  0.00     0.209 HD
ENDBRANCH  50  51
ENDBRANCH  49  50
ENDBRANCH  48  49
ENDBRANCH  46  48
ENDBRANCH  40  44
ENDBRANCH   6  38
TORSDOF 13
ENDMDL
MODEL 5
REMARK VINA RESULT: -7.786475805      4.112      6.070
REMARK  13 active torsions:
REMARK  status: ('A' for Active; 'I' for Inactive)
REMARK    1  A    between atoms: N1_1  and  N2_4 
REMARK    2  A    between atoms: N2_4  and  C1_6 
REMARK    3  A    between atoms: C1_6  and  O1_7 
REMARK    4  A    between atoms: C1_6  and  C2_9 
REMARK    5  A    between atoms: C3_12  and  N4_13 
REMARK    6  A    between atoms: C5_20  and  C6_21 
REMARK    7  A    between atoms: N9_26  and  N10_28 
REMARK    8  A    between atoms: C10_30  and  C11_31 
REMARK       I    between atoms: C11_31  and  N11_33 
REMARK    9  A    between atoms: N11_33  and  C12_35 
REMARK   10  A    between atoms: C12_35  and  C13_36 
REMARK   11  A    between atoms: C13_36  and  C14_37 
REMARK   12  A    between atoms: C14_37  and  O3_38 
REMARK   13  A    between atoms: C18_50  and  O4_51 
ROOT
HETATM    1  C6  UNL     1       5.157   2.865  52.059  1.00  0.00     0.107 A 
HETATM    2  N8  UNL     1       4.693   3.660  51.097  1.00  0.00    -0.343 N 
ATOM      3  H8  UNL     1       4.858   3.426  50.118  1.00  0.00     0.167 HD
HETATM    4  C7  UNL     1       4.033   4.728  51.406  1.00  0.00     0.113 A 
HETATM    5  C8  UNL     1       3.480   5.667  50.505  1.00  0.00     0.152 A 
HETATM    6  N9  UNL     1       3.607   5.507  49.224  1.00  0.00    -0.263 N 
ATOM      7  H9  UNL     1       4.107   4.705  48.841  1.00  0.00     0.190 HD
HETATM    8  N13 UNL     1       2.831   6.710  51.019  1.00  0.00    -0.336 N 
ATOM      9  H13 UNL     1       2.441   7.373  50.349  1.00  0.00     0.168 HD
HETATM   10  C16 UNL     1       2.632   6.986  52.298  1.00  0.00     0.183 A 
HETATM   11  N14 UNL     1       3.157   6.095  53.181  1.00  0.00    -0.345 N 
ATOM     12  H14 UNL     1       3.044   6.244  54.184  1.00  0.00     0.167 HD
HETATM   13  C17 UNL     1       3.833   5.007  52.730  1.00  0.00     0.108 A 
HETATM   14  S1  UNL     1       4.637   3.664  53.443  1.00  0.00    -0.050 SA
ENDROOT
BRANCH   1  15
HETATM   15  C5  UNL     1       5.915   1.632  51.839  1.00  0.00     0.118 A 
HETATM   16  N7  UNL     1       6.455   1.018  52.933  1.00  0.00    -0.186 N 
HETATM   17  C3  UNL     1       7.164  -0.123  52.800  1.00  0.00     0.685 A 
ATOM     18  H7  UNL     1       6.319   1.424  53.859  1.00  0.00     0.184 HD
HETATM   19  N3  UNL     1       7.340  -0.654  51.592  1.00  0.00    -0.184 N 
HETATM   20  C2  UNL     1       6.834  -0.098  50.464  1.00  0.00     0.136 A 
ATOM     21  H3  UNL     1       7.880  -1.516  51.511  1.00  0.00     0.184 HD
HETATM   22  C18 UNL     1       6.106   1.072  50.604  1.00  0.00     0.127 A 
BRANCH  17  23
HETATM   23  N4  UNL     1       7.728  -0.770  53.922  1.00  0.00    -0.166 N 
HETATM   24  C4  UNL     1       8.882  -0.537  54.363  1.00  0.00     0.215 C 
HETATM   25  N5  UNL     1       9.735   0.414  53.759  1.00  0.00    -0.066 NA
HETATM   26  N6  UNL     1       9.302  -1.272  55.502  1.00  0.00    -0.066 NA
ATOM     27  H4  UNL     1       7.164  -1.469  54.405  1.00  0.00     0.186 HD
ENDBRANCH  17  23
BRANCH  20  28
HETATM   28  C1  UNL     1       7.079  -0.751  49.204  1.00  0.00     0.185 C 
BRANCH  28  29
HETATM   29  N2  UNL     1       7.999  -0.357  48.236  1.00  0.00    -0.285 N 
ATOM     30  H2  UNL     1       8.949  -0.726  48.212  1.00  0.00     0.188 HD
BRANCH  29  31
HETATM   31  N1  UNL     1       7.533   0.598  47.274  1.00  0.00    -0.343 N 
ATOM     32  H12 UNL     1       6.845   1.307  47.529  1.00  0.00     0.176 HD
ATOM     33  H11 UNL     1       7.927   0.520  46.337  1.00  0.00     0.176 HD
ENDBRANCH  29  31
ENDBRANCH  28  29
BRANCH  28  34
HETATM   34  O1  UNL     1       6.361  -1.817  48.960  1.00  0.00    -0.343 OA
ATOM     35  H1  UNL     1       6.147  -2.382  49.693  1.00  0.00     0.219 HD
ENDBRANCH  28  34
ENDBRANCH  20  28
BRANCH  22  36
HETATM   36  O4  UNL     1       5.606   1.614  49.464  1.00  0.00    -0.356 OA
ATOM     37  H4  UNL     1       4.765   2.051  49.537  1.00  0.00     0.218 HD
ENDBRANCH  22  36
ENDBRANCH   1  15
BRANCH   6  38
HETATM   38  N10 UNL     1       3.038   6.469  48.386  1.00  0.00    -0.206 N 
HETATM   39  C9  UNL     1       3.688   7.556  47.876  1.00  0.00     0.155 A 
HETATM   40  C10 UNL     1       2.812   8.278  47.095  1.00  0.00     0.068 A 
HETATM   41  C15 UNL     1       1.615   7.597  47.146  1.00  0.00     0.127 A 
HETATM   42  N12 UNL     1       1.793   6.514  47.933  1.00  0.00    -0.290 N 
ATOM     43  H12 UNL     1       1.070   5.828  48.149  1.00  0.00     0.188 HD
BRANCH  40  44
HETATM   44  C11 UNL     1       3.097   9.519  46.358  1.00  0.00     0.254 C 
HETATM   45  O2  UNL     1       2.720  10.636  46.781  1.00  0.00    -0.268 OA
HETATM   46  N11 UNL     1       3.814   9.464  45.136  1.00  0.00    -0.357 N 
ATOM     47  H11 UNL     1       4.129   8.563  44.774  1.00  0.00     0.162 HD
BRANCH  46  48
HETATM   48  C12 UNL     1       4.099  10.658  44.408  1.00  0.00     0.125 C 
BRANCH  48  49
HETATM   49  C13 UNL     1       3.433  10.609  43.065  1.00  0.00     0.046 C 
BRANCH  49  50
HETATM   50  C14 UNL     1       3.759   9.315  42.396  1.00  0.00     0.165 C 
BRANCH  50  51
HETATM   51  O3  UNL     1       3.324   9.408  41.065  1.00  0.00    -0.401 OA
ATOM     52  H3  UNL     1       3.895   8.859  40.540  1.00  0.00     0.209 HD
ENDBRANCH  50  51
ENDBRANCH  49  50
ENDBRANCH  48  49
ENDBRANCH  46  48
ENDBRANCH  40  44
ENDBRANCH   6  38
TORSDOF 13
ENDMDL
