MODEL 1
REMARK VINA RESULT: -5.522258519      0.000      0.000
REMARK  7 active torsions:
REMARK  status: ('A' for Active; 'I' for Inactive)
REMARK    1  A    between atoms: C2_2  and  C4_4 
REMARK    2  A    between atoms: C4_4  and  C5_5 
REMARK    3  A    between atoms: C5_5  and  O1_6 
REMARK    4  A    between atoms: C5_5  and  C6_8 
REMARK    5  A    between atoms: C6_8  and  C8_10 
REMARK    6  A    between atoms: C8_10  and  O2_11 
REMARK    7  A    between atoms: C8_10  and  C9_13 
ROOT
HETATM    1  C6  UNL     1      43.019  17.276   1.345  1.00  0.00     0.042 C 
HETATM    2  C7  UNL     1      42.222  16.040   1.272  1.00  0.00     0.015 C 
ENDROOT
BRANCH   1   3
HETATM    3  C5  UNL     1      44.464  17.098   1.013  1.00  0.00     0.124 C 
BRANCH   3   4
HETATM    4  C4  UNL     1      44.943  15.803   1.599  1.00  0.00     0.036 C 
BRANCH   4   5
HETATM    5  C2  UNL     1      45.736  14.942   0.644  1.00  0.00    -0.020 C 
HETATM    6  C1  UNL     1      44.970  13.671   0.379  1.00  0.00     0.009 C 
HETATM    7  C3  UNL     1      47.012  14.547   1.373  1.00  0.00     0.009 C 
ENDBRANCH   4   5
ENDBRANCH   3   4
BRANCH   3   8
HETATM    8  O1  UNL     1      44.734  17.115  -0.353  1.00  0.00    -0.395 OA
ATOM      9  H1  UNL     1      45.106  17.956  -0.591  1.00  0.00     0.210 HD
ENDBRANCH   3   8
ENDBRANCH   1   3
BRANCH   1  10
HETATM   10  C8  UNL     1      42.373  18.367   0.517  1.00  0.00     0.165 C 
BRANCH  10  11
HETATM   11  O2  UNL     1      43.246  19.470   0.424  1.00  0.00    -0.392 OA
ATOM     12  H2  UNL     1      42.782  20.213   0.059  1.00  0.00     0.210 HD
ENDBRANCH  10  11
BRANCH  10  13
HETATM   13  C9  UNL     1      41.177  18.895   1.273  1.00  0.00     0.278 C 
HETATM   14  N1  UNL     1      40.836  20.274   0.895  1.00  0.00    -0.051 N 
HETATM   15  C10 UNL     1      39.955  19.848  -0.153  1.00  0.00     0.309 C 
ATOM     16  H12 UNL     1      40.476  20.903   1.612  1.00  0.00     0.279 HD
ATOM     17  H11 UNL     1      41.591  20.921   0.668  1.00  0.00     0.279 HD
HETATM   18  S1  UNL     1      39.557  18.316   0.694  1.00  0.00    -0.106 SA
ENDBRANCH  10  13
ENDBRANCH   1  10
TORSDOF 7
ENDMDL
MODEL 2
REMARK VINA RESULT: -5.275792202      2.769      4.973
REMARK  7 active torsions:
REMARK  status: ('A' for Active; 'I' for Inactive)
REMARK    1  A    between atoms: C2_2  and  C4_4 
REMARK    2  A    between atoms: C4_4  and  C5_5 
REMARK    3  A    between atoms: C5_5  and  O1_6 
REMARK    4  A    between atoms: C5_5  and  C6_8 
REMARK    5  A    between atoms: C6_8  and  C8_10 
REMARK    6  A    between atoms: C8_10  and  O2_11 
REMARK    7  A    between atoms: C8_10  and  C9_13 
ROOT
HETATM    1  C6  UNL     1      42.166  18.699   0.478  1.00  0.00     0.042 C 
HETATM    2  C7  UNL     1      42.211  20.054  -0.097  1.00  0.00     0.015 C 
ENDROOT
BRANCH   1   3
HETATM    3  C5  UNL     1      41.554  17.672  -0.416  1.00  0.00     0.124 C 
BRANCH   3   4
HETATM    4  C4  UNL     1      40.103  17.523  -0.065  1.00  0.00     0.036 C 
BRANCH   4   5
HETATM    5  C2  UNL     1      39.846  16.780   1.225  1.00  0.00    -0.020 C 
HETATM    6  C1  UNL     1      39.039  15.543   0.925  1.00  0.00     0.009 C 
HETATM    7  C3  UNL     1      38.971  17.684   2.080  1.00  0.00     0.009 C 
ENDBRANCH   4   5
ENDBRANCH   3   4
BRANCH   3   8
HETATM    8  O1  UNL     1      41.675  17.962  -1.773  1.00  0.00    -0.395 OA
ATOM      9  H1  UNL     1      42.258  18.703  -1.886  1.00  0.00     0.210 HD
ENDBRANCH   3   8
ENDBRANCH   1   3
BRANCH   1  10
HETATM   10  C8  UNL     1      43.541  18.289   0.963  1.00  0.00     0.165 C 
BRANCH  10  11
HETATM   11  O2  UNL     1      44.523  18.824   0.105  1.00  0.00    -0.392 OA
ATOM     12  H2  UNL     1      45.352  18.388   0.260  1.00  0.00     0.210 HD
ENDBRANCH  10  11
BRANCH  10  13
HETATM   13  C9  UNL     1      43.675  16.793   0.805  1.00  0.00     0.278 C 
HETATM   14  N1  UNL     1      45.058  16.379   0.528  1.00  0.00    -0.051 N 
HETATM   15  C10 UNL     1      45.374  16.236   1.920  1.00  0.00     0.309 C 
ATOM     16  H12 UNL     1      45.217  15.587  -0.094  1.00  0.00     0.279 HD
ATOM     17  H11 UNL     1      45.645  16.983  -0.048  1.00  0.00     0.279 HD
HETATM   18  S1  UNL     1      43.677  15.833   2.345  1.00  0.00    -0.106 SA
ENDBRANCH  10  13
ENDBRANCH   1  10
TORSDOF 7
ENDMDL
MODEL 3
REMARK VINA RESULT: -5.223353581      4.630      6.635
REMARK  7 active torsions:
REMARK  status: ('A' for Active; 'I' for Inactive)
REMARK    1  A    between atoms: C2_2  and  C4_4 
REMARK    2  A    between atoms: C4_4  and  C5_5 
REMARK    3  A    between atoms: C5_5  and  O1_6 
REMARK    4  A    between atoms: C5_5  and  C6_8 
REMARK    5  A    between atoms: C6_8  and  C8_10 
REMARK    6  A    between atoms: C8_10  and  O2_11 
REMARK    7  A    between atoms: C8_10  and  C9_13 
ROOT
HETATM    1  C6  UNL     1      48.875  14.379   2.455  1.00  0.00     0.042 C 
HETATM    2  C7  UNL     1      48.523  12.951   2.527  1.00  0.00     0.015 C 
ENDROOT
BRANCH   1   3
HETATM    3  C5  UNL     1      49.912  14.707   1.432  1.00  0.00     0.124 C 
BRANCH   3   4
HETATM    4  C4  UNL     1      50.196  16.179   1.480  1.00  0.00     0.036 C 
BRANCH   4   5
HETATM    5  C2  UNL     1      50.958  16.628   2.705  1.00  0.00    -0.020 C 
HETATM    6  C1  UNL     1      50.204  17.752   3.366  1.00  0.00     0.009 C 
HETATM    7  C3  UNL     1      52.275  17.208   2.209  1.00  0.00     0.009 C 
ENDBRANCH   4   5
ENDBRANCH   3   4
BRANCH   3   8
HETATM    8  O1  UNL     1      51.103  14.001   1.591  1.00  0.00    -0.395 OA
ATOM      9  H1  UNL     1      50.948  13.080   1.419  1.00  0.00     0.210 HD
ENDBRANCH   3   8
ENDBRANCH   1   3
BRANCH   1  10
HETATM   10  C8  UNL     1      47.626  15.220   2.291  1.00  0.00     0.165 C 
BRANCH  10  11
HETATM   11  O2  UNL     1      47.286  15.806   3.528  1.00  0.00    -0.392 OA
ATOM     12  H2  UNL     1      47.805  16.589   3.662  1.00  0.00     0.210 HD
ENDBRANCH  10  11
BRANCH  10  13
HETATM   13  C9  UNL     1      46.470  14.299   1.979  1.00  0.00     0.278 C 
HETATM   14  N1  UNL     1      45.190  14.810   2.491  1.00  0.00    -0.051 N 
HETATM   15  C10 UNL     1      44.910  15.533   1.284  1.00  0.00     0.309 C 
ATOM     16  H12 UNL     1      44.499  14.144   2.834  1.00  0.00     0.279 HD
ATOM     17  H11 UNL     1      45.183  15.315   3.377  1.00  0.00     0.279 HD
HETATM   18  S1  UNL     1      45.839  14.372   0.279  1.00  0.00    -0.106 SA
ENDBRANCH  10  13
ENDBRANCH   1  10
TORSDOF 7
ENDMDL
MODEL 4
REMARK VINA RESULT: -5.191354285      3.077      5.665
REMARK  7 active torsions:
REMARK  status: ('A' for Active; 'I' for Inactive)
REMARK    1  A    between atoms: C2_2  and  C4_4 
REMARK    2  A    between atoms: C4_4  and  C5_5 
REMARK    3  A    between atoms: C5_5  and  O1_6 
REMARK    4  A    between atoms: C5_5  and  C6_8 
REMARK    5  A    between atoms: C6_8  and  C8_10 
REMARK    6  A    between atoms: C8_10  and  O2_11 
REMARK    7  A    between atoms: C8_10  and  C9_13 
ROOT
HETATM    1  C6  UNL     1      43.352  16.478   1.114  1.00  0.00     0.042 C 
HETATM    2  C7  UNL     1      42.458  16.251   2.261  1.00  0.00     0.015 C 
ENDROOT
BRANCH   1   3
HETATM    3  C5  UNL     1      43.208  17.821   0.477  1.00  0.00     0.124 C 
BRANCH   3   4
HETATM    4  C4  UNL     1      41.866  17.903  -0.189  1.00  0.00     0.036 C 
BRANCH   4   5
HETATM    5  C2  UNL     1      40.985  19.019   0.320  1.00  0.00    -0.020 C 
HETATM    6  C1  UNL     1      39.622  18.461   0.638  1.00  0.00     0.009 C 
HETATM    7  C3  UNL     1      40.807  19.994  -0.835  1.00  0.00     0.009 C 
ENDBRANCH   4   5
ENDBRANCH   3   4
BRANCH   3   8
HETATM    8  O1  UNL     1      43.349  18.884   1.366  1.00  0.00    -0.395 OA
ATOM      9  H1  UNL     1      44.268  18.999   1.578  1.00  0.00     0.210 HD
ENDBRANCH   3   8
ENDBRANCH   1   3
BRANCH   1  10
HETATM   10  C8  UNL     1      44.786  16.180   1.499  1.00  0.00     0.165 C 
BRANCH  10  11
HETATM   11  O2  UNL     1      45.602  17.283   1.173  1.00  0.00    -0.392 OA
ATOM     12  H2  UNL     1      45.342  18.035   1.691  1.00  0.00     0.210 HD
ENDBRANCH  10  11
BRANCH  10  13
HETATM   13  C9  UNL     1      45.293  15.062   0.618  1.00  0.00     0.278 C 
HETATM   14  N1  UNL     1      46.743  14.856   0.750  1.00  0.00    -0.051 N 
HETATM   15  C10 UNL     1      46.588  13.912   1.818  1.00  0.00     0.309 C 
ATOM     16  H12 UNL     1      47.274  14.579  -0.075  1.00  0.00     0.279 HD
ATOM     17  H11 UNL     1      47.342  15.668   0.896  1.00  0.00     0.279 HD
HETATM   18  S1  UNL     1      44.981  13.378   1.221  1.00  0.00    -0.106 SA
ENDBRANCH  10  13
ENDBRANCH   1  10
TORSDOF 7
ENDMDL
MODEL 5
REMARK VINA RESULT: -5.141353472      1.107      1.174
REMARK  7 active torsions:
REMARK  status: ('A' for Active; 'I' for Inactive)
REMARK    1  A    between atoms: C2_2  and  C4_4 
REMARK    2  A    between atoms: C4_4  and  C5_5 
REMARK    3  A    between atoms: C5_5  and  O1_6 
REMARK    4  A    between atoms: C5_5  and  C6_8 
REMARK    5  A    between atoms: C6_8  and  C8_10 
REMARK    6  A    between atoms: C8_10  and  O2_11 
REMARK    7  A    between atoms: C8_10  and  C9_13 
ROOT
HETATM    1  C6  UNL     1      43.964  16.924   1.609  1.00  0.00     0.042 C 
HETATM    2  C7  UNL     1      42.949  15.911   1.946  1.00  0.00     0.015 C 
ENDROOT
BRANCH   1   3
HETATM    3  C5  UNL     1      45.255  16.360   1.115  1.00  0.00     0.124 C 
BRANCH   3   4
HETATM    4  C4  UNL     1      45.636  15.190   1.973  1.00  0.00     0.036 C 
BRANCH   4   5
HETATM    5  C2  UNL     1      46.329  14.072   1.230  1.00  0.00    -0.020 C 
HETATM    6  C1  UNL     1      45.548  12.798   1.423  1.00  0.00     0.009 C 
HETATM    7  C3  UNL     1      47.678  13.871   1.906  1.00  0.00     0.009 C 
ENDBRANCH   4   5
ENDBRANCH   3   4
BRANCH   3   8
HETATM    8  O1  UNL     1      45.224  15.964  -0.220  1.00  0.00    -0.395 OA
ATOM      9  H1  UNL     1      44.524  15.334  -0.345  1.00  0.00     0.210 HD
ENDBRANCH   3   8
ENDBRANCH   1   3
BRANCH   1  10
HETATM   10  C8  UNL     1      43.386  17.948   0.655  1.00  0.00     0.165 C 
BRANCH  10  11
HETATM   11  O2  UNL     1      43.991  19.201   0.885  1.00  0.00    -0.392 OA
ATOM     12  H2  UNL     1      43.676  19.560   1.705  1.00  0.00     0.210 HD
ENDBRANCH  10  11
BRANCH  10  13
HETATM   13  C9  UNL     1      41.932  18.160   1.007  1.00  0.00     0.278 C 
HETATM   14  N1  UNL     1      41.523  19.567   0.885  1.00  0.00    -0.051 N 
HETATM   15  C10 UNL     1      41.144  19.416  -0.490  1.00  0.00     0.309 C 
ATOM     16  H12 UNL     1      40.839  19.937   1.544  1.00  0.00     0.279 HD
ATOM     17  H11 UNL     1      42.194  20.296   1.130  1.00  0.00     0.279 HD
HETATM   18  S1  UNL     1      40.733  17.682  -0.268  1.00  0.00    -0.106 SA
ENDBRANCH  10  13
ENDBRANCH   1  10
TORSDOF 7
ENDMDL
