MODEL 1
REMARK VINA RESULT: -8.038469901      0.000      0.000
REMARK  9 active torsions:
REMARK  status: ('A' for Active; 'I' for Inactive)
REMARK    1  A    between atoms: C5_8  and  C6_9 
REMARK    2  A    between atoms: N3_13  and  C8_14 
REMARK    3  A    between atoms: C8_14  and  C9_15 
REMARK    4  A    between atoms: N5_21  and  C14_22 
REMARK    5  A    between atoms: C18_28  and  C19_29 
REMARK    6  A    between atoms: C19_29  and  O2_30 
REMARK    7  A    between atoms: C19_29  and  N7_32 
REMARK    8  A    between atoms: C22_35  and  N8_36 
REMARK    9  A    between atoms: C26_43  and  C27_44 
ROOT
HETATM    1  C9  UNL     1      19.661   3.638   6.882  1.00  0.00     0.162 C 
HETATM    2  C10 UNL     1      18.622   3.641   5.807  1.00  0.00     0.062 C 
HETATM    3  N4  UNL     1      17.821   3.654   4.951  1.00  0.00    -0.197 NA
ENDROOT
BRANCH   1   4
HETATM    4  C8  UNL     1      19.013   3.403   8.218  1.00  0.00     0.098 C 
HETATM    5  C11 UNL     1      19.392   4.732   8.985  1.00  0.00     0.045 C 
HETATM    6  C12 UNL     1      20.856   4.816   9.185  1.00  0.00     0.048 C 
HETATM    7  C13 UNL     1      21.391   3.749  10.108  1.00  0.00     0.069 C 
HETATM    8  N5  UNL     1      20.403   2.754  10.195  1.00  0.00    -0.344 N 
HETATM    9  C25 UNL     1      19.622   2.379   9.102  1.00  0.00     0.102 C 
BRANCH   4  10
HETATM   10  N3  UNL     1      17.566   3.439   8.178  1.00  0.00    -0.271 N 
HETATM   11  N2  UNL     1      16.831   4.568   8.321  1.00  0.00    -0.307 N 
HETATM   12  C7  UNL     1      15.552   4.365   8.255  1.00  0.00     0.122 A 
ATOM     13  H2  UNL     1      17.243   5.490   8.467  1.00  0.00     0.186 HD
HETATM   14  C6  UNL     1      15.415   2.978   8.049  1.00  0.00     0.029 A 
HETATM   15  C26 UNL     1      16.682   2.411   8.003  1.00  0.00     0.148 A 
BRANCH  14  16
HETATM   16  C5  UNL     1      14.115   2.333   7.872  1.00  0.00     0.033 A 
HETATM   17  C2  UNL     1      13.545   1.863   6.703  1.00  0.00     0.042 A 
HETATM   18  C1  UNL     1      14.152   1.972   5.354  1.00  0.00     0.071 C 
HETATM   19  N1  UNL     1      12.339   1.338   6.987  1.00  0.00    -0.265 N 
HETATM   20  O1  UNL     1      12.137   1.463   8.261  1.00  0.00    -0.242 OA
ATOM     21  H1  UNL     1      11.696   0.917   6.317  1.00  0.00     0.194 HD
HETATM   22  C3  UNL     1      13.183   2.061   8.840  1.00  0.00     0.085 A 
HETATM   23  C4  UNL     1      13.246   2.351  10.283  1.00  0.00     0.079 C 
ENDBRANCH  14  16
BRANCH  15  24
HETATM   24  C27 UNL     1      16.967   1.006   7.855  1.00  0.00     0.435 C 
HETATM   25  F1  UNL     1      15.960   0.235   7.234  1.00  0.00    -0.165 F 
HETATM   26  F2  UNL     1      17.914   0.904   6.771  1.00  0.00    -0.165 F 
HETATM   27  F3  UNL     1      17.655   0.310   8.772  1.00  0.00    -0.165 F 
ENDBRANCH  15  24
ENDBRANCH   4  10
BRANCH   8  28
HETATM   28  C14 UNL     1      20.198   2.265  11.483  1.00  0.00     0.011 C 
HETATM   29  C15 UNL     1      21.195   2.423  12.544  1.00  0.00     0.098 C 
HETATM   30  C16 UNL     1      20.848   1.419  13.636  1.00  0.00     0.061 C 
HETATM   31  N6  UNL     1      19.537   0.914  13.575  1.00  0.00    -0.401 N 
HETATM   32  C17 UNL     1      18.472   1.718  13.099  1.00  0.00     0.137 C 
ATOM     33  H6  UNL     1      19.351  -0.042  13.877  1.00  0.00     0.158 HD
HETATM   34  C18 UNL     1      18.772   2.599  11.921  1.00  0.00     0.124 C 
BRANCH  34  35
HETATM   35  C19 UNL     1      18.409   3.981  11.958  1.00  0.00     0.124 C 
BRANCH  35  36
HETATM   36  O2  UNL     1      17.411   4.403  11.185  1.00  0.00    -0.349 OA
ATOM     37  H2  UNL     1      16.954   5.201  11.422  1.00  0.00     0.219 HD
ENDBRANCH  35  36
BRANCH  35  38
HETATM   38  N7  UNL     1      18.941   5.024  12.687  1.00  0.00    -0.365 N 
HETATM   39  C20 UNL     1      18.845   4.997  14.198  1.00  0.00     0.126 C 
HETATM   40  C21 UNL     1      20.217   4.832  14.748  1.00  0.00     0.052 C 
HETATM   41  C22 UNL     1      21.227   5.761  14.168  1.00  0.00     0.186 C 
HETATM   42  C23 UNL     1      21.074   6.089  12.730  1.00  0.00     0.052 C 
HETATM   43  C24 UNL     1      19.633   6.188  12.242  1.00  0.00     0.126 C 
BRANCH  41  44
HETATM   44  N8  UNL     1      21.391   6.995  14.918  1.00  0.00    -0.075 N 
ATOM     45  H83 UNL     1      20.491   7.455  15.053  1.00  0.00     0.274 HD
ATOM     46  H82 UNL     1      21.630   6.796  15.890  1.00  0.00     0.274 HD
ATOM     47  H81 UNL     1      22.066   7.641  14.509  1.00  0.00     0.274 HD
ENDBRANCH  41  44
ENDBRANCH  35  38
ENDBRANCH  34  35
ENDBRANCH   8  28
ENDBRANCH   1   4
TORSDOF 9
ENDMDL
MODEL 2
REMARK VINA RESULT: -7.316810825      2.726      7.863
REMARK  9 active torsions:
REMARK  status: ('A' for Active; 'I' for Inactive)
REMARK    1  A    between atoms: C5_8  and  C6_9 
REMARK    2  A    between atoms: N3_13  and  C8_14 
REMARK    3  A    between atoms: C8_14  and  C9_15 
REMARK    4  A    between atoms: N5_21  and  C14_22 
REMARK    5  A    between atoms: C18_28  and  C19_29 
REMARK    6  A    between atoms: C19_29  and  O2_30 
REMARK    7  A    between atoms: C19_29  and  N7_32 
REMARK    8  A    between atoms: C22_35  and  N8_36 
REMARK    9  A    between atoms: C26_43  and  C27_44 
ROOT
HETATM    1  C9  UNL     1      19.897   2.331   9.567  1.00  0.00     0.162 C 
HETATM    2  C10 UNL     1      19.929   3.578   8.746  1.00  0.00     0.062 C 
HETATM    3  N4  UNL     1      19.975   4.558   8.102  1.00  0.00    -0.197 NA
ENDROOT
BRANCH   1   4
HETATM    4  C8  UNL     1      18.540   2.164  10.193  1.00  0.00     0.098 C 
HETATM    5  C11 UNL     1      18.206   0.666   9.817  1.00  0.00     0.045 C 
HETATM    6  C12 UNL     1      18.065   0.519   8.351  1.00  0.00     0.048 C 
HETATM    7  C13 UNL     1      16.878   1.263   7.791  1.00  0.00     0.069 C 
HETATM    8  N5  UNL     1      16.484   2.193   8.768  1.00  0.00    -0.344 N 
HETATM    9  C25 UNL     1      17.404   2.878   9.561  1.00  0.00     0.102 C 
BRANCH   4  10
HETATM   10  N3  UNL     1      18.566   2.149  11.641  1.00  0.00    -0.271 N 
HETATM   11  N2  UNL     1      18.339   1.044  12.392  1.00  0.00    -0.307 N 
HETATM   12  C7  UNL     1      18.408   1.263  13.668  1.00  0.00     0.122 A 
ATOM     13  H2  UNL     1      18.134   0.128  11.993  1.00  0.00     0.186 HD
HETATM   14  C6  UNL     1      18.707   2.635  13.786  1.00  0.00     0.029 A 
HETATM   15  C26 UNL     1      18.802   3.177  12.511  1.00  0.00     0.148 A 
BRANCH  14  16
HETATM   16  C5  UNL     1      18.916   3.288  15.077  1.00  0.00     0.033 A 
HETATM   17  C2  UNL     1      20.078   3.846  15.576  1.00  0.00     0.042 A 
HETATM   18  C1  UNL     1      21.391   3.843  14.884  1.00  0.00     0.071 C 
HETATM   19  N1  UNL     1      19.832   4.342  16.801  1.00  0.00    -0.265 N 
HETATM   20  O1  UNL     1      18.587   4.118  17.083  1.00  0.00    -0.242 OA
ATOM     21  H1  UNL     1      20.507   4.813  17.404  1.00  0.00     0.194 HD
HETATM   22  C3  UNL     1      17.991   3.480  16.070  1.00  0.00     0.085 A 
HETATM   23  C4  UNL     1      16.573   3.080  16.097  1.00  0.00     0.079 C 
ENDBRANCH  14  16
BRANCH  15  24
HETATM   24  C27 UNL     1      19.048   4.563  12.205  1.00  0.00     0.435 C 
HETATM   25  F1  UNL     1      19.168   5.427  13.315  1.00  0.00    -0.165 F 
HETATM   26  F2  UNL     1      20.434   4.645  11.810  1.00  0.00    -0.165 F 
HETATM   27  F3  UNL     1      18.512   5.171  11.136  1.00  0.00    -0.165 F 
ENDBRANCH  15  24
ENDBRANCH   4  10
BRANCH   8  28
HETATM   28  C14 UNL     1      15.106   2.282   8.950  1.00  0.00     0.011 C 
HETATM   29  C15 UNL     1      14.507   3.190   9.931  1.00  0.00     0.098 C 
HETATM   30  C16 UNL     1      13.078   2.715  10.164  1.00  0.00     0.061 C 
HETATM   31  N6  UNL     1      12.574   1.857   9.171  1.00  0.00    -0.401 N 
HETATM   32  C17 UNL     1      12.977   1.996   7.820  1.00  0.00     0.137 C 
ATOM     33  H6  UNL     1      11.911   1.125   9.426  1.00  0.00     0.158 HD
HETATM   34  C18 UNL     1      14.424   2.314   7.582  1.00  0.00     0.124 C 
BRANCH  34  35
HETATM   35  C19 UNL     1      14.780   3.384   6.703  1.00  0.00     0.124 C 
BRANCH  35  36
HETATM   36  O2  UNL     1      14.624   4.638   7.122  1.00  0.00    -0.349 OA
ATOM     37  H2  UNL     1      15.378   5.215   7.134  1.00  0.00     0.219 HD
ENDBRANCH  35  36
BRANCH  35  38
HETATM   38  N7  UNL     1      15.281   3.354   5.418  1.00  0.00    -0.365 N 
HETATM   39  C20 UNL     1      16.665   3.909   5.148  1.00  0.00     0.126 C 
HETATM   40  C21 UNL     1      17.554   2.777   4.775  1.00  0.00     0.052 C 
HETATM   41  C22 UNL     1      16.992   1.872   3.733  1.00  0.00     0.186 C 
HETATM   42  C23 UNL     1      15.528   1.639   3.781  1.00  0.00     0.052 C 
HETATM   43  C24 UNL     1      14.699   2.839   4.223  1.00  0.00     0.126 C 
BRANCH  41  44
HETATM   44  N8  UNL     1      17.367   2.232   2.376  1.00  0.00    -0.075 N 
ATOM     45  H83 UNL     1      18.029   1.555   1.996  1.00  0.00     0.274 HD
ATOM     46  H82 UNL     1      16.586   2.085   1.737  1.00  0.00     0.274 HD
ATOM     47  H81 UNL     1      17.731   3.180   2.285  1.00  0.00     0.274 HD
ENDBRANCH  41  44
ENDBRANCH  35  38
ENDBRANCH  34  35
ENDBRANCH   8  28
ENDBRANCH   1   4
TORSDOF 9
ENDMDL
MODEL 3
REMARK VINA RESULT: -7.222054689      5.304      9.681
REMARK  9 active torsions:
REMARK  status: ('A' for Active; 'I' for Inactive)
REMARK    1  A    between atoms: C5_8  and  C6_9 
REMARK    2  A    between atoms: N3_13  and  C8_14 
REMARK    3  A    between atoms: C8_14  and  C9_15 
REMARK    4  A    between atoms: N5_21  and  C14_22 
REMARK    5  A    between atoms: C18_28  and  C19_29 
REMARK    6  A    between atoms: C19_29  and  O2_30 
REMARK    7  A    between atoms: C19_29  and  N7_32 
REMARK    8  A    between atoms: C22_35  and  N8_36 
REMARK    9  A    between atoms: C26_43  and  C27_44 
ROOT
HETATM    1  C9  UNL     1      10.131   0.427  11.023  1.00  0.00     0.162 C 
HETATM    2  C10 UNL     1      11.062  -0.714  10.772  1.00  0.00     0.062 C 
HETATM    3  N4  UNL     1      11.780  -1.623  10.586  1.00  0.00    -0.197 NA
ENDROOT
BRANCH   1   4
HETATM    4  C8  UNL     1      10.864   1.730  10.867  1.00  0.00     0.098 C 
HETATM    5  C11 UNL     1      10.223   2.291   9.536  1.00  0.00     0.045 C 
HETATM    6  C12 UNL     1      10.567   1.422   8.389  1.00  0.00     0.048 C 
HETATM    7  C13 UNL     1      12.040   1.426   8.061  1.00  0.00     0.069 C 
HETATM    8  N5  UNL     1      12.704   1.947   9.184  1.00  0.00    -0.344 N 
HETATM    9  C25 UNL     1      12.297   1.666  10.489  1.00  0.00     0.102 C 
BRANCH   4  10
HETATM   10  N3  UNL     1      10.504   2.722  11.858  1.00  0.00    -0.271 N 
HETATM   11  N2  UNL     1      10.441   4.053  11.611  1.00  0.00    -0.307 N 
HETATM   12  C7  UNL     1      10.101   4.755  12.646  1.00  0.00     0.122 A 
ATOM     13  H2  UNL     1      10.643   4.463  10.699  1.00  0.00     0.186 HD
HETATM   14  C6  UNL     1       9.919   3.816  13.680  1.00  0.00     0.029 A 
HETATM   15  C26 UNL     1      10.174   2.548  13.174  1.00  0.00     0.148 A 
BRANCH  14  16
HETATM   16  C5  UNL     1       9.482   4.195  15.022  1.00  0.00     0.033 A 
HETATM   17  C2  UNL     1       8.191   4.284  15.509  1.00  0.00     0.042 A 
HETATM   18  C1  UNL     1       6.961   4.046  14.713  1.00  0.00     0.071 C 
HETATM   19  N1  UNL     1       8.236   4.666  16.798  1.00  0.00    -0.265 N 
HETATM   20  O1  UNL     1       9.480   4.819  17.127  1.00  0.00    -0.242 OA
ATOM     21  H1  UNL     1       7.433   4.810  17.409  1.00  0.00     0.194 HD
HETATM   22  C3  UNL     1      10.272   4.548  16.085  1.00  0.00     0.085 A 
HETATM   23  C4  UNL     1      11.741   4.641  16.147  1.00  0.00     0.079 C 
ENDBRANCH  14  16
BRANCH  15  24
HETATM   24  C27 UNL     1      10.141   1.321  13.929  1.00  0.00     0.435 C 
HETATM   25  F1  UNL     1      10.698   1.380  15.224  1.00  0.00    -0.165 F 
HETATM   26  F2  UNL     1       8.776   1.158  14.367  1.00  0.00    -0.165 F 
HETATM   27  F3  UNL     1      10.299   0.118  13.356  1.00  0.00    -0.165 F 
ENDBRANCH  15  24
ENDBRANCH   4  10
BRANCH   8  28
HETATM   28  C14 UNL     1      13.720   2.849   8.880  1.00  0.00     0.011 C 
HETATM   29  C15 UNL     1      14.956   2.923   9.663  1.00  0.00     0.098 C 
HETATM   30  C16 UNL     1      15.609   4.262   9.341  1.00  0.00     0.061 C 
HETATM   31  N6  UNL     1      15.142   4.876   8.166  1.00  0.00    -0.401 N 
HETATM   32  C17 UNL     1      14.725   4.098   7.058  1.00  0.00     0.137 C 
ATOM     33  H6  UNL     1      15.103   5.893   8.111  1.00  0.00     0.158 HD
HETATM   34  C18 UNL     1      13.946   2.853   7.368  1.00  0.00     0.124 C 
BRANCH  34  35
HETATM   35  C19 UNL     1      14.319   1.613   6.763  1.00  0.00     0.124 C 
BRANCH  35  36
HETATM   36  O2  UNL     1      15.086   0.769   7.449  1.00  0.00    -0.349 OA
ATOM     37  H2  UNL     1      14.734   0.363   8.232  1.00  0.00     0.219 HD
ENDBRANCH  35  36
BRANCH  35  38
HETATM   38  N7  UNL     1      14.018   1.101   5.518  1.00  0.00    -0.365 N 
HETATM   39  C20 UNL     1      12.723   0.339   5.323  1.00  0.00     0.126 C 
HETATM   40  C21 UNL     1      11.839   1.143   4.437  1.00  0.00     0.052 C 
HETATM   41  C22 UNL     1      12.502   1.644   3.200  1.00  0.00     0.186 C 
HETATM   42  C23 UNL     1      13.926   2.036   3.326  1.00  0.00     0.052 C 
HETATM   43  C24 UNL     1      14.744   1.189   4.295  1.00  0.00     0.126 C 
BRANCH  41  44
HETATM   44  N8  UNL     1      12.356   0.760   2.055  1.00  0.00    -0.075 N 
ATOM     45  H83 UNL     1      12.936  -0.071   2.168  1.00  0.00     0.274 HD
ATOM     46  H82 UNL     1      11.433   0.327   2.051  1.00  0.00     0.274 HD
ATOM     47  H81 UNL     1      12.544   1.210   1.159  1.00  0.00     0.274 HD
ENDBRANCH  41  44
ENDBRANCH  35  38
ENDBRANCH  34  35
ENDBRANCH   8  28
ENDBRANCH   1   4
TORSDOF 9
ENDMDL
MODEL 4
REMARK VINA RESULT: -7.128629689      3.114      8.243
REMARK  9 active torsions:
REMARK  status: ('A' for Active; 'I' for Inactive)
REMARK    1  A    between atoms: C5_8  and  C6_9 
REMARK    2  A    between atoms: N3_13  and  C8_14 
REMARK    3  A    between atoms: C8_14  and  C9_15 
REMARK    4  A    between atoms: N5_21  and  C14_22 
REMARK    5  A    between atoms: C18_28  and  C19_29 
REMARK    6  A    between atoms: C19_29  and  O2_30 
REMARK    7  A    between atoms: C19_29  and  N7_32 
REMARK    8  A    between atoms: C22_35  and  N8_36 
REMARK    9  A    between atoms: C26_43  and  C27_44 
ROOT
HETATM    1  C9  UNL     1      19.777   2.668  10.373  1.00  0.00     0.162 C 
HETATM    2  C10 UNL     1      19.727   3.975   9.651  1.00  0.00     0.062 C 
HETATM    3  N4  UNL     1      19.710   5.004   9.087  1.00  0.00    -0.197 NA
ENDROOT
BRANCH   1   4
HETATM    4  C8  UNL     1      18.419   2.337  10.926  1.00  0.00     0.098 C 
HETATM    5  C11 UNL     1      18.147   0.929  10.262  1.00  0.00     0.045 C 
HETATM    6  C12 UNL     1      18.032   1.063   8.792  1.00  0.00     0.048 C 
HETATM    7  C13 UNL     1      16.825   1.860   8.361  1.00  0.00     0.069 C 
HETATM    8  N5  UNL     1      16.382   2.569   9.490  1.00  0.00    -0.344 N 
HETATM    9  C25 UNL     1      17.265   3.120  10.419  1.00  0.00     0.102 C 
BRANCH   4  10
HETATM   10  N3  UNL     1      18.424   2.044  12.344  1.00  0.00    -0.271 N 
HETATM   11  N2  UNL     1      18.088   0.842  12.872  1.00  0.00    -0.307 N 
HETATM   12  C7  UNL     1      18.160   0.807  14.165  1.00  0.00     0.122 A 
ATOM     13  H2  UNL     1      17.805   0.042  12.306  1.00  0.00     0.186 HD
HETATM   14  C6  UNL     1      18.582   2.097  14.542  1.00  0.00     0.029 A 
HETATM   15  C26 UNL     1      18.743   2.861  13.393  1.00  0.00     0.148 A 
BRANCH  14  16
HETATM   16  C5  UNL     1      18.834   2.470  15.932  1.00  0.00     0.033 A 
HETATM   17  C2  UNL     1      17.915   2.823  16.904  1.00  0.00     0.042 A 
HETATM   18  C1  UNL     1      16.451   2.938  16.692  1.00  0.00     0.071 C 
HETATM   19  N1  UNL     1      18.572   3.089  18.047  1.00  0.00    -0.265 N 
HETATM   20  O1  UNL     1      19.839   2.922  17.832  1.00  0.00    -0.242 OA
ATOM     21  H1  UNL     1      18.147   3.373  18.930  1.00  0.00     0.194 HD
HETATM   22  C3  UNL     1      20.047   2.549  16.565  1.00  0.00     0.085 A 
HETATM   23  C4  UNL     1      21.389   2.290  16.015  1.00  0.00     0.079 C 
ENDBRANCH  14  16
BRANCH  15  24
HETATM   24  C27 UNL     1      19.119   4.252  13.357  1.00  0.00     0.435 C 
HETATM   25  F1  UNL     1      19.162   4.911  14.604  1.00  0.00    -0.165 F 
HETATM   26  F2  UNL     1      20.545   4.274  13.133  1.00  0.00    -0.165 F 
HETATM   27  F3  UNL     1      18.760   5.069  12.355  1.00  0.00    -0.165 F 
ENDBRANCH  15  24
ENDBRANCH   4  10
BRANCH   8  28
HETATM   28  C14 UNL     1      15.000   2.574   9.656  1.00  0.00     0.011 C 
HETATM   29  C15 UNL     1      14.317   3.586  10.466  1.00  0.00     0.098 C 
HETATM   30  C16 UNL     1      12.929   3.042  10.781  1.00  0.00     0.061 C 
HETATM   31  N6  UNL     1      12.509   1.986   9.954  1.00  0.00    -0.401 N 
HETATM   32  C17 UNL     1      12.915   1.922   8.598  1.00  0.00     0.137 C 
ATOM     33  H6  UNL     1      11.905   1.257  10.333  1.00  0.00     0.158 HD
HETATM   34  C18 UNL     1      14.335   2.313   8.305  1.00  0.00     0.124 C 
BRANCH  34  35
HETATM   35  C19 UNL     1      14.613   3.239   7.253  1.00  0.00     0.124 C 
BRANCH  35  36
HETATM   36  O2  UNL     1      14.944   4.489   7.570  1.00  0.00    -0.349 OA
ATOM     37  H2  UNL     1      14.445   5.205   7.194  1.00  0.00     0.219 HD
ENDBRANCH  35  36
BRANCH  35  38
HETATM   38  N7  UNL     1      14.593   3.068   5.884  1.00  0.00    -0.365 N 
HETATM   39  C20 UNL     1      15.776   3.538   5.062  1.00  0.00     0.126 C 
HETATM   40  C21 UNL     1      16.457   2.341   4.501  1.00  0.00     0.052 C 
HETATM   41  C22 UNL     1      15.543   1.366   3.844  1.00  0.00     0.186 C 
HETATM   42  C23 UNL     1      14.205   1.197   4.460  1.00  0.00     0.052 C 
HETATM   43  C24 UNL     1      13.604   2.466   5.054  1.00  0.00     0.126 C 
BRANCH  41  44
HETATM   44  N8  UNL     1      15.381   1.580   2.416  1.00  0.00    -0.075 N 
ATOM     45  H83 UNL     1      16.287   1.737   1.972  1.00  0.00     0.274 HD
ATOM     46  H82 UNL     1      15.111   0.713   1.951  1.00  0.00     0.274 HD
ATOM     47  H81 UNL     1      14.732   2.330   2.181  1.00  0.00     0.274 HD
ENDBRANCH  41  44
ENDBRANCH  35  38
ENDBRANCH  34  35
ENDBRANCH   8  28
ENDBRANCH   1   4
TORSDOF 9
ENDMDL
MODEL 5
REMARK VINA RESULT: -7.051601296      3.114      4.864
REMARK  9 active torsions:
REMARK  status: ('A' for Active; 'I' for Inactive)
REMARK    1  A    between atoms: C5_8  and  C6_9 
REMARK    2  A    between atoms: N3_13  and  C8_14 
REMARK    3  A    between atoms: C8_14  and  C9_15 
REMARK    4  A    between atoms: N5_21  and  C14_22 
REMARK    5  A    between atoms: C18_28  and  C19_29 
REMARK    6  A    between atoms: C19_29  and  O2_30 
REMARK    7  A    between atoms: C19_29  and  N7_32 
REMARK    8  A    between atoms: C22_35  and  N8_36 
REMARK    9  A    between atoms: C26_43  and  C27_44 
ROOT
HETATM    1  C9  UNL     1      20.554   3.188  10.872  1.00  0.00     0.162 C 
HETATM    2  C10 UNL     1      20.593   4.245   9.816  1.00  0.00     0.062 C 
HETATM    3  N4  UNL     1      20.644   5.071   8.985  1.00  0.00    -0.197 NA
ENDROOT
BRANCH   1   4
HETATM    4  C8  UNL     1      19.352   3.388  11.752  1.00  0.00     0.098 C 
HETATM    5  C11 UNL     1      19.606   4.847  12.301  1.00  0.00     0.045 C 
HETATM    6  C12 UNL     1      20.816   4.878  13.152  1.00  0.00     0.048 C 
HETATM    7  C13 UNL     1      20.669   4.078  14.423  1.00  0.00     0.069 C 
HETATM    8  N5  UNL     1      19.569   3.223  14.240  1.00  0.00    -0.344 N 
HETATM    9  C25 UNL     1      19.294   2.613  13.016  1.00  0.00     0.102 C 
BRANCH   4  10
HETATM   10  N3  UNL     1      18.109   3.516  11.019  1.00  0.00    -0.271 N 
HETATM   11  N2  UNL     1      17.278   4.581  11.115  1.00  0.00    -0.307 N 
HETATM   12  C7  UNL     1      16.221   4.481  10.372  1.00  0.00     0.122 A 
ATOM     13  H2  UNL     1      17.465   5.385  11.715  1.00  0.00     0.186 HD
HETATM   14  C6  UNL     1      16.352   3.241   9.718  1.00  0.00     0.029 A 
HETATM   15  C26 UNL     1      17.537   2.646  10.132  1.00  0.00     0.148 A 
BRANCH  14  16
HETATM   16  C5  UNL     1      15.378   2.758   8.740  1.00  0.00     0.033 A 
HETATM   17  C2  UNL     1      15.531   2.629   7.372  1.00  0.00     0.042 A 
HETATM   18  C1  UNL     1      16.743   3.015   6.609  1.00  0.00     0.071 C 
HETATM   19  N1  UNL     1      14.389   2.145   6.850  1.00  0.00    -0.265 N 
HETATM   20  O1  UNL     1      13.546   1.974   7.819  1.00  0.00    -0.242 OA
ATOM     21  H1  UNL     1      14.217   1.948   5.865  1.00  0.00     0.194 HD
HETATM   22  C3  UNL     1      14.098   2.333   8.983  1.00  0.00     0.085 A 
HETATM   23  C4  UNL     1      13.382   2.259  10.268  1.00  0.00     0.079 C 
ENDBRANCH  14  16
BRANCH  15  24
HETATM   24  C27 UNL     1      18.010   1.347   9.727  1.00  0.00     0.435 C 
HETATM   25  F1  UNL     1      17.249   0.697   8.732  1.00  0.00    -0.165 F 
HETATM   26  F2  UNL     1      19.164   1.584   8.894  1.00  0.00    -0.165 F 
HETATM   27  F3  UNL     1      18.573   0.486  10.588  1.00  0.00    -0.165 F 
ENDBRANCH  15  24
ENDBRANCH   4  10
BRANCH   8  28
HETATM   28  C14 UNL     1      18.725   3.133  15.344  1.00  0.00     0.011 C 
HETATM   29  C15 UNL     1      17.368   2.593  15.243  1.00  0.00     0.098 C 
HETATM   30  C16 UNL     1      16.614   3.046  16.488  1.00  0.00     0.061 C 
HETATM   31  N6  UNL     1      17.434   3.478  17.546  1.00  0.00    -0.401 N 
HETATM   32  C17 UNL     1      18.708   2.898  17.760  1.00  0.00     0.137 C 
ATOM     33  H6  UNL     1      17.106   4.217  18.168  1.00  0.00     0.158 HD
HETATM   34  C18 UNL     1      19.518   2.591  16.534  1.00  0.00     0.124 C 
BRANCH  34  35
HETATM   35  C19 UNL     1      20.118   1.302  16.383  1.00  0.00     0.124 C 
BRANCH  35  36
HETATM   36  O2  UNL     1      21.388   1.227  15.992  1.00  0.00    -0.349 OA
ATOM     37  H2  UNL     1      21.893   0.456  16.220  1.00  0.00     0.219 HD
ENDBRANCH  35  36
BRANCH  35  38
HETATM   38  N7  UNL     1      19.587   0.043  16.573  1.00  0.00    -0.365 N 
HETATM   39  C20 UNL     1      20.522  -1.132  16.775  1.00  0.00     0.126 C 
HETATM   40  C21 UNL     1      20.365  -1.616  18.173  1.00  0.00     0.052 C 
HETATM   41  C22 UNL     1      18.951  -1.817  18.597  1.00  0.00     0.186 C 
HETATM   42  C23 UNL     1      17.958  -0.854  18.064  1.00  0.00     0.052 C 
HETATM   43  C24 UNL     1      18.226  -0.373  16.643  1.00  0.00     0.126 C 
BRANCH  41  44
HETATM   44  N8  UNL     1      18.459  -3.168  18.385  1.00  0.00    -0.075 N 
ATOM     45  H83 UNL     1      17.974  -3.236  17.490  1.00  0.00     0.274 HD
ATOM     46  H82 UNL     1      19.233  -3.809  18.210  1.00  0.00     0.274 HD
ATOM     47  H81 UNL     1      17.868  -3.517  19.140  1.00  0.00     0.274 HD
ENDBRANCH  41  44
ENDBRANCH  35  38
ENDBRANCH  34  35
ENDBRANCH   8  28
ENDBRANCH   1   4
TORSDOF 9
ENDMDL
