MODEL 1
REMARK VINA RESULT: -9.510161474      0.000      0.000
REMARK  9 active torsions:
REMARK  status: ('A' for Active; 'I' for Inactive)
REMARK    1  A    between atoms: O1_3  and  N2_4 
REMARK    2  A    between atoms: C2_6  and  C3_7 
REMARK    3  A    between atoms: C2_6  and  C7_12 
REMARK    4  A    between atoms: N3_15  and  C10_16 
REMARK    5  A    between atoms: C13_19  and  N4_20 
REMARK    6  A    between atoms: N4_20  and  C14_21 
REMARK    7  A    between atoms: C16_25  and  C17_26 
REMARK       I    between atoms: C17_26  and  N6_28 
REMARK    8  A    between atoms: N6_28  and  C18_30 
REMARK    9  A    between atoms: C22_34  and  C23_35 
ROOT
HETATM    1  N1  UNL     1      10.817   1.547   3.822  1.00  0.00    -0.162 NA
HETATM    2  C1  UNL     1      11.908   1.195   3.789  1.00  0.00     0.253 C 
HETATM    3  O1  UNL     1      13.221   0.793   3.757  1.00  0.00    -0.159 OA
ENDROOT
BRANCH   3   4
HETATM    4  N2  UNL     1      14.246   1.569   4.093  1.00  0.00    -0.252 N 
HETATM    5  C2  UNL     1      15.320   1.738   3.476  1.00  0.00     0.057 C 
ATOM      6  H2  UNL     1      14.145   2.091   4.963  1.00  0.00     0.195 HD
BRANCH   5   7
HETATM    7  C3  UNL     1      15.610   1.059   2.213  1.00  0.00     0.029 A 
HETATM    8  C4  UNL     1      16.149   1.507   1.045  1.00  0.00     0.021 A 
HETATM    9  C5  UNL     1      16.327   0.618   0.049  1.00  0.00     0.008 A 
HETATM   10  C6  UNL     1      15.957  -0.673   0.272  1.00  0.00     0.050 A 
HETATM   11  S1  UNL     1      15.367  -0.628   1.863  1.00  0.00    -0.100 SA
ENDBRANCH   5   7
BRANCH   5  12
HETATM   12  C7  UNL     1      16.377   2.642   4.037  1.00  0.00     0.066 C 
HETATM   13  C8  UNL     1      17.277   1.883   4.937  1.00  0.00     0.030 C 
HETATM   14  C9  UNL     1      16.634   1.667   6.288  1.00  0.00     0.122 C 
HETATM   15  N3  UNL     1      15.954   2.808   6.801  1.00  0.00    -0.193 NA
HETATM   16  O3  UNL     1      15.110   3.375   5.928  1.00  0.00    -0.302 OA
HETATM   17  C26 UNL     1      15.759   3.788   4.766  1.00  0.00     0.205 C 
BRANCH  15  18
HETATM   18  C10 UNL     1      15.279   2.474   8.041  1.00  0.00     0.086 C 
HETATM   19  C11 UNL     1      14.016   1.676   7.799  1.00  0.00     0.025 C 
HETATM   20  C12 UNL     1      12.869   2.194   8.645  1.00  0.00     0.041 C 
HETATM   21  C13 UNL     1      13.349   2.221  10.087  1.00  0.00     0.165 C 
HETATM   22  C24 UNL     1      14.301   3.447  10.129  1.00  0.00     0.041 C 
HETATM   23  C25 UNL     1      14.950   3.709   8.815  1.00  0.00     0.025 C 
BRANCH  21  24
HETATM   24  N4  UNL     1      12.440   2.344  11.054  1.00  0.00    -0.424 NA
BRANCH  24  25
HETATM   25  C14 UNL     1      11.631   2.452  11.915  1.00  0.00     0.188 A 
HETATM   26  N5  UNL     1      11.544   3.554  12.734  1.00  0.00    -0.340 N 
HETATM   27  C15 UNL     1      10.651   3.696  13.706  1.00  0.00     0.107 A 
ATOM     28  H5  UNL     1      12.209   4.313  12.584  1.00  0.00     0.167 HD
HETATM   29  C16 UNL     1       9.723   2.702  13.960  1.00  0.00     0.048 A 
HETATM   30  C21 UNL     1       9.766   1.578  13.171  1.00  0.00     0.039 A 
HETATM   31  C22 UNL     1      10.699   1.447  12.166  1.00  0.00     0.106 A 
BRANCH  29  32
HETATM   32  C17 UNL     1       8.746   2.837  15.033  1.00  0.00     0.253 C 
HETATM   33  O2  UNL     1       9.112   2.719  16.219  1.00  0.00    -0.268 OA
HETATM   34  N6  UNL     1       7.368   3.106  14.755  1.00  0.00    -0.352 N 
ATOM     35  H6  UNL     1       7.073   3.205  13.783  1.00  0.00     0.163 HD
BRANCH  34  36
HETATM   36  C18 UNL     1       6.380   3.243  15.800  1.00  0.00     0.084 A 
HETATM   37  C19 UNL     1       6.366   4.589  16.554  1.00  0.00     0.027 A 
HETATM   38  C20 UNL     1       5.253   4.168  15.648  1.00  0.00     0.027 A 
ENDBRANCH  34  36
ENDBRANCH  29  32
BRANCH  31  39
HETATM   39  C23 UNL     1      10.649   0.187  11.376  1.00  0.00     0.422 C 
HETATM   40  F1  UNL     1      10.377   0.432  10.049  1.00  0.00    -0.166 F 
HETATM   41  F2  UNL     1      11.912  -0.430  11.367  1.00  0.00    -0.166 F 
HETATM   42  F3  UNL     1       9.813  -0.701  11.983  1.00  0.00    -0.166 F 
ENDBRANCH  31  39
ENDBRANCH  24  25
ENDBRANCH  21  24
ENDBRANCH  15  18
ENDBRANCH   5  12
ENDBRANCH   3   4
TORSDOF 9
ENDMDL
MODEL 2
REMARK VINA RESULT: -9.397110832      3.757     12.005
REMARK  9 active torsions:
REMARK  status: ('A' for Active; 'I' for Inactive)
REMARK    1  A    between atoms: O1_3  and  N2_4 
REMARK    2  A    between atoms: C2_6  and  C3_7 
REMARK    3  A    between atoms: C2_6  and  C7_12 
REMARK    4  A    between atoms: N3_15  and  C10_16 
REMARK    5  A    between atoms: C13_19  and  N4_20 
REMARK    6  A    between atoms: N4_20  and  C14_21 
REMARK    7  A    between atoms: C16_25  and  C17_26 
REMARK       I    between atoms: C17_26  and  N6_28 
REMARK    8  A    between atoms: N6_28  and  C18_30 
REMARK    9  A    between atoms: C22_34  and  C23_35 
ROOT
HETATM    1  N1  UNL     1       5.261   3.833  13.561  1.00  0.00    -0.162 NA
HETATM    2  C1  UNL     1       6.348   4.197  13.555  1.00  0.00     0.253 C 
HETATM    3  O1  UNL     1       7.657   4.612  13.554  1.00  0.00    -0.159 OA
ENDROOT
BRANCH   3   4
HETATM    4  N2  UNL     1       8.682   3.851  13.924  1.00  0.00    -0.252 N 
HETATM    5  C2  UNL     1       8.863   3.283  15.023  1.00  0.00     0.057 C 
ATOM      6  H2  UNL     1       9.410   3.712  13.224  1.00  0.00     0.195 HD
BRANCH   5   7
HETATM    7  C3  UNL     1       7.905   3.388  16.124  1.00  0.00     0.029 A 
HETATM    8  C4  UNL     1       6.796   2.660  16.433  1.00  0.00     0.021 A 
HETATM    9  C5  UNL     1       6.122   2.982  17.553  1.00  0.00     0.008 A 
HETATM   10  C6  UNL     1       6.591   4.013  18.307  1.00  0.00     0.050 A 
HETATM   11  S1  UNL     1       7.962   4.520  17.444  1.00  0.00    -0.100 SA
ENDBRANCH   5   7
BRANCH   5  12
HETATM   12  C7  UNL     1      10.109   2.483  15.260  1.00  0.00     0.066 C 
HETATM   13  C8  UNL     1      11.309   3.292  14.941  1.00  0.00     0.030 C 
HETATM   14  C9  UNL     1      11.539   3.353  13.449  1.00  0.00     0.122 C 
HETATM   15  N3  UNL     1      11.350   2.112  12.776  1.00  0.00    -0.193 NA
HETATM   16  O3  UNL     1      10.199   1.498  13.082  1.00  0.00    -0.302 OA
HETATM   17  C26 UNL     1      10.095   1.232  14.446  1.00  0.00     0.205 C 
BRANCH  15  18
HETATM   18  C10 UNL     1      11.483   2.293  11.343  1.00  0.00     0.086 C 
HETATM   19  C11 UNL     1      10.846   1.158  10.571  1.00  0.00     0.025 C 
HETATM   20  C12 UNL     1      11.746   0.688   9.444  1.00  0.00     0.041 C 
HETATM   21  C13 UNL     1      12.107   1.910   8.615  1.00  0.00     0.165 C 
HETATM   22  C24 UNL     1      13.140   2.657   9.503  1.00  0.00     0.041 C 
HETATM   23  C25 UNL     1      12.921   2.417  10.955  1.00  0.00     0.025 C 
BRANCH  21  24
HETATM   24  N4  UNL     1      12.631   1.722   7.404  1.00  0.00    -0.424 NA
BRANCH  24  25
HETATM   25  C14 UNL     1      13.096   1.553   6.326  1.00  0.00     0.188 A 
HETATM   26  N5  UNL     1      14.448   1.599   6.072  1.00  0.00    -0.340 N 
HETATM   27  C15 UNL     1      14.991   1.417   4.874  1.00  0.00     0.107 A 
ATOM     28  H5  UNL     1      15.074   1.785   6.856  1.00  0.00     0.167 HD
HETATM   29  C16 UNL     1      14.195   1.163   3.772  1.00  0.00     0.048 A 
HETATM   30  C21 UNL     1      12.837   1.106   3.970  1.00  0.00     0.039 A 
HETATM   31  C22 UNL     1      12.289   1.296   5.219  1.00  0.00     0.106 A 
BRANCH  29  32
HETATM   32  C17 UNL     1      14.776   0.975   2.448  1.00  0.00     0.253 C 
HETATM   33  O2  UNL     1      15.262   1.952   1.843  1.00  0.00    -0.268 OA
HETATM   34  N6  UNL     1      14.805  -0.312   1.825  1.00  0.00    -0.352 N 
ATOM     35  H6  UNL     1      14.410  -1.110   2.324  1.00  0.00     0.163 HD
BRANCH  34  36
HETATM   36  C18 UNL     1      15.374  -0.524   0.513  1.00  0.00     0.084 A 
HETATM   37  C19 UNL     1      16.855  -0.955   0.473  1.00  0.00     0.027 A 
HETATM   38  C20 UNL     1      15.744  -1.871   0.066  1.00  0.00     0.027 A 
ENDBRANCH  34  36
ENDBRANCH  29  32
BRANCH  31  39
HETATM   39  C23 UNL     1      10.807   1.211   5.313  1.00  0.00     0.422 C 
HETATM   40  F1  UNL     1      10.262   2.381   5.791  1.00  0.00    -0.166 F 
HETATM   41  F2  UNL     1      10.248   1.060   4.032  1.00  0.00    -0.166 F 
HETATM   42  F3  UNL     1      10.456   0.087   6.000  1.00  0.00    -0.166 F 
ENDBRANCH  31  39
ENDBRANCH  24  25
ENDBRANCH  21  24
ENDBRANCH  15  18
ENDBRANCH   5  12
ENDBRANCH   3   4
TORSDOF 9
ENDMDL
MODEL 3
REMARK VINA RESULT: -9.244228822      3.871     12.073
REMARK  9 active torsions:
REMARK  status: ('A' for Active; 'I' for Inactive)
REMARK    1  A    between atoms: O1_3  and  N2_4 
REMARK    2  A    between atoms: C2_6  and  C3_7 
REMARK    3  A    between atoms: C2_6  and  C7_12 
REMARK    4  A    between atoms: N3_15  and  C10_16 
REMARK    5  A    between atoms: C13_19  and  N4_20 
REMARK    6  A    between atoms: N4_20  and  C14_21 
REMARK    7  A    between atoms: C16_25  and  C17_26 
REMARK       I    between atoms: C17_26  and  N6_28 
REMARK    8  A    between atoms: N6_28  and  C18_30 
REMARK    9  A    between atoms: C22_34  and  C23_35 
ROOT
HETATM    1  N1  UNL     1       5.290   3.761  13.508  1.00  0.00    -0.162 NA
HETATM    2  C1  UNL     1       6.332   4.206  13.686  1.00  0.00     0.253 C 
HETATM    3  O1  UNL     1       7.588   4.718  13.903  1.00  0.00    -0.159 OA
ENDROOT
BRANCH   3   4
HETATM    4  N2  UNL     1       8.650   3.982  14.213  1.00  0.00    -0.252 N 
HETATM    5  C2  UNL     1       8.881   3.372  15.279  1.00  0.00     0.057 C 
ATOM      6  H2  UNL     1       9.366   3.905  13.491  1.00  0.00     0.195 HD
BRANCH   5   7
HETATM    7  C3  UNL     1       7.947   3.386  16.406  1.00  0.00     0.029 A 
HETATM    8  C4  UNL     1       6.832   2.649  16.669  1.00  0.00     0.021 A 
HETATM    9  C5  UNL     1       6.186   2.874  17.829  1.00  0.00     0.008 A 
HETATM   10  C6  UNL     1       6.687   3.824  18.665  1.00  0.00     0.050 A 
HETATM   11  S1  UNL     1       8.049   4.390  17.824  1.00  0.00    -0.100 SA
ENDBRANCH   5   7
BRANCH   5  12
HETATM   12  C7  UNL     1      10.162   2.612  15.450  1.00  0.00     0.066 C 
HETATM   13  C8  UNL     1      11.314   3.446  15.033  1.00  0.00     0.030 C 
HETATM   14  C9  UNL     1      11.442   3.477  13.528  1.00  0.00     0.122 C 
HETATM   15  N3  UNL     1      11.245   2.216  12.897  1.00  0.00    -0.193 NA
HETATM   16  O3  UNL     1      10.136   1.578  13.294  1.00  0.00    -0.302 OA
HETATM   17  C26 UNL     1      10.131   1.342  14.668  1.00  0.00     0.205 C 
BRANCH  15  18
HETATM   18  C10 UNL     1      11.278   2.365  11.455  1.00  0.00     0.086 C 
HETATM   19  C11 UNL     1      10.535   1.247  10.756  1.00  0.00     0.025 C 
HETATM   20  C12 UNL     1      11.326   0.717   9.575  1.00  0.00     0.041 C 
HETATM   21  C13 UNL     1      11.676   1.907   8.696  1.00  0.00     0.165 C 
HETATM   22  C24 UNL     1      12.804   2.623   9.488  1.00  0.00     0.041 C 
HETATM   23  C25 UNL     1      12.686   2.418  10.958  1.00  0.00     0.025 C 
BRANCH  21  24
HETATM   24  N4  UNL     1      12.098   1.674   7.454  1.00  0.00    -0.424 NA
BRANCH  24  25
HETATM   25  C14 UNL     1      12.474   1.468   6.348  1.00  0.00     0.188 A 
HETATM   26  N5  UNL     1      11.659   0.981   5.352  1.00  0.00    -0.340 N 
HETATM   27  C15 UNL     1      12.058   0.740   4.109  1.00  0.00     0.107 A 
ATOM     28  H5  UNL     1      10.683   0.793   5.585  1.00  0.00     0.167 HD
HETATM   29  C16 UNL     1      13.368   0.973   3.732  1.00  0.00     0.048 A 
HETATM   30  C21 UNL     1      14.225   1.460   4.689  1.00  0.00     0.039 A 
HETATM   31  C22 UNL     1      13.796   1.706   5.974  1.00  0.00     0.106 A 
BRANCH  29  32
HETATM   32  C17 UNL     1      13.824   0.699   2.375  1.00  0.00     0.253 C 
HETATM   33  O2  UNL     1      12.987   0.514   1.469  1.00  0.00    -0.268 OA
HETATM   34  N6  UNL     1      15.218   0.641   2.057  1.00  0.00    -0.352 N 
ATOM     35  H6  UNL     1      15.899   0.796   2.800  1.00  0.00     0.163 HD
BRANCH  34  36
HETATM   36  C18 UNL     1      15.695   0.370   0.720  1.00  0.00     0.084 A 
HETATM   37  C19 UNL     1      17.138  -0.162   0.605  1.00  0.00     0.027 A 
HETATM   38  C20 UNL     1      15.946  -1.006   0.279  1.00  0.00     0.027 A 
ENDBRANCH  34  36
ENDBRANCH  29  32
BRANCH  31  39
HETATM   39  C23 UNL     1      14.813   2.234   6.924  1.00  0.00     0.422 C 
HETATM   40  F1  UNL     1      14.957   1.412   8.019  1.00  0.00    -0.166 F 
HETATM   41  F2  UNL     1      16.082   2.240   6.320  1.00  0.00    -0.166 F 
HETATM   42  F3  UNL     1      14.538   3.537   7.211  1.00  0.00    -0.166 F 
ENDBRANCH  31  39
ENDBRANCH  24  25
ENDBRANCH  21  24
ENDBRANCH  15  18
ENDBRANCH   5  12
ENDBRANCH   3   4
TORSDOF 9
ENDMDL
MODEL 4
REMARK VINA RESULT: -9.178789402      1.230      1.399
REMARK  9 active torsions:
REMARK  status: ('A' for Active; 'I' for Inactive)
REMARK    1  A    between atoms: O1_3  and  N2_4 
REMARK    2  A    between atoms: C2_6  and  C3_7 
REMARK    3  A    between atoms: C2_6  and  C7_12 
REMARK    4  A    between atoms: N3_15  and  C10_16 
REMARK    5  A    between atoms: C13_19  and  N4_20 
REMARK    6  A    between atoms: N4_20  and  C14_21 
REMARK    7  A    between atoms: C16_25  and  C17_26 
REMARK       I    between atoms: C17_26  and  N6_28 
REMARK    8  A    between atoms: N6_28  and  C18_30 
REMARK    9  A    between atoms: C22_34  and  C23_35 
ROOT
HETATM    1  N1  UNL     1      10.545   1.571   4.529  1.00  0.00    -0.162 NA
HETATM    2  C1  UNL     1      11.623   1.202   4.400  1.00  0.00     0.253 C 
HETATM    3  O1  UNL     1      12.922   0.779   4.254  1.00  0.00    -0.159 OA
ENDROOT
BRANCH   3   4
HETATM    4  N2  UNL     1      13.982   1.480   4.643  1.00  0.00    -0.252 N 
HETATM    5  C2  UNL     1      15.063   1.643   4.036  1.00  0.00     0.057 C 
ATOM      6  H2  UNL     1      13.905   1.942   5.548  1.00  0.00     0.195 HD
BRANCH   5   7
HETATM    7  C3  UNL     1      15.322   1.045   2.726  1.00  0.00     0.029 A 
HETATM    8  C4  UNL     1      14.669   0.075   2.027  1.00  0.00     0.021 A 
HETATM    9  C5  UNL     1      15.137  -0.247   0.806  1.00  0.00     0.008 A 
HETATM   10  C6  UNL     1      16.235   0.415   0.348  1.00  0.00     0.050 A 
HETATM   11  S1  UNL     1      16.597   1.476   1.623  1.00  0.00    -0.100 SA
ENDBRANCH   5   7
BRANCH   5  12
HETATM   12  C7  UNL     1      16.161   2.453   4.658  1.00  0.00     0.066 C 
HETATM   13  C8  UNL     1      16.921   1.630   5.628  1.00  0.00     0.030 C 
HETATM   14  C9  UNL     1      16.170   1.502   6.933  1.00  0.00     0.122 C 
HETATM   15  N3  UNL     1      15.568   2.711   7.384  1.00  0.00    -0.193 NA
HETATM   16  O3  UNL     1      14.844   3.339   6.447  1.00  0.00    -0.302 OA
HETATM   17  C26 UNL     1      15.607   3.666   5.328  1.00  0.00     0.205 C 
BRANCH  15  18
HETATM   18  C10 UNL     1      14.782   2.465   8.578  1.00  0.00     0.086 C 
HETATM   19  C11 UNL     1      13.490   1.744   8.263  1.00  0.00     0.025 C 
HETATM   20  C12 UNL     1      12.321   2.366   9.003  1.00  0.00     0.041 C 
HETATM   21  C13 UNL     1      12.692   2.411  10.477  1.00  0.00     0.165 C 
HETATM   22  C24 UNL     1      13.720   3.573  10.555  1.00  0.00     0.041 C 
HETATM   23  C25 UNL     1      14.481   3.746   9.288  1.00  0.00     0.025 C 
BRANCH  21  24
HETATM   24  N4  UNL     1      11.724   2.627  11.367  1.00  0.00    -0.424 NA
BRANCH  24  25
HETATM   25  C14 UNL     1      10.864   2.819  12.161  1.00  0.00     0.188 A 
HETATM   26  N5  UNL     1      10.490   4.077  12.577  1.00  0.00    -0.340 N 
HETATM   27  C15 UNL     1       9.533   4.316  13.467  1.00  0.00     0.107 A 
ATOM     28  H5  UNL     1      10.978   4.877  12.176  1.00  0.00     0.167 HD
HETATM   29  C16 UNL     1       8.835   3.273  14.048  1.00  0.00     0.048 A 
HETATM   30  C21 UNL     1       9.169   1.996  13.668  1.00  0.00     0.039 A 
HETATM   31  C22 UNL     1      10.164   1.764  12.743  1.00  0.00     0.106 A 
BRANCH  29  32
HETATM   32  C17 UNL     1       7.792   3.521  15.037  1.00  0.00     0.253 C 
HETATM   33  O2  UNL     1       6.613   3.676  14.664  1.00  0.00    -0.268 OA
HETATM   34  N6  UNL     1       8.094   3.585  16.434  1.00  0.00    -0.352 N 
ATOM     35  H6  UNL     1       9.060   3.454  16.736  1.00  0.00     0.163 HD
BRANCH  34  36
HETATM   36  C18 UNL     1       7.079   3.830  17.433  1.00  0.00     0.084 A 
HETATM   37  C19 UNL     1       6.359   2.587  17.995  1.00  0.00     0.027 A 
HETATM   38  C20 UNL     1       7.284   3.418  18.825  1.00  0.00     0.027 A 
ENDBRANCH  34  36
ENDBRANCH  29  32
BRANCH  31  39
HETATM   39  C23 UNL     1      10.438   0.341  12.408  1.00  0.00     0.422 C 
HETATM   40  F1  UNL     1       9.836  -0.026  11.226  1.00  0.00    -0.166 F 
HETATM   41  F2  UNL     1      11.812   0.154  12.175  1.00  0.00    -0.166 F 
HETATM   42  F3  UNL     1      10.138  -0.447  13.478  1.00  0.00    -0.166 F 
ENDBRANCH  31  39
ENDBRANCH  24  25
ENDBRANCH  21  24
ENDBRANCH  15  18
ENDBRANCH   5  12
ENDBRANCH   3   4
TORSDOF 9
ENDMDL
MODEL 5
REMARK VINA RESULT: -9.167483933      3.611      5.958
REMARK  9 active torsions:
REMARK  status: ('A' for Active; 'I' for Inactive)
REMARK    1  A    between atoms: O1_3  and  N2_4 
REMARK    2  A    between atoms: C2_6  and  C3_7 
REMARK    3  A    between atoms: C2_6  and  C7_12 
REMARK    4  A    between atoms: N3_15  and  C10_16 
REMARK    5  A    between atoms: C13_19  and  N4_20 
REMARK    6  A    between atoms: N4_20  and  C14_21 
REMARK    7  A    between atoms: C16_25  and  C17_26 
REMARK       I    between atoms: C17_26  and  N6_28 
REMARK    8  A    between atoms: N6_28  and  C18_30 
REMARK    9  A    between atoms: C22_34  and  C23_35 
ROOT
HETATM    1  N1  UNL     1      12.277  -2.222  -3.637  1.00  0.00    -0.162 NA
HETATM    2  C1  UNL     1      12.765  -2.090  -2.608  1.00  0.00     0.253 C 
HETATM    3  O1  UNL     1      13.367  -1.921  -1.384  1.00  0.00    -0.159 OA
ENDROOT
BRANCH   3   4
HETATM    4  N2  UNL     1      14.499  -1.252  -1.197  1.00  0.00    -0.252 N 
HETATM    5  C2  UNL     1      15.663  -1.613  -1.476  1.00  0.00     0.057 C 
ATOM      6  H2  UNL     1      14.408  -0.330  -0.772  1.00  0.00     0.195 HD
BRANCH   5   7
HETATM    7  C3  UNL     1      15.953  -2.909  -2.091  1.00  0.00     0.029 A 
HETATM    8  C4  UNL     1      16.140  -4.146  -1.553  1.00  0.00     0.021 A 
HETATM    9  C5  UNL     1      16.363  -5.173  -2.394  1.00  0.00     0.008 A 
HETATM   10  C6  UNL     1      16.388  -4.911  -3.730  1.00  0.00     0.050 A 
HETATM   11  S1  UNL     1      16.101  -3.239  -3.793  1.00  0.00    -0.100 SA
ENDBRANCH   5   7
BRANCH   5  12
HETATM   12  C7  UNL     1      16.825  -0.721  -1.157  1.00  0.00     0.066 C 
HETATM   13  C8  UNL     1      17.365  -1.039   0.185  1.00  0.00     0.030 C 
HETATM   14  C9  UNL     1      16.505  -0.436   1.271  1.00  0.00     0.122 C 
HETATM   15  N3  UNL     1      16.071   0.894   1.004  1.00  0.00    -0.193 NA
HETATM   16  O3  UNL     1      15.532   1.056  -0.212  1.00  0.00    -0.302 OA
HETATM   17  C26 UNL     1      16.423   0.715  -1.228  1.00  0.00     0.205 C 
BRANCH  15  18
HETATM   18  C10 UNL     1      15.166   1.345   2.044  1.00  0.00     0.086 C 
HETATM   19  C11 UNL     1      15.896   2.088   3.142  1.00  0.00     0.025 C 
HETATM   20  C12 UNL     1      15.425   1.642   4.513  1.00  0.00     0.041 C 
HETATM   21  C13 UNL     1      13.911   1.779   4.536  1.00  0.00     0.165 C 
HETATM   22  C24 UNL     1      13.426   0.582   3.673  1.00  0.00     0.041 C 
HETATM   23  C25 UNL     1      14.416   0.194   2.632  1.00  0.00     0.025 C 
BRANCH  21  24
HETATM   24  N4  UNL     1      13.291   1.742   5.716  1.00  0.00    -0.424 NA
BRANCH  24  25
HETATM   25  C14 UNL     1      12.740   1.708   6.766  1.00  0.00     0.188 A 
HETATM   26  N5  UNL     1      11.398   1.435   6.905  1.00  0.00    -0.340 N 
HETATM   27  C15 UNL     1      10.760   1.396   8.069  1.00  0.00     0.107 A 
ATOM     28  H5  UNL     1      10.859   1.250   6.059  1.00  0.00     0.167 HD
HETATM   29  C16 UNL     1      11.435   1.639   9.251  1.00  0.00     0.048 A 
HETATM   30  C21 UNL     1      12.778   1.917   9.169  1.00  0.00     0.039 A 
HETATM   31  C22 UNL     1      13.426   1.954   7.954  1.00  0.00     0.106 A 
BRANCH  29  32
HETATM   32  C17 UNL     1      10.745   1.613  10.535  1.00  0.00     0.253 C 
HETATM   33  O2  UNL     1      10.109   0.595  10.873  1.00  0.00    -0.268 OA
HETATM   34  N6  UNL     1      10.783   2.735  11.422  1.00  0.00    -0.352 N 
ATOM     35  H6  UNL     1      11.307   3.565  11.143  1.00  0.00     0.163 HD
BRANCH  34  36
HETATM   36  C18 UNL     1      10.106   2.735  12.698  1.00  0.00     0.084 A 
HETATM   37  C19 UNL     1      10.818   3.476  13.849  1.00  0.00     0.027 A 
HETATM   38  C20 UNL     1       9.542   3.972  13.247  1.00  0.00     0.027 A 
ENDBRANCH  34  36
ENDBRANCH  29  32
BRANCH  31  39
HETATM   39  C23 UNL     1      14.881   2.265   7.988  1.00  0.00     0.422 C 
HETATM   40  F1  UNL     1      15.173   3.399   7.264  1.00  0.00    -0.166 F 
HETATM   41  F2  UNL     1      15.281   2.572   9.300  1.00  0.00    -0.166 F 
HETATM   42  F3  UNL     1      15.594   1.157   7.638  1.00  0.00    -0.166 F 
ENDBRANCH  31  39
ENDBRANCH  24  25
ENDBRANCH  21  24
ENDBRANCH  15  18
ENDBRANCH   5  12
ENDBRANCH   3   4
TORSDOF 9
ENDMDL
