MODEL 1
REMARK VINA RESULT: -7.721164410      0.000      0.000
REMARK  7 active torsions:
REMARK  status: ('A' for Active; 'I' for Inactive)
REMARK    1  A    between atoms: C2_2  and  C3_3 
REMARK    2  A    between atoms: C4_4  and  C5_5 
REMARK    3  A    between atoms: C5_5  and  C8_8 
REMARK    4  A    between atoms: C11_16  and  N3_17 
REMARK    5  A    between atoms: N3_17  and  C12_19 
REMARK    6  A    between atoms: C17_25  and  O1_26 
REMARK    7  A    between atoms: C20_29  and  N4_30 
ROOT
HETATM    1  C8  UNL     1      17.495  12.230 -12.249  1.00  0.00     0.039 A 
HETATM    2  S1  UNL     1      15.941  11.526 -12.164  1.00  0.00    -0.072 SA
HETATM    3  C9  UNL     1      16.256  10.269 -11.045  1.00  0.00     0.092 A 
HETATM    4  N1  UNL     1      15.468   9.299 -10.500  1.00  0.00    -0.346 N 
ATOM      5  H1  UNL     1      14.483   9.234 -10.757  1.00  0.00     0.167 HD
HETATM    6  C10 UNL     1      16.001   8.420  -9.617  1.00  0.00     0.182 A 
HETATM    7  N2  UNL     1      17.295   8.564  -9.329  1.00  0.00    -0.338 N 
ATOM      8  H2  UNL     1      17.706   7.907  -8.666  1.00  0.00     0.168 HD
HETATM    9  C11 UNL     1      18.097   9.505  -9.843  1.00  0.00     0.122 A 
HETATM   10  C19 UNL     1      17.581  10.436 -10.764  1.00  0.00     0.076 A 
HETATM   11  C20 UNL     1      18.222  11.453 -11.391  1.00  0.00     0.134 A 
ENDROOT
BRANCH   9  12
HETATM   12  N3  UNL     1      19.345   9.530  -9.473  1.00  0.00    -0.339 N 
ATOM     13  H3  UNL     1      19.993  10.143  -9.967  1.00  0.00     0.167 HD
BRANCH  12  14
HETATM   14  C12 UNL     1      19.834   8.737  -8.408  1.00  0.00     0.067 A 
HETATM   15  C13 UNL     1      19.115   8.545  -7.243  1.00  0.00     0.035 A 
HETATM   16  C14 UNL     1      19.570   7.782  -6.200  1.00  0.00     0.044 A 
HETATM   17  C15 UNL     1      20.788   7.169  -6.286  1.00  0.00     0.119 A 
HETATM   18  F1  UNL     1      21.291   6.396  -5.271  1.00  0.00    -0.206 F 
HETATM   19  C16 UNL     1      21.538   7.332  -7.424  1.00  0.00     0.081 A 
HETATM   20  C17 UNL     1      21.062   8.115  -8.486  1.00  0.00     0.097 A 
BRANCH  20  21
HETATM   21  O1  UNL     1      21.822   8.271  -9.620  1.00  0.00    -0.354 OA
HETATM   22  C18 UNL     1      21.695   7.490 -10.775  1.00  0.00     0.210 C 
ENDBRANCH  20  21
ENDBRANCH  12  14
ENDBRANCH   9  12
BRANCH  11  23
HETATM   23  N4  UNL     1      19.636  11.721 -11.215  1.00  0.00    -0.113 N 
HETATM   24  O2  UNL     1      20.117  12.496 -10.414  1.00  0.00    -0.532 OA
HETATM   25  O3  UNL     1      20.477  10.996 -12.038  1.00  0.00    -0.532 OA
ENDBRANCH  11  23
BRANCH   1  26
HETATM   26  C5  UNL     1      17.851  13.408 -13.070  1.00  0.00     0.052 C 
HETATM   27  C6  UNL     1      16.537  13.900 -13.720  1.00  0.00     0.035 C 
HETATM   28  C7  UNL     1      18.807  13.130 -14.177  1.00  0.00     0.035 C 
BRANCH  26  29
HETATM   29  C4  UNL     1      18.341  14.526 -12.248  1.00  0.00    -0.092 C 
HETATM   30  C3  UNL     1      18.751  15.421 -11.548  1.00  0.00    -0.106 C 
BRANCH  30  31
HETATM   31  C2  UNL     1      19.264  16.502 -10.692  1.00  0.00     0.089 C 
HETATM   32  C1  UNL     1      20.618  16.200 -10.138  1.00  0.00     0.018 C 
ENDBRANCH  30  31
ENDBRANCH  26  29
ENDBRANCH   1  26
TORSDOF 7
ENDMDL
MODEL 2
REMARK VINA RESULT: -7.322321607      4.210      6.376
REMARK  7 active torsions:
REMARK  status: ('A' for Active; 'I' for Inactive)
REMARK    1  A    between atoms: C2_2  and  C3_3 
REMARK    2  A    between atoms: C4_4  and  C5_5 
REMARK    3  A    between atoms: C5_5  and  C8_8 
REMARK    4  A    between atoms: C11_16  and  N3_17 
REMARK    5  A    between atoms: N3_17  and  C12_19 
REMARK    6  A    between atoms: C17_25  and  O1_26 
REMARK    7  A    between atoms: C20_29  and  N4_30 
ROOT
HETATM    1  C8  UNL     1      23.747  12.383 -13.889  1.00  0.00     0.039 A 
HETATM    2  S1  UNL     1      23.772  14.010 -13.370  1.00  0.00    -0.072 SA
HETATM    3  C9  UNL     1      22.414  13.999 -12.327  1.00  0.00     0.092 A 
HETATM    4  N1  UNL     1      21.832  14.963 -11.557  1.00  0.00    -0.346 N 
ATOM      5  H1  UNL     1      22.217  15.907 -11.541  1.00  0.00     0.167 HD
HETATM    6  C10 UNL     1      20.740  14.659 -10.814  1.00  0.00     0.182 A 
HETATM    7  N2  UNL     1      20.293  13.405 -10.885  1.00  0.00    -0.338 N 
ATOM      8  H2  UNL     1      19.471  13.167 -10.330  1.00  0.00     0.168 HD
HETATM    9  C11 UNL     1      20.838  12.434 -11.628  1.00  0.00     0.122 A 
HETATM   10  C19 UNL     1      21.973  12.710 -12.414  1.00  0.00     0.076 A 
HETATM   11  C20 UNL     1      22.666  11.873 -13.226  1.00  0.00     0.134 A 
ENDROOT
BRANCH   9  12
HETATM   12  N3  UNL     1      20.296  11.251 -11.603  1.00  0.00    -0.339 N 
ATOM     13  H3  UNL     1      19.990  10.830 -12.480  1.00  0.00     0.167 HD
BRANCH  12  14
HETATM   14  C12 UNL     1      20.116  10.527 -10.400  1.00  0.00     0.067 A 
HETATM   15  C13 UNL     1      21.179  10.002  -9.691  1.00  0.00     0.035 A 
HETATM   16  C14 UNL     1      21.028   9.298  -8.525  1.00  0.00     0.044 A 
HETATM   17  C15 UNL     1      19.778   9.089  -8.015  1.00  0.00     0.119 A 
HETATM   18  F1  UNL     1      19.570   8.390  -6.853  1.00  0.00    -0.206 F 
HETATM   19  C16 UNL     1      18.691   9.591  -8.685  1.00  0.00     0.081 A 
HETATM   20  C17 UNL     1      18.859  10.311  -9.878  1.00  0.00     0.097 A 
BRANCH  20  21
HETATM   21  O1  UNL     1      17.762  10.809 -10.540  1.00  0.00    -0.354 OA
HETATM   22  C18 UNL     1      16.509  10.187 -10.582  1.00  0.00     0.210 C 
ENDBRANCH  20  21
ENDBRANCH  12  14
ENDBRANCH   9  12
BRANCH  11  23
HETATM   23  N4  UNL     1      22.287  10.491 -13.441  1.00  0.00    -0.113 N 
HETATM   24  O2  UNL     1      22.737   9.532 -12.849  1.00  0.00    -0.532 OA
HETATM   25  O3  UNL     1      21.311  10.292 -14.399  1.00  0.00    -0.532 OA
ENDBRANCH  11  23
BRANCH   1  26
HETATM   26  C5  UNL     1      24.722  11.772 -14.819  1.00  0.00     0.052 C 
HETATM   27  C6  UNL     1      25.606  12.927 -15.343  1.00  0.00     0.035 C 
HETATM   28  C7  UNL     1      24.120  11.110 -16.008  1.00  0.00     0.035 C 
BRANCH  26  29
HETATM   29  C4  UNL     1      25.633  10.844 -14.132  1.00  0.00    -0.092 C 
HETATM   30  C3  UNL     1      26.404  10.085 -13.593  1.00  0.00    -0.106 C 
BRANCH  30  31
HETATM   31  C2  UNL     1      27.355   9.171 -12.940  1.00  0.00     0.089 C 
HETATM   32  C1  UNL     1      27.990   8.223 -13.903  1.00  0.00     0.018 C 
ENDBRANCH  30  31
ENDBRANCH  26  29
ENDBRANCH   1  26
TORSDOF 7
ENDMDL
MODEL 3
REMARK VINA RESULT: -7.211459688      0.901      2.265
REMARK  7 active torsions:
REMARK  status: ('A' for Active; 'I' for Inactive)
REMARK    1  A    between atoms: C2_2  and  C3_3 
REMARK    2  A    between atoms: C4_4  and  C5_5 
REMARK    3  A    between atoms: C5_5  and  C8_8 
REMARK    4  A    between atoms: C11_16  and  N3_17 
REMARK    5  A    between atoms: N3_17  and  C12_19 
REMARK    6  A    between atoms: C17_25  and  O1_26 
REMARK    7  A    between atoms: C20_29  and  N4_30 
ROOT
HETATM    1  C8  UNL     1      17.296  12.111 -12.233  1.00  0.00     0.039 A 
HETATM    2  S1  UNL     1      15.771  11.346 -12.145  1.00  0.00    -0.072 SA
HETATM    3  C9  UNL     1      16.123  10.138 -10.983  1.00  0.00     0.092 A 
HETATM    4  N1  UNL     1      15.369   9.153 -10.417  1.00  0.00    -0.346 N 
ATOM      5  H1  UNL     1      14.392   9.039 -10.683  1.00  0.00     0.167 HD
HETATM    6  C10 UNL     1      15.927   8.324  -9.501  1.00  0.00     0.182 A 
HETATM    7  N2  UNL     1      17.210   8.532  -9.203  1.00  0.00    -0.338 N 
ATOM      8  H2  UNL     1      17.639   7.913  -8.515  1.00  0.00     0.168 HD
HETATM    9  C11 UNL     1      17.979   9.489  -9.737  1.00  0.00     0.122 A 
HETATM   10  C19 UNL     1      17.437  10.369 -10.692  1.00  0.00     0.076 A 
HETATM   11  C20 UNL     1      18.043  11.392 -11.343  1.00  0.00     0.134 A 
ENDROOT
BRANCH   9  12
HETATM   12  N3  UNL     1      19.220   9.578  -9.353  1.00  0.00    -0.339 N 
ATOM     13  H3  UNL     1      19.827  10.262  -9.805  1.00  0.00     0.167 HD
BRANCH  12  14
HETATM   14  C12 UNL     1      19.756   8.759  -8.331  1.00  0.00     0.067 A 
HETATM   15  C13 UNL     1      19.086   8.530  -7.144  1.00  0.00     0.035 A 
HETATM   16  C14 UNL     1      19.587   7.742  -6.142  1.00  0.00     0.044 A 
HETATM   17  C15 UNL     1      20.804   7.139  -6.294  1.00  0.00     0.119 A 
HETATM   18  F1  UNL     1      21.351   6.341  -5.322  1.00  0.00    -0.206 F 
HETATM   19  C16 UNL     1      21.506   7.338  -7.456  1.00  0.00     0.081 A 
HETATM   20  C17 UNL     1      20.983   8.147  -8.476  1.00  0.00     0.097 A 
BRANCH  20  21
HETATM   21  O1  UNL     1      21.696   8.338  -9.635  1.00  0.00    -0.354 OA
HETATM   22  C18 UNL     1      21.675   7.470 -10.733  1.00  0.00     0.210 C 
ENDBRANCH  20  21
ENDBRANCH  12  14
ENDBRANCH   9  12
BRANCH  11  23
HETATM   23  N4  UNL     1      19.442  11.724 -11.159  1.00  0.00    -0.113 N 
HETATM   24  O2  UNL     1      19.882  12.530 -10.365  1.00  0.00    -0.532 OA
HETATM   25  O3  UNL     1      20.322  11.026 -11.965  1.00  0.00    -0.532 OA
ENDBRANCH  11  23
BRANCH   1  26
HETATM   26  C5  UNL     1      17.613  13.277 -13.087  1.00  0.00     0.052 C 
HETATM   27  C6  UNL     1      18.278  14.325 -12.164  1.00  0.00     0.035 C 
HETATM   28  C7  UNL     1      16.431  13.933 -13.711  1.00  0.00     0.035 C 
BRANCH  26  29
HETATM   29  C4  UNL     1      18.612  12.952 -14.117  1.00  0.00    -0.092 C 
HETATM   30  C3  UNL     1      19.432  12.651 -14.952  1.00  0.00    -0.106 C 
BRANCH  30  31
HETATM   31  C2  UNL     1      20.420  12.272 -15.974  1.00  0.00     0.089 C 
HETATM   32  C1  UNL     1      20.719  10.808 -15.965  1.00  0.00     0.018 C 
ENDBRANCH  30  31
ENDBRANCH  26  29
ENDBRANCH   1  26
TORSDOF 7
ENDMDL
MODEL 4
REMARK VINA RESULT: -7.193277806      0.914      2.332
REMARK  7 active torsions:
REMARK  status: ('A' for Active; 'I' for Inactive)
REMARK    1  A    between atoms: C2_2  and  C3_3 
REMARK    2  A    between atoms: C4_4  and  C5_5 
REMARK    3  A    between atoms: C5_5  and  C8_8 
REMARK    4  A    between atoms: C11_16  and  N3_17 
REMARK    5  A    between atoms: N3_17  and  C12_19 
REMARK    6  A    between atoms: C17_25  and  O1_26 
REMARK    7  A    between atoms: C20_29  and  N4_30 
ROOT
HETATM    1  C8  UNL     1      17.350  12.313 -12.252  1.00  0.00     0.039 A 
HETATM    2  S1  UNL     1      15.867  11.467 -12.285  1.00  0.00    -0.072 SA
HETATM    3  C9  UNL     1      16.213  10.237 -11.146  1.00  0.00     0.092 A 
HETATM    4  N1  UNL     1      15.481   9.193 -10.663  1.00  0.00    -0.346 N 
ATOM      5  H1  UNL     1      14.528   9.039 -10.992  1.00  0.00     0.167 HD
HETATM    6  C10 UNL     1      16.026   8.360  -9.743  1.00  0.00     0.182 A 
HETATM    7  N2  UNL     1      17.276   8.622  -9.359  1.00  0.00    -0.338 N 
ATOM      8  H2  UNL     1      17.696   8.001  -8.668  1.00  0.00     0.168 HD
HETATM    9  C11 UNL     1      18.022   9.638  -9.811  1.00  0.00     0.122 A 
HETATM   10  C19 UNL     1      17.492  10.524 -10.767  1.00  0.00     0.076 A 
HETATM   11  C20 UNL     1      18.081  11.601 -11.343  1.00  0.00     0.134 A 
ENDROOT
BRANCH   9  12
HETATM   12  N3  UNL     1      19.232   9.776  -9.348  1.00  0.00    -0.339 N 
ATOM     13  H3  UNL     1      19.812  10.535  -9.705  1.00  0.00     0.167 HD
BRANCH  12  14
HETATM   14  C12 UNL     1      19.769   8.911  -8.366  1.00  0.00     0.067 A 
HETATM   15  C13 UNL     1      19.126   8.667  -7.167  1.00  0.00     0.035 A 
HETATM   16  C14 UNL     1      19.628   7.834  -6.203  1.00  0.00     0.044 A 
HETATM   17  C15 UNL     1      20.821   7.199  -6.407  1.00  0.00     0.119 A 
HETATM   18  F1  UNL     1      21.369   6.356  -5.474  1.00  0.00    -0.206 F 
HETATM   19  C16 UNL     1      21.496   7.411  -7.582  1.00  0.00     0.081 A 
HETATM   20  C17 UNL     1      20.972   8.266  -8.563  1.00  0.00     0.097 A 
BRANCH  20  21
HETATM   21  O1  UNL     1      21.658   8.470  -9.736  1.00  0.00    -0.354 OA
HETATM   22  C18 UNL     1      21.685   7.569 -10.808  1.00  0.00     0.210 C 
ENDBRANCH  20  21
ENDBRANCH  12  14
ENDBRANCH   9  12
BRANCH  11  23
HETATM   23  N4  UNL     1      19.446  11.998 -11.061  1.00  0.00    -0.113 N 
HETATM   24  O2  UNL     1      19.791  12.819 -10.237  1.00  0.00    -0.532 OA
HETATM   25  O3  UNL     1      20.412  11.346 -11.806  1.00  0.00    -0.532 OA
ENDBRANCH  11  23
BRANCH   1  26
HETATM   26  C5  UNL     1      17.655  13.526 -13.044  1.00  0.00     0.052 C 
HETATM   27  C6  UNL     1      18.613  13.080 -14.172  1.00  0.00     0.035 C 
HETATM   28  C7  UNL     1      18.344  14.607 -12.287  1.00  0.00     0.035 C 
BRANCH  26  29
HETATM   29  C4  UNL     1      16.460  14.062 -13.714  1.00  0.00    -0.092 C 
HETATM   30  C3  UNL     1      15.477  14.527 -14.241  1.00  0.00    -0.106 C 
BRANCH  30  31
HETATM   31  C2  UNL     1      14.287  15.109 -14.882  1.00  0.00     0.089 C 
HETATM   32  C1  UNL     1      13.019  14.720 -14.194  1.00  0.00     0.018 C 
ENDBRANCH  30  31
ENDBRANCH  26  29
ENDBRANCH   1  26
TORSDOF 7
ENDMDL
MODEL 5
REMARK VINA RESULT: -6.965680034      1.777      2.619
REMARK  7 active torsions:
REMARK  status: ('A' for Active; 'I' for Inactive)
REMARK    1  A    between atoms: C2_2  and  C3_3 
REMARK    2  A    between atoms: C4_4  and  C5_5 
REMARK    3  A    between atoms: C5_5  and  C8_8 
REMARK    4  A    between atoms: C11_16  and  N3_17 
REMARK    5  A    between atoms: N3_17  and  C12_19 
REMARK    6  A    between atoms: C17_25  and  O1_26 
REMARK    7  A    between atoms: C20_29  and  N4_30 
ROOT
HETATM    1  C8  UNL     1      17.169  13.488 -13.182  1.00  0.00     0.039 A 
HETATM    2  S1  UNL     1      15.681  12.658 -13.301  1.00  0.00    -0.072 SA
HETATM    3  C9  UNL     1      15.909  11.483 -12.076  1.00  0.00     0.092 A 
HETATM    4  N1  UNL     1      15.123  10.473 -11.607  1.00  0.00    -0.346 N 
ATOM      5  H1  UNL     1      14.200  10.313 -12.009  1.00  0.00     0.167 HD
HETATM    6  C10 UNL     1      15.575   9.683 -10.603  1.00  0.00     0.182 A 
HETATM    7  N2  UNL     1      16.791   9.950 -10.127  1.00  0.00    -0.338 N 
ATOM      8  H2  UNL     1      17.140   9.360  -9.372  1.00  0.00     0.168 HD
HETATM    9  C11 UNL     1      17.589  10.933 -10.562  1.00  0.00     0.122 A 
HETATM   10  C19 UNL     1      17.156  11.775 -11.603  1.00  0.00     0.076 A 
HETATM   11  C20 UNL     1      17.808  12.815 -12.179  1.00  0.00     0.134 A 
ENDROOT
BRANCH   9  12
HETATM   12  N3  UNL     1      18.756  11.081 -10.004  1.00  0.00    -0.339 N 
ATOM     13  H3  UNL     1      18.982  11.973  -9.565  1.00  0.00     0.167 HD
BRANCH  12  14
HETATM   14  C12 UNL     1      19.723  10.047  -9.986  1.00  0.00     0.067 A 
HETATM   15  C13 UNL     1      20.535   9.780 -11.071  1.00  0.00     0.035 A 
HETATM   16  C14 UNL     1      21.476   8.785 -11.075  1.00  0.00     0.044 A 
HETATM   17  C15 UNL     1      21.643   8.002  -9.968  1.00  0.00     0.119 A 
HETATM   18  F1  UNL     1      22.569   6.992  -9.920  1.00  0.00    -0.206 F 
HETATM   19  C16 UNL     1      20.858   8.230  -8.866  1.00  0.00     0.081 A 
HETATM   20  C17 UNL     1      19.898   9.252  -8.873  1.00  0.00     0.097 A 
BRANCH  20  21
HETATM   21  O1  UNL     1      19.117   9.471  -7.763  1.00  0.00    -0.354 OA
HETATM   22  C18 UNL     1      18.821   8.501  -6.797  1.00  0.00     0.210 C 
ENDBRANCH  20  21
ENDBRANCH  12  14
ENDBRANCH   9  12
BRANCH  11  23
HETATM   23  N4  UNL     1      19.151  13.210 -11.801  1.00  0.00    -0.113 N 
HETATM   24  O2  UNL     1      20.166  12.945 -12.410  1.00  0.00    -0.532 OA
HETATM   25  O3  UNL     1      19.236  13.971 -10.650  1.00  0.00    -0.532 OA
ENDBRANCH  11  23
BRANCH   1  26
HETATM   26  C5  UNL     1      17.559  14.656 -14.004  1.00  0.00     0.052 C 
HETATM   27  C6  UNL     1      16.280  15.118 -14.739  1.00  0.00     0.035 C 
HETATM   28  C7  UNL     1      18.583  14.370 -15.046  1.00  0.00     0.035 C 
BRANCH  26  29
HETATM   29  C4  UNL     1      17.986  15.795 -13.176  1.00  0.00    -0.092 C 
HETATM   30  C3  UNL     1      18.338  16.750 -12.525  1.00  0.00    -0.106 C 
BRANCH  30  31
HETATM   31  C2  UNL     1      18.755  17.922 -11.740  1.00  0.00     0.089 C 
HETATM   32  C1  UNL     1      19.535  17.547 -10.522  1.00  0.00     0.018 C 
ENDBRANCH  30  31
ENDBRANCH  26  29
ENDBRANCH   1  26
TORSDOF 7
ENDMDL
