MODEL 1
REMARK VINA RESULT: -7.868241190      0.000      0.000
REMARK  6 active torsions:
REMARK  status: ('A' for Active; 'I' for Inactive)
REMARK    1  A    between atoms: C2_2  and  C3_3 
REMARK    2  A    between atoms: C3_3  and  C4_4 
REMARK    3  A    between atoms: C4_4  and  C5_5 
REMARK    4  A    between atoms: C8_8  and  N1_9 
REMARK    5  A    between atoms: C12_16  and  O1_17 
REMARK    6  A    between atoms: C15_22  and  C16_23 
ROOT
HETATM    1  C5  UNL     1      11.288   6.071 -13.482  1.00  0.00     0.025 A 
HETATM    2  C6  UNL     1      10.662   5.862 -12.224  1.00  0.00    -0.011 A 
HETATM    3  C7  UNL     1       9.343   6.478 -11.918  1.00  0.00     0.052 C 
HETATM    4  C8  UNL     1      11.194   5.039 -11.263  1.00  0.00     0.057 A 
HETATM    5  C9  UNL     1      12.379   4.413 -11.562  1.00  0.00     0.101 A 
HETATM    6  C10 UNL     1      12.987   3.544 -10.594  1.00  0.00     0.104 C 
HETATM    7  N2  UNL     1      13.446   2.837  -9.765  1.00  0.00    -0.191 NA
HETATM    8  C11 UNL     1      12.973   4.615 -12.785  1.00  0.00     0.096 A 
HETATM    9  C12 UNL     1      14.184   4.044 -13.006  1.00  0.00     0.096 A 
HETATM   10  C13 UNL     1      14.844   4.278 -14.182  1.00  0.00     0.065 A 
HETATM   11  C14 UNL     1      14.256   5.085 -15.128  1.00  0.00     0.060 A 
HETATM   12 CL1  UNL     1      15.163   5.563 -16.552  1.00  0.00    -0.082 Cl
HETATM   13  C15 UNL     1      12.990   5.696 -14.958  1.00  0.00     0.046 A 
HETATM   14  N3  UNL     1      12.426   5.439 -13.765  1.00  0.00    -0.312 N 
ENDROOT
BRANCH   4  15
HETATM   15  N1  UNL     1      10.658   4.823 -10.115  1.00  0.00    -0.397 N 
ATOM     16  H12 UNL     1      10.343   3.878  -9.894  1.00  0.00     0.156 HD
ATOM     17  H11 UNL     1      10.521   5.537  -9.400  1.00  0.00     0.156 HD
ENDBRANCH   4  15
BRANCH   9  18
HETATM   18  O1  UNL     1      14.820   3.213 -12.092  1.00  0.00    -0.358 OA
ATOM     19  H1  UNL     1      14.509   2.343 -11.869  1.00  0.00     0.217 HD
ENDBRANCH   9  18
BRANCH   1  20
HETATM   20  C4  UNL     1      10.867   7.211 -14.149  1.00  0.00     0.058 C 
BRANCH  20  21
HETATM   21  C3  UNL     1      11.221   8.262 -12.990  1.00  0.00     0.006 C 
BRANCH  21  22
HETATM   22  C2  UNL     1      10.718   9.608 -13.227  1.00  0.00    -0.004 C 
HETATM   23  C1  UNL     1      10.355  10.074 -14.571  1.00  0.00     0.005 C 
ENDBRANCH  21  22
ENDBRANCH  20  21
ENDBRANCH   1  20
BRANCH  13  24
HETATM   24  C16 UNL     1      12.294   6.229 -16.158  1.00  0.00    -0.006 C 
HETATM   25  C17 UNL     1      12.933   7.480 -16.724  1.00  0.00     0.021 C 
HETATM   26  C18 UNL     1      13.027   5.322 -17.256  1.00  0.00     0.021 C 
HETATM   27  C19 UNL     1      11.020   5.741 -16.724  1.00  0.00     0.021 C 
ENDBRANCH  13  24
TORSDOF 6
ENDMDL
MODEL 2
REMARK VINA RESULT: -7.568579712      2.865      4.719
REMARK  6 active torsions:
REMARK  status: ('A' for Active; 'I' for Inactive)
REMARK    1  A    between atoms: C2_2  and  C3_3 
REMARK    2  A    between atoms: C3_3  and  C4_4 
REMARK    3  A    between atoms: C4_4  and  C5_5 
REMARK    4  A    between atoms: C8_8  and  N1_9 
REMARK    5  A    between atoms: C12_16  and  O1_17 
REMARK    6  A    between atoms: C15_22  and  C16_23 
ROOT
HETATM    1  C5  UNL     1      10.400   7.166 -13.436  1.00  0.00     0.025 A 
HETATM    2  C6  UNL     1      11.293   6.201 -12.898  1.00  0.00    -0.011 A 
HETATM    3  C7  UNL     1      11.139   5.716 -11.500  1.00  0.00     0.052 C 
HETATM    4  C8  UNL     1      12.288   5.620 -13.645  1.00  0.00     0.057 A 
HETATM    5  C9  UNL     1      12.395   6.012 -14.956  1.00  0.00     0.101 A 
HETATM    6  C10 UNL     1      13.420   5.444 -15.786  1.00  0.00     0.104 C 
HETATM    7  N2  UNL     1      14.278   4.945 -16.427  1.00  0.00    -0.191 NA
HETATM    8  C11 UNL     1      11.521   6.941 -15.469  1.00  0.00     0.096 A 
HETATM    9  C12 UNL     1      11.717   7.362 -16.745  1.00  0.00     0.096 A 
HETATM   10  C13 UNL     1      10.915   8.338 -17.272  1.00  0.00     0.065 A 
HETATM   11  C14 UNL     1       9.911   8.867 -16.495  1.00  0.00     0.060 A 
HETATM   12 CL1  UNL     1       9.001  10.253 -17.071  1.00  0.00    -0.082 Cl
HETATM   13  C15 UNL     1       9.652   8.458 -15.164  1.00  0.00     0.046 A 
HETATM   14  N3  UNL     1      10.504   7.519 -14.716  1.00  0.00    -0.312 N 
ENDROOT
BRANCH   4  15
HETATM   15  N1  UNL     1      13.113   4.743 -13.196  1.00  0.00    -0.397 N 
ATOM     16  H12 UNL     1      12.780   3.791 -13.047  1.00  0.00     0.156 HD
ATOM     17  H11 UNL     1      14.091   4.933 -12.975  1.00  0.00     0.156 HD
ENDBRANCH   4  15
BRANCH   9  18
HETATM   18  O1  UNL     1      12.706   6.855 -17.578  1.00  0.00    -0.358 OA
ATOM     19  H1  UNL     1      13.080   7.340 -18.304  1.00  0.00     0.217 HD
ENDBRANCH   9  18
BRANCH   1  20
HETATM   20  C4  UNL     1       9.752   7.939 -12.485  1.00  0.00     0.058 C 
BRANCH  20  21
HETATM   21  C3  UNL     1      10.926   9.010 -12.266  1.00  0.00     0.006 C 
BRANCH  21  22
HETATM   22  C2  UNL     1      10.661   9.985 -11.218  1.00  0.00    -0.004 C 
HETATM   23  C1  UNL     1       9.973  11.253 -11.494  1.00  0.00     0.005 C 
ENDBRANCH  21  22
ENDBRANCH  20  21
ENDBRANCH   1  20
BRANCH  13  24
HETATM   24  C16 UNL     1       8.344   8.814 -14.556  1.00  0.00    -0.006 C 
HETATM   25  C17 UNL     1       8.101  10.307 -14.469  1.00  0.00     0.021 C 
HETATM   26  C18 UNL     1       7.452   8.714 -15.882  1.00  0.00     0.021 C 
HETATM   27  C19 UNL     1       7.380   7.881 -13.936  1.00  0.00     0.021 C 
ENDBRANCH  13  24
TORSDOF 6
ENDMDL
MODEL 3
REMARK VINA RESULT: -7.270420394      2.605      4.696
REMARK  6 active torsions:
REMARK  status: ('A' for Active; 'I' for Inactive)
REMARK    1  A    between atoms: C2_2  and  C3_3 
REMARK    2  A    between atoms: C3_3  and  C4_4 
REMARK    3  A    between atoms: C4_4  and  C5_5 
REMARK    4  A    between atoms: C8_8  and  N1_9 
REMARK    5  A    between atoms: C12_16  and  O1_17 
REMARK    6  A    between atoms: C15_22  and  C16_23 
ROOT
HETATM    1  C5  UNL     1      11.985   6.528 -14.432  1.00  0.00     0.025 A 
HETATM    2  C6  UNL     1      12.818   5.627 -13.717  1.00  0.00    -0.011 A 
HETATM    3  C7  UNL     1      14.147   5.226 -14.254  1.00  0.00     0.052 C 
HETATM    4  C8  UNL     1      12.482   5.136 -12.478  1.00  0.00     0.057 A 
HETATM    5  C9  UNL     1      11.289   5.554 -11.944  1.00  0.00     0.101 A 
HETATM    6  C10 UNL     1      10.880   5.071 -10.655  1.00  0.00     0.104 C 
HETATM    7  N2  UNL     1      10.591   4.647  -9.590  1.00  0.00    -0.191 NA
HETATM    8  C11 UNL     1      10.494   6.432 -12.641  1.00  0.00     0.096 A 
HETATM    9  C12 UNL     1       9.284   6.751 -12.114  1.00  0.00     0.096 A 
HETATM   10  C13 UNL     1       8.431   7.565 -12.808  1.00  0.00     0.065 A 
HETATM   11  C14 UNL     1       8.825   8.056 -14.031  1.00  0.00     0.060 A 
HETATM   12 CL1  UNL     1       7.678   8.934 -15.029  1.00  0.00    -0.082 Cl
HETATM   13  C15 UNL     1      10.078   7.769 -14.623  1.00  0.00     0.046 A 
HETATM   14  N3  UNL     1      10.840   6.939 -13.890  1.00  0.00    -0.312 N 
ENDROOT
BRANCH   4  15
HETATM   15  N1  UNL     1      13.209   4.323 -11.800  1.00  0.00    -0.397 N 
ATOM     16  H12 UNL     1      14.217   4.475 -11.772  1.00  0.00     0.156 HD
ATOM     17  H11 UNL     1      12.846   3.524 -11.280  1.00  0.00     0.156 HD
ENDBRANCH   4  15
BRANCH   9  18
HETATM   18  O1  UNL     1       8.839   6.293 -10.880  1.00  0.00    -0.358 OA
ATOM     19  H1  UNL     1       8.422   6.849 -10.233  1.00  0.00     0.217 HD
ENDBRANCH   9  18
BRANCH   1  20
HETATM   20  C4  UNL     1      12.249   6.594 -15.791  1.00  0.00     0.058 C 
BRANCH  20  21
HETATM   21  C3  UNL     1      11.817   5.092 -16.151  1.00  0.00     0.006 C 
BRANCH  21  22
HETATM   22  C2  UNL     1      12.571   4.497 -17.245  1.00  0.00    -0.004 C 
HETATM   23  C1  UNL     1      13.663   5.215 -17.915  1.00  0.00     0.005 C 
ENDBRANCH  21  22
ENDBRANCH  20  21
ENDBRANCH   1  20
BRANCH  13  24
HETATM   24  C16 UNL     1      10.546   8.628 -15.742  1.00  0.00    -0.006 C 
HETATM   25  C17 UNL     1       9.939   8.264 -17.081  1.00  0.00     0.021 C 
HETATM   26  C18 UNL     1       9.496   9.822 -15.555  1.00  0.00     0.021 C 
HETATM   27  C19 UNL     1      11.604   9.658 -15.676  1.00  0.00     0.021 C 
ENDBRANCH  13  24
TORSDOF 6
ENDMDL
MODEL 4
REMARK VINA RESULT: -7.186061918      0.931      1.009
REMARK  6 active torsions:
REMARK  status: ('A' for Active; 'I' for Inactive)
REMARK    1  A    between atoms: C2_2  and  C3_3 
REMARK    2  A    between atoms: C3_3  and  C4_4 
REMARK    3  A    between atoms: C4_4  and  C5_5 
REMARK    4  A    between atoms: C8_8  and  N1_9 
REMARK    5  A    between atoms: C12_16  and  O1_17 
REMARK    6  A    between atoms: C15_22  and  C16_23 
ROOT
HETATM    1  C5  UNL     1      10.930   6.224 -13.322  1.00  0.00     0.025 A 
HETATM    2  C6  UNL     1      10.084   6.297 -12.184  1.00  0.00    -0.011 A 
HETATM    3  C7  UNL     1       8.795   7.038 -12.239  1.00  0.00     0.052 C 
HETATM    4  C8  UNL     1      10.368   5.642 -11.010  1.00  0.00     0.057 A 
HETATM    5  C9  UNL     1      11.523   4.901 -10.972  1.00  0.00     0.101 A 
HETATM    6  C10 UNL     1      11.876   4.198  -9.771  1.00  0.00     0.104 C 
HETATM    7  N2  UNL     1      12.120   3.637  -8.760  1.00  0.00    -0.191 NA
HETATM    8  C11 UNL     1      12.331   4.830 -12.082  1.00  0.00     0.096 A 
HETATM    9  C12 UNL     1      13.504   4.157 -11.973  1.00  0.00     0.096 A 
HETATM   10  C13 UNL     1      14.372   4.122 -13.030  1.00  0.00     0.065 A 
HETATM   11  C14 UNL     1      14.029   4.767 -14.196  1.00  0.00     0.060 A 
HETATM   12 CL1  UNL     1      15.204   4.909 -15.492  1.00  0.00    -0.082 Cl
HETATM   13  C15 UNL     1      12.815   5.474 -14.371  1.00  0.00     0.046 A 
HETATM   14  N3  UNL     1      12.036   5.483 -13.275  1.00  0.00    -0.312 N 
ENDROOT
BRANCH   4  15
HETATM   15  N1  UNL     1       9.628   5.681  -9.961  1.00  0.00    -0.397 N 
ATOM     16  H12 UNL     1       8.637   5.456 -10.054  1.00  0.00     0.156 HD
ATOM     17  H11 UNL     1       9.963   5.925  -9.029  1.00  0.00     0.156 HD
ENDBRANCH   4  15
BRANCH   9  18
HETATM   18  O1  UNL     1      13.896   3.479 -10.826  1.00  0.00    -0.358 OA
ATOM     19  H1  UNL     1      14.614   2.856 -10.803  1.00  0.00     0.217 HD
ENDBRANCH   9  18
BRANCH   1  20
HETATM   20  C4  UNL     1      10.735   7.239 -14.246  1.00  0.00     0.058 C 
BRANCH  20  21
HETATM   21  C3  UNL     1      11.055   8.466 -13.265  1.00  0.00     0.006 C 
BRANCH  21  22
HETATM   22  C2  UNL     1      10.676   9.770 -13.791  1.00  0.00    -0.004 C 
HETATM   23  C1  UNL     1      10.510  10.006 -15.231  1.00  0.00     0.005 C 
ENDBRANCH  21  22
ENDBRANCH  20  21
ENDBRANCH   1  20
BRANCH  13  24
HETATM   24  C16 UNL     1      12.384   5.808 -15.753  1.00  0.00    -0.006 C 
HETATM   25  C17 UNL     1      13.064   7.037 -16.321  1.00  0.00     0.021 C 
HETATM   26  C18 UNL     1      13.397   4.848 -16.537  1.00  0.00     0.021 C 
HETATM   27  C19 UNL     1      11.302   5.155 -16.519  1.00  0.00     0.021 C 
ENDBRANCH  13  24
TORSDOF 6
ENDMDL
MODEL 5
REMARK VINA RESULT: -7.144481088      1.360      1.953
REMARK  6 active torsions:
REMARK  status: ('A' for Active; 'I' for Inactive)
REMARK    1  A    between atoms: C2_2  and  C3_3 
REMARK    2  A    between atoms: C3_3  and  C4_4 
REMARK    3  A    between atoms: C4_4  and  C5_5 
REMARK    4  A    between atoms: C8_8  and  N1_9 
REMARK    5  A    between atoms: C12_16  and  O1_17 
REMARK    6  A    between atoms: C15_22  and  C16_23 
ROOT
HETATM    1  C5  UNL     1      10.202   7.259 -13.802  1.00  0.00     0.025 A 
HETATM    2  C6  UNL     1       9.273   7.415 -12.739  1.00  0.00    -0.011 A 
HETATM    3  C7  UNL     1       8.092   8.308 -12.883  1.00  0.00     0.052 C 
HETATM    4  C8  UNL     1       9.373   6.712 -11.563  1.00  0.00     0.057 A 
HETATM    5  C9  UNL     1      10.422   5.835 -11.447  1.00  0.00     0.101 A 
HETATM    6  C10 UNL     1      10.582   5.075 -10.239  1.00  0.00     0.104 C 
HETATM    7  N2  UNL     1      10.668   4.471  -9.227  1.00  0.00    -0.191 NA
HETATM    8  C11 UNL     1      11.311   5.685 -12.485  1.00  0.00     0.096 A 
HETATM    9  C12 UNL     1      12.381   4.872 -12.294  1.00  0.00     0.096 A 
HETATM   10  C13 UNL     1      13.328   4.749 -13.274  1.00  0.00     0.065 A 
HETATM   11  C14 UNL     1      13.168   5.450 -14.447  1.00  0.00     0.060 A 
HETATM   12 CL1  UNL     1      14.461   5.470 -15.634  1.00  0.00    -0.082 Cl
HETATM   13  C15 UNL     1      12.067   6.302 -14.706  1.00  0.00     0.046 A 
HETATM   14  N3  UNL     1      11.202   6.388 -13.681  1.00  0.00    -0.312 N 
ENDROOT
BRANCH   4  15
HETATM   15  N1  UNL     1       8.553   6.824 -10.580  1.00  0.00    -0.397 N 
ATOM     16  H12 UNL     1       8.121   7.731 -10.405  1.00  0.00     0.156 HD
ATOM     17  H11 UNL     1       8.300   6.061  -9.952  1.00  0.00     0.156 HD
ENDBRANCH   4  15
BRANCH   9  18
HETATM   18  O1  UNL     1      12.587   4.132 -11.136  1.00  0.00    -0.358 OA
ATOM     19  H1  UNL     1      12.568   4.507 -10.264  1.00  0.00     0.217 HD
ENDBRANCH   9  18
BRANCH   1  20
HETATM   20  C4  UNL     1      10.211   8.305 -14.712  1.00  0.00     0.058 C 
BRANCH  20  21
HETATM   21  C3  UNL     1      10.884   9.398 -13.751  1.00  0.00     0.006 C 
BRANCH  21  22
HETATM   22  C2  UNL     1      10.578  10.778 -14.104  1.00  0.00    -0.004 C 
HETATM   23  C1  UNL     1       9.902  11.686 -13.169  1.00  0.00     0.005 C 
ENDBRANCH  21  22
ENDBRANCH  20  21
ENDBRANCH   1  20
BRANCH  13  24
HETATM   24  C16 UNL     1      11.803   6.709 -16.111  1.00  0.00    -0.006 C 
HETATM   25  C17 UNL     1      12.989   7.366 -16.786  1.00  0.00     0.021 C 
HETATM   26  C18 UNL     1      12.141   5.309 -16.811  1.00  0.00     0.021 C 
HETATM   27  C19 UNL     1      10.504   6.653 -16.812  1.00  0.00     0.021 C 
ENDBRANCH  13  24
TORSDOF 6
ENDMDL
