MODEL 1
REMARK VINA RESULT: -7.560556784      0.000      0.000
REMARK  14 active torsions:
REMARK  status: ('A' for Active; 'I' for Inactive)
REMARK    1  A    between atoms: O1_3  and  C3_4 
REMARK       I    between atoms: C3_4  and  N1_6 
REMARK    2  A    between atoms: N1_6  and  C4_8 
REMARK    3  A    between atoms: C4_8  and  C5_9 
REMARK    4  A    between atoms: C4_8  and  C26_39 
REMARK       I    between atoms: C5_9  and  N2_11 
REMARK    5  A    between atoms: N2_11  and  C6_13 
REMARK    6  A    between atoms: C9_16  and  C10_17 
REMARK       I    between atoms: C10_17  and  N3_19 
REMARK    7  A    between atoms: N3_19  and  C11_21 
REMARK    8  A    between atoms: C11_21  and  C12_22 
REMARK    9  A    between atoms: C11_21  and  C18_29 
REMARK   10  A    between atoms: C12_22  and  C13_24 
REMARK   11  A    between atoms: C18_29  and  O6_31 
REMARK   12  A    between atoms: O6_31  and  C20_32 
REMARK   13  A    between atoms: C20_32  and  C21_34 
REMARK   14  A    between atoms: C26_39  and  C28_41 
ROOT
HETATM    1  C1  UNL     1      -0.747 -42.688  19.636  1.00  0.00     0.045 C 
HETATM    2  C2  UNL     1      -1.007 -41.572  19.991  1.00  0.00     0.054 C 
HETATM    3  O1  UNL     1      -1.326 -40.306  20.395  1.00  0.00    -0.209 OA
ENDROOT
BRANCH   3   4
HETATM    4  C3  UNL     1      -1.462 -39.303  19.451  1.00  0.00     0.374 C 
HETATM    5  O2  UNL     1      -0.539 -38.447  19.367  1.00  0.00    -0.237 OA
HETATM    6  N1  UNL     1      -2.568 -39.208  18.601  1.00  0.00    -0.322 N 
ATOM      7  H1  UNL     1      -3.308 -39.906  18.678  1.00  0.00     0.165 HD
BRANCH   6   8
HETATM    8  C4  UNL     1      -2.706 -38.127  17.590  1.00  0.00     0.182 C 
BRANCH   8   9
HETATM    9  C5  UNL     1      -2.759 -38.737  16.260  1.00  0.00     0.241 C 
HETATM   10  O3  UNL     1      -2.410 -38.024  15.258  1.00  0.00    -0.271 OA
HETATM   11  N2  UNL     1      -3.172 -40.046  16.025  1.00  0.00    -0.355 N 
ATOM     12  H2  UNL     1      -3.466 -40.648  16.794  1.00  0.00     0.162 HD
BRANCH  11  13
HETATM   13  C6  UNL     1      -3.172 -40.537  14.637  1.00  0.00     0.085 C 
HETATM   14  C7  UNL     1      -4.311 -41.475  14.396  1.00  0.00     0.026 C 
HETATM   15  C8  UNL     1      -3.810 -42.860  14.738  1.00  0.00     0.016 C 
HETATM   16  C9  UNL     1      -2.389 -42.671  15.218  1.00  0.00     0.080 C 
HETATM   17  C25 UNL     1      -1.960 -41.421  14.498  1.00  0.00     0.039 C 
BRANCH  16  18
HETATM   18  C10 UNL     1      -1.536 -43.836  14.869  1.00  0.00     0.222 C 
HETATM   19  O4  UNL     1      -2.106 -44.941  14.710  1.00  0.00    -0.273 OA
HETATM   20  N3  UNL     1      -0.157 -43.670  14.731  1.00  0.00    -0.347 N 
ATOM     21  H3  UNL     1       0.239 -42.742  14.874  1.00  0.00     0.163 HD
BRANCH  20  22
HETATM   22  C11 UNL     1       0.749 -44.777  14.389  1.00  0.00     0.183 C 
BRANCH  22  23
HETATM   23  C12 UNL     1       1.078 -44.678  12.969  1.00  0.00     0.156 C 
HETATM   24  O5  UNL     1       1.820 -43.727  12.636  1.00  0.00    -0.295 OA
BRANCH  23  25
HETATM   25  C13 UNL     1       0.644 -45.552  11.880  1.00  0.00     0.057 C 
HETATM   26  C14 UNL     1       0.708 -47.007  12.372  1.00  0.00     0.012 C 
HETATM   27  C15 UNL     1      -0.366 -47.716  11.596  1.00  0.00     0.001 C 
HETATM   28  C16 UNL     1      -1.342 -46.690  11.131  1.00  0.00     0.001 C 
HETATM   29  C17 UNL     1      -0.789 -45.326  11.531  1.00  0.00     0.012 C 
ENDBRANCH  23  25
ENDBRANCH  22  23
BRANCH  22  30
HETATM   30  C18 UNL     1       1.907 -44.647  15.348  1.00  0.00     0.157 C 
HETATM   31  C19 UNL     1       1.385 -44.628  16.796  1.00  0.00     0.042 C 
BRANCH  30  32
HETATM   32  O6  UNL     1       2.666 -45.876  15.287  1.00  0.00    -0.313 OA
BRANCH  32  33
HETATM   33  C20 UNL     1       3.987 -45.847  14.941  1.00  0.00     0.267 C 
HETATM   34  O7  UNL     1       4.492 -44.770  14.507  1.00  0.00    -0.264 OA
BRANCH  33  35
HETATM   35  C21 UNL     1       4.898 -47.019  15.042  1.00  0.00     0.037 C 
HETATM   36  C22 UNL     1       4.488 -48.142  14.138  1.00  0.00     0.025 C 
HETATM   37  C23 UNL     1       6.342 -46.618  14.904  1.00  0.00     0.025 C 
HETATM   38  C24 UNL     1       4.742 -47.547  16.474  1.00  0.00     0.025 C 
ENDBRANCH  33  35
ENDBRANCH  32  33
ENDBRANCH  30  32
ENDBRANCH  22  30
ENDBRANCH  20  22
ENDBRANCH  16  18
ENDBRANCH  11  13
ENDBRANCH   8   9
BRANCH   8  39
HETATM   39  C26 UNL     1      -3.988 -37.394  17.877  1.00  0.00     0.013 C 
HETATM   40  C27 UNL     1      -3.694 -36.121  18.632  1.00  0.00     0.012 C 
BRANCH  39  41
HETATM   41  C28 UNL     1      -5.074 -38.169  18.512  1.00  0.00     0.002 C 
HETATM   42  C29 UNL     1      -6.299 -38.319  17.631  1.00  0.00     0.005 C 
ENDBRANCH  39  41
ENDBRANCH   8  39
ENDBRANCH   6   8
ENDBRANCH   3   4
TORSDOF 14
ENDMDL
MODEL 2
REMARK VINA RESULT: -7.386997718      0.981      1.417
REMARK  14 active torsions:
REMARK  status: ('A' for Active; 'I' for Inactive)
REMARK    1  A    between atoms: O1_3  and  C3_4 
REMARK       I    between atoms: C3_4  and  N1_6 
REMARK    2  A    between atoms: N1_6  and  C4_8 
REMARK    3  A    between atoms: C4_8  and  C5_9 
REMARK    4  A    between atoms: C4_8  and  C26_39 
REMARK       I    between atoms: C5_9  and  N2_11 
REMARK    5  A    between atoms: N2_11  and  C6_13 
REMARK    6  A    between atoms: C9_16  and  C10_17 
REMARK       I    between atoms: C10_17  and  N3_19 
REMARK    7  A    between atoms: N3_19  and  C11_21 
REMARK    8  A    between atoms: C11_21  and  C12_22 
REMARK    9  A    between atoms: C11_21  and  C18_29 
REMARK   10  A    between atoms: C12_22  and  C13_24 
REMARK   11  A    between atoms: C18_29  and  O6_31 
REMARK   12  A    between atoms: O6_31  and  C20_32 
REMARK   13  A    between atoms: C20_32  and  C21_34 
REMARK   14  A    between atoms: C26_39  and  C28_41 
ROOT
HETATM    1  C1  UNL     1      -0.688 -42.794  19.802  1.00  0.00     0.045 C 
HETATM    2  C2  UNL     1      -1.054 -41.680  20.060  1.00  0.00     0.054 C 
HETATM    3  O1  UNL     1      -1.492 -40.419  20.349  1.00  0.00    -0.209 OA
ENDROOT
BRANCH   3   4
HETATM    4  C3  UNL     1      -1.552 -39.469  19.344  1.00  0.00     0.374 C 
HETATM    5  O2  UNL     1      -0.612 -38.632  19.271  1.00  0.00    -0.237 OA
HETATM    6  N1  UNL     1      -2.601 -39.409  18.421  1.00  0.00    -0.322 N 
ATOM      7  H1  UNL     1      -3.356 -40.092  18.490  1.00  0.00     0.165 HD
BRANCH   6   8
HETATM    8  C4  UNL     1      -2.658 -38.386  17.344  1.00  0.00     0.182 C 
BRANCH   8   9
HETATM    9  C5  UNL     1      -2.515 -39.060  16.053  1.00  0.00     0.241 C 
HETATM   10  O3  UNL     1      -2.502 -38.340  14.997  1.00  0.00    -0.271 OA
HETATM   11  N2  UNL     1      -2.397 -40.440  15.910  1.00  0.00    -0.355 N 
ATOM     12  H2  UNL     1      -2.410 -41.055  16.725  1.00  0.00     0.162 HD
BRANCH  11  13
HETATM   13  C6  UNL     1      -2.253 -40.989  14.552  1.00  0.00     0.085 C 
HETATM   14  C7  UNL     1      -3.375 -41.922  14.224  1.00  0.00     0.026 C 
HETATM   15  C8  UNL     1      -2.938 -43.298  14.675  1.00  0.00     0.016 C 
HETATM   16  C9  UNL     1      -1.576 -43.107  15.301  1.00  0.00     0.080 C 
HETATM   17  C25 UNL     1      -1.049 -41.894  14.583  1.00  0.00     0.039 C 
BRANCH  16  18
HETATM   18  C10 UNL     1      -0.710 -44.297  15.095  1.00  0.00     0.222 C 
HETATM   19  O4  UNL     1      -1.156 -45.406  15.471  1.00  0.00    -0.273 OA
HETATM   20  N3  UNL     1       0.545 -44.147  14.504  1.00  0.00    -0.347 N 
ATOM     21  H3  UNL     1       0.844 -43.214  14.222  1.00  0.00     0.163 HD
BRANCH  20  22
HETATM   22  C11 UNL     1       1.457 -45.277  14.271  1.00  0.00     0.183 C 
BRANCH  22  23
HETATM   23  C12 UNL     1       1.220 -45.786  12.921  1.00  0.00     0.156 C 
HETATM   24  O5  UNL     1       1.947 -45.317  12.016  1.00  0.00    -0.295 OA
BRANCH  23  25
HETATM   25  C13 UNL     1       0.233 -46.775  12.491  1.00  0.00     0.057 C 
HETATM   26  C14 UNL     1      -0.891 -46.042  11.742  1.00  0.00     0.012 C 
HETATM   27  C15 UNL     1      -1.407 -47.050  10.753  1.00  0.00     0.001 C 
HETATM   28  C16 UNL     1      -0.333 -48.062  10.535  1.00  0.00     0.001 C 
HETATM   29  C17 UNL     1       0.804 -47.726  11.494  1.00  0.00     0.012 C 
ENDBRANCH  23  25
ENDBRANCH  22  23
BRANCH  22  30
HETATM   30  C18 UNL     1       2.837 -44.731  14.539  1.00  0.00     0.157 C 
HETATM   31  C19 UNL     1       2.731 -43.407  15.317  1.00  0.00     0.042 C 
BRANCH  30  32
HETATM   32  O6  UNL     1       3.483 -45.616  15.483  1.00  0.00    -0.313 OA
BRANCH  32  33
HETATM   33  C20 UNL     1       4.473 -46.458  15.062  1.00  0.00     0.267 C 
HETATM   34  O7  UNL     1       4.590 -46.712  13.826  1.00  0.00    -0.264 OA
BRANCH  33  35
HETATM   35  C21 UNL     1       5.450 -47.112  15.974  1.00  0.00     0.037 C 
HETATM   36  C22 UNL     1       5.593 -46.385  17.276  1.00  0.00     0.025 C 
HETATM   37  C23 UNL     1       5.176 -48.585  16.121  1.00  0.00     0.025 C 
HETATM   38  C24 UNL     1       6.811 -47.005  15.274  1.00  0.00     0.025 C 
ENDBRANCH  33  35
ENDBRANCH  32  33
ENDBRANCH  30  32
ENDBRANCH  22  30
ENDBRANCH  20  22
ENDBRANCH  16  18
ENDBRANCH  11  13
ENDBRANCH   8   9
BRANCH   8  39
HETATM   39  C26 UNL     1      -3.997 -37.705  17.430  1.00  0.00     0.013 C 
HETATM   40  C27 UNL     1      -4.074 -36.882  18.692  1.00  0.00     0.012 C 
BRANCH  39  41
HETATM   41  C28 UNL     1      -5.192 -38.557  17.258  1.00  0.00     0.002 C 
HETATM   42  C29 UNL     1      -6.430 -37.996  17.928  1.00  0.00     0.005 C 
ENDBRANCH  39  41
ENDBRANCH   8  39
ENDBRANCH   6   8
ENDBRANCH   3   4
TORSDOF 14
ENDMDL
MODEL 3
REMARK VINA RESULT: -7.278253430      2.378      4.244
REMARK  14 active torsions:
REMARK  status: ('A' for Active; 'I' for Inactive)
REMARK    1  A    between atoms: O1_3  and  C3_4 
REMARK       I    between atoms: C3_4  and  N1_6 
REMARK    2  A    between atoms: N1_6  and  C4_8 
REMARK    3  A    between atoms: C4_8  and  C5_9 
REMARK    4  A    between atoms: C4_8  and  C26_39 
REMARK       I    between atoms: C5_9  and  N2_11 
REMARK    5  A    between atoms: N2_11  and  C6_13 
REMARK    6  A    between atoms: C9_16  and  C10_17 
REMARK       I    between atoms: C10_17  and  N3_19 
REMARK    7  A    between atoms: N3_19  and  C11_21 
REMARK    8  A    between atoms: C11_21  and  C12_22 
REMARK    9  A    between atoms: C11_21  and  C18_29 
REMARK   10  A    between atoms: C12_22  and  C13_24 
REMARK   11  A    between atoms: C18_29  and  O6_31 
REMARK   12  A    between atoms: O6_31  and  C20_32 
REMARK   13  A    between atoms: C20_32  and  C21_34 
REMARK   14  A    between atoms: C26_39  and  C28_41 
ROOT
HETATM    1  C1  UNL     1      -3.989 -43.993  13.267  1.00  0.00     0.045 C 
HETATM    2  C2  UNL     1      -4.541 -43.110  13.863  1.00  0.00     0.054 C 
HETATM    3  O1  UNL     1      -5.154 -42.089  14.534  1.00  0.00    -0.209 OA
ENDROOT
BRANCH   3   4
HETATM    4  C3  UNL     1      -4.848 -41.867  15.866  1.00  0.00     0.374 C 
HETATM    5  O2  UNL     1      -5.763 -42.042  16.715  1.00  0.00    -0.237 OA
HETATM    6  N1  UNL     1      -3.579 -41.463  16.294  1.00  0.00    -0.322 N 
ATOM      7  H1  UNL     1      -2.847 -41.326  15.598  1.00  0.00     0.165 HD
BRANCH   6   8
HETATM    8  C4  UNL     1      -3.258 -41.228  17.726  1.00  0.00     0.182 C 
BRANCH   8   9
HETATM    9  C5  UNL     1      -2.716 -42.464  18.292  1.00  0.00     0.241 C 
HETATM   10  O3  UNL     1      -3.485 -43.178  19.023  1.00  0.00    -0.271 OA
HETATM   11  N2  UNL     1      -1.411 -42.902  18.084  1.00  0.00    -0.355 N 
ATOM     12  H2  UNL     1      -0.761 -42.361  17.514  1.00  0.00     0.162 HD
BRANCH  11  13
HETATM   13  C6  UNL     1      -0.995 -44.169  18.708  1.00  0.00     0.085 C 
HETATM   14  C7  UNL     1       0.392 -44.070  19.259  1.00  0.00     0.026 C 
HETATM   15  C8  UNL     1       1.329 -44.474  18.143  1.00  0.00     0.016 C 
HETATM   16  C9  UNL     1       0.444 -44.754  16.950  1.00  0.00     0.080 C 
HETATM   17  C25 UNL     1      -0.853 -45.168  17.590  1.00  0.00     0.039 C 
BRANCH  16  18
HETATM   18  C10 UNL     1       1.010 -45.826  16.091  1.00  0.00     0.222 C 
HETATM   19  O4  UNL     1       0.645 -47.002  16.321  1.00  0.00    -0.273 OA
HETATM   20  N3  UNL     1       1.912 -45.499  15.077  1.00  0.00    -0.347 N 
ATOM     21  H3  UNL     1       2.165 -44.520  14.946  1.00  0.00     0.163 HD
BRANCH  20  22
HETATM   22  C11 UNL     1       2.514 -46.506  14.191  1.00  0.00     0.183 C 
BRANCH  22  23
HETATM   23  C12 UNL     1       1.796 -46.484  12.918  1.00  0.00     0.156 C 
HETATM   24  O5  UNL     1       2.488 -46.283  11.894  1.00  0.00    -0.295 OA
BRANCH  23  25
HETATM   25  C13 UNL     1       0.364 -46.663  12.688  1.00  0.00     0.057 C 
HETATM   26  C14 UNL     1      -0.204 -45.349  12.128  1.00  0.00     0.012 C 
HETATM   27  C15 UNL     1      -1.362 -45.773  11.268  1.00  0.00     0.001 C 
HETATM   28  C16 UNL     1      -1.148 -47.200  10.891  1.00  0.00     0.001 C 
HETATM   29  C17 UNL     1       0.097 -47.680  11.630  1.00  0.00     0.012 C 
ENDBRANCH  23  25
ENDBRANCH  22  23
BRANCH  22  30
HETATM   30  C18 UNL     1       3.980 -46.151  14.130  1.00  0.00     0.157 C 
HETATM   31  C19 UNL     1       4.197 -44.741  14.709  1.00  0.00     0.042 C 
BRANCH  30  32
HETATM   32  O6  UNL     1       4.676 -47.003  15.067  1.00  0.00    -0.313 OA
BRANCH  32  33
HETATM   33  C20 UNL     1       5.477 -48.011  14.609  1.00  0.00     0.267 C 
HETATM   34  O7  UNL     1       5.018 -48.833  13.761  1.00  0.00    -0.264 OA
BRANCH  33  35
HETATM   35  C21 UNL     1       6.884 -48.216  15.045  1.00  0.00     0.037 C 
HETATM   36  C22 UNL     1       6.989 -48.564  16.499  1.00  0.00     0.025 C 
HETATM   37  C23 UNL     1       7.619 -49.162  14.133  1.00  0.00     0.025 C 
HETATM   38  C24 UNL     1       7.573 -46.855  14.883  1.00  0.00     0.025 C 
ENDBRANCH  33  35
ENDBRANCH  32  33
ENDBRANCH  30  32
ENDBRANCH  22  30
ENDBRANCH  20  22
ENDBRANCH  16  18
ENDBRANCH  11  13
ENDBRANCH   8   9
BRANCH   8  39
HETATM   39  C26 UNL     1      -2.230 -40.132  17.790  1.00  0.00     0.013 C 
HETATM   40  C27 UNL     1      -2.324 -39.416  19.115  1.00  0.00     0.012 C 
BRANCH  39  41
HETATM   41  C28 UNL     1      -2.192 -39.184  16.657  1.00  0.00     0.002 C 
HETATM   42  C29 UNL     1      -3.231 -38.085  16.758  1.00  0.00     0.005 C 
ENDBRANCH  39  41
ENDBRANCH   8  39
ENDBRANCH   6   8
ENDBRANCH   3   4
TORSDOF 14
ENDMDL
MODEL 4
REMARK VINA RESULT: -7.242044923      3.531      9.987
REMARK  14 active torsions:
REMARK  status: ('A' for Active; 'I' for Inactive)
REMARK    1  A    between atoms: O1_3  and  C3_4 
REMARK       I    between atoms: C3_4  and  N1_6 
REMARK    2  A    between atoms: N1_6  and  C4_8 
REMARK    3  A    between atoms: C4_8  and  C5_9 
REMARK    4  A    between atoms: C4_8  and  C26_39 
REMARK       I    between atoms: C5_9  and  N2_11 
REMARK    5  A    between atoms: N2_11  and  C6_13 
REMARK    6  A    between atoms: C9_16  and  C10_17 
REMARK       I    between atoms: C10_17  and  N3_19 
REMARK    7  A    between atoms: N3_19  and  C11_21 
REMARK    8  A    between atoms: C11_21  and  C12_22 
REMARK    9  A    between atoms: C11_21  and  C18_29 
REMARK   10  A    between atoms: C12_22  and  C13_24 
REMARK   11  A    between atoms: C18_29  and  O6_31 
REMARK   12  A    between atoms: O6_31  and  C20_32 
REMARK   13  A    between atoms: C20_32  and  C21_34 
REMARK   14  A    between atoms: C26_39  and  C28_41 
ROOT
HETATM    1  C1  UNL     1       1.033 -47.978  15.362  1.00  0.00     0.045 C 
HETATM    2  C2  UNL     1       1.868 -48.728  14.938  1.00  0.00     0.054 C 
HETATM    3  O1  UNL     1       2.820 -49.594  14.477  1.00  0.00    -0.209 OA
ENDROOT
BRANCH   3   4
HETATM    4  C3  UNL     1       4.157 -49.249  14.567  1.00  0.00     0.374 C 
HETATM    5  O2  UNL     1       4.614 -48.439  13.715  1.00  0.00    -0.237 OA
HETATM    6  N1  UNL     1       5.006 -49.759  15.556  1.00  0.00    -0.322 N 
ATOM      7  H1  UNL     1       4.625 -50.413  16.240  1.00  0.00     0.165 HD
BRANCH   6   8
HETATM    8  C4  UNL     1       6.441 -49.383  15.646  1.00  0.00     0.182 C 
BRANCH   8   9
HETATM    9  C5  UNL     1       6.533 -47.937  15.851  1.00  0.00     0.241 C 
HETATM   10  O3  UNL     1       7.641 -47.361  15.580  1.00  0.00    -0.271 OA
HETATM   11  N2  UNL     1       5.483 -47.156  16.328  1.00  0.00    -0.355 N 
ATOM     12  H2  UNL     1       4.583 -47.574  16.563  1.00  0.00     0.162 HD
BRANCH  11  13
HETATM   13  C6  UNL     1       5.708 -45.709  16.482  1.00  0.00     0.085 C 
HETATM   14  C7  UNL     1       4.966 -45.170  17.664  1.00  0.00     0.026 C 
HETATM   15  C8  UNL     1       3.597 -44.763  17.165  1.00  0.00     0.016 C 
HETATM   16  C9  UNL     1       3.574 -45.127  15.698  1.00  0.00     0.080 C 
HETATM   17  C25 UNL     1       5.027 -45.045  15.314  1.00  0.00     0.039 C 
BRANCH  16  18
HETATM   18  C10 UNL     1       2.736 -44.182  14.915  1.00  0.00     0.222 C 
HETATM   19  O4  UNL     1       3.264 -43.102  14.560  1.00  0.00    -0.273 OA
HETATM   20  N3  UNL     1       1.417 -44.517  14.607  1.00  0.00    -0.347 N 
ATOM     21  H3  UNL     1       1.054 -45.414  14.928  1.00  0.00     0.163 HD
BRANCH  20  22
HETATM   22  C11 UNL     1       0.529 -43.632  13.839  1.00  0.00     0.183 C 
BRANCH  22  23
HETATM   23  C12 UNL     1       0.132 -44.329  12.617  1.00  0.00     0.156 C 
HETATM   24  O5  UNL     1       0.141 -43.652  11.564  1.00  0.00    -0.295 OA
BRANCH  23  25
HETATM   25  C13 UNL     1      -0.280 -45.724  12.469  1.00  0.00     0.057 C 
HETATM   26  C14 UNL     1      -1.437 -45.782  11.458  1.00  0.00     0.012 C 
HETATM   27  C15 UNL     1      -1.311 -47.135  10.817  1.00  0.00     0.001 C 
HETATM   28  C16 UNL     1       0.095 -47.596  11.000  1.00  0.00     0.001 C 
HETATM   29  C17 UNL     1       0.800 -46.557  11.866  1.00  0.00     0.012 C 
ENDBRANCH  23  25
ENDBRANCH  22  23
BRANCH  22  30
HETATM   30  C18 UNL     1      -0.588 -43.275  14.789  1.00  0.00     0.157 C 
HETATM   31  C19 UNL     1      -0.226 -41.992  15.559  1.00  0.00     0.042 C 
BRANCH  30  32
HETATM   32  O6  UNL     1      -1.727 -42.872  13.994  1.00  0.00    -0.313 OA
BRANCH  32  33
HETATM   33  C20 UNL     1      -2.988 -43.236  14.374  1.00  0.00     0.267 C 
HETATM   34  O7  UNL     1      -3.226 -44.447  14.659  1.00  0.00    -0.264 OA
BRANCH  33  35
HETATM   35  C21 UNL     1      -4.129 -42.288  14.480  1.00  0.00     0.037 C 
HETATM   36  C22 UNL     1      -5.205 -42.572  13.476  1.00  0.00     0.025 C 
HETATM   37  C23 UNL     1      -4.627 -42.170  15.896  1.00  0.00     0.025 C 
HETATM   38  C24 UNL     1      -3.561 -40.910  14.117  1.00  0.00     0.025 C 
ENDBRANCH  33  35
ENDBRANCH  32  33
ENDBRANCH  30  32
ENDBRANCH  22  30
ENDBRANCH  20  22
ENDBRANCH  16  18
ENDBRANCH  11  13
ENDBRANCH   8   9
BRANCH   8  39
HETATM   39  C26 UNL     1       7.031 -50.114  16.822  1.00  0.00     0.013 C 
HETATM   40  C27 UNL     1       6.730 -49.364  18.096  1.00  0.00     0.012 C 
BRANCH  39  41
HETATM   41  C28 UNL     1       8.458 -50.486  16.730  1.00  0.00     0.002 C 
HETATM   42  C29 UNL     1       8.787 -51.302  15.495  1.00  0.00     0.005 C 
ENDBRANCH  39  41
ENDBRANCH   8  39
ENDBRANCH   6   8
ENDBRANCH   3   4
TORSDOF 14
ENDMDL
MODEL 5
REMARK VINA RESULT: -7.151314614      2.411      4.462
REMARK  14 active torsions:
REMARK  status: ('A' for Active; 'I' for Inactive)
REMARK    1  A    between atoms: O1_3  and  C3_4 
REMARK       I    between atoms: C3_4  and  N1_6 
REMARK    2  A    between atoms: N1_6  and  C4_8 
REMARK    3  A    between atoms: C4_8  and  C5_9 
REMARK    4  A    between atoms: C4_8  and  C26_39 
REMARK       I    between atoms: C5_9  and  N2_11 
REMARK    5  A    between atoms: N2_11  and  C6_13 
REMARK    6  A    between atoms: C9_16  and  C10_17 
REMARK       I    between atoms: C10_17  and  N3_19 
REMARK    7  A    between atoms: N3_19  and  C11_21 
REMARK    8  A    between atoms: C11_21  and  C12_22 
REMARK    9  A    between atoms: C11_21  and  C18_29 
REMARK   10  A    between atoms: C12_22  and  C13_24 
REMARK   11  A    between atoms: C18_29  and  O6_31 
REMARK   12  A    between atoms: O6_31  and  C20_32 
REMARK   13  A    between atoms: C20_32  and  C21_34 
REMARK   14  A    between atoms: C26_39  and  C28_41 
ROOT
HETATM    1  C1  UNL     1      -1.267 -38.336  20.588  1.00  0.00     0.045 C 
HETATM    2  C2  UNL     1      -0.824 -38.264  19.475  1.00  0.00     0.054 C 
HETATM    3  O1  UNL     1      -0.320 -38.158  18.209  1.00  0.00    -0.209 OA
ENDROOT
BRANCH   3   4
HETATM    4  C3  UNL     1      -1.180 -38.202  17.126  1.00  0.00     0.374 C 
HETATM    5  O2  UNL     1      -1.226 -37.193  16.372  1.00  0.00    -0.237 OA
HETATM    6  N1  UNL     1      -1.985 -39.310  16.844  1.00  0.00    -0.322 N 
ATOM      7  H1  UNL     1      -1.939 -40.121  17.461  1.00  0.00     0.165 HD
BRANCH   6   8
HETATM    8  C4  UNL     1      -2.906 -39.350  15.678  1.00  0.00     0.182 C 
BRANCH   8   9
HETATM    9  C5  UNL     1      -2.445 -40.388  14.755  1.00  0.00     0.241 C 
HETATM   10  O3  UNL     1      -3.003 -40.462  13.606  1.00  0.00    -0.271 OA
HETATM   11  N2  UNL     1      -1.438 -41.301  15.058  1.00  0.00    -0.355 N 
ATOM     12  H2  UNL     1      -0.970 -41.283  15.964  1.00  0.00     0.162 HD
BRANCH  11  13
HETATM   13  C6  UNL     1      -1.066 -42.291  14.034  1.00  0.00     0.085 C 
HETATM   14  C7  UNL     1      -1.380 -43.681  14.489  1.00  0.00     0.026 C 
HETATM   15  C8  UNL     1      -0.155 -44.184  15.220  1.00  0.00     0.016 C 
HETATM   16  C9  UNL     1       0.827 -43.034  15.205  1.00  0.00     0.080 C 
HETATM   17  C25 UNL     1       0.438 -42.283  13.960  1.00  0.00     0.039 C 
BRANCH  16  18
HETATM   18  C10 UNL     1       2.230 -43.517  15.149  1.00  0.00     0.222 C 
HETATM   19  O4  UNL     1       3.122 -42.670  14.910  1.00  0.00    -0.273 OA
HETATM   20  N3  UNL     1       2.508 -44.869  15.358  1.00  0.00    -0.347 N 
ATOM     21  H3  UNL     1       1.732 -45.502  15.549  1.00  0.00     0.163 HD
BRANCH  20  22
HETATM   22  C11 UNL     1       3.871 -45.419  15.316  1.00  0.00     0.183 C 
BRANCH  22  23
HETATM   23  C12 UNL     1       4.351 -45.561  16.690  1.00  0.00     0.156 C 
HETATM   24  O5  UNL     1       4.853 -44.540  17.210  1.00  0.00    -0.295 OA
BRANCH  23  25
HETATM   25  C13 UNL     1       4.322 -46.753  17.535  1.00  0.00     0.057 C 
HETATM   26  C14 UNL     1       5.425 -46.620  18.597  1.00  0.00     0.012 C 
HETATM   27  C15 UNL     1       4.906 -47.387  19.781  1.00  0.00     0.001 C 
HETATM   28  C16 UNL     1       3.423 -47.473  19.651  1.00  0.00     0.001 C 
HETATM   29  C17 UNL     1       3.051 -46.848  18.310  1.00  0.00     0.012 C 
ENDBRANCH  23  25
ENDBRANCH  22  23
BRANCH  22  30
HETATM   30  C18 UNL     1       3.755 -46.696  14.521  1.00  0.00     0.157 C 
HETATM   31  C19 UNL     1       3.036 -46.416  13.189  1.00  0.00     0.042 C 
BRANCH  30  32
HETATM   32  O6  UNL     1       5.087 -47.074  14.103  1.00  0.00    -0.313 OA
BRANCH  32  33
HETATM   33  C20 UNL     1       5.577 -48.310  14.420  1.00  0.00     0.267 C 
HETATM   34  O7  UNL     1       4.841 -49.328  14.264  1.00  0.00    -0.264 OA
BRANCH  33  35
HETATM   35  C21 UNL     1       6.948 -48.549  14.944  1.00  0.00     0.037 C 
HETATM   36  C22 UNL     1       6.943 -49.014  16.369  1.00  0.00     0.025 C 
HETATM   37  C23 UNL     1       7.756 -49.418  14.019  1.00  0.00     0.025 C 
HETATM   38  C24 UNL     1       7.639 -47.179  14.946  1.00  0.00     0.025 C 
ENDBRANCH  33  35
ENDBRANCH  32  33
ENDBRANCH  30  32
ENDBRANCH  22  30
ENDBRANCH  20  22
ENDBRANCH  16  18
ENDBRANCH  11  13
ENDBRANCH   8   9
BRANCH   8  39
HETATM   39  C26 UNL     1      -4.280 -39.684  16.192  1.00  0.00     0.013 C 
HETATM   40  C27 UNL     1      -4.892 -38.470  16.847  1.00  0.00     0.012 C 
BRANCH  39  41
HETATM   41  C28 UNL     1      -4.402 -40.886  17.043  1.00  0.00     0.002 C 
HETATM   42  C29 UNL     1      -5.224 -41.990  16.408  1.00  0.00     0.005 C 
ENDBRANCH  39  41
ENDBRANCH   8  39
ENDBRANCH   6   8
ENDBRANCH   3   4
TORSDOF 14
ENDMDL
