MODEL 1
REMARK VINA RESULT: -8.672741198      0.000      0.000
REMARK  8 active torsions:
REMARK  status: ('A' for Active; 'I' for Inactive)
REMARK    1  A    between atoms: C2_5  and  O2_6 
REMARK    2  A    between atoms: O2_6  and  C3_7 
REMARK    3  A    between atoms: C3_7  and  C4_8 
REMARK    4  A    between atoms: C4_8  and  O3_9 
REMARK    5  A    between atoms: O3_9  and  C5_10 
REMARK    6  A    between atoms: C8_13  and  C9_14 
REMARK    7  A    between atoms: N2_15  and  N3_17 
REMARK    8  A    between atoms: N3_17  and  C10_19 
ROOT
HETATM    1  C5  UNL     1     -62.755  32.022  -8.665  1.00  0.00     0.068 A 
HETATM    2  C6  UNL     1     -63.334  32.101  -7.397  1.00  0.00     0.037 A 
HETATM    3  C7  UNL     1     -64.420  31.317  -7.055  1.00  0.00     0.015 A 
HETATM    4  C8  UNL     1     -64.971  30.436  -7.943  1.00  0.00    -0.019 A 
HETATM    5  C13 UNL     1     -64.403  30.347  -9.210  1.00  0.00     0.015 A 
HETATM    6  C14 UNL     1     -63.318  31.131  -9.548  1.00  0.00     0.037 A 
ENDROOT
BRANCH   1   7
HETATM    7  O3  UNL     1     -61.670  32.814  -8.982  1.00  0.00    -0.349 OA
BRANCH   7   8
HETATM    8  C4  UNL     1     -60.379  32.432  -9.259  1.00  0.00     0.202 C 
BRANCH   8   9
HETATM    9  C3  UNL     1     -59.701  31.620  -8.207  1.00  0.00     0.205 C 
BRANCH   9  10
HETATM   10  O2  UNL     1     -60.317  30.482  -7.771  1.00  0.00    -0.320 OA
BRANCH  10  11
HETATM   11  C2  UNL     1     -60.532  29.862  -6.618  1.00  0.00     0.230 C 
HETATM   12  N1  UNL     1     -61.636  29.062  -6.515  1.00  0.00    -0.274 N 
HETATM   13  C1  UNL     1     -62.258  28.590  -5.398  1.00  0.00     0.330 C 
ATOM     14  H1  UNL     1     -62.053  28.778  -7.401  1.00  0.00     0.174 HD
HETATM   15  O1  UNL     1     -63.488  28.341  -5.520  1.00  0.00    -0.246 OA
HETATM   16  N7  UNL     1     -61.712  28.365  -4.204  1.00  0.00    -0.271 N 
HETATM   17  C16 UNL     1     -60.630  28.993  -3.655  1.00  0.00     0.317 C 
ATOM     18  H7  UNL     1     -62.153  27.642  -3.635  1.00  0.00     0.174 HD
HETATM   19  C15 UNL     1     -59.816  29.920  -4.272  1.00  0.00     0.316 C 
HETATM   20  O5  UNL     1     -60.340  28.706  -2.484  1.00  0.00    -0.262 OA
HETATM   21  N6  UNL     1     -59.664  30.038  -5.609  1.00  0.00    -0.284 N 
HETATM   22  O4  UNL     1     -59.174  30.709  -3.541  1.00  0.00    -0.262 OA
ATOM     23  H6  UNL     1     -58.726  30.308  -5.903  1.00  0.00     0.172 HD
ENDBRANCH  10  11
ENDBRANCH   9  10
ENDBRANCH   8   9
ENDBRANCH   7   8
ENDBRANCH   1   7
BRANCH   4  24
HETATM   24  C9  UNL     1     -66.129  29.615  -7.583  1.00  0.00     0.118 C 
HETATM   25  N2  UNL     1     -67.158  30.240  -7.092  1.00  0.00    -0.308 N 
ATOM     26  H2  UNL     1     -67.141  31.253  -6.972  1.00  0.00     0.186 HD
BRANCH  25  27
HETATM   27  N3  UNL     1     -68.270  29.511  -6.738  1.00  0.00    -0.272 N 
ATOM     28  H3  UNL     1     -69.167  29.980  -6.612  1.00  0.00     0.190 HD
BRANCH  27  29
HETATM   29  C10 UNL     1     -68.174  28.109  -6.547  1.00  0.00     0.190 C 
HETATM   30  N4  UNL     1     -68.243  27.437  -5.434  1.00  0.00    -0.360 N 
HETATM   31  C11 UNL     1     -68.098  26.019  -5.664  1.00  0.00     0.142 C 
ATOM     32  H4  UNL     1     -68.380  27.859  -4.516  1.00  0.00     0.162 HD
HETATM   33  C12 UNL     1     -67.459  25.984  -7.039  1.00  0.00     0.142 C 
HETATM   34  N5  UNL     1     -67.981  27.198  -7.641  1.00  0.00    -0.360 N 
ATOM     35  H5  UNL     1     -68.170  27.367  -8.629  1.00  0.00     0.162 HD
ENDBRANCH  27  29
ENDBRANCH  25  27
ENDBRANCH   4  24
TORSDOF 8
ENDMDL
MODEL 2
REMARK VINA RESULT: -8.650255689      3.537      8.600
REMARK  8 active torsions:
REMARK  status: ('A' for Active; 'I' for Inactive)
REMARK    1  A    between atoms: C2_5  and  O2_6 
REMARK    2  A    between atoms: O2_6  and  C3_7 
REMARK    3  A    between atoms: C3_7  and  C4_8 
REMARK    4  A    between atoms: C4_8  and  O3_9 
REMARK    5  A    between atoms: O3_9  and  C5_10 
REMARK    6  A    between atoms: C8_13  and  C9_14 
REMARK    7  A    between atoms: N2_15  and  N3_17 
REMARK    8  A    between atoms: N3_17  and  C10_19 
ROOT
HETATM    1  C5  UNL     1     -63.718  28.861  -6.205  1.00  0.00     0.068 A 
HETATM    2  C6  UNL     1     -62.445  28.679  -5.662  1.00  0.00     0.037 A 
HETATM    3  C7  UNL     1     -61.373  29.449  -6.075  1.00  0.00     0.015 A 
HETATM    4  C8  UNL     1     -61.517  30.415  -7.031  1.00  0.00    -0.019 A 
HETATM    5  C13 UNL     1     -62.781  30.606  -7.581  1.00  0.00     0.015 A 
HETATM    6  C14 UNL     1     -63.849  29.836  -7.165  1.00  0.00     0.037 A 
ENDROOT
BRANCH   1   7
HETATM    7  O3  UNL     1     -64.773  28.081  -5.774  1.00  0.00    -0.349 OA
BRANCH   7   8
HETATM    8  C4  UNL     1     -64.975  26.733  -5.959  1.00  0.00     0.202 C 
BRANCH   8   9
HETATM    9  C3  UNL     1     -66.367  26.328  -6.311  1.00  0.00     0.205 C 
BRANCH   9  10
HETATM   10  O2  UNL     1     -66.861  26.697  -7.530  1.00  0.00    -0.320 OA
BRANCH  10  11
HETATM   11  C2  UNL     1     -67.152  27.820  -8.172  1.00  0.00     0.230 C 
HETATM   12  N1  UNL     1     -67.320  28.958  -7.432  1.00  0.00    -0.274 N 
HETATM   13  C1  UNL     1     -67.925  30.130  -7.776  1.00  0.00     0.330 C 
ATOM     14  H1  UNL     1     -66.937  28.924  -6.487  1.00  0.00     0.174 HD
HETATM   15  O1  UNL     1     -68.412  30.795  -6.823  1.00  0.00    -0.246 OA
HETATM   16  N7  UNL     1     -68.055  30.642  -8.998  1.00  0.00    -0.271 N 
HETATM   17  C16 UNL     1     -68.110  29.961 -10.182  1.00  0.00     0.317 C 
ATOM     18  H7  UNL     1     -68.120  31.658  -9.058  1.00  0.00     0.174 HD
HETATM   19  C15 UNL     1     -67.939  28.604 -10.359  1.00  0.00     0.316 C 
HETATM   20  O5  UNL     1     -68.337  30.621 -11.208  1.00  0.00    -0.262 OA
HETATM   21  N6  UNL     1     -67.266  27.799  -9.510  1.00  0.00    -0.284 N 
HETATM   22  O4  UNL     1     -68.443  28.082 -11.380  1.00  0.00    -0.262 OA
ATOM     23  H6  UNL     1     -66.755  27.042  -9.963  1.00  0.00     0.172 HD
ENDBRANCH  10  11
ENDBRANCH   9  10
ENDBRANCH   8   9
ENDBRANCH   7   8
ENDBRANCH   1   7
BRANCH   4  24
HETATM   24  C9  UNL     1     -60.377  31.221  -7.477  1.00  0.00     0.118 C 
HETATM   25  N2  UNL     1     -60.154  31.259  -8.756  1.00  0.00    -0.308 N 
ATOM     26  H2  UNL     1     -60.754  30.747  -9.404  1.00  0.00     0.186 HD
BRANCH  25  27
HETATM   27  N3  UNL     1     -59.094  32.002  -9.223  1.00  0.00    -0.272 N 
ATOM     28  H3  UNL     1     -59.190  33.011  -9.333  1.00  0.00     0.190 HD
BRANCH  27  29
HETATM   29  C10 UNL     1     -57.868  31.370  -9.552  1.00  0.00     0.190 C 
HETATM   30  N4  UNL     1     -57.631  30.100  -9.715  1.00  0.00    -0.360 N 
HETATM   31  C11 UNL     1     -56.246  29.860 -10.044  1.00  0.00     0.142 C 
ATOM     32  H4  UNL     1     -58.334  29.367  -9.621  1.00  0.00     0.162 HD
HETATM   33  C12 UNL     1     -55.584  31.146  -9.590  1.00  0.00     0.142 C 
HETATM   34  N5  UNL     1     -56.655  32.110  -9.764  1.00  0.00    -0.360 N 
ATOM     35  H5  UNL     1     -56.566  33.102  -9.988  1.00  0.00     0.162 HD
ENDBRANCH  27  29
ENDBRANCH  25  27
ENDBRANCH   4  24
TORSDOF 8
ENDMDL
MODEL 3
REMARK VINA RESULT: -8.636110600      3.557      8.367
REMARK  8 active torsions:
REMARK  status: ('A' for Active; 'I' for Inactive)
REMARK    1  A    between atoms: C2_5  and  O2_6 
REMARK    2  A    between atoms: O2_6  and  C3_7 
REMARK    3  A    between atoms: C3_7  and  C4_8 
REMARK    4  A    between atoms: C4_8  and  O3_9 
REMARK    5  A    between atoms: O3_9  and  C5_10 
REMARK    6  A    between atoms: C8_13  and  C9_14 
REMARK    7  A    between atoms: N2_15  and  N3_17 
REMARK    8  A    between atoms: N3_17  and  C10_19 
ROOT
HETATM    1  C5  UNL     1     -63.742  28.893  -6.231  1.00  0.00     0.068 A 
HETATM    2  C6  UNL     1     -62.482  28.676  -5.670  1.00  0.00     0.037 A 
HETATM    3  C7  UNL     1     -61.385  29.421  -6.061  1.00  0.00     0.015 A 
HETATM    4  C8  UNL     1     -61.490  30.397  -7.012  1.00  0.00    -0.019 A 
HETATM    5  C13 UNL     1     -62.741  30.623  -7.579  1.00  0.00     0.015 A 
HETATM    6  C14 UNL     1     -63.834  29.878  -7.185  1.00  0.00     0.037 A 
ENDROOT
BRANCH   1   7
HETATM    7  O3  UNL     1     -64.822  28.136  -5.822  1.00  0.00    -0.349 OA
BRANCH   7   8
HETATM    8  C4  UNL     1     -64.991  26.773  -5.894  1.00  0.00     0.202 C 
BRANCH   8   9
HETATM    9  C3  UNL     1     -66.212  26.308  -6.614  1.00  0.00     0.205 C 
BRANCH   9  10
HETATM   10  O2  UNL     1     -66.215  26.354  -7.979  1.00  0.00    -0.320 OA
BRANCH  10  11
HETATM   11  C2  UNL     1     -66.253  27.277  -8.930  1.00  0.00     0.230 C 
HETATM   12  N1  UNL     1     -67.448  27.893  -9.179  1.00  0.00    -0.274 N 
HETATM   13  C1  UNL     1     -67.840  28.607 -10.273  1.00  0.00     0.330 C 
ATOM     14  H1  UNL     1     -68.146  27.807  -8.441  1.00  0.00     0.174 HD
HETATM   15  O1  UNL     1     -69.079  28.616 -10.506  1.00  0.00    -0.246 OA
HETATM   16  N7  UNL     1     -67.062  29.288 -11.112  1.00  0.00    -0.271 N 
HETATM   17  C16 UNL     1     -65.753  29.043 -11.415  1.00  0.00     0.317 C 
ATOM     18  H7  UNL     1     -67.494  30.084 -11.583  1.00  0.00     0.174 HD
HETATM   19  C15 UNL     1     -64.937  28.097 -10.831  1.00  0.00     0.316 C 
HETATM   20  O5  UNL     1     -65.234  29.737 -12.303  1.00  0.00    -0.262 OA
HETATM   21  N6  UNL     1     -65.129  27.572  -9.602  1.00  0.00    -0.284 N 
HETATM   22  O4  UNL     1     -63.949  27.695 -11.487  1.00  0.00    -0.262 OA
ATOM     23  H6  UNL     1     -64.269  27.363  -9.095  1.00  0.00     0.172 HD
ENDBRANCH  10  11
ENDBRANCH   9  10
ENDBRANCH   8   9
ENDBRANCH   7   8
ENDBRANCH   1   7
BRANCH   4  24
HETATM   24  C9  UNL     1     -60.324  31.177  -7.434  1.00  0.00     0.118 C 
HETATM   25  N2  UNL     1     -60.127  31.287  -8.714  1.00  0.00    -0.308 N 
ATOM     26  H2  UNL     1     -60.765  30.845  -9.377  1.00  0.00     0.186 HD
BRANCH  25  27
HETATM   27  N3  UNL     1     -59.044  32.010  -9.160  1.00  0.00    -0.272 N 
ATOM     28  H3  UNL     1     -59.105  33.026  -9.228  1.00  0.00     0.190 HD
BRANCH  27  29
HETATM   29  C10 UNL     1     -57.845  31.348  -9.524  1.00  0.00     0.190 C 
HETATM   30  N4  UNL     1     -57.660  30.081  -9.759  1.00  0.00    -0.360 N 
HETATM   31  C11 UNL     1     -56.285  29.803 -10.102  1.00  0.00     0.142 C 
ATOM     32  H4  UNL     1     -58.393  29.374  -9.707  1.00  0.00     0.162 HD
HETATM   33  C12 UNL     1     -55.572  31.034  -9.574  1.00  0.00     0.142 C 
HETATM   34  N5  UNL     1     -56.602  32.049  -9.692  1.00  0.00    -0.360 N 
ATOM     35  H5  UNL     1     -56.472  33.047  -9.859  1.00  0.00     0.162 HD
ENDBRANCH  27  29
ENDBRANCH  25  27
ENDBRANCH   4  24
TORSDOF 8
ENDMDL
MODEL 4
REMARK VINA RESULT: -8.622842032      2.721      5.965
REMARK  8 active torsions:
REMARK  status: ('A' for Active; 'I' for Inactive)
REMARK    1  A    between atoms: C2_5  and  O2_6 
REMARK    2  A    between atoms: O2_6  and  C3_7 
REMARK    3  A    between atoms: C3_7  and  C4_8 
REMARK    4  A    between atoms: C4_8  and  O3_9 
REMARK    5  A    between atoms: O3_9  and  C5_10 
REMARK    6  A    between atoms: C8_13  and  C9_14 
REMARK    7  A    between atoms: N2_15  and  N3_17 
REMARK    8  A    between atoms: N3_17  and  C10_19 
ROOT
HETATM    1  C5  UNL     1     -67.169  29.238  -9.384  1.00  0.00     0.068 A 
HETATM    2  C6  UNL     1     -66.227  28.235  -9.616  1.00  0.00     0.037 A 
HETATM    3  C7  UNL     1     -65.510  27.671  -8.576  1.00  0.00     0.015 A 
HETATM    4  C8  UNL     1     -65.694  28.073  -7.283  1.00  0.00    -0.019 A 
HETATM    5  C13 UNL     1     -66.631  29.073  -7.039  1.00  0.00     0.015 A 
HETATM    6  C14 UNL     1     -67.345  29.633  -8.079  1.00  0.00     0.037 A 
ENDROOT
BRANCH   1   7
HETATM    7  O3  UNL     1     -67.872  29.785 -10.439  1.00  0.00    -0.349 OA
BRANCH   7   8
HETATM    8  C4  UNL     1     -67.534  30.855 -11.233  1.00  0.00     0.202 C 
BRANCH   8   9
HETATM    9  C3  UNL     1     -66.073  31.075 -11.439  1.00  0.00     0.205 C 
BRANCH   9  10
HETATM   10  O2  UNL     1     -65.384  31.775 -10.490  1.00  0.00    -0.320 OA
BRANCH  10  11
HETATM   11  C2  UNL     1     -64.201  31.716  -9.893  1.00  0.00     0.230 C 
HETATM   12  N1  UNL     1     -64.105  31.013  -8.725  1.00  0.00    -0.274 N 
HETATM   13  C1  UNL     1     -63.138  31.061  -7.766  1.00  0.00     0.330 C 
ATOM     14  H1  UNL     1     -64.866  30.359  -8.546  1.00  0.00     0.174 HD
HETATM   15  O1  UNL     1     -63.506  30.751  -6.601  1.00  0.00    -0.246 OA
HETATM   16  N7  UNL     1     -61.859  31.396  -7.926  1.00  0.00    -0.271 N 
HETATM   17  C16 UNL     1     -61.331  32.229  -8.871  1.00  0.00     0.317 C 
ATOM     18  H7  UNL     1     -61.198  30.983  -7.267  1.00  0.00     0.174 HD
HETATM   19  C15 UNL     1     -62.007  32.814  -9.921  1.00  0.00     0.316 C 
HETATM   20  O5  UNL     1     -60.121  32.491  -8.787  1.00  0.00    -0.262 OA
HETATM   21  N6  UNL     1     -63.152  32.339 -10.456  1.00  0.00    -0.284 N 
HETATM   22  O4  UNL     1     -61.525  33.860 -10.413  1.00  0.00    -0.262 OA
ATOM     23  H6  UNL     1     -63.236  32.478 -11.462  1.00  0.00     0.172 HD
ENDBRANCH  10  11
ENDBRANCH   9  10
ENDBRANCH   8   9
ENDBRANCH   7   8
ENDBRANCH   1   7
BRANCH   4  24
HETATM   24  C9  UNL     1     -64.926  27.483  -6.185  1.00  0.00     0.118 C 
HETATM   25  N2  UNL     1     -63.718  27.930  -6.011  1.00  0.00    -0.308 N 
ATOM     26  H2  UNL     1     -63.341  28.657  -6.619  1.00  0.00     0.186 HD
BRANCH  25  27
HETATM   27  N3  UNL     1     -62.956  27.405  -4.991  1.00  0.00    -0.272 N 
ATOM     28  H3  UNL     1     -63.199  26.500  -4.590  1.00  0.00     0.190 HD
BRANCH  27  29
HETATM   29  C10 UNL     1     -61.835  28.118  -4.498  1.00  0.00     0.190 C 
HETATM   30  N4  UNL     1     -61.282  28.044  -3.321  1.00  0.00    -0.360 N 
HETATM   31  C11 UNL     1     -60.154  28.938  -3.211  1.00  0.00     0.142 C 
ATOM     32  H4  UNL     1     -61.605  27.432  -2.573  1.00  0.00     0.162 HD
HETATM   33  C12 UNL     1     -60.405  29.908  -4.350  1.00  0.00     0.142 C 
HETATM   34  N5  UNL     1     -61.121  29.075  -5.298  1.00  0.00    -0.360 N 
ATOM     35  H5  UNL     1     -61.118  29.151  -6.316  1.00  0.00     0.162 HD
ENDBRANCH  27  29
ENDBRANCH  25  27
ENDBRANCH   4  24
TORSDOF 8
ENDMDL
MODEL 5
REMARK VINA RESULT: -8.617674038      3.875      8.843
REMARK  8 active torsions:
REMARK  status: ('A' for Active; 'I' for Inactive)
REMARK    1  A    between atoms: C2_5  and  O2_6 
REMARK    2  A    between atoms: O2_6  and  C3_7 
REMARK    3  A    between atoms: C3_7  and  C4_8 
REMARK    4  A    between atoms: C4_8  and  O3_9 
REMARK    5  A    between atoms: O3_9  and  C5_10 
REMARK    6  A    between atoms: C8_13  and  C9_14 
REMARK    7  A    between atoms: N2_15  and  N3_17 
REMARK    8  A    between atoms: N3_17  and  C10_19 
ROOT
HETATM    1  C5  UNL     1     -63.314  28.904  -5.977  1.00  0.00     0.068 A 
HETATM    2  C6  UNL     1     -61.998  28.723  -5.547  1.00  0.00     0.037 A 
HETATM    3  C7  UNL     1     -60.965  29.486  -6.061  1.00  0.00     0.015 A 
HETATM    4  C8  UNL     1     -61.191  30.444  -7.009  1.00  0.00    -0.019 A 
HETATM    5  C13 UNL     1     -62.499  30.634  -7.445  1.00  0.00     0.015 A 
HETATM    6  C14 UNL     1     -63.527  29.872  -6.929  1.00  0.00     0.037 A 
ENDROOT
BRANCH   1   7
HETATM    7  O3  UNL     1     -64.327  28.131  -5.447  1.00  0.00    -0.349 OA
BRANCH   7   8
HETATM    8  C4  UNL     1     -65.007  27.089  -6.032  1.00  0.00     0.202 C 
BRANCH   8   9
HETATM    9  C3  UNL     1     -66.466  27.309  -6.255  1.00  0.00     0.205 C 
BRANCH   9  10
HETATM   10  O2  UNL     1     -66.850  28.073  -7.320  1.00  0.00    -0.320 OA
BRANCH  10  11
HETATM   11  C2  UNL     1     -67.240  27.884  -8.574  1.00  0.00     0.230 C 
HETATM   12  N1  UNL     1     -66.799  26.764  -9.222  1.00  0.00    -0.274 N 
HETATM   13  C1  UNL     1     -66.769  26.495 -10.558  1.00  0.00     0.330 C 
ATOM     14  H1  UNL     1     -66.441  26.023  -8.619  1.00  0.00     0.174 HD
HETATM   15  O1  UNL     1     -65.880  25.684 -10.933  1.00  0.00    -0.246 OA
HETATM   16  N7  UNL     1     -67.569  26.992 -11.498  1.00  0.00    -0.271 N 
HETATM   17  C16 UNL     1     -68.215  28.196 -11.488  1.00  0.00     0.317 C 
ATOM     18  H7  UNL     1     -67.718  26.406 -12.321  1.00  0.00     0.174 HD
HETATM   19  C15 UNL     1     -68.249  29.102 -10.449  1.00  0.00     0.316 C 
HETATM   20  O5  UNL     1     -68.837  28.517 -12.512  1.00  0.00    -0.262 OA
HETATM   21  N6  UNL     1     -68.047  28.788  -9.151  1.00  0.00    -0.284 N 
HETATM   22  O4  UNL     1     -68.483  30.300 -10.728  1.00  0.00    -0.262 OA
ATOM     23  H6  UNL     1     -68.605  29.333  -8.495  1.00  0.00     0.172 HD
ENDBRANCH  10  11
ENDBRANCH   9  10
ENDBRANCH   8   9
ENDBRANCH   7   8
ENDBRANCH   1   7
BRANCH   4  24
HETATM   24  C9  UNL     1     -60.094  31.242  -7.561  1.00  0.00     0.118 C 
HETATM   25  N2  UNL     1     -59.983  31.266  -8.856  1.00  0.00    -0.308 N 
ATOM     26  H2  UNL     1     -60.638  30.749  -9.443  1.00  0.00     0.186 HD
BRANCH  25  27
HETATM   27  N3  UNL     1     -58.967  32.003  -9.422  1.00  0.00    -0.272 N 
ATOM     28  H3  UNL     1     -59.128  32.975  -9.681  1.00  0.00     0.190 HD
BRANCH  27  29
HETATM   29  C10 UNL     1     -57.697  31.413  -9.645  1.00  0.00     0.190 C 
HETATM   30  N4  UNL     1     -57.397  30.149  -9.739  1.00  0.00    -0.360 N 
HETATM   31  C11 UNL     1     -55.985  29.958  -9.970  1.00  0.00     0.142 C 
ATOM     32  H4  UNL     1     -58.074  29.390  -9.658  1.00  0.00     0.162 HD
HETATM   33  C12 UNL     1     -55.408  31.290  -9.531  1.00  0.00     0.142 C 
HETATM   34  N5  UNL     1     -56.505  32.197  -9.812  1.00  0.00    -0.360 N 
ATOM     35  H5  UNL     1     -56.443  33.182 -10.073  1.00  0.00     0.162 HD
ENDBRANCH  27  29
ENDBRANCH  25  27
ENDBRANCH   4  24
TORSDOF 8
ENDMDL
