MODEL 1
REMARK VINA RESULT: -6.683912263      0.000      0.000
REMARK  9 active torsions:
REMARK  status: ('A' for Active; 'I' for Inactive)
REMARK    1  A    between atoms: C2_2  and  C5_5 
REMARK    2  A    between atoms: C5_5  and  O1_6 
REMARK    3  A    between atoms: C5_5  and  N1_8 
REMARK    4  A    between atoms: N1_8  and  C6_10 
REMARK    5  A    between atoms: C6_10  and  O2_11 
REMARK    6  A    between atoms: N2_13  and  C7_15 
REMARK    7  A    between atoms: C8_18  and  C9_19 
REMARK    8  A    between atoms: C9_19  and  N4_22 
REMARK       I    between atoms: N4_22  and  C12_24 
REMARK    9  A    between atoms: C12_24  and  C13_26 
ROOT
HETATM    1  C7  UNL     1      37.390  11.683  10.825  1.00  0.00     0.151 A 
HETATM    2  N3  UNL     1      38.520  12.369  10.692  1.00  0.00    -0.337 N 
ATOM      3  H3  UNL     1      39.418  11.886  10.734  1.00  0.00     0.168 HD
HETATM    4  C8  UNL     1      38.482  13.664  10.505  1.00  0.00     0.045 A 
HETATM    5  C15 UNL     1      37.246  14.258  10.458  1.00  0.00     0.081 A 
HETATM    6  S1  UNL     1      36.197  12.953  10.679  1.00  0.00    -0.064 SA
ENDROOT
BRANCH   1   7
HETATM    7  N2  UNL     1      37.124  10.437  10.986  1.00  0.00    -0.302 N 
HETATM    8  C6  UNL     1      37.932   9.385  11.259  1.00  0.00     0.224 C 
ATOM      9  H2  UNL     1      36.137  10.199  10.893  1.00  0.00     0.171 HD
BRANCH   8  10
HETATM   10  N1  UNL     1      37.485   8.110  11.636  1.00  0.00    -0.306 N 
ATOM     11  H1  UNL     1      38.107   7.633  12.289  1.00  0.00     0.171 HD
BRANCH  10  12
HETATM   12  C5  UNL     1      36.378   7.383  11.299  1.00  0.00     0.126 C 
BRANCH  12  13
HETATM   13  C2  UNL     1      35.997   6.010  11.544  1.00  0.00     0.014 C 
HETATM   14  C1  UNL     1      35.733   5.684  13.004  1.00  0.00     0.023 C 
HETATM   15  C3  UNL     1      37.286   5.161  11.196  1.00  0.00     0.023 C 
HETATM   16  C4  UNL     1      34.919   5.428  10.690  1.00  0.00     0.023 C 
ENDBRANCH  12  13
BRANCH  12  17
HETATM   17  O1  UNL     1      35.467   8.069  10.603  1.00  0.00    -0.349 OA
ATOM     18  H1  UNL     1      35.560   9.011  10.687  1.00  0.00     0.219 HD
ENDBRANCH  12  17
ENDBRANCH  10  12
ENDBRANCH   8  10
BRANCH   8  19
HETATM   19  O2  UNL     1      39.226   9.551  11.164  1.00  0.00    -0.332 OA
ATOM     20  H2  UNL     1      39.596   9.530  10.290  1.00  0.00     0.221 HD
ENDBRANCH   8  19
ENDBRANCH   1   7
BRANCH   4  21
HETATM   21  C9  UNL     1      39.737  14.525  10.358  1.00  0.00     0.068 C 
HETATM   22  C10 UNL     1      40.915  13.615  10.148  1.00  0.00     0.045 C 
HETATM   23  C11 UNL     1      39.614  15.431   9.148  1.00  0.00     0.045 C 
BRANCH  21  24
HETATM   24  N4  UNL     1      39.959  15.322  11.543  1.00  0.00    -0.343 N 
HETATM   25  C12 UNL     1      40.130  14.778  12.822  1.00  0.00     0.274 C 
HETATM   26  O3  UNL     1      40.098  13.511  12.957  1.00  0.00    -0.268 OA
ATOM     27  H4  UNL     1      39.993  16.337  11.442  1.00  0.00     0.163 HD
BRANCH  25  28
HETATM   28  C13 UNL     1      40.340  15.626  13.997  1.00  0.00     0.255 C 
HETATM   29  C14 UNL     1      39.866  17.044  13.789  1.00  0.00     0.081 C 
HETATM   30  F1  UNL     1      41.732  15.738  14.184  1.00  0.00    -0.215 F 
HETATM   31 CL1  UNL     1      39.648  14.841  15.404  1.00  0.00    -0.073 Cl
ENDBRANCH  25  28
ENDBRANCH  21  24
ENDBRANCH   4  21
TORSDOF 9
ENDMDL
MODEL 2
REMARK VINA RESULT: -6.531271903      3.106      4.284
REMARK  9 active torsions:
REMARK  status: ('A' for Active; 'I' for Inactive)
REMARK    1  A    between atoms: C2_2  and  C5_5 
REMARK    2  A    between atoms: C5_5  and  O1_6 
REMARK    3  A    between atoms: C5_5  and  N1_8 
REMARK    4  A    between atoms: N1_8  and  C6_10 
REMARK    5  A    between atoms: C6_10  and  O2_11 
REMARK    6  A    between atoms: N2_13  and  C7_15 
REMARK    7  A    between atoms: C8_18  and  C9_19 
REMARK    8  A    between atoms: C9_19  and  N4_22 
REMARK       I    between atoms: N4_22  and  C12_24 
REMARK    9  A    between atoms: C12_24  and  C13_26 
ROOT
HETATM    1  C7  UNL     1      38.234  14.113  10.825  1.00  0.00     0.151 A 
HETATM    2  N3  UNL     1      38.998  14.483  11.847  1.00  0.00    -0.337 N 
ATOM      3  H3  UNL     1      39.220  13.816  12.585  1.00  0.00     0.168 HD
HETATM    4  C8  UNL     1      39.464  15.705  11.907  1.00  0.00     0.045 A 
HETATM    5  C15 UNL     1      39.131  16.559  10.886  1.00  0.00     0.081 A 
HETATM    6  S1  UNL     1      38.172  15.589   9.889  1.00  0.00    -0.064 SA
ENDROOT
BRANCH   1   7
HETATM    7  N2  UNL     1      37.673  13.007  10.493  1.00  0.00    -0.302 N 
HETATM    8  C6  UNL     1      37.643  11.805  11.117  1.00  0.00     0.224 C 
ATOM      9  H2  UNL     1      37.164  13.038   9.610  1.00  0.00     0.171 HD
BRANCH   8  10
HETATM   10  N1  UNL     1      36.803  10.740  10.761  1.00  0.00    -0.306 N 
ATOM     11  H1  UNL     1      37.303   9.880  10.536  1.00  0.00     0.171 HD
BRANCH  10  12
HETATM   12  C5  UNL     1      35.445  10.631  10.658  1.00  0.00     0.126 C 
BRANCH  12  13
HETATM   13  C2  UNL     1      34.396  11.608  10.465  1.00  0.00     0.014 C 
HETATM   14  C1  UNL     1      34.194  12.550  11.640  1.00  0.00     0.023 C 
HETATM   15  C3  UNL     1      33.057  10.765  10.424  1.00  0.00     0.023 C 
HETATM   16  C4  UNL     1      34.396  12.380   9.187  1.00  0.00     0.023 C 
ENDBRANCH  12  13
BRANCH  12  17
HETATM   17  O1  UNL     1      34.989   9.378  10.756  1.00  0.00    -0.349 OA
ATOM     18  H1  UNL     1      34.856   9.096  11.654  1.00  0.00     0.219 HD
ENDBRANCH  12  17
ENDBRANCH  10  12
ENDBRANCH   8  10
BRANCH   8  19
HETATM   19  O2  UNL     1      38.453  11.604  12.124  1.00  0.00    -0.332 OA
ATOM     20  H2  UNL     1      38.432  12.246  12.824  1.00  0.00     0.221 HD
ENDBRANCH   8  19
ENDBRANCH   1   7
BRANCH   4  21
HETATM   21  C9  UNL     1      40.336  16.212  13.056  1.00  0.00     0.068 C 
HETATM   22  C10 UNL     1      39.759  17.508  13.553  1.00  0.00     0.045 C 
HETATM   23  C11 UNL     1      40.328  15.218  14.201  1.00  0.00     0.045 C 
BRANCH  21  24
HETATM   24  N4  UNL     1      41.694  16.435  12.614  1.00  0.00    -0.343 N 
HETATM   25  C12 UNL     1      42.544  15.414  12.173  1.00  0.00     0.274 C 
HETATM   26  O3  UNL     1      42.102  14.219  12.147  1.00  0.00    -0.268 OA
ATOM     27  H4  UNL     1      42.053  17.390  12.625  1.00  0.00     0.163 HD
BRANCH  25  28
HETATM   28  C13 UNL     1      43.919  15.686  11.747  1.00  0.00     0.255 C 
HETATM   29  C14 UNL     1      44.524  14.550  10.959  1.00  0.00     0.081 C 
HETATM   30  F1  UNL     1      44.704  15.772  12.913  1.00  0.00    -0.215 F 
HETATM   31 CL1  UNL     1      43.969  17.233  10.923  1.00  0.00    -0.073 Cl
ENDBRANCH  25  28
ENDBRANCH  21  24
ENDBRANCH   4  21
TORSDOF 9
ENDMDL
MODEL 3
REMARK VINA RESULT: -6.519600689      3.608      4.702
REMARK  9 active torsions:
REMARK  status: ('A' for Active; 'I' for Inactive)
REMARK    1  A    between atoms: C2_2  and  C5_5 
REMARK    2  A    between atoms: C5_5  and  O1_6 
REMARK    3  A    between atoms: C5_5  and  N1_8 
REMARK    4  A    between atoms: N1_8  and  C6_10 
REMARK    5  A    between atoms: C6_10  and  O2_11 
REMARK    6  A    between atoms: N2_13  and  C7_15 
REMARK    7  A    between atoms: C8_18  and  C9_19 
REMARK    8  A    between atoms: C9_19  and  N4_22 
REMARK       I    between atoms: N4_22  and  C12_24 
REMARK    9  A    between atoms: C12_24  and  C13_26 
ROOT
HETATM    1  C7  UNL     1      36.787  15.374  12.004  1.00  0.00     0.151 A 
HETATM    2  N3  UNL     1      37.939  15.504  12.653  1.00  0.00    -0.337 N 
ATOM      3  H3  UNL     1      38.449  14.675  12.957  1.00  0.00     0.168 HD
HETATM    4  C8  UNL     1      38.420  16.696  12.901  1.00  0.00     0.045 A 
HETATM    5  C15 UNL     1      37.691  17.774  12.468  1.00  0.00     0.081 A 
HETATM    6  S1  UNL     1      36.357  17.047  11.729  1.00  0.00    -0.064 SA
ENDROOT
BRANCH   1   7
HETATM    7  N2  UNL     1      36.103  14.363  11.607  1.00  0.00    -0.302 N 
HETATM    8  C6  UNL     1      36.481  13.239  10.953  1.00  0.00     0.224 C 
ATOM      9  H2  UNL     1      35.107  14.415  11.819  1.00  0.00     0.171 HD
BRANCH   8  10
HETATM   10  N1  UNL     1      35.673  12.105  10.778  1.00  0.00    -0.306 N 
ATOM     11  H1  UNL     1      36.074  11.407  10.153  1.00  0.00     0.171 HD
BRANCH  10  12
HETATM   12  C5  UNL     1      34.452  11.756  11.284  1.00  0.00     0.126 C 
BRANCH  12  13
HETATM   13  C2  UNL     1      33.472  10.772  10.883  1.00  0.00     0.014 C 
HETATM   14  C1  UNL     1      34.063   9.448  10.429  1.00  0.00     0.023 C 
HETATM   15  C3  UNL     1      32.817  11.362   9.568  1.00  0.00     0.023 C 
HETATM   16  C4  UNL     1      32.320  10.527  11.802  1.00  0.00     0.023 C 
ENDBRANCH  12  13
BRANCH  12  17
HETATM   17  O1  UNL     1      34.085  12.461  12.358  1.00  0.00    -0.349 OA
ATOM     18  H1  UNL     1      34.635  13.219  12.517  1.00  0.00     0.219 HD
ENDBRANCH  12  17
ENDBRANCH  10  12
ENDBRANCH   8  10
BRANCH   8  19
HETATM   19  O2  UNL     1      37.681  13.191  10.435  1.00  0.00    -0.332 OA
ATOM     20  H2  UNL     1      38.295  13.859  10.717  1.00  0.00     0.221 HD
ENDBRANCH   8  19
ENDBRANCH   1   7
BRANCH   4  21
HETATM   21  C9  UNL     1      39.731  16.929  13.654  1.00  0.00     0.068 C 
HETATM   22  C10 UNL     1      39.500  17.998  14.687  1.00  0.00     0.045 C 
HETATM   23  C11 UNL     1      40.160  15.662  14.368  1.00  0.00     0.045 C 
BRANCH  21  24
HETATM   24  N4  UNL     1      40.776  17.358  12.752  1.00  0.00    -0.343 N 
HETATM   25  C12 UNL     1      41.207  16.607  11.652  1.00  0.00     0.274 C 
HETATM   26  O3  UNL     1      40.648  15.485  11.421  1.00  0.00    -0.268 OA
ATOM     27  H4  UNL     1      41.223  18.259  12.927  1.00  0.00     0.163 HD
BRANCH  25  28
HETATM   28  C13 UNL     1      42.280  17.077  10.773  1.00  0.00     0.255 C 
HETATM   29  C14 UNL     1      43.653  16.684  11.261  1.00  0.00     0.081 C 
HETATM   30  F1  UNL     1      42.271  18.484  10.824  1.00  0.00    -0.215 F 
HETATM   31 CL1  UNL     1      41.936  16.575   9.128  1.00  0.00    -0.073 Cl
ENDBRANCH  25  28
ENDBRANCH  21  24
ENDBRANCH   4  21
TORSDOF 9
ENDMDL
MODEL 4
REMARK VINA RESULT: -6.514741249      3.921      4.963
REMARK  9 active torsions:
REMARK  status: ('A' for Active; 'I' for Inactive)
REMARK    1  A    between atoms: C2_2  and  C5_5 
REMARK    2  A    between atoms: C5_5  and  O1_6 
REMARK    3  A    between atoms: C5_5  and  N1_8 
REMARK    4  A    between atoms: N1_8  and  C6_10 
REMARK    5  A    between atoms: C6_10  and  O2_11 
REMARK    6  A    between atoms: N2_13  and  C7_15 
REMARK    7  A    between atoms: C8_18  and  C9_19 
REMARK    8  A    between atoms: C9_19  and  N4_22 
REMARK       I    between atoms: N4_22  and  C12_24 
REMARK    9  A    between atoms: C12_24  and  C13_26 
ROOT
HETATM    1  C7  UNL     1      36.705  15.666  12.000  1.00  0.00     0.151 A 
HETATM    2  N3  UNL     1      37.781  15.672  12.778  1.00  0.00    -0.337 N 
ATOM      3  H3  UNL     1      38.039  14.834  13.299  1.00  0.00     0.168 HD
HETATM    4  C8  UNL     1      38.512  16.754  12.876  1.00  0.00     0.045 A 
HETATM    5  C15 UNL     1      38.116  17.851  12.153  1.00  0.00     0.081 A 
HETATM    6  S1  UNL     1      36.727  17.296  11.367  1.00  0.00    -0.064 SA
ENDROOT
BRANCH   1   7
HETATM    7  N2  UNL     1      35.838  14.769  11.694  1.00  0.00    -0.302 N 
HETATM    8  C6  UNL     1      34.793  14.270  12.396  1.00  0.00     0.224 C 
ATOM      9  H2  UNL     1      35.956  14.364  10.766  1.00  0.00     0.171 HD
BRANCH   8  10
HETATM   10  N1  UNL     1      33.785  13.455  11.859  1.00  0.00    -0.306 N 
ATOM     11  H1  UNL     1      32.952  13.968  11.570  1.00  0.00     0.171 HD
BRANCH  10  12
HETATM   12  C5  UNL     1      33.703  12.108  11.648  1.00  0.00     0.126 C 
BRANCH  12  13
HETATM   13  C2  UNL     1      34.307  11.232  10.668  1.00  0.00     0.014 C 
HETATM   14  C1  UNL     1      35.824  11.195  10.712  1.00  0.00     0.023 C 
HETATM   15  C3  UNL     1      33.986  11.901   9.271  1.00  0.00     0.023 C 
HETATM   16  C4  UNL     1      33.767   9.844  10.555  1.00  0.00     0.023 C 
ENDBRANCH  12  13
BRANCH  12  17
HETATM   17  O1  UNL     1      32.907  11.468  12.510  1.00  0.00    -0.349 OA
ATOM     18  H1  UNL     1      33.161  10.564  12.657  1.00  0.00     0.219 HD
ENDBRANCH  12  17
ENDBRANCH  10  12
ENDBRANCH   8  10
BRANCH   8  19
HETATM   19  O2  UNL     1      34.704  14.553  13.670  1.00  0.00    -0.332 OA
ATOM     20  H2  UNL     1      34.646  15.473  13.900  1.00  0.00     0.221 HD
ENDBRANCH   8  19
ENDBRANCH   1   7
BRANCH   4  21
HETATM   21  C9  UNL     1      39.756  16.846  13.760  1.00  0.00     0.068 C 
HETATM   22  C10 UNL     1      39.604  18.034  14.670  1.00  0.00     0.045 C 
HETATM   23  C11 UNL     1      39.885  15.603  14.619  1.00  0.00     0.045 C 
BRANCH  21  24
HETATM   24  N4  UNL     1      40.948  17.011  12.960  1.00  0.00    -0.343 N 
HETATM   25  C12 UNL     1      41.343  16.110  11.963  1.00  0.00     0.274 C 
HETATM   26  O3  UNL     1      40.613  15.090  11.737  1.00  0.00    -0.268 OA
ATOM     27  H4  UNL     1      41.534  17.829  13.130  1.00  0.00     0.163 HD
BRANCH  25  28
HETATM   28  C13 UNL     1      42.567  16.311  11.185  1.00  0.00     0.255 C 
HETATM   29  C14 UNL     1      42.693  17.714  10.643  1.00  0.00     0.081 C 
HETATM   30  F1  UNL     1      42.471  15.494  10.042  1.00  0.00    -0.215 F 
HETATM   31 CL1  UNL     1      43.945  15.787  12.134  1.00  0.00    -0.073 Cl
ENDBRANCH  25  28
ENDBRANCH  21  24
ENDBRANCH   4  21
TORSDOF 9
ENDMDL
MODEL 5
REMARK VINA RESULT: -6.508522299      4.089      5.107
REMARK  9 active torsions:
REMARK  status: ('A' for Active; 'I' for Inactive)
REMARK    1  A    between atoms: C2_2  and  C5_5 
REMARK    2  A    between atoms: C5_5  and  O1_6 
REMARK    3  A    between atoms: C5_5  and  N1_8 
REMARK    4  A    between atoms: N1_8  and  C6_10 
REMARK    5  A    between atoms: C6_10  and  O2_11 
REMARK    6  A    between atoms: N2_13  and  C7_15 
REMARK    7  A    between atoms: C8_18  and  C9_19 
REMARK    8  A    between atoms: C9_19  and  N4_22 
REMARK       I    between atoms: N4_22  and  C12_24 
REMARK    9  A    between atoms: C12_24  and  C13_26 
ROOT
HETATM    1  C7  UNL     1      36.537  15.827  11.975  1.00  0.00     0.151 A 
HETATM    2  N3  UNL     1      37.670  15.839  12.668  1.00  0.00    -0.337 N 
ATOM      3  H3  UNL     1      38.014  14.980  13.098  1.00  0.00     0.168 HD
HETATM    4  C8  UNL     1      38.344  16.953  12.801  1.00  0.00     0.045 A 
HETATM    5  C15 UNL     1      37.832  18.076  12.203  1.00  0.00     0.081 A 
HETATM    6  S1  UNL     1      36.418  17.500  11.479  1.00  0.00    -0.064 SA
ENDROOT
BRANCH   1   7
HETATM    7  N2  UNL     1      35.700  14.905  11.661  1.00  0.00    -0.302 N 
HETATM    8  C6  UNL     1      34.738  14.294  12.392  1.00  0.00     0.224 C 
ATOM      9  H2  UNL     1      35.772  14.577  10.698  1.00  0.00     0.171 HD
BRANCH   8  10
HETATM   10  N1  UNL     1      33.739  13.462  11.864  1.00  0.00    -0.306 N 
ATOM     11  H1  UNL     1      32.892  13.960  11.591  1.00  0.00     0.171 HD
BRANCH  10  12
HETATM   12  C5  UNL     1      33.682  12.114  11.646  1.00  0.00     0.126 C 
BRANCH  12  13
HETATM   13  C2  UNL     1      34.308  11.254  10.667  1.00  0.00     0.014 C 
HETATM   14  C1  UNL     1      35.826  11.246  10.720  1.00  0.00     0.023 C 
HETATM   15  C3  UNL     1      33.984  11.923   9.270  1.00  0.00     0.023 C 
HETATM   16  C4  UNL     1      33.796   9.856  10.545  1.00  0.00     0.023 C 
ENDBRANCH  12  13
BRANCH  12  17
HETATM   17  O1  UNL     1      32.890  11.457  12.498  1.00  0.00    -0.349 OA
ATOM     18  H1  UNL     1      32.415  12.030  13.089  1.00  0.00     0.219 HD
ENDBRANCH  12  17
ENDBRANCH  10  12
ENDBRANCH   8  10
BRANCH   8  19
HETATM   19  O2  UNL     1      34.727  14.478  13.687  1.00  0.00    -0.332 OA
ATOM     20  H2  UNL     1      34.555  15.361  13.992  1.00  0.00     0.221 HD
ENDBRANCH   8  19
ENDBRANCH   1   7
BRANCH   4  21
HETATM   21  C9  UNL     1      39.647  17.053  13.595  1.00  0.00     0.068 C 
HETATM   22  C10 UNL     1      39.481  18.114  14.648  1.00  0.00     0.045 C 
HETATM   23  C11 UNL     1      39.943  15.737  14.289  1.00  0.00     0.045 C 
BRANCH  21  24
HETATM   24  N4  UNL     1      40.752  17.408  12.733  1.00  0.00    -0.343 N 
HETATM   25  C12 UNL     1      41.125  16.666  11.606  1.00  0.00     0.274 C 
HETATM   26  O3  UNL     1      40.455  15.624  11.311  1.00  0.00    -0.268 OA
ATOM     27  H4  UNL     1      41.289  18.246  12.959  1.00  0.00     0.163 HD
BRANCH  25  28
HETATM   28  C13 UNL     1      42.261  17.058  10.768  1.00  0.00     0.255 C 
HETATM   29  C14 UNL     1      43.582  16.562  11.303  1.00  0.00     0.081 C 
HETATM   30  F1  UNL     1      42.355  18.462  10.829  1.00  0.00    -0.215 F 
HETATM   31 CL1  UNL     1      41.941  16.589   9.110  1.00  0.00    -0.073 Cl
ENDBRANCH  25  28
ENDBRANCH  21  24
ENDBRANCH   4  21
TORSDOF 9
ENDMDL
