MODEL 1
REMARK VINA RESULT: -7.823571498      0.000      0.000
REMARK  4 active torsions:
REMARK  status: ('A' for Active; 'I' for Inactive)
REMARK    1  A    between atoms: C2_2  and  C3_3 
REMARK    2  A    between atoms: C5_5  and  O1_6 
REMARK    3  A    between atoms: C9_12  and  O2_13 
REMARK    4  A    between atoms: C14_21  and  O4_22 
ROOT
HETATM    1  C3  UNL     1      40.185  16.231  11.338  1.00  0.00     0.007 C 
HETATM    2  C4  UNL     1      41.481  16.476  10.636  1.00  0.00     0.023 C 
HETATM    3  C5  UNL     1      39.479  17.572  11.575  1.00  0.00     0.131 C 
HETATM    4  C6  UNL     1      38.094  17.079  11.955  1.00  0.00     0.041 C 
HETATM    5  C7  UNL     1      37.855  16.042  10.905  1.00  0.00     0.040 C 
HETATM    6  C8  UNL     1      36.833  14.988  11.325  1.00  0.00     0.138 C 
HETATM    7  F1  UNL     1      37.266  14.406  12.507  1.00  0.00    -0.239 F 
HETATM    8  C9  UNL     1      35.523  15.649  11.577  1.00  0.00     0.164 C 
HETATM    9  C10 UNL     1      34.423  14.616  11.649  1.00  0.00     0.109 C 
HETATM   10  C11 UNL     1      34.371  13.938  10.299  1.00  0.00     0.211 C 
HETATM   11  F2  UNL     1      34.375  14.934   9.329  1.00  0.00    -0.211 F 
HETATM   12  O3  UNL     1      33.213  13.223  10.146  1.00  0.00    -0.343 OA
HETATM   13  C12 UNL     1      33.406  11.920   9.746  1.00  0.00     0.150 C 
HETATM   14  C13 UNL     1      32.049  11.237   9.756  1.00  0.00     0.042 C 
HETATM   15  C14 UNL     1      34.252  11.247  10.799  1.00  0.00     0.147 C 
HETATM   16  C15 UNL     1      35.585  11.936  10.998  1.00  0.00     0.045 C 
HETATM   17  C16 UNL     1      35.622  13.138  10.113  1.00  0.00     0.063 C 
HETATM   18  C17 UNL     1      36.844  13.974  10.233  1.00  0.00     0.038 C 
HETATM   19  C18 UNL     1      38.107  13.162  10.432  1.00  0.00     0.009 C 
HETATM   20  C19 UNL     1      39.285  13.973  10.801  1.00  0.00     0.011 C 
HETATM   21  C20 UNL     1      39.183  15.442  10.534  1.00  0.00    -0.024 C 
HETATM   22  C21 UNL     1      39.391  15.654   9.050  1.00  0.00     0.017 C 
ENDROOT
BRANCH   1  23
HETATM   23  C2  UNL     1      40.476  15.649  12.666  1.00  0.00    -0.024 C 
HETATM   24  C1  UNL     1      41.701  15.394  13.101  1.00  0.00     0.008 C 
ENDBRANCH   1  23
BRANCH   3  25
HETATM   25  O1  UNL     1      40.076  18.303  12.572  1.00  0.00    -0.394 OA
ATOM     26  H1  UNL     1      40.247  19.199  12.307  1.00  0.00     0.210 HD
ENDBRANCH   3  25
BRANCH   8  27
HETATM   27  O2  UNL     1      35.236  16.692  10.719  1.00  0.00    -0.392 OA
ATOM     28  H2  UNL     1      35.283  16.465   9.797  1.00  0.00     0.210 HD
ENDBRANCH   8  27
BRANCH  15  29
HETATM   29  O4  UNL     1      33.535  11.304  12.001  1.00  0.00    -0.393 OA
ATOM     30  H4  UNL     1      34.128  11.034  12.693  1.00  0.00     0.210 HD
ENDBRANCH  15  29
TORSDOF 4
ENDMDL
MODEL 2
REMARK VINA RESULT: -7.688101068      2.334      3.781
REMARK  4 active torsions:
REMARK  status: ('A' for Active; 'I' for Inactive)
REMARK    1  A    between atoms: C2_2  and  C3_3 
REMARK    2  A    between atoms: C5_5  and  O1_6 
REMARK    3  A    between atoms: C9_12  and  O2_13 
REMARK    4  A    between atoms: C14_21  and  O4_22 
ROOT
HETATM    1  C3  UNL     1      43.668  16.034   9.794  1.00  0.00     0.007 C 
HETATM    2  C4  UNL     1      44.656  16.240   8.692  1.00  0.00     0.023 C 
HETATM    3  C5  UNL     1      43.702  17.246  10.734  1.00  0.00     0.131 C 
HETATM    4  C6  UNL     1      42.434  16.999  11.531  1.00  0.00     0.041 C 
HETATM    5  C7  UNL     1      41.467  16.656  10.443  1.00  0.00     0.040 C 
HETATM    6  C8  UNL     1      40.286  15.821  10.932  1.00  0.00     0.138 C 
HETATM    7  F1  UNL     1      40.781  14.674  11.535  1.00  0.00    -0.239 F 
HETATM    8  C9  UNL     1      39.525  16.597  11.949  1.00  0.00     0.164 C 
HETATM    9  C10 UNL     1      38.177  15.959  12.190  1.00  0.00     0.109 C 
HETATM   10  C11 UNL     1      37.426  16.014  10.879  1.00  0.00     0.211 C 
HETATM   11  F2  UNL     1      37.544  17.307  10.382  1.00  0.00    -0.211 F 
HETATM   12  O3  UNL     1      36.092  15.765  11.059  1.00  0.00    -0.343 OA
HETATM   13  C12 UNL     1      35.585  14.788  10.231  1.00  0.00     0.150 C 
HETATM   14  C13 UNL     1      34.146  14.542  10.648  1.00  0.00     0.042 C 
HETATM   15  C14 UNL     1      36.354  13.519  10.509  1.00  0.00     0.147 C 
HETATM   16  C15 UNL     1      37.842  13.682  10.278  1.00  0.00     0.045 C 
HETATM   17  C16 UNL     1      38.099  15.103   9.901  1.00  0.00     0.063 C 
HETATM   18  C17 UNL     1      39.530  15.455   9.701  1.00  0.00     0.038 C 
HETATM   19  C18 UNL     1      40.328  14.354   9.034  1.00  0.00     0.009 C 
HETATM   20  C19 UNL     1      41.788  14.581   9.055  1.00  0.00     0.011 C 
HETATM   21  C20 UNL     1      42.232  15.981   9.338  1.00  0.00    -0.024 C 
HETATM   22  C21 UNL     1      42.035  16.791   8.075  1.00  0.00     0.017 C 
ENDROOT
BRANCH   1  23
HETATM   23  C2  UNL     1      44.089  14.856  10.584  1.00  0.00    -0.024 C 
HETATM   24  C1  UNL     1      45.153  14.123  10.295  1.00  0.00     0.008 C 
ENDBRANCH   1  23
BRANCH   3  25
HETATM   25  O1  UNL     1      44.829  17.262  11.519  1.00  0.00    -0.394 OA
ATOM     26  H1  UNL     1      44.635  17.063  12.427  1.00  0.00     0.210 HD
ENDBRANCH   3  25
BRANCH   8  27
HETATM   27  O2  UNL     1      39.449  17.952  11.692  1.00  0.00    -0.392 OA
ATOM     28  H2  UNL     1      38.734  18.202  11.118  1.00  0.00     0.210 HD
ENDBRANCH   8  27
BRANCH  15  29
HETATM   29  O4  UNL     1      36.143  13.197  11.855  1.00  0.00    -0.393 OA
ATOM     30  H4  UNL     1      36.405  12.291  11.970  1.00  0.00     0.210 HD
ENDBRANCH  15  29
TORSDOF 4
ENDMDL
MODEL 3
REMARK VINA RESULT: -7.631265089      3.634      7.951
REMARK  4 active torsions:
REMARK  status: ('A' for Active; 'I' for Inactive)
REMARK    1  A    between atoms: C2_2  and  C3_3 
REMARK    2  A    between atoms: C5_5  and  O1_6 
REMARK    3  A    between atoms: C9_12  and  O2_13 
REMARK    4  A    between atoms: C14_21  and  O4_22 
ROOT
HETATM    1  C3  UNL     1      28.780  14.606   9.536  1.00  0.00     0.007 C 
HETATM    2  C4  UNL     1      27.867  14.829   8.374  1.00  0.00     0.023 C 
HETATM    3  C5  UNL     1      28.102  13.658  10.534  1.00  0.00     0.131 C 
HETATM    4  C6  UNL     1      29.289  13.304  11.412  1.00  0.00     0.041 C 
HETATM    5  C7  UNL     1      30.340  13.026  10.384  1.00  0.00     0.040 C 
HETATM    6  C8  UNL     1      31.760  13.196  10.917  1.00  0.00     0.138 C 
HETATM    7  F1  UNL     1      31.888  14.482  11.418  1.00  0.00    -0.239 F 
HETATM    8  C9  UNL     1      31.985  12.232  12.030  1.00  0.00     0.164 C 
HETATM    9  C10 UNL     1      33.460  12.129  12.339  1.00  0.00     0.109 C 
HETATM   10  C11 UNL     1      34.133  11.596  11.094  1.00  0.00     0.211 C 
HETATM   11  F2  UNL     1      33.399  10.498  10.659  1.00  0.00    -0.211 F 
HETATM   12  O3  UNL     1      35.402  11.160  11.363  1.00  0.00    -0.343 OA
HETATM   13  C12 UNL     1      36.364  11.678  10.525  1.00  0.00     0.150 C 
HETATM   14  C13 UNL     1      37.714  11.207  11.038  1.00  0.00     0.042 C 
HETATM   15  C14 UNL     1      36.330  13.179  10.676  1.00  0.00     0.147 C 
HETATM   16  C15 UNL     1      34.973  13.763  10.340  1.00  0.00     0.045 C 
HETATM   17  C16 UNL     1      34.050  12.635  10.020  1.00  0.00     0.063 C 
HETATM   18  C17 UNL     1      32.646  13.030   9.731  1.00  0.00     0.038 C 
HETATM   19  C18 UNL     1      32.538  14.321   8.947  1.00  0.00     0.009 C 
HETATM   20  C19 UNL     1      31.164  14.856   8.867  1.00  0.00     0.011 C 
HETATM   21  C20 UNL     1      30.064  13.896   9.190  1.00  0.00    -0.024 C 
HETATM   22  C21 UNL     1      29.876  12.992   7.990  1.00  0.00     0.017 C 
ENDROOT
BRANCH   1  23
HETATM   23  C2  UNL     1      28.980  15.898  10.227  1.00  0.00    -0.024 C 
HETATM   24  C1  UNL     1      28.487  17.047   9.790  1.00  0.00     0.008 C 
ENDBRANCH   1  23
BRANCH   3  25
HETATM   25  O1  UNL     1      27.091  14.274  11.229  1.00  0.00    -0.394 OA
ATOM     26  H1  UNL     1      27.404  15.015  11.735  1.00  0.00     0.210 HD
ENDBRANCH   3  25
BRANCH   8  27
HETATM   27  O2  UNL     1      31.378  11.005  11.852  1.00  0.00    -0.392 OA
ATOM     28  H2  UNL     1      31.006  10.633  12.643  1.00  0.00     0.210 HD
ENDBRANCH   8  27
BRANCH  15  29
HETATM   29  O4  UNL     1      36.621  13.465  12.015  1.00  0.00    -0.393 OA
ATOM     30  H4  UNL     1      37.567  13.478  12.099  1.00  0.00     0.210 HD
ENDBRANCH  15  29
TORSDOF 4
ENDMDL
MODEL 4
REMARK VINA RESULT: -7.438829140      0.940      1.055
REMARK  4 active torsions:
REMARK  status: ('A' for Active; 'I' for Inactive)
REMARK    1  A    between atoms: C2_2  and  C3_3 
REMARK    2  A    between atoms: C5_5  and  O1_6 
REMARK    3  A    between atoms: C9_12  and  O2_13 
REMARK    4  A    between atoms: C14_21  and  O4_22 
ROOT
HETATM    1  C3  UNL     1      41.267  15.639  10.947  1.00  0.00     0.007 C 
HETATM    2  C4  UNL     1      42.541  15.602  10.168  1.00  0.00     0.023 C 
HETATM    3  C5  UNL     1      40.821  17.098  11.115  1.00  0.00     0.131 C 
HETATM    4  C6  UNL     1      39.397  16.886  11.596  1.00  0.00     0.041 C 
HETATM    5  C7  UNL     1      38.918  15.841  10.639  1.00  0.00     0.040 C 
HETATM    6  C8  UNL     1      37.755  15.016  11.185  1.00  0.00     0.138 C 
HETATM    7  F1  UNL     1      38.149  14.445  12.386  1.00  0.00    -0.239 F 
HETATM    8  C9  UNL     1      36.598  15.915  11.448  1.00  0.00     0.164 C 
HETATM    9  C10 UNL     1      35.340  15.102  11.649  1.00  0.00     0.109 C 
HETATM   10  C11 UNL     1      35.090  14.357  10.357  1.00  0.00     0.211 C 
HETATM   11  F2  UNL     1      35.211  15.270   9.316  1.00  0.00    -0.211 F 
HETATM   12  O3  UNL     1      33.819  13.851  10.313  1.00  0.00    -0.343 OA
HETATM   13  C12 UNL     1      33.757  12.511  10.004  1.00  0.00     0.150 C 
HETATM   14  C13 UNL     1      32.305  12.083  10.129  1.00  0.00     0.042 C 
HETATM   15  C14 UNL     1      34.533  11.769  11.064  1.00  0.00     0.147 C 
HETATM   16  C15 UNL     1      35.976  12.221  11.148  1.00  0.00     0.045 C 
HETATM   17  C16 UNL     1      36.169  13.336  10.174  1.00  0.00     0.063 C 
HETATM   18  C17 UNL     1      37.524  13.947  10.173  1.00  0.00     0.038 C 
HETATM   19  C18 UNL     1      38.635  12.938  10.374  1.00  0.00     0.009 C 
HETATM   20  C19 UNL     1      39.957  13.548  10.625  1.00  0.00     0.011 C 
HETATM   21  C20 UNL     1      40.096  14.990  10.253  1.00  0.00    -0.024 C 
HETATM   22  C21 UNL     1      40.250  15.064   8.749  1.00  0.00     0.017 C 
ENDROOT
BRANCH   1  23
HETATM   23  C2  UNL     1      41.531  15.104  12.300  1.00  0.00    -0.024 C 
HETATM   24  C1  UNL     1      42.722  14.692  12.706  1.00  0.00     0.008 C 
ENDBRANCH   1  23
BRANCH   3  25
HETATM   25  O1  UNL     1      41.595  17.774  12.026  1.00  0.00    -0.394 OA
ATOM     26  H1  UNL     1      41.159  17.869  12.865  1.00  0.00     0.210 HD
ENDBRANCH   3  25
BRANCH   8  27
HETATM   27  O2  UNL     1      36.447  16.933  10.528  1.00  0.00    -0.392 OA
ATOM     28  H2  UNL     1      35.723  16.813   9.925  1.00  0.00     0.210 HD
ENDBRANCH   8  27
BRANCH  15  29
HETATM   29  O4  UNL     1      33.911  12.032  12.291  1.00  0.00    -0.393 OA
ATOM     30  H4  UNL     1      33.655  11.195  12.660  1.00  0.00     0.210 HD
ENDBRANCH  15  29
TORSDOF 4
ENDMDL
MODEL 5
REMARK VINA RESULT: -7.353796820      1.809      6.832
REMARK  4 active torsions:
REMARK  status: ('A' for Active; 'I' for Inactive)
REMARK    1  A    between atoms: C2_2  and  C3_3 
REMARK    2  A    between atoms: C5_5  and  O1_6 
REMARK    3  A    between atoms: C9_12  and  O2_13 
REMARK    4  A    between atoms: C14_21  and  O4_22 
ROOT
HETATM    1  C3  UNL     1      33.005  12.315   9.896  1.00  0.00     0.007 C 
HETATM    2  C4  UNL     1      31.953  12.211   8.841  1.00  0.00     0.023 C 
HETATM    3  C5  UNL     1      33.653  10.938  10.099  1.00  0.00     0.131 C 
HETATM    4  C6  UNL     1      34.872  11.336  10.911  1.00  0.00     0.041 C 
HETATM    5  C7  UNL     1      35.361  12.522  10.142  1.00  0.00     0.040 C 
HETATM    6  C8  UNL     1      36.207  13.474  10.983  1.00  0.00     0.138 C 
HETATM    7  F1  UNL     1      35.459  13.870  12.082  1.00  0.00    -0.239 F 
HETATM    8  C9  UNL     1      37.416  12.754  11.472  1.00  0.00     0.164 C 
HETATM    9  C10 UNL     1      38.432  13.740  11.999  1.00  0.00     0.109 C 
HETATM   10  C11 UNL     1      38.830  14.622  10.838  1.00  0.00     0.211 C 
HETATM   11  F2  UNL     1      39.110  13.792   9.759  1.00  0.00    -0.211 F 
HETATM   12  O3  UNL     1      39.969  15.328  11.118  1.00  0.00    -0.343 OA
HETATM   13  C12 UNL     1      39.861  16.682  10.892  1.00  0.00     0.150 C 
HETATM   14  C13 UNL     1      41.149  17.327  11.376  1.00  0.00     0.042 C 
HETATM   15  C14 UNL     1      38.748  17.197  11.772  1.00  0.00     0.147 C 
HETATM   16  C15 UNL     1      37.426  16.513  11.492  1.00  0.00     0.045 C 
HETATM   17  C16 UNL     1      37.657  15.467  10.451  1.00  0.00     0.063 C 
HETATM   18  C17 UNL     1      36.467  14.648  10.104  1.00  0.00     0.038 C 
HETATM   19  C18 UNL     1      35.179  15.444  10.081  1.00  0.00     0.009 C 
HETATM   20  C19 UNL     1      33.964  14.609   9.986  1.00  0.00     0.011 C 
HETATM   21  C20 UNL     1      34.168  13.200   9.527  1.00  0.00    -0.024 C 
HETATM   22  C21 UNL     1      34.373  13.229   8.028  1.00  0.00     0.017 C 
ENDROOT
BRANCH   1  23
HETATM   23  C2  UNL     1      32.354  12.684  11.171  1.00  0.00    -0.024 C 
HETATM   24  C1  UNL     1      31.059  12.940  11.285  1.00  0.00     0.008 C 
ENDBRANCH   1  23
BRANCH   3  25
HETATM   25  O1  UNL     1      32.826  10.071  10.770  1.00  0.00    -0.394 OA
ATOM     26  H1  UNL     1      33.071   9.164  10.632  1.00  0.00     0.210 HD
ENDBRANCH   3  25
BRANCH   8  27
HETATM   27  O2  UNL     1      37.947  11.855  10.568  1.00  0.00    -0.392 OA
ATOM     28  H2  UNL     1      38.771  12.129  10.181  1.00  0.00     0.210 HD
ENDBRANCH   8  27
BRANCH  15  29
HETATM   29  O4  UNL     1      39.115  16.935  13.097  1.00  0.00    -0.393 OA
ATOM     30  H4  UNL     1      39.356  17.766  13.490  1.00  0.00     0.210 HD
ENDBRANCH  15  29
TORSDOF 4
ENDMDL
