MODEL 1
REMARK VINA RESULT: -7.434879913      0.000      0.000
REMARK  10 active torsions:
REMARK  status: ('A' for Active; 'I' for Inactive)
REMARK    1  A    between atoms: C2_2  and  C3_3 
REMARK    2  A    between atoms: C3_3  and  C4_4 
REMARK    3  A    between atoms: C4_4  and  C5_5 
REMARK    4  A    between atoms: C5_5  and  C6_6 
REMARK    5  A    between atoms: C6_6  and  C7_7 
REMARK    6  A    between atoms: C7_7  and  N1_9 
REMARK    7  A    between atoms: N1_9  and  C9_11 
REMARK    8  A    between atoms: C11_15  and  C12_16 
REMARK    9  A    between atoms: C12_16  and  C13_17 
REMARK   10  A    between atoms: C17_23  and  C18_24 
ROOT
HETATM    1  C9  UNL     1      14.907  78.498 110.453  1.00  0.00     0.681 A 
HETATM    2  N2  UNL     1      13.690  79.033 110.643  1.00  0.00    -0.201 N 
ATOM      3  H2  UNL     1      13.017  78.529 111.221  1.00  0.00     0.183 HD
HETATM    4  C10 UNL     1      13.324  80.207 110.102  1.00  0.00     0.119 A 
HETATM    5  C11 UNL     1      14.227  80.932 109.301  1.00  0.00     0.031 A 
HETATM    6  C22 UNL     1      15.443  80.346 109.142  1.00  0.00     0.267 A 
HETATM    7  O1  UNL     1      16.364  80.881 108.446  1.00  0.00    -0.267 OA
HETATM    8  N3  UNL     1      15.784  79.164 109.697  1.00  0.00    -0.156 N 
ATOM      9  H3  UNL     1      16.715  78.778 109.538  1.00  0.00     0.187 HD
ENDROOT
BRANCH   5  10
HETATM   10  C12 UNL     1      13.837  82.175 108.656  1.00  0.00     0.086 C 
BRANCH  10  11
HETATM   11  C13 UNL     1      12.505  82.237 108.023  1.00  0.00    -0.025 A 
HETATM   12  C14 UNL     1      12.206  81.506 106.893  1.00  0.00     0.044 A 
HETATM   13 CL1  UNL     1      13.369  80.440 106.145  1.00  0.00    -0.084 Cl
HETATM   14  C15 UNL     1      10.956  81.589 106.290  1.00  0.00     0.067 A 
HETATM   15  C16 UNL     1       9.995  82.411 106.817  1.00  0.00     0.124 A 
HETATM   16  F1  UNL     1       8.783  82.517 106.266  1.00  0.00    -0.205 F 
HETATM   17  C17 UNL     1      10.245  83.175 107.958  1.00  0.00    -0.013 A 
HETATM   18  C20 UNL     1      11.491  83.072 108.529  1.00  0.00    -0.044 A 
HETATM   19  C21 UNL     1      11.803  83.968 109.662  1.00  0.00     0.049 C 
BRANCH  17  20
HETATM   20  C18 UNL     1       9.211  84.037 108.520  1.00  0.00     0.038 C 
HETATM   21  C19 UNL     1       8.915  85.277 107.739  1.00  0.00     0.010 C 
ENDBRANCH  17  20
ENDBRANCH  10  11
ENDBRANCH   5  10
BRANCH   1  22
HETATM   22  N1  UNL     1      15.278  77.394 110.951  1.00  0.00    -0.222 N 
ATOM     23  H1  UNL     1      15.672  77.458 111.890  1.00  0.00     0.178 HD
BRANCH  22  24
HETATM   24  C7  UNL     1      15.233  76.085 110.410  1.00  0.00     0.095 C 
HETATM   25  C8  UNL     1      14.607  76.080 109.012  1.00  0.00     0.032 C 
BRANCH  24  26
HETATM   26  C6  UNL     1      16.684  75.624 110.220  1.00  0.00     0.025 C 
BRANCH  26  27
HETATM   27  C5  UNL     1      17.099  76.002 108.817  1.00  0.00     0.002 C 
BRANCH  27  28
HETATM   28  C4  UNL     1      18.368  76.798 108.779  1.00  0.00     0.000 C 
BRANCH  28  29
HETATM   29  C3  UNL     1      18.355  77.750 107.616  1.00  0.00    -0.000 C 
BRANCH  29  30
HETATM   30  C2  UNL     1      17.075  77.520 106.823  1.00  0.00    -0.005 C 
HETATM   31  C1  UNL     1      17.003  78.580 105.767  1.00  0.00     0.005 C 
ENDBRANCH  29  30
ENDBRANCH  28  29
ENDBRANCH  27  28
ENDBRANCH  26  27
ENDBRANCH  24  26
ENDBRANCH  22  24
ENDBRANCH   1  22
TORSDOF 10
ENDMDL
MODEL 2
REMARK VINA RESULT: -7.384385300      7.426     10.470
REMARK  10 active torsions:
REMARK  status: ('A' for Active; 'I' for Inactive)
REMARK    1  A    between atoms: C2_2  and  C3_3 
REMARK    2  A    between atoms: C3_3  and  C4_4 
REMARK    3  A    between atoms: C4_4  and  C5_5 
REMARK    4  A    between atoms: C5_5  and  C6_6 
REMARK    5  A    between atoms: C6_6  and  C7_7 
REMARK    6  A    between atoms: C7_7  and  N1_9 
REMARK    7  A    between atoms: N1_9  and  C9_11 
REMARK    8  A    between atoms: C11_15  and  C12_16 
REMARK    9  A    between atoms: C12_16  and  C13_17 
REMARK   10  A    between atoms: C17_23  and  C18_24 
ROOT
HETATM    1  C9  UNL     1       8.632  85.730 105.289  1.00  0.00     0.681 A 
HETATM    2  N2  UNL     1       8.337  85.842 103.984  1.00  0.00    -0.201 N 
ATOM      3  H2  UNL     1       8.843  85.259 103.315  1.00  0.00     0.183 HD
HETATM    4  C10 UNL     1       7.402  86.689 103.523  1.00  0.00     0.119 A 
HETATM    5  C11 UNL     1       6.684  87.507 104.417  1.00  0.00     0.031 A 
HETATM    6  C22 UNL     1       7.021  87.354 105.724  1.00  0.00     0.267 A 
HETATM    7  O1  UNL     1       6.459  88.023 106.649  1.00  0.00    -0.267 OA
HETATM    8  N3  UNL     1       7.966  86.494 106.159  1.00  0.00    -0.156 N 
ATOM      9  H3  UNL     1       8.172  86.427 107.156  1.00  0.00     0.187 HD
ENDROOT
BRANCH   5  10
HETATM   10  C12 UNL     1       5.710  88.474 103.939  1.00  0.00     0.086 C 
BRANCH  10  11
HETATM   11  C13 UNL     1       5.673  88.763 102.492  1.00  0.00    -0.025 A 
HETATM   12  C14 UNL     1       6.746  89.334 101.841  1.00  0.00     0.044 A 
HETATM   13 CL1  UNL     1       8.228  89.737 102.673  1.00  0.00    -0.084 Cl
HETATM   14  C15 UNL     1       6.694  89.625 100.483  1.00  0.00     0.067 A 
HETATM   15  C16 UNL     1       5.561  89.344  99.766  1.00  0.00     0.124 A 
HETATM   16  F1  UNL     1       5.473  89.608  98.459  1.00  0.00    -0.205 F 
HETATM   17  C17 UNL     1       4.445  88.767 100.375  1.00  0.00    -0.013 A 
HETATM   18  C20 UNL     1       4.527  88.495 101.719  1.00  0.00    -0.044 A 
HETATM   19  C21 UNL     1       3.311  88.000 102.396  1.00  0.00     0.049 C 
BRANCH  17  20
HETATM   20  C18 UNL     1       3.248  88.459  99.600  1.00  0.00     0.038 C 
HETATM   21  C19 UNL     1       2.347  89.620  99.324  1.00  0.00     0.010 C 
ENDBRANCH  17  20
ENDBRANCH  10  11
ENDBRANCH   5  10
BRANCH   1  22
HETATM   22  N1  UNL     1       9.507  84.940 105.750  1.00  0.00    -0.222 N 
ATOM     23  H1  UNL     1      10.356  84.864 105.188  1.00  0.00     0.178 HD
BRANCH  22  24
HETATM   24  C7  UNL     1       9.496  84.143 106.922  1.00  0.00     0.095 C 
HETATM   25  C8  UNL     1       9.470  82.650 106.582  1.00  0.00     0.032 C 
BRANCH  24  26
HETATM   26  C6  UNL     1      10.826  84.385 107.646  1.00  0.00     0.025 C 
BRANCH  26  27
HETATM   27  C5  UNL     1      11.164  83.124 108.407  1.00  0.00     0.002 C 
BRANCH  27  28
HETATM   28  C4  UNL     1      12.636  82.959 108.638  1.00  0.00     0.000 C 
BRANCH  28  29
HETATM   29  C3  UNL     1      13.063  81.555 108.312  1.00  0.00    -0.000 C 
BRANCH  29  30
HETATM   30  C2  UNL     1      13.086  81.401 106.797  1.00  0.00    -0.005 C 
HETATM   31  C1  UNL     1      12.417  80.102 106.467  1.00  0.00     0.005 C 
ENDBRANCH  29  30
ENDBRANCH  28  29
ENDBRANCH  27  28
ENDBRANCH  26  27
ENDBRANCH  24  26
ENDBRANCH  22  24
ENDBRANCH   1  22
TORSDOF 10
ENDMDL
MODEL 3
REMARK VINA RESULT: -7.352401943      5.837     11.250
REMARK  10 active torsions:
REMARK  status: ('A' for Active; 'I' for Inactive)
REMARK    1  A    between atoms: C2_2  and  C3_3 
REMARK    2  A    between atoms: C3_3  and  C4_4 
REMARK    3  A    between atoms: C4_4  and  C5_5 
REMARK    4  A    between atoms: C5_5  and  C6_6 
REMARK    5  A    between atoms: C6_6  and  C7_7 
REMARK    6  A    between atoms: C7_7  and  N1_9 
REMARK    7  A    between atoms: N1_9  and  C9_11 
REMARK    8  A    between atoms: C11_15  and  C12_16 
REMARK    9  A    between atoms: C12_16  and  C13_17 
REMARK   10  A    between atoms: C17_23  and  C18_24 
ROOT
HETATM    1  C9  UNL     1       8.487  86.292 105.294  1.00  0.00     0.681 A 
HETATM    2  N2  UNL     1       9.550  85.531 104.985  1.00  0.00    -0.201 N 
ATOM      3  H2  UNL     1       9.924  85.574 104.037  1.00  0.00     0.183 HD
HETATM    4  C10 UNL     1      10.140  84.716 105.875  1.00  0.00     0.119 A 
HETATM    5  C11 UNL     1       9.652  84.633 107.194  1.00  0.00     0.031 A 
HETATM    6  C22 UNL     1       8.577  85.423 107.453  1.00  0.00     0.267 A 
HETATM    7  O1  UNL     1       8.025  85.458 108.599  1.00  0.00    -0.267 OA
HETATM    8  N3  UNL     1       8.003  86.232 106.538  1.00  0.00    -0.156 N 
ATOM      9  H3  UNL     1       7.197  86.801 106.797  1.00  0.00     0.187 HD
ENDROOT
BRANCH   5  10
HETATM   10  C12 UNL     1      10.235  83.717 108.159  1.00  0.00     0.086 C 
BRANCH  10  11
HETATM   11  C13 UNL     1      11.179  82.697 107.662  1.00  0.00    -0.025 A 
HETATM   12  C14 UNL     1      10.790  81.731 106.758  1.00  0.00     0.044 A 
HETATM   13 CL1  UNL     1       9.165  81.657 106.122  1.00  0.00    -0.084 Cl
HETATM   14  C15 UNL     1      11.679  80.759 106.313  1.00  0.00     0.067 A 
HETATM   15  C16 UNL     1      12.969  80.750 106.776  1.00  0.00     0.124 A 
HETATM   16  F1  UNL     1      13.853  79.833 106.371  1.00  0.00    -0.205 F 
HETATM   17  C17 UNL     1      13.416  81.702 107.693  1.00  0.00    -0.013 A 
HETATM   18  C20 UNL     1      12.511  82.647 108.115  1.00  0.00    -0.044 A 
HETATM   19  C21 UNL     1      12.939  83.582 109.176  1.00  0.00     0.049 C 
BRANCH  17  20
HETATM   20  C18 UNL     1      14.794  81.692 108.168  1.00  0.00     0.038 C 
HETATM   21  C19 UNL     1      15.144  80.572 109.096  1.00  0.00     0.010 C 
ENDBRANCH  17  20
ENDBRANCH  10  11
ENDBRANCH   5  10
BRANCH   1  22
HETATM   22  N1  UNL     1       7.912  87.068 104.476  1.00  0.00    -0.222 N 
ATOM     23  H1  UNL     1       7.909  86.744 103.508  1.00  0.00     0.178 HD
BRANCH  22  24
HETATM   24  C7  UNL     1       7.273  88.315 104.690  1.00  0.00     0.095 C 
HETATM   25  C8  UNL     1       7.761  89.370 103.693  1.00  0.00     0.032 C 
BRANCH  24  26
HETATM   26  C6  UNL     1       5.782  88.115 104.392  1.00  0.00     0.025 C 
BRANCH  26  27
HETATM   27  C5  UNL     1       5.400  89.098 103.310  1.00  0.00     0.002 C 
BRANCH  27  28
HETATM   28  C4  UNL     1       4.334  88.574 102.396  1.00  0.00     0.000 C 
BRANCH  28  29
HETATM   29  C3  UNL     1       4.251  89.413 101.152  1.00  0.00    -0.000 C 
BRANCH  29  30
HETATM   30  C2  UNL     1       5.060  90.684 101.377  1.00  0.00    -0.005 C 
HETATM   31  C1  UNL     1       5.726  91.029 100.080  1.00  0.00     0.005 C 
ENDBRANCH  29  30
ENDBRANCH  28  29
ENDBRANCH  27  28
ENDBRANCH  26  27
ENDBRANCH  24  26
ENDBRANCH  22  24
ENDBRANCH   1  22
TORSDOF 10
ENDMDL
MODEL 4
REMARK VINA RESULT: -7.338749009      9.343     12.938
REMARK  10 active torsions:
REMARK  status: ('A' for Active; 'I' for Inactive)
REMARK    1  A    between atoms: C2_2  and  C3_3 
REMARK    2  A    between atoms: C3_3  and  C4_4 
REMARK    3  A    between atoms: C4_4  and  C5_5 
REMARK    4  A    between atoms: C5_5  and  C6_6 
REMARK    5  A    between atoms: C6_6  and  C7_7 
REMARK    6  A    between atoms: C7_7  and  N1_9 
REMARK    7  A    between atoms: N1_9  and  C9_11 
REMARK    8  A    between atoms: C11_15  and  C12_16 
REMARK    9  A    between atoms: C12_16  and  C13_17 
REMARK   10  A    between atoms: C17_23  and  C18_24 
ROOT
HETATM    1  C9  UNL     1       6.841  88.218 104.765  1.00  0.00     0.681 A 
HETATM    2  N2  UNL     1       7.459  89.323 104.317  1.00  0.00    -0.201 N 
ATOM      3  H2  UNL     1       8.363  89.575 104.717  1.00  0.00     0.183 HD
HETATM    4  C10 UNL     1       6.934  90.110 103.363  1.00  0.00     0.119 A 
HETATM    5  C11 UNL     1       5.688  89.792 102.788  1.00  0.00     0.031 A 
HETATM    6  C22 UNL     1       5.107  88.665 103.276  1.00  0.00     0.267 A 
HETATM    7  O1  UNL     1       3.981  88.249 102.855  1.00  0.00    -0.267 OA
HETATM    8  N3  UNL     1       5.658  87.893 104.237  1.00  0.00    -0.156 N 
ATOM      9  H3  UNL     1       5.169  87.058 104.560  1.00  0.00     0.187 HD
ENDROOT
BRANCH   5  10
HETATM   10  C12 UNL     1       5.071  90.657 101.797  1.00  0.00     0.086 C 
BRANCH  10  11
HETATM   11  C13 UNL     1       4.657  90.056 100.514  1.00  0.00    -0.025 A 
HETATM   12  C14 UNL     1       3.330  89.968 100.151  1.00  0.00     0.044 A 
HETATM   13 CL1  UNL     1       2.049  90.579 101.169  1.00  0.00    -0.084 Cl
HETATM   14  C15 UNL     1       2.947  89.378  98.952  1.00  0.00     0.067 A 
HETATM   15  C16 UNL     1       3.898  88.869  98.107  1.00  0.00     0.124 A 
HETATM   16  F1  UNL     1       3.570  88.295  96.945  1.00  0.00    -0.205 F 
HETATM   17  C17 UNL     1       5.255  88.929  98.425  1.00  0.00    -0.013 A 
HETATM   18  C20 UNL     1       5.600  89.516  99.619  1.00  0.00    -0.044 A 
HETATM   19  C21 UNL     1       7.022  89.474 100.020  1.00  0.00     0.049 C 
BRANCH  17  20
HETATM   20  C18 UNL     1       6.260  88.397  97.512  1.00  0.00     0.038 C 
HETATM   21  C19 UNL     1       6.662  89.310  96.397  1.00  0.00     0.010 C 
ENDBRANCH  17  20
ENDBRANCH  10  11
ENDBRANCH   5  10
BRANCH   1  22
HETATM   22  N1  UNL     1       7.313  87.459 105.662  1.00  0.00    -0.222 N 
ATOM     23  H1  UNL     1       7.308  87.853 106.603  1.00  0.00     0.178 HD
BRANCH  22  24
HETATM   24  C7  UNL     1       7.848  86.150 105.566  1.00  0.00     0.095 C 
HETATM   25  C8  UNL     1       8.984  86.086 104.540  1.00  0.00     0.032 C 
BRANCH  24  26
HETATM   26  C6  UNL     1       8.489  85.823 106.921  1.00  0.00     0.025 C 
BRANCH  26  27
HETATM   27  C5  UNL     1       9.576  84.802 106.673  1.00  0.00     0.002 C 
BRANCH  27  28
HETATM   28  C4  UNL     1       9.329  83.504 107.381  1.00  0.00     0.000 C 
BRANCH  28  29
HETATM   29  C3  UNL     1       9.695  83.622 108.834  1.00  0.00    -0.000 C 
BRANCH  29  30
HETATM   30  C2  UNL     1      11.158  84.037 108.926  1.00  0.00    -0.005 C 
HETATM   31  C1  UNL     1      11.988  82.806 108.726  1.00  0.00     0.005 C 
ENDBRANCH  29  30
ENDBRANCH  28  29
ENDBRANCH  27  28
ENDBRANCH  26  27
ENDBRANCH  24  26
ENDBRANCH  22  24
ENDBRANCH   1  22
TORSDOF 10
ENDMDL
MODEL 5
REMARK VINA RESULT: -7.280118541      5.897     11.327
REMARK  10 active torsions:
REMARK  status: ('A' for Active; 'I' for Inactive)
REMARK    1  A    between atoms: C2_2  and  C3_3 
REMARK    2  A    between atoms: C3_3  and  C4_4 
REMARK    3  A    between atoms: C4_4  and  C5_5 
REMARK    4  A    between atoms: C5_5  and  C6_6 
REMARK    5  A    between atoms: C6_6  and  C7_7 
REMARK    6  A    between atoms: C7_7  and  N1_9 
REMARK    7  A    between atoms: N1_9  and  C9_11 
REMARK    8  A    between atoms: C11_15  and  C12_16 
REMARK    9  A    between atoms: C12_16  and  C13_17 
REMARK   10  A    between atoms: C17_23  and  C18_24 
ROOT
HETATM    1  C9  UNL     1       8.564  86.465 105.418  1.00  0.00     0.681 A 
HETATM    2  N2  UNL     1       9.430  85.566 104.923  1.00  0.00    -0.201 N 
ATOM      3  H2  UNL     1       9.810  85.715 103.987  1.00  0.00     0.183 HD
HETATM    4  C10 UNL     1       9.817  84.479 105.611  1.00  0.00     0.119 A 
HETATM    5  C11 UNL     1       9.314  84.243 106.905  1.00  0.00     0.031 A 
HETATM    6  C22 UNL     1       8.443  85.182 107.357  1.00  0.00     0.267 A 
HETATM    7  O1  UNL     1       7.906  85.107 108.508  1.00  0.00    -0.267 OA
HETATM    8  N3  UNL     1       8.072  86.265 106.643  1.00  0.00    -0.156 N 
ATOM      9  H3  UNL     1       7.413  86.935 107.041  1.00  0.00     0.187 HD
ENDROOT
BRANCH   5  10
HETATM   10  C12 UNL     1       9.671  83.045 107.647  1.00  0.00     0.086 C 
BRANCH  10  11
HETATM   11  C13 UNL     1      11.105  82.755 107.846  1.00  0.00    -0.025 A 
HETATM   12  C14 UNL     1      11.868  83.467 108.748  1.00  0.00     0.044 A 
HETATM   13 CL1  UNL     1      11.192  84.743 109.730  1.00  0.00    -0.084 Cl
HETATM   14  C15 UNL     1      13.223  83.204 108.912  1.00  0.00     0.067 A 
HETATM   15  C16 UNL     1      13.823  82.222 108.169  1.00  0.00     0.124 A 
HETATM   16  F1  UNL     1      15.123  81.939 108.298  1.00  0.00    -0.205 F 
HETATM   17  C17 UNL     1      13.099  81.472 107.241  1.00  0.00    -0.013 A 
HETATM   18  C20 UNL     1      11.762  81.759 107.101  1.00  0.00    -0.044 A 
HETATM   19  C21 UNL     1      11.017  81.056 106.036  1.00  0.00     0.049 C 
BRANCH  17  20
HETATM   20  C18 UNL     1      13.745  80.419 106.465  1.00  0.00     0.038 C 
HETATM   21  C19 UNL     1      13.865  79.097 107.154  1.00  0.00     0.010 C 
ENDBRANCH  17  20
ENDBRANCH  10  11
ENDBRANCH   5  10
BRANCH   1  22
HETATM   22  N1  UNL     1       8.184  87.498 104.791  1.00  0.00    -0.222 N 
ATOM     23  H1  UNL     1       8.695  88.350 105.020  1.00  0.00     0.178 HD
BRANCH  22  24
HETATM   24  C7  UNL     1       7.161  87.656 103.823  1.00  0.00     0.095 C 
HETATM   25  C8  UNL     1       5.797  87.875 104.484  1.00  0.00     0.032 C 
BRANCH  24  26
HETATM   26  C6  UNL     1       7.465  88.947 103.052  1.00  0.00     0.025 C 
BRANCH  26  27
HETATM   27  C5  UNL     1       6.283  89.871 103.232  1.00  0.00     0.002 C 
BRANCH  27  28
HETATM   28  C4  UNL     1       5.827  90.492 101.946  1.00  0.00     0.000 C 
BRANCH  28  29
HETATM   29  C3  UNL     1       4.399  90.120 101.662  1.00  0.00    -0.000 C 
BRANCH  29  30
HETATM   30  C2  UNL     1       4.383  88.734 101.030  1.00  0.00    -0.005 C 
HETATM   31  C1  UNL     1       3.237  87.979 101.632  1.00  0.00     0.005 C 
ENDBRANCH  29  30
ENDBRANCH  28  29
ENDBRANCH  27  28
ENDBRANCH  26  27
ENDBRANCH  24  26
ENDBRANCH  22  24
ENDBRANCH   1  22
TORSDOF 10
ENDMDL
