MODEL 1
REMARK VINA RESULT: -7.073211436      0.000      0.000
REMARK  5 active torsions:
REMARK  status: ('A' for Active; 'I' for Inactive)
REMARK    1  A    between atoms: O1_2  and  C2_3 
REMARK    2  A    between atoms: C5_6  and  N1_7 
REMARK    3  A    between atoms: N1_7  and  C6_9 
REMARK    4  A    between atoms: C6_9  and  N2_11 
REMARK    5  A    between atoms: N2_11  and  C7_13 
ROOT
HETATM    1  C6  UNL     1       9.116  20.324 -11.677  1.00  0.00     0.172 C 
HETATM    2  S1  UNL     1       7.615  19.832 -11.198  1.00  0.00    -0.041 SA
ENDROOT
BRANCH   1   3
HETATM    3  N1  UNL     1       9.297  20.687 -13.017  1.00  0.00    -0.362 N 
ATOM      4  H1  UNL     1       9.491  21.666 -13.227  1.00  0.00     0.162 HD
BRANCH   3   5
HETATM    5  C5  UNL     1       9.226  19.745 -14.132  1.00  0.00     0.084 C 
HETATM    6  C4  UNL     1       8.145  20.215 -15.041  1.00  0.00     0.028 C 
HETATM    7  C3  UNL     1       8.536  20.640 -16.403  1.00  0.00     0.034 C 
HETATM    8  C2  UNL     1       9.997  20.884 -16.624  1.00  0.00     0.120 C 
HETATM    9  C15 UNL     1      10.691  19.584 -16.189  1.00  0.00     0.034 C 
HETATM   10  C14 UNL     1      10.579  19.577 -14.686  1.00  0.00     0.028 C 
BRANCH   8  11
HETATM   11  O1  UNL     1      10.226  21.037 -17.982  1.00  0.00    -0.391 OA
HETATM   12  C1  UNL     1      11.339  20.309 -18.398  1.00  0.00     0.202 C 
ENDBRANCH   8  11
ENDBRANCH   3   5
ENDBRANCH   1   3
BRANCH   1  13
HETATM   13  N2  UNL     1      10.113  20.337 -10.675  1.00  0.00    -0.330 N 
ATOM     14  H2  UNL     1      10.108  19.591  -9.979  1.00  0.00     0.168 HD
BRANCH  13  15
HETATM   15  C7  UNL     1      11.119  21.331 -10.584  1.00  0.00     0.080 A 
HETATM   16  C8  UNL     1      10.937  22.514  -9.887  1.00  0.00     0.075 A 
HETATM   17  N3  UNL     1       9.692  22.738  -9.239  1.00  0.00    -0.100 NA
HETATM   18  C9  UNL     1      11.921  23.478  -9.805  1.00  0.00     0.035 A 
HETATM   19  C10 UNL     1      13.140  23.286 -10.426  1.00  0.00    -0.059 A 
HETATM   20  C11 UNL     1      14.219  24.323 -10.345  1.00  0.00     0.048 C 
HETATM   21  C12 UNL     1      13.312  22.101 -11.119  1.00  0.00     0.033 A 
HETATM   22  C13 UNL     1      12.337  21.132 -11.209  1.00  0.00     0.063 A 
HETATM   23 CL1  UNL     1      12.638  19.644 -12.116  1.00  0.00    -0.082 Cl
ENDBRANCH  13  15
ENDBRANCH   1  13
TORSDOF 5
ENDMDL
MODEL 2
REMARK VINA RESULT: -6.783237485      2.488      6.186
REMARK  5 active torsions:
REMARK  status: ('A' for Active; 'I' for Inactive)
REMARK    1  A    between atoms: O1_2  and  C2_3 
REMARK    2  A    between atoms: C5_6  and  N1_7 
REMARK    3  A    between atoms: N1_7  and  C6_9 
REMARK    4  A    between atoms: C6_9  and  N2_11 
REMARK    5  A    between atoms: N2_11  and  C7_13 
ROOT
HETATM    1  C6  UNL     1       9.706  21.109 -10.877  1.00  0.00     0.172 C 
HETATM    2  S1  UNL     1       8.461  21.383  -9.828  1.00  0.00    -0.041 SA
ENDROOT
BRANCH   1   3
HETATM    3  N1  UNL     1      10.643  22.130 -11.074  1.00  0.00    -0.362 N 
ATOM      4  H1  UNL     1      10.431  22.850 -11.764  1.00  0.00     0.162 HD
BRANCH   3   5
HETATM    5  C5  UNL     1      11.908  22.224 -10.348  1.00  0.00     0.084 C 
HETATM    6  C4  UNL     1      12.997  22.297 -11.361  1.00  0.00     0.028 C 
HETATM    7  C3  UNL     1      13.797  23.540 -11.413  1.00  0.00     0.034 C 
HETATM    8  C2  UNL     1      13.226  24.723 -10.694  1.00  0.00     0.120 C 
HETATM    9  C15 UNL     1      12.983  24.238  -9.256  1.00  0.00     0.034 C 
HETATM   10  C14 UNL     1      11.799  23.311  -9.362  1.00  0.00     0.028 C 
BRANCH   8  11
HETATM   11  O1  UNL     1      14.189  25.718 -10.633  1.00  0.00    -0.391 OA
HETATM   12  C1  UNL     1      15.214  25.385  -9.750  1.00  0.00     0.202 C 
ENDBRANCH   8  11
ENDBRANCH   3   5
ENDBRANCH   1   3
BRANCH   1  13
HETATM   13  N2  UNL     1       9.721  19.841 -11.503  1.00  0.00    -0.330 N 
ATOM     14  H2  UNL     1       9.437  19.029 -10.954  1.00  0.00     0.168 HD
BRANCH  13  15
HETATM   15  C7  UNL     1      10.111  19.637 -12.849  1.00  0.00     0.080 A 
HETATM   16  C8  UNL     1       9.258  19.868 -13.916  1.00  0.00     0.075 A 
HETATM   17  N3  UNL     1       7.939  20.327 -13.646  1.00  0.00    -0.100 NA
HETATM   18  C9  UNL     1       9.644  19.666 -15.225  1.00  0.00     0.035 A 
HETATM   19  C10 UNL     1      10.920  19.220 -15.515  1.00  0.00    -0.059 A 
HETATM   20  C11 UNL     1      11.355  18.997 -16.931  1.00  0.00     0.048 C 
HETATM   21  C12 UNL     1      11.765  18.992 -14.443  1.00  0.00     0.033 A 
HETATM   22  C13 UNL     1      11.390  19.189 -13.133  1.00  0.00     0.063 A 
HETATM   23 CL1  UNL     1      12.532  18.874 -11.820  1.00  0.00    -0.082 Cl
ENDBRANCH  13  15
ENDBRANCH   1  13
TORSDOF 5
ENDMDL
MODEL 3
REMARK VINA RESULT: -6.709660670      2.443      5.693
REMARK  5 active torsions:
REMARK  status: ('A' for Active; 'I' for Inactive)
REMARK    1  A    between atoms: O1_2  and  C2_3 
REMARK    2  A    between atoms: C5_6  and  N1_7 
REMARK    3  A    between atoms: N1_7  and  C6_9 
REMARK    4  A    between atoms: C6_9  and  N2_11 
REMARK    5  A    between atoms: N2_11  and  C7_13 
ROOT
HETATM    1  C6  UNL     1       9.930  21.143 -10.758  1.00  0.00     0.172 C 
HETATM    2  S1  UNL     1       9.141  21.292  -9.316  1.00  0.00    -0.041 SA
ENDROOT
BRANCH   1   3
HETATM    3  N1  UNL     1      10.637  22.248 -11.244  1.00  0.00    -0.362 N 
ATOM      4  H1  UNL     1      10.231  22.777 -12.015  1.00  0.00     0.162 HD
BRANCH   3   5
HETATM    5  C5  UNL     1      11.924  22.689 -10.709  1.00  0.00     0.084 C 
HETATM    6  C4  UNL     1      12.957  22.396 -11.741  1.00  0.00     0.028 C 
HETATM    7  C3  UNL     1      13.662  23.546 -12.347  1.00  0.00     0.034 C 
HETATM    8  C2  UNL     1      13.041  24.891 -12.127  1.00  0.00     0.120 C 
HETATM    9  C15 UNL     1      12.900  25.022 -10.602  1.00  0.00     0.034 C 
HETATM   10  C14 UNL     1      11.782  24.077 -10.241  1.00  0.00     0.028 C 
BRANCH   8  11
HETATM   11  O1  UNL     1      13.931  25.869 -12.541  1.00  0.00    -0.391 OA
HETATM   12  C1  UNL     1      13.735  26.204 -13.880  1.00  0.00     0.202 C 
ENDBRANCH   8  11
ENDBRANCH   3   5
ENDBRANCH   1   3
BRANCH   1  13
HETATM   13  N2  UNL     1       9.822  19.885 -11.396  1.00  0.00    -0.330 N 
ATOM     14  H2  UNL     1       9.458  19.100 -10.855  1.00  0.00     0.168 HD
BRANCH  13  15
HETATM   15  C7  UNL     1      10.193  19.656 -12.744  1.00  0.00     0.080 A 
HETATM   16  C8  UNL     1       9.327  19.875 -13.803  1.00  0.00     0.075 A 
HETATM   17  N3  UNL     1       8.015  20.347 -13.524  1.00  0.00    -0.100 NA
HETATM   18  C9  UNL     1       9.696  19.650 -15.113  1.00  0.00     0.035 A 
HETATM   19  C10 UNL     1      10.964  19.191 -15.412  1.00  0.00    -0.059 A 
HETATM   20  C11 UNL     1      11.380  18.941 -16.830  1.00  0.00     0.048 C 
HETATM   21  C12 UNL     1      11.822  18.975 -14.348  1.00  0.00     0.033 A 
HETATM   22  C13 UNL     1      11.465  19.196 -13.036  1.00  0.00     0.063 A 
HETATM   23 CL1  UNL     1      12.622  18.896 -11.733  1.00  0.00    -0.082 Cl
ENDBRANCH  13  15
ENDBRANCH   1  13
TORSDOF 5
ENDMDL
MODEL 4
REMARK VINA RESULT: -6.708423306      2.945      6.348
REMARK  5 active torsions:
REMARK  status: ('A' for Active; 'I' for Inactive)
REMARK    1  A    between atoms: O1_2  and  C2_3 
REMARK    2  A    between atoms: C5_6  and  N1_7 
REMARK    3  A    between atoms: N1_7  and  C6_9 
REMARK    4  A    between atoms: C6_9  and  N2_11 
REMARK    5  A    between atoms: N2_11  and  C7_13 
ROOT
HETATM    1  C6  UNL     1       9.957  21.114 -10.371  1.00  0.00     0.172 C 
HETATM    2  S1  UNL     1       8.573  21.820  -9.813  1.00  0.00    -0.041 SA
ENDROOT
BRANCH   1   3
HETATM    3  N1  UNL     1      11.171  21.778 -10.161  1.00  0.00    -0.362 N 
ATOM      4  H1  UNL     1      11.774  21.447  -9.408  1.00  0.00     0.162 HD
BRANCH   3   5
HETATM    5  C5  UNL     1      11.625  22.916 -10.957  1.00  0.00     0.084 C 
HETATM    6  C4  UNL     1      11.427  24.141 -10.133  1.00  0.00     0.028 C 
HETATM    7  C3  UNL     1      12.634  24.896  -9.734  1.00  0.00     0.034 C 
HETATM    8  C2  UNL     1      13.942  24.184  -9.896  1.00  0.00     0.120 C 
HETATM    9  C15 UNL     1      13.980  23.746 -11.368  1.00  0.00     0.034 C 
HETATM   10  C14 UNL     1      12.977  22.624 -11.457  1.00  0.00     0.028 C 
BRANCH   8  11
HETATM   11  O1  UNL     1      14.972  25.093  -9.712  1.00  0.00    -0.391 OA
HETATM   12  C1  UNL     1      16.016  24.539  -8.973  1.00  0.00     0.202 C 
ENDBRANCH   8  11
ENDBRANCH   3   5
ENDBRANCH   1   3
BRANCH   1  13
HETATM   13  N2  UNL     1       9.796  19.873 -11.030  1.00  0.00    -0.330 N 
ATOM     14  H2  UNL     1       9.377  19.102 -10.510  1.00  0.00     0.168 HD
BRANCH  13  15
HETATM   15  C7  UNL     1      10.187  19.643 -12.372  1.00  0.00     0.080 A 
HETATM   16  C8  UNL     1      11.477  19.279 -12.721  1.00  0.00     0.075 A 
HETATM   17  N3  UNL     1      12.446  19.132 -11.690  1.00  0.00    -0.100 NA
HETATM   18  C9  UNL     1      11.851  19.058 -14.031  1.00  0.00     0.035 A 
HETATM   19  C10 UNL     1      10.929  19.194 -15.052  1.00  0.00    -0.059 A 
HETATM   20  C11 UNL     1      11.319  18.956 -16.479  1.00  0.00     0.048 C 
HETATM   21  C12 UNL     1       9.643  19.558 -14.694  1.00  0.00     0.033 A 
HETATM   22  C13 UNL     1       9.259  19.782 -13.390  1.00  0.00     0.063 A 
HETATM   23 CL1  UNL     1       7.594  20.243 -13.016  1.00  0.00    -0.082 Cl
ENDBRANCH  13  15
ENDBRANCH   1  13
TORSDOF 5
ENDMDL
MODEL 5
REMARK VINA RESULT: -6.664639178      2.579      6.035
REMARK  5 active torsions:
REMARK  status: ('A' for Active; 'I' for Inactive)
REMARK    1  A    between atoms: O1_2  and  C2_3 
REMARK    2  A    between atoms: C5_6  and  N1_7 
REMARK    3  A    between atoms: N1_7  and  C6_9 
REMARK    4  A    between atoms: C6_9  and  N2_11 
REMARK    5  A    between atoms: N2_11  and  C7_13 
ROOT
HETATM    1  C6  UNL     1      10.004  20.967 -10.428  1.00  0.00     0.172 C 
HETATM    2  S1  UNL     1       8.657  21.493  -9.630  1.00  0.00    -0.041 SA
ENDROOT
BRANCH   1   3
HETATM    3  N1  UNL     1      11.180  21.715 -10.305  1.00  0.00    -0.362 N 
ATOM      4  H1  UNL     1      11.783  21.534  -9.503  1.00  0.00     0.162 HD
BRANCH   3   5
HETATM    5  C5  UNL     1      11.595  22.741 -11.260  1.00  0.00     0.084 C 
HETATM    6  C4  UNL     1      11.224  24.062 -10.682  1.00  0.00     0.028 C 
HETATM    7  C3  UNL     1      12.324  24.992 -10.346  1.00  0.00     0.034 C 
HETATM    8  C2  UNL     1      13.698  24.399 -10.294  1.00  0.00     0.120 C 
HETATM    9  C15 UNL     1      13.894  23.722 -11.659  1.00  0.00     0.034 C 
HETATM   10  C14 UNL     1      13.005  22.505 -11.612  1.00  0.00     0.028 C 
BRANCH   8  11
HETATM   11  O1  UNL     1      14.626  25.424 -10.208  1.00  0.00    -0.391 OA
HETATM   12  C1  UNL     1      15.686  25.085  -9.370  1.00  0.00     0.202 C 
ENDBRANCH   8  11
ENDBRANCH   3   5
ENDBRANCH   1   3
BRANCH   1  13
HETATM   13  N2  UNL     1       9.852  19.782 -11.184  1.00  0.00    -0.330 N 
ATOM     14  H2  UNL     1       9.514  18.946 -10.708  1.00  0.00     0.168 HD
BRANCH  13  15
HETATM   15  C7  UNL     1      10.147  19.693 -12.567  1.00  0.00     0.080 A 
HETATM   16  C8  UNL     1       9.215  19.990 -13.548  1.00  0.00     0.075 A 
HETATM   17  N3  UNL     1       7.913  20.400 -13.149  1.00  0.00    -0.100 NA
HETATM   18  C9  UNL     1       9.509  19.901 -14.893  1.00  0.00     0.035 A 
HETATM   19  C10 UNL     1      10.766  19.504 -15.308  1.00  0.00    -0.059 A 
HETATM   20  C11 UNL     1      11.101  19.402 -16.765  1.00  0.00     0.048 C 
HETATM   21  C12 UNL     1      11.689  19.209 -14.321  1.00  0.00     0.033 A 
HETATM   22  C13 UNL     1      11.408  19.295 -12.976  1.00  0.00     0.063 A 
HETATM   23 CL1  UNL     1      12.646  18.900 -11.777  1.00  0.00    -0.082 Cl
ENDBRANCH  13  15
ENDBRANCH   1  13
TORSDOF 5
ENDMDL
