MODEL 1
REMARK VINA RESULT: -5.487915617      0.000      0.000
REMARK  7 active torsions:
REMARK  status: ('A' for Active; 'I' for Inactive)
REMARK    1  A    between atoms: C4_5  and  C5_6 
REMARK    2  A    between atoms: C5_6  and  C6_7 
REMARK    3  A    between atoms: C8_10  and  C9_11 
REMARK    4  A    between atoms: C9_11  and  C10_12 
REMARK    5  A    between atoms: C10_12  and  C11_13 
REMARK    6  A    between atoms: C11_13  and  O3_16 
REMARK    7  A    between atoms: C14_18  and  O4_19 
ROOT
HETATM    1  C1  UNL     1      50.236 -79.887 -33.400  1.00  0.00     0.038 C 
HETATM    2  C2  UNL     1      49.315 -79.108 -34.241  1.00  0.00     0.003 C 
HETATM    3  C3  UNL     1      49.687 -78.527 -35.360  1.00  0.00     0.065 C 
HETATM    4  O1  UNL     1      48.764 -77.791 -36.133  1.00  0.00    -0.344 OA
HETATM    5  C4  UNL     1      49.006 -77.612 -37.549  1.00  0.00     0.179 C 
HETATM    6  C14 UNL     1      50.432 -77.195 -37.602  1.00  0.00     0.243 C 
HETATM    7  N1  UNL     1      51.368 -78.126 -37.081  1.00  0.00    -0.385 N 
ATOM      8  H1  UNL     1      52.197 -78.399 -37.608  1.00  0.00     0.156 HD
HETATM    9  C15 UNL     1      51.100 -78.664 -35.790  1.00  0.00     0.131 C 
HETATM   10  C16 UNL     1      52.049 -78.001 -34.812  1.00  0.00     0.039 C 
ENDROOT
BRANCH   5  11
HETATM   11  C5  UNL     1      48.628 -78.886 -38.174  1.00  0.00     0.077 C 
BRANCH  11  12
HETATM   12  C6  UNL     1      47.216 -79.118 -38.570  1.00  0.00     0.086 A 
HETATM   13  C7  UNL     1      46.706 -78.612 -39.921  1.00  0.00     0.049 C 
HETATM   14  O2  UNL     1      47.102 -80.629 -38.639  1.00  0.00    -0.369 OA
HETATM   15  C8  UNL     1      46.284 -79.917 -37.799  1.00  0.00     0.157 A 
BRANCH  15  16
HETATM   16  C9  UNL     1      46.353 -80.237 -36.356  1.00  0.00     0.038 C 
BRANCH  16  17
HETATM   17  C10 UNL     1      45.474 -81.392 -36.019  1.00  0.00     0.040 C 
BRANCH  17  18
HETATM   18  C11 UNL     1      46.197 -82.679 -35.736  1.00  0.00     0.051 C 
HETATM   19  C12 UNL     1      47.622 -82.282 -35.323  1.00  0.00     0.045 C 
HETATM   20  C13 UNL     1      46.334 -83.547 -36.958  1.00  0.00     0.045 C 
BRANCH  18  21
HETATM   21  O3  UNL     1      45.688 -83.413 -34.690  1.00  0.00    -0.391 OA
ATOM     22  H3  UNL     1      46.073 -84.274 -34.580  1.00  0.00     0.210 HD
ENDBRANCH  18  21
ENDBRANCH  17  18
ENDBRANCH  16  17
ENDBRANCH  15  16
ENDBRANCH  11  12
ENDBRANCH   5  11
BRANCH   6  23
HETATM   23  O4  UNL     1      50.520 -76.047 -36.763  1.00  0.00    -0.374 OA
ATOM     24  H4  UNL     1      49.834 -75.463 -37.066  1.00  0.00     0.212 HD
ENDBRANCH   6  23
TORSDOF 7
ENDMDL
MODEL 2
REMARK VINA RESULT: -5.472834913      2.209      3.044
REMARK  7 active torsions:
REMARK  status: ('A' for Active; 'I' for Inactive)
REMARK    1  A    between atoms: C4_5  and  C5_6 
REMARK    2  A    between atoms: C5_6  and  C6_7 
REMARK    3  A    between atoms: C8_10  and  C9_11 
REMARK    4  A    between atoms: C9_11  and  C10_12 
REMARK    5  A    between atoms: C10_12  and  C11_13 
REMARK    6  A    between atoms: C11_13  and  O3_16 
REMARK    7  A    between atoms: C14_18  and  O4_19 
ROOT
HETATM    1  C1  UNL     1      49.633 -82.247 -34.736  1.00  0.00     0.038 C 
HETATM    2  C2  UNL     1      48.432 -81.848 -35.484  1.00  0.00     0.003 C 
HETATM    3  C3  UNL     1      48.198 -80.608 -35.851  1.00  0.00     0.065 C 
HETATM    4  O1  UNL     1      47.030 -80.275 -36.569  1.00  0.00    -0.344 OA
HETATM    5  C4  UNL     1      47.019 -79.090 -37.401  1.00  0.00     0.179 C 
HETATM    6  C14 UNL     1      47.601 -78.046 -36.515  1.00  0.00     0.243 C 
HETATM    7  N1  UNL     1      48.924 -78.289 -36.061  1.00  0.00    -0.385 N 
ATOM      8  H1  UNL     1      49.651 -77.578 -36.138  1.00  0.00     0.156 HD
HETATM    9  C15 UNL     1      49.192 -79.567 -35.494  1.00  0.00     0.131 C 
HETATM   10  C16 UNL     1      49.300 -79.388 -33.994  1.00  0.00     0.039 C 
ENDROOT
BRANCH   5  11
HETATM   11  C5  UNL     1      47.752 -79.460 -38.618  1.00  0.00     0.077 C 
BRANCH  11  12
HETATM   12  C6  UNL     1      47.024 -80.081 -39.753  1.00  0.00     0.086 A 
HETATM   13  C7  UNL     1      46.275 -79.202 -40.756  1.00  0.00     0.049 C 
HETATM   14  O2  UNL     1      48.115 -80.763 -40.555  1.00  0.00    -0.369 OA
HETATM   15  C8  UNL     1      47.068 -81.497 -40.060  1.00  0.00     0.157 A 
BRANCH  15  16
HETATM   16  C9  UNL     1      47.395 -82.608 -39.137  1.00  0.00     0.038 C 
BRANCH  16  17
HETATM   17  C10 UNL     1      46.782 -83.885 -39.597  1.00  0.00     0.040 C 
BRANCH  17  18
HETATM   18  C11 UNL     1      46.359 -84.818 -38.496  1.00  0.00     0.051 C 
HETATM   19  C12 UNL     1      45.997 -83.926 -37.300  1.00  0.00     0.045 C 
HETATM   20  C13 UNL     1      47.476 -85.715 -38.036  1.00  0.00     0.045 C 
BRANCH  18  21
HETATM   21  O3  UNL     1      45.235 -85.564 -38.767  1.00  0.00    -0.391 OA
ATOM     22  H3  UNL     1      44.464 -85.321 -38.270  1.00  0.00     0.210 HD
ENDBRANCH  18  21
ENDBRANCH  17  18
ENDBRANCH  16  17
ENDBRANCH  15  16
ENDBRANCH  11  12
ENDBRANCH   5  11
BRANCH   6  23
HETATM   23  O4  UNL     1      46.785 -78.046 -35.348  1.00  0.00    -0.374 OA
ATOM     24  H4  UNL     1      46.979 -77.228 -34.906  1.00  0.00     0.212 HD
ENDBRANCH   6  23
TORSDOF 7
ENDMDL
MODEL 3
REMARK VINA RESULT: -5.446675674      3.275      5.418
REMARK  7 active torsions:
REMARK  status: ('A' for Active; 'I' for Inactive)
REMARK    1  A    between atoms: C4_5  and  C5_6 
REMARK    2  A    between atoms: C5_6  and  C6_7 
REMARK    3  A    between atoms: C8_10  and  C9_11 
REMARK    4  A    between atoms: C9_11  and  C10_12 
REMARK    5  A    between atoms: C10_12  and  C11_13 
REMARK    6  A    between atoms: C11_13  and  O3_16 
REMARK    7  A    between atoms: C14_18  and  O4_19 
ROOT
HETATM    1  C1  UNL     1      48.265 -81.804 -34.554  1.00  0.00     0.038 C 
HETATM    2  C2  UNL     1      48.665 -82.169 -35.921  1.00  0.00     0.003 C 
HETATM    3  C3  UNL     1      47.916 -82.903 -36.713  1.00  0.00     0.065 C 
HETATM    4  O1  UNL     1      48.344 -83.227 -38.018  1.00  0.00    -0.344 OA
HETATM    5  C4  UNL     1      47.362 -83.554 -39.028  1.00  0.00     0.179 C 
HETATM    6  C14 UNL     1      46.473 -84.527 -38.338  1.00  0.00     0.243 C 
HETATM    7  N1  UNL     1      45.810 -84.043 -37.179  1.00  0.00    -0.385 N 
ATOM      8  H1  UNL     1      44.806 -84.163 -37.052  1.00  0.00     0.156 HD
HETATM    9  C15 UNL     1      46.609 -83.384 -36.202  1.00  0.00     0.131 C 
HETATM   10  C16 UNL     1      46.780 -84.334 -35.034  1.00  0.00     0.039 C 
ENDROOT
BRANCH   5  11
HETATM   11  C5  UNL     1      46.793 -82.269 -39.452  1.00  0.00     0.077 C 
BRANCH  11  12
HETATM   12  C6  UNL     1      47.639 -81.301 -40.195  1.00  0.00     0.086 A 
HETATM   13  C7  UNL     1      48.223 -81.681 -41.557  1.00  0.00     0.049 C 
HETATM   14  O2  UNL     1      46.705 -80.138 -40.470  1.00  0.00    -0.369 OA
HETATM   15  C8  UNL     1      47.866 -79.935 -39.768  1.00  0.00     0.157 A 
BRANCH  15  16
HETATM   16  C9  UNL     1      47.740 -79.389 -38.397  1.00  0.00     0.038 C 
BRANCH  16  17
HETATM   17  C10 UNL     1      46.386 -78.811 -38.172  1.00  0.00     0.040 C 
BRANCH  17  18
HETATM   18  C11 UNL     1      45.958 -78.737 -36.733  1.00  0.00     0.051 C 
HETATM   19  C12 UNL     1      47.235 -78.461 -35.925  1.00  0.00     0.045 C 
HETATM   20  C13 UNL     1      45.406 -80.041 -36.225  1.00  0.00     0.045 C 
BRANCH  18  21
HETATM   21  O3  UNL     1      45.092 -77.710 -36.436  1.00  0.00    -0.391 OA
ATOM     22  H3  UNL     1      44.221 -77.982 -36.178  1.00  0.00     0.210 HD
ENDBRANCH  18  21
ENDBRANCH  17  18
ENDBRANCH  16  17
ENDBRANCH  15  16
ENDBRANCH  11  12
ENDBRANCH   5  11
BRANCH   6  23
HETATM   23  O4  UNL     1      47.334 -85.568 -37.886  1.00  0.00    -0.374 OA
ATOM     24  H4  UNL     1      46.776 -86.331 -37.790  1.00  0.00     0.212 HD
ENDBRANCH   6  23
TORSDOF 7
ENDMDL
MODEL 4
REMARK VINA RESULT: -5.361485656      2.492      4.849
REMARK  7 active torsions:
REMARK  status: ('A' for Active; 'I' for Inactive)
REMARK    1  A    between atoms: C4_5  and  C5_6 
REMARK    2  A    between atoms: C5_6  and  C6_7 
REMARK    3  A    between atoms: C8_10  and  C9_11 
REMARK    4  A    between atoms: C9_11  and  C10_12 
REMARK    5  A    between atoms: C10_12  and  C11_13 
REMARK    6  A    between atoms: C11_13  and  O3_16 
REMARK    7  A    between atoms: C14_18  and  O4_19 
ROOT
HETATM    1  C1  UNL     1      47.070 -80.806 -40.951  1.00  0.00     0.038 C 
HETATM    2  C2  UNL     1      47.812 -80.852 -39.683  1.00  0.00     0.003 C 
HETATM    3  C3  UNL     1      47.536 -80.067 -38.665  1.00  0.00     0.065 C 
HETATM    4  O1  UNL     1      48.278 -80.148 -37.467  1.00  0.00    -0.344 OA
HETATM    5  C4  UNL     1      47.679 -79.702 -36.228  1.00  0.00     0.179 C 
HETATM    6  C14 UNL     1      47.099 -78.379 -36.586  1.00  0.00     0.243 C 
HETATM    7  N1  UNL     1      46.111 -78.394 -37.606  1.00  0.00    -0.385 N 
ATOM      8  H1  UNL     1      45.214 -77.925 -37.484  1.00  0.00     0.156 HD
HETATM    9  C15 UNL     1      46.427 -79.093 -38.806  1.00  0.00     0.131 C 
HETATM   10  C16 UNL     1      46.722 -78.058 -39.872  1.00  0.00     0.039 C 
ENDROOT
BRANCH   5  11
HETATM   11  C5  UNL     1      46.765 -80.777 -35.824  1.00  0.00     0.077 C 
BRANCH  11  12
HETATM   12  C6  UNL     1      47.310 -82.121 -35.502  1.00  0.00     0.086 A 
HETATM   13  C7  UNL     1      48.241 -82.302 -34.302  1.00  0.00     0.049 C 
HETATM   14  O2  UNL     1      46.078 -82.945 -35.181  1.00  0.00    -0.369 OA
HETATM   15  C8  UNL     1      46.919 -83.335 -36.191  1.00  0.00     0.157 A 
BRANCH  15  16
HETATM   16  C9  UNL     1      46.340 -83.452 -37.549  1.00  0.00     0.038 C 
BRANCH  16  17
HETATM   17  C10 UNL     1      47.192 -84.306 -38.423  1.00  0.00     0.040 C 
BRANCH  17  18
HETATM   18  C11 UNL     1      46.593 -85.634 -38.792  1.00  0.00     0.051 C 
HETATM   19  C12 UNL     1      47.088 -86.630 -37.732  1.00  0.00     0.045 C 
HETATM   20  C13 UNL     1      47.086 -86.145 -40.118  1.00  0.00     0.045 C 
BRANCH  18  21
HETATM   21  O3  UNL     1      45.219 -85.684 -38.747  1.00  0.00    -0.391 OA
ATOM     22  H3  UNL     1      44.822 -86.325 -39.324  1.00  0.00     0.210 HD
ENDBRANCH  18  21
ENDBRANCH  17  18
ENDBRANCH  16  17
ENDBRANCH  15  16
ENDBRANCH  11  12
ENDBRANCH   5  11
BRANCH   6  23
HETATM   23  O4  UNL     1      48.186 -77.622 -37.110  1.00  0.00    -0.374 OA
ATOM     24  H4  UNL     1      47.784 -76.925 -37.617  1.00  0.00     0.212 HD
ENDBRANCH   6  23
TORSDOF 7
ENDMDL
MODEL 5
REMARK VINA RESULT: -5.356050504      2.439      4.016
REMARK  7 active torsions:
REMARK  status: ('A' for Active; 'I' for Inactive)
REMARK    1  A    between atoms: C4_5  and  C5_6 
REMARK    2  A    between atoms: C5_6  and  C6_7 
REMARK    3  A    between atoms: C8_10  and  C9_11 
REMARK    4  A    between atoms: C9_11  and  C10_12 
REMARK    5  A    between atoms: C10_12  and  C11_13 
REMARK    6  A    between atoms: C11_13  and  O3_16 
REMARK    7  A    between atoms: C14_18  and  O4_19 
ROOT
HETATM    1  C1  UNL     1      47.344 -83.097 -34.848  1.00  0.00     0.038 C 
HETATM    2  C2  UNL     1      46.323 -82.172 -35.360  1.00  0.00     0.003 C 
HETATM    3  C3  UNL     1      46.615 -81.002 -35.883  1.00  0.00     0.065 C 
HETATM    4  O1  UNL     1      45.598 -80.149 -36.361  1.00  0.00    -0.344 OA
HETATM    5  C4  UNL     1      45.915 -79.159 -37.369  1.00  0.00     0.179 C 
HETATM    6  C14 UNL     1      47.153 -78.523 -36.844  1.00  0.00     0.243 C 
HETATM    7  N1  UNL     1      48.266 -79.387 -36.670  1.00  0.00    -0.385 N 
ATOM      8  H1  UNL     1      49.186 -79.150 -37.039  1.00  0.00     0.156 HD
HETATM    9  C15 UNL     1      48.041 -80.600 -35.958  1.00  0.00     0.131 C 
HETATM   10  C16 UNL     1      48.650 -80.440 -34.580  1.00  0.00     0.039 C 
ENDROOT
BRANCH   5  11
HETATM   11  C5  UNL     1      45.994 -79.899 -38.634  1.00  0.00     0.077 C 
BRANCH  11  12
HETATM   12  C6  UNL     1      46.559 -79.237 -39.838  1.00  0.00     0.086 A 
HETATM   13  C7  UNL     1      46.621 -77.711 -39.914  1.00  0.00     0.049 C 
HETATM   14  O2  UNL     1      48.004 -79.698 -39.861  1.00  0.00    -0.369 OA
HETATM   15  C8  UNL     1      47.185 -79.952 -40.932  1.00  0.00     0.157 A 
BRANCH  15  16
HETATM   16  C9  UNL     1      46.986 -81.370 -41.310  1.00  0.00     0.038 C 
BRANCH  16  17
HETATM   17  C10 UNL     1      48.085 -82.225 -40.782  1.00  0.00     0.040 C 
BRANCH  17  18
HETATM   18  C11 UNL     1      47.664 -83.598 -40.338  1.00  0.00     0.051 C 
HETATM   19  C12 UNL     1      47.062 -83.424 -38.936  1.00  0.00     0.045 C 
HETATM   20  C13 UNL     1      48.828 -84.541 -40.188  1.00  0.00     0.045 C 
BRANCH  18  21
HETATM   21  O3  UNL     1      46.681 -84.180 -41.104  1.00  0.00    -0.391 OA
ATOM     22  H3  UNL     1      45.925 -83.631 -41.272  1.00  0.00     0.210 HD
ENDBRANCH  18  21
ENDBRANCH  17  18
ENDBRANCH  16  17
ENDBRANCH  15  16
ENDBRANCH  11  12
ENDBRANCH   5  11
BRANCH   6  23
HETATM   23  O4  UNL     1      46.814 -78.060 -35.541  1.00  0.00    -0.374 OA
ATOM     24  H4  UNL     1      45.872 -78.162 -35.475  1.00  0.00     0.212 HD
ENDBRANCH   6  23
TORSDOF 7
ENDMDL
