MODEL 1
REMARK VINA RESULT: -5.429049042      0.000      0.000
REMARK  6 active torsions:
REMARK  status: ('A' for Active; 'I' for Inactive)
REMARK    1  A    between atoms: C2_2  and  C3_3 
REMARK    2  A    between atoms: C3_3  and  S1_5 
REMARK    3  A    between atoms: S1_5  and  C5_6 
REMARK    4  A    between atoms: C5_6  and  C6_7 
REMARK       I    between atoms: C6_7  and  N1_9 
REMARK    5  A    between atoms: N1_9  and  N2_11 
REMARK    6  A    between atoms: N2_11  and  C7_12 
ROOT
HETATM    1  C7  UNL     1      47.054 -79.972 -37.783  1.00  0.00     0.309 C 
HETATM    2  N3  UNL     1      46.564 -81.240 -38.283  1.00  0.00    -0.054 N 
ATOM      3  H31 UNL     1      46.145 -81.174 -39.211  1.00  0.00     0.279 HD
ATOM      4  H32 UNL     1      45.734 -81.574 -37.793  1.00  0.00     0.279 HD
HETATM    5  C8  UNL     1      47.696 -82.180 -38.220  1.00  0.00     0.235 C 
HETATM    6  C9  UNL     1      47.224 -83.329 -37.354  1.00  0.00     0.031 C 
HETATM    7  C10 UNL     1      47.323 -82.846 -35.914  1.00  0.00     0.028 C 
HETATM    8  C11 UNL     1      46.193 -81.994 -35.522  1.00  0.00    -0.030 C 
HETATM    9  C12 UNL     1      45.842 -80.738 -35.753  1.00  0.00    -0.018 C 
HETATM   10  C13 UNL     1      46.369 -79.589 -36.487  1.00  0.00     0.014 C 
HETATM   11  C14 UNL     1      47.296 -78.704 -35.695  1.00  0.00     0.023 C 
HETATM   12  C15 UNL     1      45.172 -78.709 -36.880  1.00  0.00     0.023 C 
ENDROOT
BRANCH   1  13
HETATM   13  N2  UNL     1      46.764 -78.952 -38.778  1.00  0.00    -0.104 NA
BRANCH  13  14
HETATM   14  N1  UNL     1      46.529 -79.463 -40.041  1.00  0.00    -0.271 N 
HETATM   15  C6  UNL     1      46.189 -78.695 -41.176  1.00  0.00     0.242 C 
HETATM   16  O1  UNL     1      46.082 -77.456 -41.104  1.00  0.00    -0.271 OA
ATOM     17  H1  UNL     1      46.608 -80.473 -40.163  1.00  0.00     0.185 HD
BRANCH  15  18
HETATM   18  C5  UNL     1      45.963 -79.413 -42.471  1.00  0.00     0.178 C 
BRANCH  18  19
HETATM   19  S1  UNL     1      46.972 -80.939 -42.505  1.00  0.00    -0.155 SA
BRANCH  19  20
HETATM   20  C3  UNL     1      47.441 -81.332 -44.216  1.00  0.00     0.043 C 
HETATM   21  C4  UNL     1      48.929 -81.402 -44.407  1.00  0.00     0.021 C 
BRANCH  20  22
HETATM   22  C2  UNL     1      46.915 -80.233 -45.150  1.00  0.00     0.010 C 
HETATM   23  C1  UNL     1      46.466 -80.804 -46.478  1.00  0.00     0.006 C 
ENDBRANCH  20  22
ENDBRANCH  19  20
ENDBRANCH  18  19
ENDBRANCH  15  18
ENDBRANCH  13  14
ENDBRANCH   1  13
TORSDOF 6
ENDMDL
MODEL 2
REMARK VINA RESULT: -5.372931407      2.410      3.898
REMARK  6 active torsions:
REMARK  status: ('A' for Active; 'I' for Inactive)
REMARK    1  A    between atoms: C2_2  and  C3_3 
REMARK    2  A    between atoms: C3_3  and  S1_5 
REMARK    3  A    between atoms: S1_5  and  C5_6 
REMARK    4  A    between atoms: C5_6  and  C6_7 
REMARK       I    between atoms: C6_7  and  N1_9 
REMARK    5  A    between atoms: N1_9  and  N2_11 
REMARK    6  A    between atoms: N2_11  and  C7_12 
ROOT
HETATM    1  C7  UNL     1      47.301 -80.815 -37.500  1.00  0.00     0.309 C 
HETATM    2  N3  UNL     1      48.715 -80.785 -37.187  1.00  0.00    -0.054 N 
ATOM      3  H31 UNL     1      49.120 -81.713 -37.055  1.00  0.00     0.279 HD
ATOM      4  H32 UNL     1      48.915 -80.425 -36.254  1.00  0.00     0.279 HD
HETATM    5  C8  UNL     1      49.364 -80.014 -38.261  1.00  0.00     0.235 C 
HETATM    6  C9  UNL     1      50.075 -78.870 -37.568  1.00  0.00     0.031 C 
HETATM    7  C10 UNL     1      49.004 -77.839 -37.241  1.00  0.00     0.028 C 
HETATM    8  C11 UNL     1      48.234 -78.182 -36.039  1.00  0.00    -0.030 C 
HETATM    9  C12 UNL     1      47.267 -79.043 -35.758  1.00  0.00    -0.018 C 
HETATM   10  C13 UNL     1      46.492 -80.060 -36.466  1.00  0.00     0.014 C 
HETATM   11  C14 UNL     1      45.230 -79.556 -37.115  1.00  0.00     0.023 C 
HETATM   12  C15 UNL     1      46.049 -81.102 -35.427  1.00  0.00     0.023 C 
ENDROOT
BRANCH   1  13
HETATM   13  N2  UNL     1      46.869 -82.204 -37.502  1.00  0.00    -0.104 NA
BRANCH  13  14
HETATM   14  N1  UNL     1      46.740 -82.741 -38.770  1.00  0.00    -0.271 N 
HETATM   15  C6  UNL     1      47.785 -83.340 -39.506  1.00  0.00     0.242 C 
HETATM   16  O1  UNL     1      48.934 -83.430 -39.033  1.00  0.00    -0.271 OA
ATOM     17  H1  UNL     1      45.820 -82.701 -39.207  1.00  0.00     0.185 HD
BRANCH  15  18
HETATM   18  C5  UNL     1      47.472 -83.868 -40.873  1.00  0.00     0.178 C 
BRANCH  18  19
HETATM   19  S1  UNL     1      47.930 -82.617 -42.127  1.00  0.00    -0.155 SA
BRANCH  19  20
HETATM   20  C3  UNL     1      46.742 -81.243 -42.093  1.00  0.00     0.043 C 
HETATM   21  C4  UNL     1      46.506 -80.648 -43.452  1.00  0.00     0.021 C 
BRANCH  20  22
HETATM   22  C2  UNL     1      47.290 -80.123 -41.197  1.00  0.00     0.010 C 
HETATM   23  C1  UNL     1      46.187 -79.198 -40.731  1.00  0.00     0.006 C 
ENDBRANCH  20  22
ENDBRANCH  19  20
ENDBRANCH  18  19
ENDBRANCH  15  18
ENDBRANCH  13  14
ENDBRANCH   1  13
TORSDOF 6
ENDMDL
MODEL 3
REMARK VINA RESULT: -5.330996302      3.744      6.356
REMARK  6 active torsions:
REMARK  status: ('A' for Active; 'I' for Inactive)
REMARK    1  A    between atoms: C2_2  and  C3_3 
REMARK    2  A    between atoms: C3_3  and  S1_5 
REMARK    3  A    between atoms: S1_5  and  C5_6 
REMARK    4  A    between atoms: C5_6  and  C6_7 
REMARK       I    between atoms: C6_7  and  N1_9 
REMARK    5  A    between atoms: N1_9  and  N2_11 
REMARK    6  A    between atoms: N2_11  and  C7_12 
ROOT
HETATM    1  C7  UNL     1      46.698 -80.531 -36.839  1.00  0.00     0.309 C 
HETATM    2  N3  UNL     1      47.729 -80.984 -37.750  1.00  0.00    -0.054 N 
ATOM      3  H31 UNL     1      48.471 -81.512 -37.290  1.00  0.00     0.279 HD
ATOM      4  H32 UNL     1      48.313 -80.227 -38.106  1.00  0.00     0.279 HD
HETATM    5  C8  UNL     1      47.045 -81.742 -38.811  1.00  0.00     0.235 C 
HETATM    6  C9  UNL     1      47.419 -81.055 -40.108  1.00  0.00     0.031 C 
HETATM    7  C10 UNL     1      46.546 -79.812 -40.198  1.00  0.00     0.028 C 
HETATM    8  C11 UNL     1      47.053 -78.702 -39.382  1.00  0.00    -0.030 C 
HETATM    9  C12 UNL     1      47.056 -78.413 -38.089  1.00  0.00    -0.018 C 
HETATM   10  C13 UNL     1      46.577 -79.021 -36.849  1.00  0.00     0.014 C 
HETATM   11  C14 UNL     1      45.170 -78.647 -36.462  1.00  0.00     0.023 C 
HETATM   12  C15 UNL     1      47.480 -78.514 -35.713  1.00  0.00     0.023 C 
ENDROOT
BRANCH   1  13
HETATM   13  N2  UNL     1      47.062 -80.958 -35.497  1.00  0.00    -0.104 NA
BRANCH  13  14
HETATM   14  N1  UNL     1      46.601 -82.221 -35.174  1.00  0.00    -0.271 N 
HETATM   15  C6  UNL     1      47.324 -83.420 -35.361  1.00  0.00     0.242 C 
HETATM   16  O1  UNL     1      48.473 -83.408 -35.844  1.00  0.00    -0.271 OA
ATOM     17  H1  UNL     1      45.668 -82.293 -34.770  1.00  0.00     0.185 HD
BRANCH  15  18
HETATM   18  C5  UNL     1      46.670 -84.707 -34.961  1.00  0.00     0.178 C 
BRANCH  18  19
HETATM   19  S1  UNL     1      47.441 -86.090 -35.876  1.00  0.00    -0.155 SA
BRANCH  19  20
HETATM   20  C3  UNL     1      46.444 -86.496 -37.340  1.00  0.00     0.043 C 
HETATM   21  C4  UNL     1      45.920 -85.274 -38.041  1.00  0.00     0.021 C 
BRANCH  20  22
HETATM   22  C2  UNL     1      45.228 -87.328 -36.908  1.00  0.00     0.010 C 
HETATM   23  C1  UNL     1      44.420 -87.788 -38.103  1.00  0.00     0.006 C 
ENDBRANCH  20  22
ENDBRANCH  19  20
ENDBRANCH  18  19
ENDBRANCH  15  18
ENDBRANCH  13  14
ENDBRANCH   1  13
TORSDOF 6
ENDMDL
MODEL 4
REMARK VINA RESULT: -5.325636680      3.686      6.018
REMARK  6 active torsions:
REMARK  status: ('A' for Active; 'I' for Inactive)
REMARK    1  A    between atoms: C2_2  and  C3_3 
REMARK    2  A    between atoms: C3_3  and  S1_5 
REMARK    3  A    between atoms: S1_5  and  C5_6 
REMARK    4  A    between atoms: C5_6  and  C6_7 
REMARK       I    between atoms: C6_7  and  N1_9 
REMARK    5  A    between atoms: N1_9  and  N2_11 
REMARK    6  A    between atoms: N2_11  and  C7_12 
ROOT
HETATM    1  C7  UNL     1      46.745 -80.529 -36.884  1.00  0.00     0.309 C 
HETATM    2  N3  UNL     1      47.750 -81.041 -37.793  1.00  0.00    -0.054 N 
ATOM      3  H31 UNL     1      48.480 -81.580 -37.326  1.00  0.00     0.279 HD
ATOM      4  H32 UNL     1      48.355 -80.314 -38.177  1.00  0.00     0.279 HD
HETATM    5  C8  UNL     1      47.031 -81.805 -38.825  1.00  0.00     0.235 C 
HETATM    6  C9  UNL     1      47.412 -81.168 -40.145  1.00  0.00     0.031 C 
HETATM    7  C10 UNL     1      46.579 -79.899 -40.261  1.00  0.00     0.028 C 
HETATM    8  C11 UNL     1      47.131 -78.785 -39.482  1.00  0.00    -0.030 C 
HETATM    9  C12 UNL     1      47.158 -78.460 -38.198  1.00  0.00    -0.018 C 
HETATM   10  C13 UNL     1      46.674 -79.017 -36.936  1.00  0.00     0.014 C 
HETATM   11  C14 UNL     1      45.284 -78.586 -36.545  1.00  0.00     0.023 C 
HETATM   12  C15 UNL     1      47.605 -78.508 -35.825  1.00  0.00     0.023 C 
ENDROOT
BRANCH   1  13
HETATM   13  N2  UNL     1      47.110 -80.930 -35.535  1.00  0.00    -0.104 NA
BRANCH  13  14
HETATM   14  N1  UNL     1      46.654 -82.189 -35.190  1.00  0.00    -0.271 N 
HETATM   15  C6  UNL     1      47.374 -83.390 -35.371  1.00  0.00     0.242 C 
HETATM   16  O1  UNL     1      48.516 -83.384 -35.869  1.00  0.00    -0.271 OA
ATOM     17  H1  UNL     1      45.726 -82.255 -34.772  1.00  0.00     0.185 HD
BRANCH  15  18
HETATM   18  C5  UNL     1      46.726 -84.671 -34.945  1.00  0.00     0.178 C 
BRANCH  18  19
HETATM   19  S1  UNL     1      46.990 -85.944 -36.232  1.00  0.00    -0.155 SA
BRANCH  19  20
HETATM   20  C3  UNL     1      45.781 -85.729 -37.571  1.00  0.00     0.043 C 
HETATM   21  C4  UNL     1      44.980 -86.972 -37.833  1.00  0.00     0.021 C 
BRANCH  20  22
HETATM   22  C2  UNL     1      46.522 -85.385 -38.871  1.00  0.00     0.010 C 
HETATM   23  C1  UNL     1      48.022 -85.506 -38.702  1.00  0.00     0.006 C 
ENDBRANCH  20  22
ENDBRANCH  19  20
ENDBRANCH  18  19
ENDBRANCH  15  18
ENDBRANCH  13  14
ENDBRANCH   1  13
TORSDOF 6
ENDMDL
MODEL 5
REMARK VINA RESULT: -5.308501759      0.688      1.405
REMARK  6 active torsions:
REMARK  status: ('A' for Active; 'I' for Inactive)
REMARK    1  A    between atoms: C2_2  and  C3_3 
REMARK    2  A    between atoms: C3_3  and  S1_5 
REMARK    3  A    between atoms: S1_5  and  C5_6 
REMARK    4  A    between atoms: C5_6  and  C6_7 
REMARK       I    between atoms: C6_7  and  N1_9 
REMARK    5  A    between atoms: N1_9  and  N2_11 
REMARK    6  A    between atoms: N2_11  and  C7_12 
ROOT
HETATM    1  C7  UNL     1      47.348 -80.349 -37.792  1.00  0.00     0.309 C 
HETATM    2  N3  UNL     1      46.535 -81.390 -38.390  1.00  0.00    -0.054 N 
ATOM      3  H31 UNL     1      46.253 -81.182 -39.348  1.00  0.00     0.279 HD
ATOM      4  H32 UNL     1      45.598 -81.449 -37.991  1.00  0.00     0.279 HD
HETATM    5  C8  UNL     1      47.302 -82.641 -38.266  1.00  0.00     0.235 C 
HETATM    6  C9  UNL     1      46.408 -83.592 -37.497  1.00  0.00     0.031 C 
HETATM    7  C10 UNL     1      46.510 -83.184 -36.035  1.00  0.00     0.028 C 
HETATM    8  C11 UNL     1      45.674 -82.022 -35.709  1.00  0.00    -0.030 C 
HETATM    9  C12 UNL     1      45.761 -80.717 -35.915  1.00  0.00    -0.018 C 
HETATM   10  C13 UNL     1      46.694 -79.786 -36.548  1.00  0.00     0.014 C 
HETATM   11  C14 UNL     1      47.769 -79.251 -35.639  1.00  0.00     0.023 C 
HETATM   12  C15 UNL     1      45.881 -78.566 -37.009  1.00  0.00     0.023 C 
ENDROOT
BRANCH   1  13
HETATM   13  N2  UNL     1      47.494 -79.278 -38.765  1.00  0.00    -0.104 NA
BRANCH  13  14
HETATM   14  N1  UNL     1      46.994 -79.593 -40.015  1.00  0.00    -0.271 N 
HETATM   15  C6  UNL     1      46.400 -78.672 -40.906  1.00  0.00     0.242 C 
HETATM   16  O1  UNL     1      46.293 -77.467 -40.607  1.00  0.00    -0.271 OA
ATOM     17  H1  UNL     1      47.058 -80.565 -40.316  1.00  0.00     0.185 HD
BRANCH  15  18
HETATM   18  C5  UNL     1      45.904 -79.186 -42.222  1.00  0.00     0.178 C 
BRANCH  18  19
HETATM   19  S1  UNL     1      46.742 -80.763 -42.615  1.00  0.00    -0.155 SA
BRANCH  19  20
HETATM   20  C3  UNL     1      47.529 -80.656 -44.249  1.00  0.00     0.043 C 
HETATM   21  C4  UNL     1      46.629 -81.121 -45.358  1.00  0.00     0.021 C 
BRANCH  20  22
HETATM   22  C2  UNL     1      48.775 -81.552 -44.270  1.00  0.00     0.010 C 
HETATM   23  C1  UNL     1      49.120 -82.052 -42.883  1.00  0.00     0.006 C 
ENDBRANCH  20  22
ENDBRANCH  19  20
ENDBRANCH  18  19
ENDBRANCH  15  18
ENDBRANCH  13  14
ENDBRANCH   1  13
TORSDOF 6
ENDMDL
