MODEL 1
REMARK VINA RESULT: -5.235624666      0.000      0.000
REMARK  8 active torsions:
REMARK  status: ('A' for Active; 'I' for Inactive)
REMARK    1  A    between atoms: C2_2  and  O1_3 
REMARK    2  A    between atoms: C2_2  and  C3_5 
REMARK    3  A    between atoms: C3_5  and  C4_6 
REMARK    4  A    between atoms: C4_6  and  C6_8 
REMARK    5  A    between atoms: C6_8  and  C8_10 
REMARK    6  A    between atoms: C8_10  and  C9_12 
REMARK    7  A    between atoms: C13_16  and  O3_18 
REMARK    8  A    between atoms: C16_21  and  O4_23 
ROOT
HETATM    1  C9  UNL     1      49.737 -78.467 -36.687  1.00  0.00     0.048 C 
HETATM    2  C10 UNL     1      50.352 -79.197 -37.834  1.00  0.00     0.026 C 
HETATM    3  C11 UNL     1      49.756 -76.982 -36.951  1.00  0.00     0.023 C 
HETATM    4  C12 UNL     1      51.103 -76.381 -37.039  1.00  0.00     0.038 C 
HETATM    5  C13 UNL     1      52.090 -76.839 -36.018  1.00  0.00     0.057 C 
HETATM    6  C14 UNL     1      53.474 -76.770 -36.652  1.00  0.00     0.045 C 
HETATM    7  C15 UNL     1      51.905 -78.189 -35.476  1.00  0.00     0.076 C 
HETATM    8  C16 UNL     1      50.541 -78.763 -35.436  1.00  0.00     0.071 C 
HETATM    9  C17 UNL     1      50.715 -80.282 -35.298  1.00  0.00     0.047 C 
ENDROOT
BRANCH   1  10
HETATM   10  C8  UNL     1      48.307 -78.811 -36.456  1.00  0.00     0.142 C 
HETATM   11  O2  UNL     1      47.651 -78.071 -35.700  1.00  0.00    -0.297 OA
BRANCH  10  12
HETATM   12  C6  UNL     1      47.577 -79.935 -37.026  1.00  0.00     0.056 C 
HETATM   13  C7  UNL     1      47.164 -80.985 -36.032  1.00  0.00     0.018 C 
BRANCH  12  14
HETATM   14  C4  UNL     1      46.346 -79.545 -37.803  1.00  0.00    -0.005 C 
HETATM   15  C5  UNL     1      45.076 -79.885 -37.104  1.00  0.00     0.011 C 
BRANCH  14  16
HETATM   16  C3  UNL     1      46.313 -79.966 -39.217  1.00  0.00     0.036 C 
BRANCH  16  17
HETATM   17  C2  UNL     1      46.820 -78.862 -40.112  1.00  0.00     0.114 C 
HETATM   18  C1  UNL     1      45.978 -78.821 -41.397  1.00  0.00     0.039 C 
BRANCH  17  19
HETATM   19  O1  UNL     1      46.757 -77.607 -39.528  1.00  0.00    -0.396 OA
ATOM     20  H1  UNL     1      46.037 -77.615 -38.907  1.00  0.00     0.210 HD
ENDBRANCH  17  19
ENDBRANCH  16  17
ENDBRANCH  14  16
ENDBRANCH  12  14
ENDBRANCH  10  12
ENDBRANCH   1  10
BRANCH   8  21
HETATM   21  O4  UNL     1      49.890 -78.331 -34.294  1.00  0.00    -0.389 OA
ATOM     22  H4  UNL     1      50.286 -77.544 -33.939  1.00  0.00     0.210 HD
ENDBRANCH   8  21
BRANCH   5  23
HETATM   23  O3  UNL     1      52.132 -75.906 -34.954  1.00  0.00    -0.390 OA
ATOM     24  H3  UNL     1      52.997 -75.914 -34.561  1.00  0.00     0.210 HD
ENDBRANCH   5  23
TORSDOF 8
ENDMDL
MODEL 2
REMARK VINA RESULT: -5.114270578      2.107      6.347
REMARK  8 active torsions:
REMARK  status: ('A' for Active; 'I' for Inactive)
REMARK    1  A    between atoms: C2_2  and  O1_3 
REMARK    2  A    between atoms: C2_2  and  C3_5 
REMARK    3  A    between atoms: C3_5  and  C4_6 
REMARK    4  A    between atoms: C4_6  and  C6_8 
REMARK    5  A    between atoms: C6_8  and  C8_10 
REMARK    6  A    between atoms: C8_10  and  C9_12 
REMARK    7  A    between atoms: C13_16  and  O3_18 
REMARK    8  A    between atoms: C16_21  and  O4_23 
ROOT
HETATM    1  C9  UNL     1      48.213 -80.774 -36.259  1.00  0.00     0.048 C 
HETATM    2  C10 UNL     1      49.281 -81.452 -37.049  1.00  0.00     0.026 C 
HETATM    3  C11 UNL     1      48.191 -81.313 -34.850  1.00  0.00     0.023 C 
HETATM    4  C12 UNL     1      47.830 -82.741 -34.735  1.00  0.00     0.038 C 
HETATM    5  C13 UNL     1      46.693 -83.198 -35.587  1.00  0.00     0.057 C 
HETATM    6  C14 UNL     1      46.937 -84.661 -35.934  1.00  0.00     0.045 C 
HETATM    7  C15 UNL     1      46.467 -82.465 -36.838  1.00  0.00     0.076 C 
HETATM    8  C16 UNL     1      46.875 -81.045 -36.918  1.00  0.00     0.071 C 
HETATM    9  C17 UNL     1      46.973 -80.706 -38.412  1.00  0.00     0.047 C 
ENDROOT
BRANCH   1  10
HETATM   10  C8  UNL     1      48.414 -79.305 -36.117  1.00  0.00     0.142 C 
HETATM   11  O2  UNL     1      47.654 -78.690 -35.346  1.00  0.00    -0.297 OA
BRANCH  10  12
HETATM   12  C6  UNL     1      49.417 -78.493 -36.792  1.00  0.00     0.056 C 
HETATM   13  C7  UNL     1      48.860 -77.390 -37.649  1.00  0.00     0.018 C 
BRANCH  12  14
HETATM   14  C4  UNL     1      50.435 -77.873 -35.871  1.00  0.00    -0.005 C 
HETATM   15  C5  UNL     1      51.023 -76.613 -36.403  1.00  0.00     0.011 C 
BRANCH  14  16
HETATM   16  C3  UNL     1      51.479 -78.781 -35.355  1.00  0.00     0.036 C 
BRANCH  16  17
HETATM   17  C2  UNL     1      51.333 -78.967 -33.865  1.00  0.00     0.114 C 
HETATM   18  C1  UNL     1      52.484 -78.248 -33.146  1.00  0.00     0.039 C 
BRANCH  17  19
HETATM   19  O1  UNL     1      50.144 -78.463 -33.361  1.00  0.00    -0.396 OA
ATOM     20  H1  UNL     1      50.330 -77.612 -32.981  1.00  0.00     0.210 HD
ENDBRANCH  17  19
ENDBRANCH  16  17
ENDBRANCH  14  16
ENDBRANCH  12  14
ENDBRANCH  10  12
ENDBRANCH   1  10
BRANCH   8  21
HETATM   21  O4  UNL     1      45.874 -80.245 -36.394  1.00  0.00    -0.389 OA
ATOM     22  H4  UNL     1      45.718 -79.479 -36.933  1.00  0.00     0.210 HD
ENDBRANCH   8  21
BRANCH   5  23
HETATM   23  O3  UNL     1      45.502 -83.200 -34.822  1.00  0.00    -0.390 OA
ATOM     24  H3  UNL     1      44.888 -83.820 -35.196  1.00  0.00     0.210 HD
ENDBRANCH   5  23
TORSDOF 8
ENDMDL
MODEL 3
REMARK VINA RESULT: -5.045601807      2.150      5.772
REMARK  8 active torsions:
REMARK  status: ('A' for Active; 'I' for Inactive)
REMARK    1  A    between atoms: C2_2  and  O1_3 
REMARK    2  A    between atoms: C2_2  and  C3_5 
REMARK    3  A    between atoms: C3_5  and  C4_6 
REMARK    4  A    between atoms: C4_6  and  C6_8 
REMARK    5  A    between atoms: C6_8  and  C8_10 
REMARK    6  A    between atoms: C8_10  and  C9_12 
REMARK    7  A    between atoms: C13_16  and  O3_18 
REMARK    8  A    between atoms: C16_21  and  O4_23 
ROOT
HETATM    1  C9  UNL     1      47.973 -80.003 -36.869  1.00  0.00     0.048 C 
HETATM    2  C10 UNL     1      47.538 -78.769 -36.152  1.00  0.00     0.026 C 
HETATM    3  C11 UNL     1      48.975 -79.651 -37.940  1.00  0.00     0.023 C 
HETATM    4  C12 UNL     1      48.450 -78.806 -39.032  1.00  0.00     0.038 C 
HETATM    5  C13 UNL     1      47.098 -79.170 -39.548  1.00  0.00     0.057 C 
HETATM    6  C14 UNL     1      46.428 -77.889 -40.030  1.00  0.00     0.045 C 
HETATM    7  C15 UNL     1      46.188 -79.834 -38.609  1.00  0.00     0.076 C 
HETATM    8  C16 UNL     1      46.760 -80.646 -37.511  1.00  0.00     0.071 C 
HETATM    9  C17 UNL     1      45.652 -80.792 -36.458  1.00  0.00     0.047 C 
ENDROOT
BRANCH   1  10
HETATM   10  C8  UNL     1      48.660 -80.992 -35.993  1.00  0.00     0.142 C 
HETATM   11  O2  UNL     1      49.478 -81.765 -36.526  1.00  0.00    -0.297 OA
BRANCH  10  12
HETATM   12  C6  UNL     1      48.478 -81.161 -34.557  1.00  0.00     0.056 C 
HETATM   13  C7  UNL     1      48.076 -82.546 -34.134  1.00  0.00     0.018 C 
BRANCH  12  14
HETATM   14  C4  UNL     1      49.676 -80.770 -33.732  1.00  0.00    -0.005 C 
HETATM   15  C5  UNL     1      49.843 -81.598 -32.506  1.00  0.00     0.011 C 
BRANCH  14  16
HETATM   16  C3  UNL     1      49.815 -79.331 -33.434  1.00  0.00     0.036 C 
BRANCH  16  17
HETATM   17  C2  UNL     1      51.163 -78.822 -33.884  1.00  0.00     0.114 C 
HETATM   18  C1  UNL     1      51.006 -78.077 -35.219  1.00  0.00     0.039 C 
BRANCH  17  19
HETATM   19  O1  UNL     1      51.751 -77.949 -32.983  1.00  0.00    -0.396 OA
ATOM     20  H1  UNL     1      52.383 -78.444 -32.473  1.00  0.00     0.210 HD
ENDBRANCH  17  19
ENDBRANCH  16  17
ENDBRANCH  14  16
ENDBRANCH  12  14
ENDBRANCH  10  12
ENDBRANCH   1  10
BRANCH   8  21
HETATM   21  O4  UNL     1      47.039 -81.919 -37.974  1.00  0.00    -0.389 OA
ATOM     22  H4  UNL     1      47.166 -81.932 -38.915  1.00  0.00     0.210 HD
ENDBRANCH   8  21
BRANCH   5  23
HETATM   23  O3  UNL     1      47.237 -79.966 -40.710  1.00  0.00    -0.390 OA
ATOM     24  H3  UNL     1      47.546 -80.830 -40.466  1.00  0.00     0.210 HD
ENDBRANCH   5  23
TORSDOF 8
ENDMDL
MODEL 4
REMARK VINA RESULT: -4.993606692      3.194      5.789
REMARK  8 active torsions:
REMARK  status: ('A' for Active; 'I' for Inactive)
REMARK    1  A    between atoms: C2_2  and  O1_3 
REMARK    2  A    between atoms: C2_2  and  C3_5 
REMARK    3  A    between atoms: C3_5  and  C4_6 
REMARK    4  A    between atoms: C4_6  and  C6_8 
REMARK    5  A    between atoms: C6_8  and  C8_10 
REMARK    6  A    between atoms: C8_10  and  C9_12 
REMARK    7  A    between atoms: C13_16  and  O3_18 
REMARK    8  A    between atoms: C16_21  and  O4_23 
ROOT
HETATM    1  C9  UNL     1      47.133 -82.338 -36.464  1.00  0.00     0.048 C 
HETATM    2  C10 UNL     1      45.803 -82.264 -35.794  1.00  0.00     0.026 C 
HETATM    3  C11 UNL     1      46.995 -82.988 -37.818  1.00  0.00     0.023 C 
HETATM    4  C12 UNL     1      46.561 -84.400 -37.791  1.00  0.00     0.038 C 
HETATM    5  C13 UNL     1      47.207 -85.261 -36.757  1.00  0.00     0.057 C 
HETATM    6  C14 UNL     1      46.201 -86.334 -36.357  1.00  0.00     0.045 C 
HETATM    7  C15 UNL     1      47.672 -84.595 -35.536  1.00  0.00     0.076 C 
HETATM    8  C16 UNL     1      48.065 -83.170 -35.605  1.00  0.00     0.071 C 
HETATM    9  C17 UNL     1      48.026 -82.640 -34.164  1.00  0.00     0.047 C 
ENDROOT
BRANCH   1  10
HETATM   10  C8  UNL     1      47.747 -81.007 -36.725  1.00  0.00     0.142 C 
HETATM   11  O2  UNL     1      48.718 -80.961 -37.503  1.00  0.00    -0.297 OA
BRANCH  10  12
HETATM   12  C6  UNL     1      47.332 -79.729 -36.161  1.00  0.00     0.056 C 
HETATM   13  C7  UNL     1      48.462 -78.837 -35.726  1.00  0.00     0.018 C 
BRANCH  12  14
HETATM   14  C4  UNL     1      46.440 -78.915 -37.063  1.00  0.00    -0.005 C 
HETATM   15  C5  UNL     1      45.197 -78.444 -36.393  1.00  0.00     0.011 C 
BRANCH  14  16
HETATM   16  C3  UNL     1      46.152 -79.500 -38.387  1.00  0.00     0.036 C 
BRANCH  16  17
HETATM   17  C2  UNL     1      46.950 -78.802 -39.461  1.00  0.00     0.114 C 
HETATM   18  C1  UNL     1      46.799 -79.566 -40.786  1.00  0.00     0.039 C 
BRANCH  17  19
HETATM   19  O1  UNL     1      46.547 -77.494 -39.684  1.00  0.00    -0.396 OA
ATOM     20  H1  UNL     1      45.634 -77.427 -39.428  1.00  0.00     0.210 HD
ENDBRANCH  17  19
ENDBRANCH  16  17
ENDBRANCH  14  16
ENDBRANCH  12  14
ENDBRANCH  10  12
ENDBRANCH   1  10
BRANCH   8  21
HETATM   21  O4  UNL     1      49.378 -83.072 -36.029  1.00  0.00    -0.389 OA
ATOM     22  H4  UNL     1      49.886 -83.835 -35.781  1.00  0.00     0.210 HD
ENDBRANCH   8  21
BRANCH   5  23
HETATM   23  O3  UNL     1      48.282 -85.973 -37.343  1.00  0.00    -0.390 OA
ATOM     24  H3  UNL     1      48.973 -86.086 -36.701  1.00  0.00     0.210 HD
ENDBRANCH   5  23
TORSDOF 8
ENDMDL
MODEL 5
REMARK VINA RESULT: -4.982571109      2.899      5.785
REMARK  8 active torsions:
REMARK  status: ('A' for Active; 'I' for Inactive)
REMARK    1  A    between atoms: C2_2  and  O1_3 
REMARK    2  A    between atoms: C2_2  and  C3_5 
REMARK    3  A    between atoms: C3_5  and  C4_6 
REMARK    4  A    between atoms: C4_6  and  C6_8 
REMARK    5  A    between atoms: C6_8  and  C8_10 
REMARK    6  A    between atoms: C8_10  and  C9_12 
REMARK    7  A    between atoms: C13_16  and  O3_18 
REMARK    8  A    between atoms: C16_21  and  O4_23 
ROOT
HETATM    1  C9  UNL     1      47.749 -82.151 -35.994  1.00  0.00     0.048 C 
HETATM    2  C10 UNL     1      48.800 -82.738 -36.875  1.00  0.00     0.026 C 
HETATM    3  C11 UNL     1      48.340 -81.793 -34.654  1.00  0.00     0.023 C 
HETATM    4  C12 UNL     1      48.830 -82.939 -33.862  1.00  0.00     0.038 C 
HETATM    5  C13 UNL     1      47.952 -84.145 -33.845  1.00  0.00     0.057 C 
HETATM    6  C14 UNL     1      48.850 -85.367 -33.694  1.00  0.00     0.045 C 
HETATM    7  C15 UNL     1      47.092 -84.354 -35.015  1.00  0.00     0.076 C 
HETATM    8  C16 UNL     1      46.650 -83.178 -35.797  1.00  0.00     0.071 C 
HETATM    9  C17 UNL     1      46.209 -83.711 -37.168  1.00  0.00     0.047 C 
ENDROOT
BRANCH   1  10
HETATM   10  C8  UNL     1      47.164 -80.887 -36.520  1.00  0.00     0.142 C 
HETATM   11  O2  UNL     1      46.488 -80.194 -35.737  1.00  0.00    -0.297 OA
BRANCH  10  12
HETATM   12  C6  UNL     1      47.295 -80.361 -37.873  1.00  0.00     0.056 C 
HETATM   13  C7  UNL     1      46.006 -80.279 -38.642  1.00  0.00     0.018 C 
BRANCH  12  14
HETATM   14  C4  UNL     1      47.950 -79.007 -37.949  1.00  0.00    -0.005 C 
HETATM   15  C5  UNL     1      47.551 -78.226 -39.152  1.00  0.00     0.011 C 
BRANCH  14  16
HETATM   16  C3  UNL     1      49.413 -78.984 -37.753  1.00  0.00     0.036 C 
BRANCH  16  17
HETATM   17  C2  UNL     1      49.771 -78.192 -36.519  1.00  0.00     0.114 C 
HETATM   18  C1  UNL     1      50.234 -76.786 -36.933  1.00  0.00     0.039 C 
BRANCH  17  19
HETATM   19  O1  UNL     1      48.714 -78.042 -35.635  1.00  0.00    -0.396 OA
ATOM     20  H1  UNL     1      47.946 -78.434 -36.036  1.00  0.00     0.210 HD
ENDBRANCH  17  19
ENDBRANCH  16  17
ENDBRANCH  14  16
ENDBRANCH  12  14
ENDBRANCH  10  12
ENDBRANCH   1  10
BRANCH   8  21
HETATM   21  O4  UNL     1      45.529 -82.623 -35.206  1.00  0.00    -0.389 OA
ATOM     22  H4  UNL     1      45.374 -82.981 -34.340  1.00  0.00     0.210 HD
ENDBRANCH   8  21
BRANCH   5  23
HETATM   23  O3  UNL     1      47.157 -84.132 -32.673  1.00  0.00    -0.390 OA
ATOM     24  H3  UNL     1      46.279 -84.425 -32.884  1.00  0.00     0.210 HD
ENDBRANCH   5  23
TORSDOF 8
ENDMDL
