MODEL 1
REMARK VINA RESULT: -7.498300119      0.000      0.000
REMARK  6 active torsions:
REMARK  status: ('A' for Active; 'I' for Inactive)
REMARK    1  A    between atoms: C2_2  and  C4_4 
REMARK    2  A    between atoms: C4_4  and  N1_5 
REMARK       I    between atoms: C5_7  and  N3_9 
REMARK    3  A    between atoms: N3_9  and  C6_10 
REMARK    4  A    between atoms: C7_13  and  C8_14 
REMARK    5  A    between atoms: C14_20  and  O1_21 
REMARK    6  A    between atoms: O1_21  and  C15_22 
ROOT
HETATM    1  C6  UNL     1      22.320  33.616  -7.559  1.00  0.00     0.262 A 
HETATM    2  N4  UNL     1      22.597  32.243  -7.480  1.00  0.00    -0.313 N 
ATOM      3  H4  UNL     1      23.322  31.911  -6.844  1.00  0.00     0.170 HD
HETATM    4  C7  UNL     1      21.924  31.368  -8.227  1.00  0.00     0.081 A 
HETATM    5  C14 UNL     1      20.931  31.801  -9.095  1.00  0.00     0.112 A 
HETATM    6  C18 UNL     1      20.646  33.145  -9.191  1.00  0.00     0.131 A 
HETATM    7  N5  UNL     1      21.339  33.986  -8.431  1.00  0.00    -0.324 N 
ATOM      8  H5  UNL     1      21.122  34.981  -8.505  1.00  0.00     0.169 HD
ENDROOT
BRANCH   1   9
HETATM    9  N3  UNL     1      22.862  34.388  -6.843  1.00  0.00    -0.338 NA
HETATM   10  C5  UNL     1      23.441  35.234  -6.055  1.00  0.00     0.266 C 
HETATM   11  N1  UNL     1      24.341  34.820  -5.169  1.00  0.00    -0.353 N 
HETATM   12  N2  UNL     1      23.165  36.648  -6.090  1.00  0.00    -0.049 NA
ATOM     13  H1  UNL     1      24.558  33.825  -5.116  1.00  0.00     0.163 HD
BRANCH  11  14
HETATM   14  C4  UNL     1      25.021  35.731  -4.279  1.00  0.00     0.127 C 
BRANCH  14  15
HETATM   15  C2  UNL     1      26.113  35.014  -3.500  1.00  0.00    -0.005 C 
HETATM   16  C1  UNL     1      25.535  33.752  -2.954  1.00  0.00     0.011 C 
HETATM   17  C3  UNL     1      26.549  35.979  -2.399  1.00  0.00     0.011 C 
ENDBRANCH  14  15
ENDBRANCH  11  14
ENDBRANCH   1   9
BRANCH   4  18
HETATM   18  C8  UNL     1      22.284  29.948  -8.223  1.00  0.00    -0.006 A 
HETATM   19  C9  UNL     1      23.289  29.533  -9.079  1.00  0.00     0.014 A 
HETATM   20  C10 UNL     1      23.640  28.190  -9.101  1.00  0.00     0.001 A 
HETATM   21  C11 UNL     1      23.008  27.295  -8.291  1.00  0.00     0.000 A 
HETATM   22  C12 UNL     1      21.997  27.697  -7.424  1.00  0.00     0.001 A 
HETATM   23  C13 UNL     1      21.652  29.059  -7.416  1.00  0.00     0.014 A 
ENDBRANCH   4  18
BRANCH   5  24
HETATM   24  O1  UNL     1      20.272  30.870  -9.816  1.00  0.00    -0.343 OA
BRANCH  24  25
HETATM   25  C15 UNL     1      18.960  30.432  -9.782  1.00  0.00     0.121 C 
HETATM   26  C16 UNL     1      18.885  29.022 -10.249  1.00  0.00     0.040 C 
HETATM   27  C17 UNL     1      18.366  30.571  -8.365  1.00  0.00     0.040 C 
ENDBRANCH  24  25
ENDBRANCH   5  24
TORSDOF 6
ENDMDL
MODEL 2
REMARK VINA RESULT: -7.428355307      1.680      2.129
REMARK  6 active torsions:
REMARK  status: ('A' for Active; 'I' for Inactive)
REMARK    1  A    between atoms: C2_2  and  C4_4 
REMARK    2  A    between atoms: C4_4  and  N1_5 
REMARK       I    between atoms: C5_7  and  N3_9 
REMARK    3  A    between atoms: N3_9  and  C6_10 
REMARK    4  A    between atoms: C7_13  and  C8_14 
REMARK    5  A    between atoms: C14_20  and  O1_21 
REMARK    6  A    between atoms: O1_21  and  C15_22 
ROOT
HETATM    1  C6  UNL     1      22.461  33.327  -8.667  1.00  0.00     0.262 A 
HETATM    2  N4  UNL     1      22.402  32.079  -8.028  1.00  0.00    -0.313 N 
ATOM      3  H4  UNL     1      22.640  32.007  -7.039  1.00  0.00     0.170 HD
HETATM    4  C7  UNL     1      22.037  30.987  -8.700  1.00  0.00     0.081 A 
HETATM    5  C14 UNL     1      21.706  31.066 -10.045  1.00  0.00     0.112 A 
HETATM    6  C18 UNL     1      21.762  32.280 -10.693  1.00  0.00     0.131 A 
HETATM    7  N5  UNL     1      22.130  33.346  -9.990  1.00  0.00    -0.324 N 
ATOM      8  H5  UNL     1      22.168  34.244 -10.475  1.00  0.00     0.169 HD
ENDROOT
BRANCH   1   9
HETATM    9  N3  UNL     1      22.711  34.311  -8.058  1.00  0.00    -0.338 NA
HETATM   10  C5  UNL     1      22.968  35.390  -7.393  1.00  0.00     0.266 C 
HETATM   11  N1  UNL     1      23.335  35.322  -6.118  1.00  0.00    -0.353 N 
HETATM   12  N2  UNL     1      22.889  36.705  -7.978  1.00  0.00    -0.049 NA
ATOM     13  H1  UNL     1      23.400  34.408  -5.672  1.00  0.00     0.163 HD
BRANCH  11  14
HETATM   14  C4  UNL     1      23.646  36.499  -5.342  1.00  0.00     0.127 C 
BRANCH  14  15
HETATM   15  C2  UNL     1      24.864  36.264  -4.463  1.00  0.00    -0.005 C 
HETATM   16  C1  UNL     1      24.996  34.794  -4.242  1.00  0.00     0.011 C 
HETATM   17  C3  UNL     1      24.603  37.026  -3.165  1.00  0.00     0.011 C 
ENDBRANCH  14  15
ENDBRANCH  11  14
ENDBRANCH   1   9
BRANCH   4  18
HETATM   18  C8  UNL     1      22.077  29.669  -8.063  1.00  0.00    -0.006 A 
HETATM   19  C9  UNL     1      23.294  29.217  -7.585  1.00  0.00     0.014 A 
HETATM   20  C10 UNL     1      23.358  27.966  -6.986  1.00  0.00     0.001 A 
HETATM   21  C11 UNL     1      22.240  27.196  -6.867  1.00  0.00     0.000 A 
HETATM   22  C12 UNL     1      21.008  27.637  -7.341  1.00  0.00     0.001 A 
HETATM   23  C13 UNL     1      20.962  28.904  -7.946  1.00  0.00     0.014 A 
ENDBRANCH   4  18
BRANCH   5  24
HETATM   24  O1  UNL     1      21.330  29.931 -10.672  1.00  0.00    -0.343 OA
BRANCH  24  25
HETATM   25  C15 UNL     1      21.889  29.226 -11.723  1.00  0.00     0.121 C 
HETATM   26  C16 UNL     1      22.407  27.919 -11.237  1.00  0.00     0.040 C 
HETATM   27  C17 UNL     1      20.866  29.021 -12.859  1.00  0.00     0.040 C 
ENDBRANCH  24  25
ENDBRANCH   5  24
TORSDOF 6
ENDMDL
MODEL 3
REMARK VINA RESULT: -7.360258235      2.176      3.066
REMARK  6 active torsions:
REMARK  status: ('A' for Active; 'I' for Inactive)
REMARK    1  A    between atoms: C2_2  and  C4_4 
REMARK    2  A    between atoms: C4_4  and  N1_5 
REMARK       I    between atoms: C5_7  and  N3_9 
REMARK    3  A    between atoms: N3_9  and  C6_10 
REMARK    4  A    between atoms: C7_13  and  C8_14 
REMARK    5  A    between atoms: C14_20  and  O1_21 
REMARK    6  A    between atoms: O1_21  and  C15_22 
ROOT
HETATM    1  C6  UNL     1      20.191  32.355  -8.898  1.00  0.00     0.262 A 
HETATM    2  N4  UNL     1      21.013  31.278  -8.532  1.00  0.00    -0.313 N 
ATOM      3  H4  UNL     1      21.948  31.459  -8.167  1.00  0.00     0.170 HD
HETATM    4  C7  UNL     1      20.584  30.022  -8.656  1.00  0.00     0.081 A 
HETATM    5  C14 UNL     1      19.313  29.757  -9.147  1.00  0.00     0.112 A 
HETATM    6  C18 UNL     1      18.492  30.799  -9.516  1.00  0.00     0.131 A 
HETATM    7  N5  UNL     1      18.955  32.038  -9.378  1.00  0.00    -0.324 N 
ATOM      8  H5  UNL     1      18.342  32.806  -9.652  1.00  0.00     0.169 HD
ENDROOT
BRANCH   1   9
HETATM    9  N3  UNL     1      20.538  33.473  -8.719  1.00  0.00    -0.338 NA
HETATM   10  C5  UNL     1      20.908  34.694  -8.511  1.00  0.00     0.266 C 
HETATM   11  N1  UNL     1      22.155  34.966  -8.142  1.00  0.00    -0.353 N 
HETATM   12  N2  UNL     1      20.018  35.817  -8.672  1.00  0.00    -0.049 NA
ATOM     13  H1  UNL     1      22.810  34.195  -8.016  1.00  0.00     0.163 HD
BRANCH  11  14
HETATM   14  C4  UNL     1      22.614  36.315  -7.913  1.00  0.00     0.127 C 
BRANCH  14  15
HETATM   15  C2  UNL     1      23.323  36.426  -6.571  1.00  0.00    -0.005 C 
HETATM   16  C1  UNL     1      23.677  35.049  -6.122  1.00  0.00     0.011 C 
HETATM   17  C3  UNL     1      22.336  37.111  -5.627  1.00  0.00     0.011 C 
ENDBRANCH  14  15
ENDBRANCH  11  14
ENDBRANCH   1   9
BRANCH   4  18
HETATM   18  C8  UNL     1      21.477  28.895  -8.375  1.00  0.00    -0.006 A 
HETATM   19  C9  UNL     1      22.474  28.615  -9.292  1.00  0.00     0.014 A 
HETATM   20  C10 UNL     1      23.326  27.546  -9.052  1.00  0.00     0.001 A 
HETATM   21  C11 UNL     1      23.186  26.786  -7.930  1.00  0.00     0.000 A 
HETATM   22  C12 UNL     1      22.190  27.056  -6.997  1.00  0.00     0.001 A 
HETATM   23  C13 UNL     1      21.335  28.141  -7.256  1.00  0.00     0.014 A 
ENDBRANCH   4  18
BRANCH   5  24
HETATM   24  O1  UNL     1      18.926  28.467  -9.238  1.00  0.00    -0.343 OA
BRANCH  24  25
HETATM   25  C15 UNL     1      18.612  27.670 -10.324  1.00  0.00     0.121 C 
HETATM   26  C16 UNL     1      19.676  26.653 -10.531  1.00  0.00     0.040 C 
HETATM   27  C17 UNL     1      17.238  26.995 -10.136  1.00  0.00     0.040 C 
ENDBRANCH  24  25
ENDBRANCH   5  24
TORSDOF 6
ENDMDL
MODEL 4
REMARK VINA RESULT: -7.344579029      1.835      2.578
REMARK  6 active torsions:
REMARK  status: ('A' for Active; 'I' for Inactive)
REMARK    1  A    between atoms: C2_2  and  C4_4 
REMARK    2  A    between atoms: C4_4  and  N1_5 
REMARK       I    between atoms: C5_7  and  N3_9 
REMARK    3  A    between atoms: N3_9  and  C6_10 
REMARK    4  A    between atoms: C7_13  and  C8_14 
REMARK    5  A    between atoms: C14_20  and  O1_21 
REMARK    6  A    between atoms: O1_21  and  C15_22 
ROOT
HETATM    1  C6  UNL     1      22.607  33.282  -8.761  1.00  0.00     0.262 A 
HETATM    2  N4  UNL     1      21.754  32.265  -8.307  1.00  0.00    -0.313 N 
ATOM      3  H4  UNL     1      21.477  32.241  -7.325  1.00  0.00     0.170 HD
HETATM    4  C7  UNL     1      21.302  31.331  -9.143  1.00  0.00     0.081 A 
HETATM    5  C14 UNL     1      21.666  31.350 -10.482  1.00  0.00     0.112 A 
HETATM    6  C18 UNL     1      22.506  32.336 -10.949  1.00  0.00     0.131 A 
HETATM    7  N5  UNL     1      22.936  33.249 -10.084  1.00  0.00    -0.324 N 
ATOM      8  H5  UNL     1      23.558  33.979 -10.436  1.00  0.00     0.169 HD
ENDROOT
BRANCH   1   9
HETATM    9  N3  UNL     1      22.950  34.156  -8.040  1.00  0.00    -0.338 NA
HETATM   10  C5  UNL     1      23.311  35.115  -7.251  1.00  0.00     0.266 C 
HETATM   11  N1  UNL     1      23.772  34.848  -6.034  1.00  0.00    -0.353 N 
HETATM   12  N2  UNL     1      23.249  36.504  -7.633  1.00  0.00    -0.049 NA
ATOM     13  H1  UNL     1      23.828  33.876  -5.731  1.00  0.00     0.163 HD
BRANCH  11  14
HETATM   14  C4  UNL     1      24.199  35.886  -5.127  1.00  0.00     0.127 C 
BRANCH  14  15
HETATM   15  C2  UNL     1      25.531  35.531  -4.484  1.00  0.00    -0.005 C 
HETATM   16  C1  UNL     1      25.305  34.378  -3.565  1.00  0.00     0.011 C 
HETATM   17  C3  UNL     1      25.989  36.786  -3.742  1.00  0.00     0.011 C 
ENDBRANCH  14  15
ENDBRANCH  11  14
ENDBRANCH   1   9
BRANCH   4  18
HETATM   18  C8  UNL     1      20.498  30.210  -8.649  1.00  0.00    -0.006 A 
HETATM   19  C9  UNL     1      21.164  29.111  -8.138  1.00  0.00     0.014 A 
HETATM   20  C10 UNL     1      20.424  28.033  -7.673  1.00  0.00     0.001 A 
HETATM   21  C11 UNL     1      19.062  28.057  -7.717  1.00  0.00     0.000 A 
HETATM   22  C12 UNL     1      18.377  29.156  -8.226  1.00  0.00     0.001 A 
HETATM   23  C13 UNL     1      19.142  30.238  -8.694  1.00  0.00     0.014 A 
ENDBRANCH   4  18
BRANCH   5  24
HETATM   24  O1  UNL     1      21.167  30.387 -11.287  1.00  0.00    -0.343 OA
BRANCH  24  25
HETATM   25  C15 UNL     1      21.775  29.510 -12.167  1.00  0.00     0.121 C 
HETATM   26  C16 UNL     1      22.312  28.339 -11.424  1.00  0.00     0.040 C 
HETATM   27  C17 UNL     1      20.792  29.058 -13.266  1.00  0.00     0.040 C 
ENDBRANCH  24  25
ENDBRANCH   5  24
TORSDOF 6
ENDMDL
MODEL 5
REMARK VINA RESULT: -7.270895953      2.829      7.461
REMARK  6 active torsions:
REMARK  status: ('A' for Active; 'I' for Inactive)
REMARK    1  A    between atoms: C2_2  and  C4_4 
REMARK    2  A    between atoms: C4_4  and  N1_5 
REMARK       I    between atoms: C5_7  and  N3_9 
REMARK    3  A    between atoms: N3_9  and  C6_10 
REMARK    4  A    between atoms: C7_13  and  C8_14 
REMARK    5  A    between atoms: C14_20  and  O1_21 
REMARK    6  A    between atoms: O1_21  and  C15_22 
ROOT
HETATM    1  C6  UNL     1      21.575  29.563  -8.400  1.00  0.00     0.262 A 
HETATM    2  N4  UNL     1      22.328  30.639  -7.905  1.00  0.00    -0.313 N 
ATOM      3  H4  UNL     1      23.224  30.460  -7.453  1.00  0.00     0.170 HD
HETATM    4  C7  UNL     1      21.884  31.891  -8.019  1.00  0.00     0.081 A 
HETATM    5  C14 UNL     1      20.668  32.153  -8.634  1.00  0.00     0.112 A 
HETATM    6  C18 UNL     1      19.910  31.112  -9.123  1.00  0.00     0.131 A 
HETATM    7  N5  UNL     1      20.386  29.877  -8.990  1.00  0.00    -0.324 N 
ATOM      8  H5  UNL     1      19.821  29.110  -9.356  1.00  0.00     0.169 HD
ENDROOT
BRANCH   1   9
HETATM    9  N3  UNL     1      21.999  28.458  -8.369  1.00  0.00    -0.338 NA
HETATM   10  C5  UNL     1      22.451  27.248  -8.326  1.00  0.00     0.266 C 
HETATM   11  N1  UNL     1      22.294  26.433  -9.364  1.00  0.00    -0.353 N 
HETATM   12  N2  UNL     1      23.149  26.716  -7.182  1.00  0.00    -0.049 NA
ATOM     13  H1  UNL     1      21.802  26.776 -10.189  1.00  0.00     0.163 HD
BRANCH  11  14
HETATM   14  C4  UNL     1      22.795  25.079  -9.364  1.00  0.00     0.127 C 
BRANCH  14  15
HETATM   15  C2  UNL     1      23.914  24.915 -10.380  1.00  0.00    -0.005 C 
HETATM   16  C1  UNL     1      23.522  25.647 -11.619  1.00  0.00     0.011 C 
HETATM   17  C3  UNL     1      24.057  23.412 -10.612  1.00  0.00     0.011 C 
ENDBRANCH  14  15
ENDBRANCH  11  14
ENDBRANCH   1   9
BRANCH   4  18
HETATM   18  C8  UNL     1      22.617  33.003  -7.410  1.00  0.00    -0.006 A 
HETATM   19  C9  UNL     1      22.966  32.894  -6.076  1.00  0.00     0.014 A 
HETATM   20  C10 UNL     1      23.652  33.940  -5.474  1.00  0.00     0.001 A 
HETATM   21  C11 UNL     1      23.981  35.055  -6.186  1.00  0.00     0.000 A 
HETATM   22  C12 UNL     1      23.639  35.178  -7.529  1.00  0.00     0.001 A 
HETATM   23  C13 UNL     1      22.942  34.111  -8.122  1.00  0.00     0.014 A 
ENDBRANCH   4  18
BRANCH   5  24
HETATM   24  O1  UNL     1      20.274  33.440  -8.735  1.00  0.00    -0.343 OA
BRANCH  24  25
HETATM   25  C15 UNL     1      19.152  34.103  -8.271  1.00  0.00     0.121 C 
HETATM   26  C16 UNL     1      19.286  34.367  -6.813  1.00  0.00     0.040 C 
HETATM   27  C17 UNL     1      18.926  35.417  -9.046  1.00  0.00     0.040 C 
ENDBRANCH  24  25
ENDBRANCH   5  24
TORSDOF 6
ENDMDL
