MODEL 1
REMARK VINA RESULT: -7.613529978      0.000      0.000
REMARK  8 active torsions:
REMARK  status: ('A' for Active; 'I' for Inactive)
REMARK    1  A    between atoms: C2_2  and  O1_3 
REMARK    2  A    between atoms: O1_3  and  C3_4 
REMARK    3  A    between atoms: C3_4  and  C4_5 
REMARK    4  A    between atoms: C3_4  and  N4_30 
REMARK    5  A    between atoms: C6_8  and  N1_9 
REMARK    6  A    between atoms: N1_9  and  C7_11 
REMARK    7  A    between atoms: C8_12  and  N2_13 
REMARK    8  A    between atoms: N2_13  and  C9_15 
ROOT
HETATM    1  C7  UNL     1     -51.694  20.653  29.542  1.00  0.00     0.120 A 
HETATM    2  C8  UNL     1     -53.038  20.873  29.791  1.00  0.00     0.114 A 
HETATM    3  C18 UNL     1     -53.043  21.992  28.987  1.00  0.00     0.252 A 
HETATM    4  O2  UNL     1     -53.848  22.877  28.595  1.00  0.00    -0.281 OA
HETATM    5  C19 UNL     1     -51.707  21.775  28.740  1.00  0.00     0.253 A 
HETATM    6  O3  UNL     1     -50.793  22.331  28.063  1.00  0.00    -0.281 OA
ENDROOT
BRANCH   1   7
HETATM    7  N1  UNL     1     -50.712  19.676  29.947  1.00  0.00    -0.331 N 
ATOM      8  H1  UNL     1     -50.632  18.766  29.494  1.00  0.00     0.168 HD
BRANCH   7   9
HETATM    9  C6  UNL     1     -49.926  20.038  30.943  1.00  0.00     0.149 A 
HETATM   10  S1  UNL     1     -49.637  21.590  31.577  1.00  0.00    -0.064 SA
HETATM   11  C5  UNL     1     -48.530  21.156  32.799  1.00  0.00     0.083 A 
HETATM   12  C4  UNL     1     -48.445  19.802  32.645  1.00  0.00     0.066 A 
HETATM   13  N3  UNL     1     -49.160  19.248  31.695  1.00  0.00    -0.336 N 
ATOM     14  H3  UNL     1     -49.131  18.240  31.538  1.00  0.00     0.168 HD
BRANCH  12  15
HETATM   15  C3  UNL     1     -47.536  18.954  33.561  1.00  0.00     0.269 C 
BRANCH  15  16
HETATM   16  O1  UNL     1     -46.454  18.517  32.823  1.00  0.00    -0.362 OA
BRANCH  16  17
HETATM   17  C2  UNL     1     -45.368  19.324  32.746  1.00  0.00     0.166 C 
HETATM   18  C1  UNL     1     -44.167  18.939  33.567  1.00  0.00     0.033 C 
ENDBRANCH  16  17
ENDBRANCH  15  16
BRANCH  15  19
HETATM   19  N4  UNL     1     -48.286  17.855  34.034  1.00  0.00    -0.391 N 
HETATM   20  C20 UNL     1     -47.599  16.647  34.324  1.00  0.00     0.145 C 
HETATM   21  C21 UNL     1     -49.297  18.181  34.959  1.00  0.00     0.145 C 
ENDBRANCH  15  19
ENDBRANCH  12  15
ENDBRANCH   7   9
ENDBRANCH   1   7
BRANCH   2  22
HETATM   22  N2  UNL     1     -54.041  20.228  30.558  1.00  0.00    -0.380 N 
ATOM     23  H2  UNL     1     -53.993  20.318  31.573  1.00  0.00     0.160 HD
BRANCH  22  24
HETATM   24  C9  UNL     1     -55.115  19.462  30.011  1.00  0.00     0.086 C 
HETATM   25  C10 UNL     1     -54.963  18.004  30.341  1.00  0.00     0.025 C 
HETATM   26  C11 UNL     1     -55.994  17.165  29.625  1.00  0.00     0.003 C 
HETATM   27  C12 UNL     1     -57.237  17.931  29.269  1.00  0.00     0.009 C 
HETATM   28  C13 UNL     1     -57.565  19.011  30.274  1.00  0.00    -0.043 C 
HETATM   29  C14 UNL     1     -57.963  18.422  31.613  1.00  0.00     0.015 C 
HETATM   30  C15 UNL     1     -58.775  19.753  29.743  1.00  0.00     0.015 C 
HETATM   31  C16 UNL     1     -56.443  20.017  30.403  1.00  0.00     0.012 C 
HETATM   32  C17 UNL     1     -56.365  20.500  31.834  1.00  0.00     0.012 C 
ENDBRANCH  22  24
ENDBRANCH   2  22
TORSDOF 8
ENDMDL
MODEL 2
REMARK VINA RESULT: -7.516346640      3.831      6.821
REMARK  8 active torsions:
REMARK  status: ('A' for Active; 'I' for Inactive)
REMARK    1  A    between atoms: C2_2  and  O1_3 
REMARK    2  A    between atoms: O1_3  and  C3_4 
REMARK    3  A    between atoms: C3_4  and  C4_5 
REMARK    4  A    between atoms: C3_4  and  N4_30 
REMARK    5  A    between atoms: C6_8  and  N1_9 
REMARK    6  A    between atoms: N1_9  and  C7_11 
REMARK    7  A    between atoms: C8_12  and  N2_13 
REMARK    8  A    between atoms: N2_13  and  C9_15 
ROOT
HETATM    1  C7  UNL     1     -57.435  17.903  30.616  1.00  0.00     0.120 A 
HETATM    2  C8  UNL     1     -58.531  18.486  30.003  1.00  0.00     0.114 A 
HETATM    3  C18 UNL     1     -59.397  17.869  30.880  1.00  0.00     0.252 A 
HETATM    4  O2  UNL     1     -60.634  17.801  31.105  1.00  0.00    -0.281 OA
HETATM    5  C19 UNL     1     -58.308  17.289  31.489  1.00  0.00     0.253 A 
HETATM    6  O3  UNL     1     -58.105  16.502  32.460  1.00  0.00    -0.281 OA
ENDROOT
BRANCH   1   7
HETATM    7  N1  UNL     1     -56.005  17.929  30.421  1.00  0.00    -0.331 N 
ATOM      8  H1  UNL     1     -55.468  17.085  30.225  1.00  0.00     0.168 HD
BRANCH   7   9
HETATM    9  C6  UNL     1     -55.440  19.118  30.513  1.00  0.00     0.149 A 
HETATM   10  S1  UNL     1     -55.990  20.513  31.317  1.00  0.00    -0.064 SA
HETATM   11  C5  UNL     1     -54.690  21.547  30.934  1.00  0.00     0.083 A 
HETATM   12  C4  UNL     1     -53.884  20.736  30.188  1.00  0.00     0.066 A 
HETATM   13  N3  UNL     1     -54.279  19.503  29.982  1.00  0.00    -0.336 N 
ATOM     14  H3  UNL     1     -53.714  18.857  29.431  1.00  0.00     0.168 HD
BRANCH  12  15
HETATM   15  C3  UNL     1     -52.550  21.256  29.610  1.00  0.00     0.269 C 
BRANCH  15  16
HETATM   16  O1  UNL     1     -52.829  22.194  28.636  1.00  0.00    -0.362 OA
BRANCH  16  17
HETATM   17  C2  UNL     1     -52.382  23.459  28.823  1.00  0.00     0.166 C 
HETATM   18  C1  UNL     1     -51.286  23.656  29.837  1.00  0.00     0.033 C 
ENDBRANCH  16  17
ENDBRANCH  15  16
BRANCH  15  19
HETATM   19  N4  UNL     1     -51.851  20.162  29.056  1.00  0.00    -0.391 N 
HETATM   20  C20 UNL     1     -51.670  20.122  27.648  1.00  0.00     0.145 C 
HETATM   21  C21 UNL     1     -50.727  19.740  29.793  1.00  0.00     0.145 C 
ENDBRANCH  15  19
ENDBRANCH  12  15
ENDBRANCH   7   9
ENDBRANCH   1   7
BRANCH   2  22
HETATM   22  N2  UNL     1     -58.727  19.369  28.911  1.00  0.00    -0.380 N 
ATOM     23  H2  UNL     1     -58.555  19.008  27.973  1.00  0.00     0.160 HD
BRANCH  22  24
HETATM   24  C9  UNL     1     -59.148  20.728  29.032  1.00  0.00     0.086 C 
HETATM   25  C10 UNL     1     -58.132  21.664  28.440  1.00  0.00     0.025 C 
HETATM   26  C11 UNL     1     -58.483  23.107  28.715  1.00  0.00     0.003 C 
HETATM   27  C12 UNL     1     -59.953  23.325  28.943  1.00  0.00     0.009 C 
HETATM   28  C13 UNL     1     -60.815  22.373  28.144  1.00  0.00    -0.043 C 
HETATM   29  C14 UNL     1     -60.711  22.645  26.656  1.00  0.00     0.015 C 
HETATM   30  C15 UNL     1     -62.252  22.645  28.541  1.00  0.00     0.015 C 
HETATM   31  C16 UNL     1     -60.521  20.930  28.484  1.00  0.00     0.012 C 
HETATM   32  C17 UNL     1     -60.678  20.081  27.242  1.00  0.00     0.012 C 
ENDBRANCH  22  24
ENDBRANCH   2  22
TORSDOF 8
ENDMDL
MODEL 3
REMARK VINA RESULT: -7.419031313      1.157      1.765
REMARK  8 active torsions:
REMARK  status: ('A' for Active; 'I' for Inactive)
REMARK    1  A    between atoms: C2_2  and  O1_3 
REMARK    2  A    between atoms: O1_3  and  C3_4 
REMARK    3  A    between atoms: C3_4  and  C4_5 
REMARK    4  A    between atoms: C3_4  and  N4_30 
REMARK    5  A    between atoms: C6_8  and  N1_9 
REMARK    6  A    between atoms: N1_9  and  C7_11 
REMARK    7  A    between atoms: C8_12  and  N2_13 
REMARK    8  A    between atoms: N2_13  and  C9_15 
ROOT
HETATM    1  C7  UNL     1     -51.302  20.444  29.346  1.00  0.00     0.120 A 
HETATM    2  C8  UNL     1     -52.597  20.874  29.586  1.00  0.00     0.114 A 
HETATM    3  C18 UNL     1     -52.447  21.930  28.713  1.00  0.00     0.252 A 
HETATM    4  O2  UNL     1     -53.119  22.898  28.268  1.00  0.00    -0.281 OA
HETATM    5  C19 UNL     1     -51.161  21.503  28.475  1.00  0.00     0.253 A 
HETATM    6  O3  UNL     1     -50.184  21.875  27.761  1.00  0.00    -0.281 OA
ENDROOT
BRANCH   1   7
HETATM    7  N1  UNL     1     -50.471  19.360  29.809  1.00  0.00    -0.331 N 
ATOM      8  H1  UNL     1     -50.442  18.456  29.337  1.00  0.00     0.168 HD
BRANCH   7   9
HETATM    9  C6  UNL     1     -49.748  19.615  30.884  1.00  0.00     0.149 A 
HETATM   10  S1  UNL     1     -48.647  20.881  31.165  1.00  0.00    -0.064 SA
HETATM   11  C5  UNL     1     -48.187  20.459  32.752  1.00  0.00     0.083 A 
HETATM   12  C4  UNL     1     -48.929  19.337  32.980  1.00  0.00     0.066 A 
HETATM   13  N3  UNL     1     -49.718  18.918  32.020  1.00  0.00    -0.336 N 
ATOM     14  H3  UNL     1     -50.292  18.084  32.140  1.00  0.00     0.168 HD
BRANCH  12  15
HETATM   15  C3  UNL     1     -48.841  18.587  34.327  1.00  0.00     0.269 C 
BRANCH  15  16
HETATM   16  O1  UNL     1     -48.343  19.453  35.280  1.00  0.00    -0.362 OA
BRANCH  16  17
HETATM   17  C2  UNL     1     -49.007  19.555  36.458  1.00  0.00     0.166 C 
HETATM   18  C1  UNL     1     -48.535  18.680  37.589  1.00  0.00     0.033 C 
ENDBRANCH  16  17
ENDBRANCH  15  16
BRANCH  15  19
HETATM   19  N4  UNL     1     -47.977  17.483  34.165  1.00  0.00    -0.391 N 
HETATM   20  C20 UNL     1     -46.600  17.655  34.465  1.00  0.00     0.145 C 
HETATM   21  C21 UNL     1     -48.508  16.247  34.583  1.00  0.00     0.145 C 
ENDBRANCH  15  19
ENDBRANCH  12  15
ENDBRANCH   7   9
ENDBRANCH   1   7
BRANCH   2  22
HETATM   22  N2  UNL     1     -53.674  20.433  30.396  1.00  0.00    -0.380 N 
ATOM     23  H2  UNL     1     -53.659  20.687  31.383  1.00  0.00     0.160 HD
BRANCH  22  24
HETATM   24  C9  UNL     1     -54.778  19.659  29.926  1.00  0.00     0.086 C 
HETATM   25  C10 UNL     1     -54.647  18.221  30.342  1.00  0.00     0.025 C 
HETATM   26  C11 UNL     1     -55.715  17.363  29.707  1.00  0.00     0.003 C 
HETATM   27  C12 UNL     1     -56.952  18.133  29.339  1.00  0.00     0.009 C 
HETATM   28  C13 UNL     1     -57.228  19.280  30.284  1.00  0.00    -0.043 C 
HETATM   29  C14 UNL     1     -57.600  18.783  31.667  1.00  0.00     0.015 C 
HETATM   30  C15 UNL     1     -58.437  20.015  29.741  1.00  0.00     0.015 C 
HETATM   31  C16 UNL     1     -56.083  20.266  30.319  1.00  0.00     0.012 C 
HETATM   32  C17 UNL     1     -55.954  20.834  31.715  1.00  0.00     0.012 C 
ENDBRANCH  22  24
ENDBRANCH   2  22
TORSDOF 8
ENDMDL
MODEL 4
REMARK VINA RESULT: -7.365208831      4.121      6.773
REMARK  8 active torsions:
REMARK  status: ('A' for Active; 'I' for Inactive)
REMARK    1  A    between atoms: C2_2  and  O1_3 
REMARK    2  A    between atoms: O1_3  and  C3_4 
REMARK    3  A    between atoms: C3_4  and  C4_5 
REMARK    4  A    between atoms: C3_4  and  N4_30 
REMARK    5  A    between atoms: C6_8  and  N1_9 
REMARK    6  A    between atoms: N1_9  and  C7_11 
REMARK    7  A    between atoms: C8_12  and  N2_13 
REMARK    8  A    between atoms: N2_13  and  C9_15 
ROOT
HETATM    1  C7  UNL     1     -57.418  17.992  30.616  1.00  0.00     0.120 A 
HETATM    2  C8  UNL     1     -58.529  18.532  29.989  1.00  0.00     0.114 A 
HETATM    3  C18 UNL     1     -59.381  17.869  30.846  1.00  0.00     0.252 A 
HETATM    4  O2  UNL     1     -60.617  17.745  31.050  1.00  0.00    -0.281 OA
HETATM    5  C19 UNL     1     -58.278  17.333  31.469  1.00  0.00     0.253 A 
HETATM    6  O3  UNL     1     -58.056  16.547  32.436  1.00  0.00    -0.281 OA
ENDROOT
BRANCH   1   7
HETATM    7  N1  UNL     1     -55.988  18.084  30.445  1.00  0.00    -0.331 N 
ATOM      8  H1  UNL     1     -55.413  17.269  30.234  1.00  0.00     0.168 HD
BRANCH   7   9
HETATM    9  C6  UNL     1     -55.475  19.292  30.580  1.00  0.00     0.149 A 
HETATM   10  S1  UNL     1     -56.093  20.637  31.419  1.00  0.00    -0.064 SA
HETATM   11  C5  UNL     1     -54.834  21.737  31.084  1.00  0.00     0.083 A 
HETATM   12  C4  UNL     1     -53.985  20.984  30.325  1.00  0.00     0.066 A 
HETATM   13  N3  UNL     1     -54.325  19.742  30.076  1.00  0.00    -0.336 N 
ATOM     14  H3  UNL     1     -53.727  19.137  29.513  1.00  0.00     0.168 HD
BRANCH  12  15
HETATM   15  C3  UNL     1     -52.668  21.577  29.780  1.00  0.00     0.269 C 
BRANCH  15  16
HETATM   16  O1  UNL     1     -51.652  20.669  30.003  1.00  0.00    -0.362 OA
BRANCH  16  17
HETATM   17  C2  UNL     1     -50.930  20.246  28.936  1.00  0.00     0.166 C 
HETATM   18  C1  UNL     1     -51.635  20.199  27.607  1.00  0.00     0.033 C 
ENDBRANCH  16  17
ENDBRANCH  15  16
BRANCH  15  19
HETATM   19  N4  UNL     1     -52.409  22.784  30.464  1.00  0.00    -0.391 N 
HETATM   20  C20 UNL     1     -51.495  22.760  31.551  1.00  0.00     0.145 C 
HETATM   21  C21 UNL     1     -52.295  23.921  29.639  1.00  0.00     0.145 C 
ENDBRANCH  15  19
ENDBRANCH  12  15
ENDBRANCH   7   9
ENDBRANCH   1   7
BRANCH   2  22
HETATM   22  N2  UNL     1     -58.746  19.415  28.901  1.00  0.00    -0.380 N 
ATOM     23  H2  UNL     1     -58.585  19.056  27.960  1.00  0.00     0.160 HD
BRANCH  22  24
HETATM   24  C9  UNL     1     -59.173  20.772  29.029  1.00  0.00     0.086 C 
HETATM   25  C10 UNL     1     -58.165  21.715  28.435  1.00  0.00     0.025 C 
HETATM   26  C11 UNL     1     -58.522  23.155  28.718  1.00  0.00     0.003 C 
HETATM   27  C12 UNL     1     -59.992  23.364  28.955  1.00  0.00     0.009 C 
HETATM   28  C13 UNL     1     -60.853  22.412  28.157  1.00  0.00    -0.043 C 
HETATM   29  C14 UNL     1     -60.758  22.690  26.670  1.00  0.00     0.015 C 
HETATM   30  C15 UNL     1     -62.289  22.674  28.563  1.00  0.00     0.015 C 
HETATM   31  C16 UNL     1     -60.549  20.969  28.490  1.00  0.00     0.012 C 
HETATM   32  C17 UNL     1     -60.710  20.124  27.245  1.00  0.00     0.012 C 
ENDBRANCH  22  24
ENDBRANCH   2  22
TORSDOF 8
ENDMDL
MODEL 5
REMARK VINA RESULT: -7.351766184      3.099      5.018
REMARK  8 active torsions:
REMARK  status: ('A' for Active; 'I' for Inactive)
REMARK    1  A    between atoms: C2_2  and  O1_3 
REMARK    2  A    between atoms: O1_3  and  C3_4 
REMARK    3  A    between atoms: C3_4  and  C4_5 
REMARK    4  A    between atoms: C3_4  and  N4_30 
REMARK    5  A    between atoms: C6_8  and  N1_9 
REMARK    6  A    between atoms: N1_9  and  C7_11 
REMARK    7  A    between atoms: C8_12  and  N2_13 
REMARK    8  A    between atoms: N2_13  and  C9_15 
ROOT
HETATM    1  C7  UNL     1     -56.214  23.859  30.226  1.00  0.00     0.120 A 
HETATM    2  C8  UNL     1     -56.857  22.740  29.724  1.00  0.00     0.114 A 
HETATM    3  C18 UNL     1     -57.792  23.520  29.079  1.00  0.00     0.252 A 
HETATM    4  O2  UNL     1     -58.804  23.379  28.345  1.00  0.00    -0.281 OA
HETATM    5  C19 UNL     1     -57.153  24.632  29.578  1.00  0.00     0.253 A 
HETATM    6  O3  UNL     1     -57.304  25.888  29.514  1.00  0.00    -0.281 OA
ENDROOT
BRANCH   1   7
HETATM    7  N1  UNL     1     -55.064  24.103  31.063  1.00  0.00    -0.331 N 
ATOM      8  H1  UNL     1     -55.144  24.521  31.990  1.00  0.00     0.168 HD
BRANCH   7   9
HETATM    9  C6  UNL     1     -53.901  23.748  30.550  1.00  0.00     0.149 A 
HETATM   10  S1  UNL     1     -52.729  24.707  29.774  1.00  0.00    -0.064 SA
HETATM   11  C5  UNL     1     -51.588  23.483  29.444  1.00  0.00     0.083 A 
HETATM   12  C4  UNL     1     -52.192  22.376  29.966  1.00  0.00     0.066 A 
HETATM   13  N3  UNL     1     -53.369  22.526  30.525  1.00  0.00    -0.336 N 
ATOM     14  H3  UNL     1     -53.862  21.730  30.929  1.00  0.00     0.168 HD
BRANCH  12  15
HETATM   15  C3  UNL     1     -51.508  20.993  29.901  1.00  0.00     0.269 C 
BRANCH  15  16
HETATM   16  O1  UNL     1     -50.174  21.177  29.594  1.00  0.00    -0.362 OA
BRANCH  16  17
HETATM   17  C2  UNL     1     -49.254  20.871  30.541  1.00  0.00     0.166 C 
HETATM   18  C1  UNL     1     -49.419  19.557  31.258  1.00  0.00     0.033 C 
ENDBRANCH  16  17
ENDBRANCH  15  16
BRANCH  15  19
HETATM   19  N4  UNL     1     -52.143  20.231  28.897  1.00  0.00    -0.391 N 
HETATM   20  C20 UNL     1     -51.611  20.271  27.582  1.00  0.00     0.145 C 
HETATM   21  C21 UNL     1     -52.575  18.953  29.306  1.00  0.00     0.145 C 
ENDBRANCH  15  19
ENDBRANCH  12  15
ENDBRANCH   7   9
ENDBRANCH   1   7
BRANCH   2  22
HETATM   22  N2  UNL     1     -56.663  21.338  29.814  1.00  0.00    -0.380 N 
ATOM     23  H2  UNL     1     -55.714  20.982  29.697  1.00  0.00     0.160 HD
BRANCH  22  24
HETATM   24  C9  UNL     1     -57.702  20.389  30.057  1.00  0.00     0.086 C 
HETATM   25  C10 UNL     1     -58.136  19.723  28.782  1.00  0.00     0.025 C 
HETATM   26  C11 UNL     1     -59.347  18.847  29.000  1.00  0.00     0.003 C 
HETATM   27  C12 UNL     1     -59.476  18.359  30.416  1.00  0.00     0.009 C 
HETATM   28  C13 UNL     1     -58.137  18.147  31.085  1.00  0.00    -0.043 C 
HETATM   29  C14 UNL     1     -57.376  16.998  30.453  1.00  0.00     0.015 C 
HETATM   30  C15 UNL     1     -58.422  17.749  32.519  1.00  0.00     0.015 C 
HETATM   31  C16 UNL     1     -57.323  19.419  31.125  1.00  0.00     0.012 C 
HETATM   32  C17 UNL     1     -55.856  19.080  30.976  1.00  0.00     0.012 C 
ENDBRANCH  22  24
ENDBRANCH   2  22
TORSDOF 8
ENDMDL
