MODEL 1
REMARK VINA RESULT: -9.668855779      0.000      0.000
REMARK  12 active torsions:
REMARK  status: ('A' for Active; 'I' for Inactive)
REMARK    1  A    between atoms: C4_4  and  N1_5 
REMARK    2  A    between atoms: N1_5  and  C5_7 
REMARK    3  A    between atoms: C5_7  and  C6_8 
REMARK    4  A    between atoms: C6_8  and  C7_9 
REMARK    5  A    between atoms: C7_9  and  C8_10 
REMARK    6  A    between atoms: C8_10  and  C9_11 
REMARK    7  A    between atoms: C9_11  and  C10_12 
REMARK    8  A    between atoms: C10_12  and  C11_13 
REMARK    9  A    between atoms: C11_13  and  C12_14 
REMARK   10  A    between atoms: C12_14  and  C13_15 
REMARK   11  A    between atoms: C13_15  and  N2_16 
REMARK   12  A    between atoms: C20_26  and  N3_27 
ROOT
HETATM    1  C1  UNL     1       8.335 -69.982  57.386  1.00  0.00     0.050 C 
HETATM    2  C2  UNL     1       8.037 -69.114  58.529  1.00  0.00    -0.032 A 
HETATM    3  C3  UNL     1       7.974 -67.734  58.373  1.00  0.00     0.039 A 
HETATM    4  C4  UNL     1       7.696 -66.874  59.430  1.00  0.00     0.039 A 
HETATM    5  C14 UNL     1       7.476 -67.432  60.680  1.00  0.00     0.003 A 
HETATM    6  C15 UNL     1       7.190 -66.672  61.781  1.00  0.00     0.014 A 
HETATM    7  C16 UNL     1       6.965 -67.236  63.038  1.00  0.00     0.001 A 
HETATM    8  C17 UNL     1       7.038 -68.604  63.149  1.00  0.00     0.001 A 
HETATM    9  C18 UNL     1       7.320 -69.406  62.075  1.00  0.00     0.014 A 
HETATM   10  C19 UNL     1       7.537 -68.824  60.851  1.00  0.00     0.003 A 
HETATM   11  C20 UNL     1       7.818 -69.661  59.771  1.00  0.00     0.047 A 
ENDROOT
BRANCH   4  12
HETATM   12  N1  UNL     1       7.681 -65.476  59.265  1.00  0.00    -0.389 N 
ATOM     13  H1  UNL     1       8.050 -64.874  60.001  1.00  0.00     0.159 HD
BRANCH  12  14
HETATM   14  C5  UNL     1       7.150 -64.894  58.067  1.00  0.00     0.119 C 
BRANCH  14  15
HETATM   15  C6  UNL     1       5.678 -64.928  57.908  1.00  0.00     0.020 C 
BRANCH  15  16
HETATM   16  C7  UNL     1       5.106 -65.470  56.659  1.00  0.00     0.002 C 
BRANCH  16  17
HETATM   17  C8  UNL     1       5.595 -66.810  56.252  1.00  0.00     0.000 C 
BRANCH  17  18
HETATM   18  C9  UNL     1       6.376 -66.755  54.934  1.00  0.00     0.000 C 
BRANCH  18  19
HETATM   19  C10 UNL     1       6.302 -65.401  54.286  1.00  0.00     0.000 C 
BRANCH  19  20
HETATM   20  C11 UNL     1       7.670 -64.759  54.462  1.00  0.00     0.002 C 
BRANCH  20  21
HETATM   21  C12 UNL     1       7.551 -63.266  54.597  1.00  0.00     0.027 C 
BRANCH  21  22
HETATM   22  C13 UNL     1       6.249 -62.749  54.035  1.00  0.00     0.229 C 
BRANCH  22  23
HETATM   23  N2  UNL     1       6.451 -61.819  52.950  1.00  0.00    -0.079 N 
ATOM     24  H23 UNL     1       7.352 -61.347  53.032  1.00  0.00     0.274 HD
ATOM     25  H22 UNL     1       6.605 -62.309  52.068  1.00  0.00     0.274 HD
ATOM     26  H21 UNL     1       5.689 -61.147  52.869  1.00  0.00     0.274 HD
ENDBRANCH  22  23
ENDBRANCH  21  22
ENDBRANCH  20  21
ENDBRANCH  19  20
ENDBRANCH  18  19
ENDBRANCH  17  18
ENDBRANCH  16  17
ENDBRANCH  15  16
ENDBRANCH  14  15
ENDBRANCH  12  14
ENDBRANCH   4  12
BRANCH  11  27
HETATM   27  N3  UNL     1       7.885 -71.067  59.923  1.00  0.00    -0.377 N 
HETATM   28  C21 UNL     1       6.760 -71.969  59.705  1.00  0.00     0.142 C 
HETATM   29  C22 UNL     1       7.277 -73.373  59.385  1.00  0.00     0.133 C 
HETATM   30  N4  UNL     1       8.013 -73.890  60.494  1.00  0.00    -0.418 N 
HETATM   31  C23 UNL     1       8.922 -72.963  61.111  1.00  0.00     0.133 C 
ATOM     32  H4  UNL     1       7.901 -74.848  60.825  1.00  0.00     0.153 HD
HETATM   33  C24 UNL     1       9.123 -71.714  60.309  1.00  0.00     0.142 C 
ENDBRANCH  11  27
TORSDOF 12
ENDMDL
MODEL 2
REMARK VINA RESULT: -9.428771587      0.672      1.311
REMARK  12 active torsions:
REMARK  status: ('A' for Active; 'I' for Inactive)
REMARK    1  A    between atoms: C4_4  and  N1_5 
REMARK    2  A    between atoms: N1_5  and  C5_7 
REMARK    3  A    between atoms: C5_7  and  C6_8 
REMARK    4  A    between atoms: C6_8  and  C7_9 
REMARK    5  A    between atoms: C7_9  and  C8_10 
REMARK    6  A    between atoms: C8_10  and  C9_11 
REMARK    7  A    between atoms: C9_11  and  C10_12 
REMARK    8  A    between atoms: C10_12  and  C11_13 
REMARK    9  A    between atoms: C11_13  and  C12_14 
REMARK   10  A    between atoms: C12_14  and  C13_15 
REMARK   11  A    between atoms: C13_15  and  N2_16 
REMARK   12  A    between atoms: C20_26  and  N3_27 
ROOT
HETATM    1  C1  UNL     1       8.197 -70.062  57.251  1.00  0.00     0.050 C 
HETATM    2  C2  UNL     1       7.867 -69.170  58.366  1.00  0.00    -0.032 A 
HETATM    3  C3  UNL     1       7.645 -67.816  58.149  1.00  0.00     0.039 A 
HETATM    4  C4  UNL     1       7.330 -66.934  59.178  1.00  0.00     0.039 A 
HETATM    5  C14 UNL     1       7.240 -67.444  60.464  1.00  0.00     0.003 A 
HETATM    6  C15 UNL     1       6.930 -66.661  61.542  1.00  0.00     0.014 A 
HETATM    7  C16 UNL     1       6.835 -67.177  62.835  1.00  0.00     0.001 A 
HETATM    8  C17 UNL     1       7.063 -68.521  63.007  1.00  0.00     0.001 A 
HETATM    9  C18 UNL     1       7.375 -69.346  61.959  1.00  0.00     0.014 A 
HETATM   10  C19 UNL     1       7.462 -68.810  60.698  1.00  0.00     0.003 A 
HETATM   11  C20 UNL     1       7.775 -69.670  59.644  1.00  0.00     0.047 A 
ENDROOT
BRANCH   4  12
HETATM   12  N1  UNL     1       7.153 -65.557  58.947  1.00  0.00    -0.389 N 
ATOM     13  H1  UNL     1       7.958 -64.930  58.976  1.00  0.00     0.159 HD
BRANCH  12  14
HETATM   14  C5  UNL     1       5.849 -65.030  58.671  1.00  0.00     0.119 C 
BRANCH  14  15
HETATM   15  C6  UNL     1       5.575 -64.632  57.270  1.00  0.00     0.020 C 
BRANCH  15  16
HETATM   16  C7  UNL     1       5.259 -65.678  56.278  1.00  0.00     0.002 C 
BRANCH  16  17
HETATM   17  C8  UNL     1       5.716 -65.414  54.892  1.00  0.00     0.000 C 
BRANCH  17  18
HETATM   18  C9  UNL     1       7.230 -65.601  54.745  1.00  0.00     0.000 C 
BRANCH  18  19
HETATM   19  C10 UNL     1       7.971 -64.295  54.797  1.00  0.00     0.000 C 
BRANCH  19  20
HETATM   20  C11 UNL     1       7.098 -63.270  54.087  1.00  0.00     0.002 C 
BRANCH  20  21
HETATM   21  C12 UNL     1       7.022 -61.991  54.873  1.00  0.00     0.027 C 
BRANCH  21  22
HETATM   22  C13 UNL     1       6.749 -60.798  53.989  1.00  0.00     0.229 C 
BRANCH  22  23
HETATM   23  N2  UNL     1       6.982 -61.086  52.594  1.00  0.00    -0.079 N 
ATOM     24  H23 UNL     1       7.352 -62.028  52.469  1.00  0.00     0.274 HD
ATOM     25  H22 UNL     1       6.103 -61.187  52.086  1.00  0.00     0.274 HD
ATOM     26  H21 UNL     1       7.585 -60.392  52.152  1.00  0.00     0.274 HD
ENDBRANCH  22  23
ENDBRANCH  21  22
ENDBRANCH  20  21
ENDBRANCH  19  20
ENDBRANCH  18  19
ENDBRANCH  17  18
ENDBRANCH  16  17
ENDBRANCH  15  16
ENDBRANCH  14  15
ENDBRANCH  12  14
ENDBRANCH   4  12
BRANCH  11  27
HETATM   27  N3  UNL     1       8.004 -71.050  59.859  1.00  0.00    -0.377 N 
HETATM   28  C21 UNL     1       9.307 -71.624  60.177  1.00  0.00     0.142 C 
HETATM   29  C22 UNL     1       9.121 -72.964  60.891  1.00  0.00     0.133 C 
HETATM   30  N4  UNL     1       8.460 -73.892  60.030  1.00  0.00    -0.418 N 
HETATM   31  C23 UNL     1       7.344 -73.359  59.298  1.00  0.00     0.133 C 
ATOM     32  H4  UNL     1       8.760 -74.863  59.941  1.00  0.00     0.153 HD
HETATM   33  C24 UNL     1       6.918 -72.006  59.777  1.00  0.00     0.142 C 
ENDBRANCH  11  27
TORSDOF 12
ENDMDL
MODEL 3
REMARK VINA RESULT: -9.420161024      1.405      2.439
REMARK  12 active torsions:
REMARK  status: ('A' for Active; 'I' for Inactive)
REMARK    1  A    between atoms: C4_4  and  N1_5 
REMARK    2  A    between atoms: N1_5  and  C5_7 
REMARK    3  A    between atoms: C5_7  and  C6_8 
REMARK    4  A    between atoms: C6_8  and  C7_9 
REMARK    5  A    between atoms: C7_9  and  C8_10 
REMARK    6  A    between atoms: C8_10  and  C9_11 
REMARK    7  A    between atoms: C9_11  and  C10_12 
REMARK    8  A    between atoms: C10_12  and  C11_13 
REMARK    9  A    between atoms: C11_13  and  C12_14 
REMARK   10  A    between atoms: C12_14  and  C13_15 
REMARK   11  A    between atoms: C13_15  and  N2_16 
REMARK   12  A    between atoms: C20_26  and  N3_27 
ROOT
HETATM    1  C1  UNL     1       8.238 -70.042  57.284  1.00  0.00     0.050 C 
HETATM    2  C2  UNL     1       7.917 -69.141  58.395  1.00  0.00    -0.032 A 
HETATM    3  C3  UNL     1       7.734 -67.781  58.175  1.00  0.00     0.039 A 
HETATM    4  C4  UNL     1       7.430 -66.891  59.200  1.00  0.00     0.039 A 
HETATM    5  C14 UNL     1       7.309 -67.398  60.484  1.00  0.00     0.003 A 
HETATM    6  C15 UNL     1       7.007 -66.607  61.559  1.00  0.00     0.014 A 
HETATM    7  C16 UNL     1       6.881 -67.120  62.850  1.00  0.00     0.001 A 
HETATM    8  C17 UNL     1       7.070 -68.470  63.025  1.00  0.00     0.001 A 
HETATM    9  C18 UNL     1       7.373 -69.303  61.981  1.00  0.00     0.014 A 
HETATM   10  C19 UNL     1       7.491 -68.770  60.721  1.00  0.00     0.003 A 
HETATM   11  C20 UNL     1       7.795 -69.638  59.672  1.00  0.00     0.047 A 
ENDROOT
BRANCH   4  12
HETATM   12  N1  UNL     1       7.294 -65.510  58.967  1.00  0.00    -0.389 N 
ATOM     13  H1  UNL     1       6.381 -65.066  59.065  1.00  0.00     0.159 HD
BRANCH  12  14
HETATM   14  C5  UNL     1       8.432 -64.723  58.590  1.00  0.00     0.119 C 
BRANCH  14  15
HETATM   15  C6  UNL     1       8.559 -64.383  57.154  1.00  0.00     0.020 C 
BRANCH  15  16
HETATM   16  C7  UNL     1       8.197 -63.023  56.707  1.00  0.00     0.002 C 
BRANCH  16  17
HETATM   17  C8  UNL     1       7.667 -62.917  55.325  1.00  0.00     0.000 C 
BRANCH  17  18
HETATM   18  C9  UNL     1       6.143 -62.755  55.311  1.00  0.00     0.000 C 
BRANCH  18  19
HETATM   19  C10 UNL     1       5.450 -63.948  54.713  1.00  0.00     0.000 C 
BRANCH  19  20
HETATM   20  C11 UNL     1       4.892 -64.755  55.876  1.00  0.00     0.002 C 
BRANCH  20  21
HETATM   21  C12 UNL     1       5.479 -66.139  55.902  1.00  0.00     0.027 C 
BRANCH  21  22
HETATM   22  C13 UNL     1       6.438 -66.369  54.759  1.00  0.00     0.229 C 
BRANCH  22  23
HETATM   23  N2  UNL     1       6.613 -67.772  54.465  1.00  0.00    -0.079 N 
ATOM     24  H23 UNL     1       7.601 -68.023  54.447  1.00  0.00     0.274 HD
ATOM     25  H22 UNL     1       6.311 -68.353  55.247  1.00  0.00     0.274 HD
ATOM     26  H21 UNL     1       6.147 -68.047  53.601  1.00  0.00     0.274 HD
ENDBRANCH  22  23
ENDBRANCH  21  22
ENDBRANCH  20  21
ENDBRANCH  19  20
ENDBRANCH  18  19
ENDBRANCH  17  18
ENDBRANCH  16  17
ENDBRANCH  15  16
ENDBRANCH  14  15
ENDBRANCH  12  14
ENDBRANCH   4  12
BRANCH  11  27
HETATM   27  N3  UNL     1       7.984 -71.024  59.889  1.00  0.00    -0.377 N 
HETATM   28  C21 UNL     1       9.258 -71.627  60.264  1.00  0.00     0.142 C 
HETATM   29  C22 UNL     1       9.009 -72.967  60.961  1.00  0.00     0.133 C 
HETATM   30  N4  UNL     1       8.369 -73.876  60.066  1.00  0.00    -0.418 N 
HETATM   31  C23 UNL     1       7.300 -73.315  59.285  1.00  0.00     0.133 C 
ATOM     32  H4  UNL     1       8.651 -74.853  59.985  1.00  0.00     0.153 HD
HETATM   33  C24 UNL     1       6.882 -71.955  59.752  1.00  0.00     0.142 C 
ENDBRANCH  11  27
TORSDOF 12
ENDMDL
MODEL 4
REMARK VINA RESULT: -9.419556566      1.287      2.128
REMARK  12 active torsions:
REMARK  status: ('A' for Active; 'I' for Inactive)
REMARK    1  A    between atoms: C4_4  and  N1_5 
REMARK    2  A    between atoms: N1_5  and  C5_7 
REMARK    3  A    between atoms: C5_7  and  C6_8 
REMARK    4  A    between atoms: C6_8  and  C7_9 
REMARK    5  A    between atoms: C7_9  and  C8_10 
REMARK    6  A    between atoms: C8_10  and  C9_11 
REMARK    7  A    between atoms: C9_11  and  C10_12 
REMARK    8  A    between atoms: C10_12  and  C11_13 
REMARK    9  A    between atoms: C11_13  and  C12_14 
REMARK   10  A    between atoms: C12_14  and  C13_15 
REMARK   11  A    between atoms: C13_15  and  N2_16 
REMARK   12  A    between atoms: C20_26  and  N3_27 
ROOT
HETATM    1  C1  UNL     1       8.143 -70.011  57.267  1.00  0.00     0.050 C 
HETATM    2  C2  UNL     1       7.820 -69.125  58.390  1.00  0.00    -0.032 A 
HETATM    3  C3  UNL     1       7.580 -67.772  58.178  1.00  0.00     0.039 A 
HETATM    4  C4  UNL     1       7.272 -66.896  59.215  1.00  0.00     0.039 A 
HETATM    5  C14 UNL     1       7.207 -67.410  60.500  1.00  0.00     0.003 A 
HETATM    6  C15 UNL     1       6.905 -66.632  61.585  1.00  0.00     0.014 A 
HETATM    7  C16 UNL     1       6.836 -67.152  62.878  1.00  0.00     0.001 A 
HETATM    8  C17 UNL     1       7.081 -68.494  63.044  1.00  0.00     0.001 A 
HETATM    9  C18 UNL     1       7.385 -69.313  61.989  1.00  0.00     0.014 A 
HETATM   10  C19 UNL     1       7.447 -68.774  60.728  1.00  0.00     0.003 A 
HETATM   11  C20 UNL     1       7.753 -69.628  59.668  1.00  0.00     0.047 A 
ENDROOT
BRANCH   4  12
HETATM   12  N1  UNL     1       7.077 -65.520  58.989  1.00  0.00    -0.389 N 
ATOM     13  H1  UNL     1       6.204 -65.078  59.275  1.00  0.00     0.159 HD
BRANCH  12  14
HETATM   14  C5  UNL     1       8.100 -64.737  58.360  1.00  0.00     0.119 C 
BRANCH  14  15
HETATM   15  C6  UNL     1       7.690 -63.422  57.816  1.00  0.00     0.020 C 
BRANCH  15  16
HETATM   16  C7  UNL     1       8.133 -63.039  56.461  1.00  0.00     0.002 C 
BRANCH  16  17
HETATM   17  C8  UNL     1       8.517 -64.158  55.565  1.00  0.00     0.000 C 
BRANCH  17  18
HETATM   18  C9  UNL     1       7.360 -64.581  54.654  1.00  0.00     0.000 C 
BRANCH  18  19
HETATM   19  C10 UNL     1       6.912 -65.990  54.922  1.00  0.00     0.000 C 
BRANCH  19  20
HETATM   20  C11 UNL     1       5.577 -65.893  55.647  1.00  0.00     0.002 C 
BRANCH  20  21
HETATM   21  C12 UNL     1       4.903 -64.580  55.361  1.00  0.00     0.027 C 
BRANCH  21  22
HETATM   22  C13 UNL     1       4.056 -64.113  56.520  1.00  0.00     0.229 C 
BRANCH  22  23
HETATM   23  N2  UNL     1       2.776 -63.602  56.092  1.00  0.00    -0.079 N 
ATOM     24  H23 UNL     1       2.787 -63.367  55.099  1.00  0.00     0.274 HD
ATOM     25  H22 UNL     1       2.071 -64.339  56.077  1.00  0.00     0.274 HD
ATOM     26  H21 UNL     1       2.468 -62.809  56.655  1.00  0.00     0.274 HD
ENDBRANCH  22  23
ENDBRANCH  21  22
ENDBRANCH  20  21
ENDBRANCH  19  20
ENDBRANCH  18  19
ENDBRANCH  17  18
ENDBRANCH  16  17
ENDBRANCH  15  16
ENDBRANCH  14  15
ENDBRANCH  12  14
ENDBRANCH   4  12
BRANCH  11  27
HETATM   27  N3  UNL     1       8.000 -71.006  59.875  1.00  0.00    -0.377 N 
HETATM   28  C21 UNL     1       9.311 -71.565  60.190  1.00  0.00     0.142 C 
HETATM   29  C22 UNL     1       9.143 -72.911  60.898  1.00  0.00     0.133 C 
HETATM   30  N4  UNL     1       8.493 -73.843  60.033  1.00  0.00    -0.418 N 
HETATM   31  C23 UNL     1       7.368 -73.321  59.305  1.00  0.00     0.133 C 
ATOM     32  H4  UNL     1       8.804 -74.809  59.939  1.00  0.00     0.153 HD
HETATM   33  C24 UNL     1       6.926 -71.975  59.791  1.00  0.00     0.142 C 
ENDBRANCH  11  27
TORSDOF 12
ENDMDL
MODEL 5
REMARK VINA RESULT: -9.418295267      1.187      1.887
REMARK  12 active torsions:
REMARK  status: ('A' for Active; 'I' for Inactive)
REMARK    1  A    between atoms: C4_4  and  N1_5 
REMARK    2  A    between atoms: N1_5  and  C5_7 
REMARK    3  A    between atoms: C5_7  and  C6_8 
REMARK    4  A    between atoms: C6_8  and  C7_9 
REMARK    5  A    between atoms: C7_9  and  C8_10 
REMARK    6  A    between atoms: C8_10  and  C9_11 
REMARK    7  A    between atoms: C9_11  and  C10_12 
REMARK    8  A    between atoms: C10_12  and  C11_13 
REMARK    9  A    between atoms: C11_13  and  C12_14 
REMARK   10  A    between atoms: C12_14  and  C13_15 
REMARK   11  A    between atoms: C13_15  and  N2_16 
REMARK   12  A    between atoms: C20_26  and  N3_27 
ROOT
HETATM    1  C1  UNL     1       8.244 -69.989  57.284  1.00  0.00     0.050 C 
HETATM    2  C2  UNL     1       7.954 -69.108  58.419  1.00  0.00    -0.032 A 
HETATM    3  C3  UNL     1       7.848 -67.733  58.239  1.00  0.00     0.039 A 
HETATM    4  C4  UNL     1       7.575 -66.860  59.288  1.00  0.00     0.039 A 
HETATM    5  C14 UNL     1       7.406 -67.400  60.553  1.00  0.00     0.003 A 
HETATM    6  C15 UNL     1       7.128 -66.627  61.648  1.00  0.00     0.014 A 
HETATM    7  C16 UNL     1       6.954 -67.172  62.920  1.00  0.00     0.001 A 
HETATM    8  C17 UNL     1       7.068 -68.535  63.055  1.00  0.00     0.001 A 
HETATM    9  C18 UNL     1       7.343 -69.351  61.989  1.00  0.00     0.014 A 
HETATM   10  C19 UNL     1       7.510 -68.786  60.749  1.00  0.00     0.003 A 
HETATM   11  C20 UNL     1       7.784 -69.636  59.677  1.00  0.00     0.047 A 
ENDROOT
BRANCH   4  12
HETATM   12  N1  UNL     1       7.516 -65.467  59.096  1.00  0.00    -0.389 N 
ATOM     13  H1  UNL     1       6.701 -64.945  59.417  1.00  0.00     0.159 HD
BRANCH  12  14
HETATM   14  C5  UNL     1       8.597 -64.778  58.453  1.00  0.00     0.119 C 
BRANCH  14  15
HETATM   15  C6  UNL     1       8.227 -63.747  57.456  1.00  0.00     0.020 C 
BRANCH  15  16
HETATM   16  C7  UNL     1       8.784 -63.838  56.092  1.00  0.00     0.002 C 
BRANCH  16  17
HETATM   17  C8  UNL     1       7.792 -63.936  54.993  1.00  0.00     0.000 C 
BRANCH  17  18
HETATM   18  C9  UNL     1       7.306 -65.376  54.792  1.00  0.00     0.000 C 
BRANCH  18  19
HETATM   19  C10 UNL     1       5.806 -65.470  54.767  1.00  0.00     0.000 C 
BRANCH  19  20
HETATM   20  C11 UNL     1       5.365 -65.762  56.194  1.00  0.00     0.002 C 
BRANCH  20  21
HETATM   21  C12 UNL     1       4.671 -64.573  56.798  1.00  0.00     0.027 C 
BRANCH  21  22
HETATM   22  C13 UNL     1       4.030 -63.697  55.748  1.00  0.00     0.229 C 
BRANCH  22  23
HETATM   23  N2  UNL     1       3.339 -62.568  56.324  1.00  0.00    -0.079 N 
ATOM     24  H23 UNL     1       2.368 -62.799  56.532  1.00  0.00     0.274 HD
ATOM     25  H22 UNL     1       3.668 -62.378  57.270  1.00  0.00     0.274 HD
ATOM     26  H21 UNL     1       3.403 -61.736  55.738  1.00  0.00     0.274 HD
ENDBRANCH  22  23
ENDBRANCH  21  22
ENDBRANCH  20  21
ENDBRANCH  19  20
ENDBRANCH  18  19
ENDBRANCH  17  18
ENDBRANCH  16  17
ENDBRANCH  15  16
ENDBRANCH  14  15
ENDBRANCH  12  14
ENDBRANCH   4  12
BRANCH  11  27
HETATM   27  N3  UNL     1       7.895 -71.036  59.853  1.00  0.00    -0.377 N 
HETATM   28  C21 UNL     1       6.788 -71.972  59.692  1.00  0.00     0.142 C 
HETATM   29  C22 UNL     1       7.332 -73.368  59.381  1.00  0.00     0.133 C 
HETATM   30  N4  UNL     1       8.120 -73.843  60.473  1.00  0.00    -0.418 N 
HETATM   31  C23 UNL     1       9.024 -72.880  61.041  1.00  0.00     0.133 C 
ATOM     32  H4  UNL     1       8.045 -74.797  60.826  1.00  0.00     0.153 HD
HETATM   33  C24 UNL     1       9.163 -71.643  60.208  1.00  0.00     0.142 C 
ENDBRANCH  11  27
TORSDOF 12
ENDMDL
