MODEL 1
REMARK VINA RESULT: -10.511386799      0.000      0.000
REMARK  11 active torsions:
REMARK  status: ('A' for Active; 'I' for Inactive)
REMARK    1  A    between atoms: C2_2  and  N1_3 
REMARK    2  A    between atoms: C2_2  and  C19_28 
REMARK    3  A    between atoms: N1_3  and  C3_5 
REMARK    4  A    between atoms: C6_10  and  C7_11 
REMARK    5  A    between atoms: C7_11  and  N3_12 
REMARK    6  A    between atoms: N3_12  and  C8_15 
REMARK    7  A    between atoms: C8_15  and  C9_16 
REMARK    8  A    between atoms: C9_16  and  C10_17 
REMARK    9  A    between atoms: C10_17  and  N4_18 
REMARK   10  A    between atoms: N4_18  and  C11_20 
REMARK   11  A    between atoms: C11_20  and  C12_21 
ROOT
HETATM    1  C3  UNL     1       7.081 -68.767  61.190  1.00  0.00     0.044 A 
HETATM    2  C4  UNL     1       7.011 -69.031  62.538  1.00  0.00     0.116 A 
HETATM    3  N2  UNL     1       7.085 -68.056  63.440  1.00  0.00    -0.372 N 
ATOM      4  H2  UNL     1       7.030 -68.272  64.436  1.00  0.00     0.164 HD
HETATM    5  C5  UNL     1       7.234 -66.778  63.029  1.00  0.00     0.096 A 
HETATM    6  C6  UNL     1       7.313 -66.423  61.703  1.00  0.00    -0.015 A 
HETATM    7  C18 UNL     1       7.229 -67.467  60.775  1.00  0.00     0.040 A 
ENDROOT
BRANCH   6   8
HETATM    8  C7  UNL     1       7.521 -65.009  61.380  1.00  0.00     0.272 C 
BRANCH   8   9
HETATM    9  N3  UNL     1       7.585 -64.659  60.012  1.00  0.00    -0.071 N 
ATOM     10  H32 UNL     1       7.345 -65.440  59.402  1.00  0.00     0.277 HD
ATOM     11  H31 UNL     1       6.833 -64.026  59.740  1.00  0.00     0.277 HD
BRANCH   9  12
HETATM   12  C8  UNL     1       8.910 -64.110  59.713  1.00  0.00     0.234 C 
BRANCH  12  13
HETATM   13  C9  UNL     1       9.492 -64.651  58.432  1.00  0.00     0.046 C 
BRANCH  13  14
HETATM   14  C10 UNL     1       9.498 -63.595  57.355  1.00  0.00     0.115 C 
BRANCH  14  15
HETATM   15  N4  UNL     1       8.781 -63.988  56.178  1.00  0.00    -0.417 N 
ATOM     16  H4  UNL     1       9.259 -64.218  55.306  1.00  0.00     0.153 HD
BRANCH  15  17
HETATM   17  C11 UNL     1       7.354 -64.039  56.297  1.00  0.00     0.152 C 
BRANCH  17  18
HETATM   18  C12 UNL     1       6.900 -65.436  55.968  1.00  0.00    -0.041 A 
HETATM   19  C13 UNL     1       6.929 -65.925  54.692  1.00  0.00     0.009 A 
HETATM   20  C14 UNL     1       6.494 -67.224  54.478  1.00  0.00     0.001 A 
HETATM   21  C15 UNL     1       6.039 -68.024  55.501  1.00  0.00     0.000 A 
HETATM   22  C16 UNL     1       6.004 -67.537  56.797  1.00  0.00     0.001 A 
HETATM   23  C17 UNL     1       6.442 -66.245  56.986  1.00  0.00     0.009 A 
ENDBRANCH  17  18
ENDBRANCH  15  17
ENDBRANCH  14  15
ENDBRANCH  13  14
ENDBRANCH  12  13
ENDBRANCH   9  12
ENDBRANCH   8   9
ENDBRANCH   6   8
BRANCH   1  24
HETATM   24  N1  UNL     1       7.066 -69.841  60.295  1.00  0.00    -0.381 N 
ATOM     25  H1  UNL     1       6.151 -70.266  60.145  1.00  0.00     0.160 HD
BRANCH  24  26
HETATM   26  C2  UNL     1       8.131 -70.430  59.562  1.00  0.00     0.111 C 
HETATM   27  C1  UNL     1       8.223 -70.037  58.119  1.00  0.00     0.037 C 
BRANCH  26  28
HETATM   28  C19 UNL     1       8.278 -71.868  59.773  1.00  0.00    -0.036 A 
HETATM   29  C20 UNL     1       9.400 -72.349  60.434  1.00  0.00     0.009 A 
HETATM   30  C21 UNL     1       9.538 -73.705  60.626  1.00  0.00     0.001 A 
HETATM   31  C22 UNL     1       8.593 -74.609  60.178  1.00  0.00     0.000 A 
HETATM   32  C23 UNL     1       7.474 -74.133  59.520  1.00  0.00     0.001 A 
HETATM   33  C24 UNL     1       7.340 -72.754  59.330  1.00  0.00     0.009 A 
ENDBRANCH  26  28
ENDBRANCH  24  26
ENDBRANCH   1  24
TORSDOF 11
ENDMDL
MODEL 2
REMARK VINA RESULT: -10.423789051      0.122      1.276
REMARK  11 active torsions:
REMARK  status: ('A' for Active; 'I' for Inactive)
REMARK    1  A    between atoms: C2_2  and  N1_3 
REMARK    2  A    between atoms: C2_2  and  C19_28 
REMARK    3  A    between atoms: N1_3  and  C3_5 
REMARK    4  A    between atoms: C6_10  and  C7_11 
REMARK    5  A    between atoms: C7_11  and  N3_12 
REMARK    6  A    between atoms: N3_12  and  C8_15 
REMARK    7  A    between atoms: C8_15  and  C9_16 
REMARK    8  A    between atoms: C9_16  and  C10_17 
REMARK    9  A    between atoms: C10_17  and  N4_18 
REMARK   10  A    between atoms: N4_18  and  C11_20 
REMARK   11  A    between atoms: C11_20  and  C12_21 
ROOT
HETATM    1  C3  UNL     1       7.093 -68.779  61.272  1.00  0.00     0.044 A 
HETATM    2  C4  UNL     1       7.007 -68.958  62.634  1.00  0.00     0.116 A 
HETATM    3  N2  UNL     1       7.077 -67.928  63.474  1.00  0.00    -0.372 N 
ATOM      4  H2  UNL     1       7.009 -68.081  64.481  1.00  0.00     0.164 HD
HETATM    5  C5  UNL     1       7.238 -66.680  62.985  1.00  0.00     0.096 A 
HETATM    6  C6  UNL     1       7.334 -66.409  61.640  1.00  0.00    -0.015 A 
HETATM    7  C18 UNL     1       7.254 -67.509  60.779  1.00  0.00     0.040 A 
ENDROOT
BRANCH   6   8
HETATM    8  C7  UNL     1       7.554 -65.020  61.232  1.00  0.00     0.272 C 
BRANCH   8   9
HETATM    9  N3  UNL     1       7.675 -64.762  59.847  1.00  0.00    -0.071 N 
ATOM     10  H32 UNL     1       7.602 -65.613  59.288  1.00  0.00     0.277 HD
ATOM     11  H31 UNL     1       6.861 -64.274  59.473  1.00  0.00     0.277 HD
BRANCH   9  12
HETATM   12  C8  UNL     1       8.923 -64.037  59.594  1.00  0.00     0.234 C 
BRANCH  12  13
HETATM   13  C9  UNL     1       9.600 -64.468  58.318  1.00  0.00     0.046 C 
BRANCH  13  14
HETATM   14  C10 UNL     1       9.418 -63.432  57.237  1.00  0.00     0.115 C 
BRANCH  14  15
HETATM   15  N4  UNL     1       8.748 -63.943  56.077  1.00  0.00    -0.417 N 
ATOM     16  H4  UNL     1       9.260 -64.268  55.257  1.00  0.00     0.153 HD
BRANCH  15  17
HETATM   17  C11 UNL     1       7.317 -63.968  56.137  1.00  0.00     0.152 C 
BRANCH  17  18
HETATM   18  C12 UNL     1       6.859 -65.388  55.944  1.00  0.00    -0.041 A 
HETATM   19  C13 UNL     1       6.425 -66.157  56.988  1.00  0.00     0.009 A 
HETATM   20  C14 UNL     1       6.019 -67.456  56.720  1.00  0.00     0.001 A 
HETATM   21  C15 UNL     1       6.041 -67.986  55.451  1.00  0.00     0.000 A 
HETATM   22  C16 UNL     1       6.482 -67.216  54.387  1.00  0.00     0.001 A 
HETATM   23  C17 UNL     1       6.879 -65.929  54.676  1.00  0.00     0.009 A 
ENDBRANCH  17  18
ENDBRANCH  15  17
ENDBRANCH  14  15
ENDBRANCH  13  14
ENDBRANCH  12  13
ENDBRANCH   9  12
ENDBRANCH   8   9
ENDBRANCH   6   8
BRANCH   1  24
HETATM   24  N1  UNL     1       7.082 -69.907  60.447  1.00  0.00    -0.381 N 
ATOM     25  H1  UNL     1       6.193 -70.405  60.408  1.00  0.00     0.160 HD
BRANCH  24  26
HETATM   26  C2  UNL     1       8.120 -70.466  59.654  1.00  0.00     0.111 C 
HETATM   27  C1  UNL     1       8.145 -70.034  58.219  1.00  0.00     0.037 C 
BRANCH  26  28
HETATM   28  C19 UNL     1       8.290 -71.907  59.820  1.00  0.00    -0.036 A 
HETATM   29  C20 UNL     1       7.322 -72.769  59.323  1.00  0.00     0.009 A 
HETATM   30  C21 UNL     1       7.483 -74.126  59.487  1.00  0.00     0.001 A 
HETATM   31  C22 UNL     1       8.579 -74.662  60.137  1.00  0.00     0.000 A 
HETATM   32  C23 UNL     1       9.545 -73.806  60.632  1.00  0.00     0.001 A 
HETATM   33  C24 UNL     1       9.376 -72.428  60.461  1.00  0.00     0.009 A 
ENDBRANCH  26  28
ENDBRANCH  24  26
ENDBRANCH   1  24
TORSDOF 11
ENDMDL
MODEL 3
REMARK VINA RESULT: -9.876253876      1.002      1.698
REMARK  11 active torsions:
REMARK  status: ('A' for Active; 'I' for Inactive)
REMARK    1  A    between atoms: C2_2  and  N1_3 
REMARK    2  A    between atoms: C2_2  and  C19_28 
REMARK    3  A    between atoms: N1_3  and  C3_5 
REMARK    4  A    between atoms: C6_10  and  C7_11 
REMARK    5  A    between atoms: C7_11  and  N3_12 
REMARK    6  A    between atoms: N3_12  and  C8_15 
REMARK    7  A    between atoms: C8_15  and  C9_16 
REMARK    8  A    between atoms: C9_16  and  C10_17 
REMARK    9  A    between atoms: C10_17  and  N4_18 
REMARK   10  A    between atoms: N4_18  and  C11_20 
REMARK   11  A    between atoms: C11_20  and  C12_21 
ROOT
HETATM    1  C3  UNL     1       7.206 -68.216  60.682  1.00  0.00     0.044 A 
HETATM    2  C4  UNL     1       7.068 -68.213  62.051  1.00  0.00     0.116 A 
HETATM    3  N2  UNL     1       7.174 -67.090  62.757  1.00  0.00    -0.372 N 
ATOM      4  H2  UNL     1       7.066 -67.108  63.771  1.00  0.00     0.164 HD
HETATM    5  C5  UNL     1       7.425 -65.925  62.120  1.00  0.00     0.096 A 
HETATM    6  C6  UNL     1       7.578 -65.834  60.756  1.00  0.00    -0.015 A 
HETATM    7  C18 UNL     1       7.459 -67.030  60.039  1.00  0.00     0.040 A 
ENDROOT
BRANCH   6   8
HETATM    8  C7  UNL     1       7.894 -64.524  60.184  1.00  0.00     0.272 C 
BRANCH   8   9
HETATM    9  N3  UNL     1       7.124 -64.096  59.080  1.00  0.00    -0.071 N 
ATOM     10  H32 UNL     1       6.964 -64.845  58.406  1.00  0.00     0.277 HD
ATOM     11  H31 UNL     1       6.152 -63.919  59.332  1.00  0.00     0.277 HD
BRANCH   9  12
HETATM   12  C8  UNL     1       7.760 -62.926  58.467  1.00  0.00     0.234 C 
BRANCH  12  13
HETATM   13  C9  UNL     1       8.440 -63.248  57.161  1.00  0.00     0.046 C 
BRANCH  13  14
HETATM   14  C10 UNL     1       7.772 -62.528  56.016  1.00  0.00     0.115 C 
BRANCH  14  15
HETATM   15  N4  UNL     1       7.347 -63.411  54.970  1.00  0.00    -0.417 N 
ATOM     16  H4  UNL     1       7.971 -63.693  54.214  1.00  0.00     0.153 HD
BRANCH  15  17
HETATM   17  C11 UNL     1       5.992 -63.871  55.047  1.00  0.00     0.152 C 
BRANCH  17  18
HETATM   18  C12 UNL     1       6.009 -65.349  55.330  1.00  0.00    -0.041 A 
HETATM   19  C13 UNL     1       5.615 -65.860  56.535  1.00  0.00     0.009 A 
HETATM   20  C14 UNL     1       5.660 -67.235  56.710  1.00  0.00     0.001 A 
HETATM   21  C15 UNL     1       6.087 -68.088  55.718  1.00  0.00     0.000 A 
HETATM   22  C16 UNL     1       6.491 -67.580  54.495  1.00  0.00     0.001 A 
HETATM   23  C17 UNL     1       6.436 -66.212  54.343  1.00  0.00     0.009 A 
ENDBRANCH  17  18
ENDBRANCH  15  17
ENDBRANCH  14  15
ENDBRANCH  13  14
ENDBRANCH  12  13
ENDBRANCH   9  12
ENDBRANCH   8   9
ENDBRANCH   6   8
BRANCH   1  24
HETATM   24  N1  UNL     1       7.152 -69.438  60.006  1.00  0.00    -0.381 N 
ATOM     25  H1  UNL     1       6.249 -69.910  60.040  1.00  0.00     0.160 HD
BRANCH  24  26
HETATM   26  C2  UNL     1       8.162 -70.122  59.279  1.00  0.00     0.111 C 
HETATM   27  C1  UNL     1       8.138 -69.929  57.793  1.00  0.00     0.037 C 
BRANCH  26  28
HETATM   28  C19 UNL     1       8.340 -71.518  59.671  1.00  0.00    -0.036 A 
HETATM   29  C20 UNL     1       7.342 -72.439  59.384  1.00  0.00     0.009 A 
HETATM   30  C21 UNL     1       7.510 -73.752  59.760  1.00  0.00     0.001 A 
HETATM   31  C22 UNL     1       8.645 -74.186  60.421  1.00  0.00     0.000 A 
HETATM   32  C23 UNL     1       9.640 -73.271  60.708  1.00  0.00     0.001 A 
HETATM   33  C24 UNL     1       9.463 -71.938  60.321  1.00  0.00     0.009 A 
ENDBRANCH  26  28
ENDBRANCH  24  26
ENDBRANCH   1  24
TORSDOF 11
ENDMDL
MODEL 4
REMARK VINA RESULT: -9.810406841      1.390      7.307
REMARK  11 active torsions:
REMARK  status: ('A' for Active; 'I' for Inactive)
REMARK    1  A    between atoms: C2_2  and  N1_3 
REMARK    2  A    between atoms: C2_2  and  C19_28 
REMARK    3  A    between atoms: N1_3  and  C3_5 
REMARK    4  A    between atoms: C6_10  and  C7_11 
REMARK    5  A    between atoms: C7_11  and  N3_12 
REMARK    6  A    between atoms: N3_12  and  C8_15 
REMARK    7  A    between atoms: C8_15  and  C9_16 
REMARK    8  A    between atoms: C9_16  and  C10_17 
REMARK    9  A    between atoms: C10_17  and  N4_18 
REMARK   10  A    between atoms: N4_18  and  C11_20 
REMARK   11  A    between atoms: C11_20  and  C12_21 
ROOT
HETATM    1  C3  UNL     1       6.510 -64.404  57.518  1.00  0.00     0.044 A 
HETATM    2  C4  UNL     1       6.495 -63.412  56.564  1.00  0.00     0.116 A 
HETATM    3  N2  UNL     1       6.327 -63.693  55.274  1.00  0.00    -0.372 N 
ATOM      4  H2  UNL     1       6.317 -62.943  54.582  1.00  0.00     0.164 HD
HETATM    5  C5  UNL     1       6.168 -64.977  54.888  1.00  0.00     0.096 A 
HETATM    6  C6  UNL     1       6.169 -66.031  55.771  1.00  0.00    -0.015 A 
HETATM    7  C18 UNL     1       6.346 -65.708  57.121  1.00  0.00     0.040 A 
ENDROOT
BRANCH   6   8
HETATM    8  C7  UNL     1       6.036 -67.385  55.229  1.00  0.00     0.272 C 
BRANCH   8   9
HETATM    9  N3  UNL     1       6.209 -68.463  56.126  1.00  0.00    -0.071 N 
ATOM     10  H32 UNL     1       5.883 -68.239  57.067  1.00  0.00     0.277 HD
ATOM     11  H31 UNL     1       5.571 -69.234  55.931  1.00  0.00     0.277 HD
BRANCH   9  12
HETATM   12  C8  UNL     1       7.612 -68.886  56.112  1.00  0.00     0.234 C 
BRANCH  12  13
HETATM   13  C9  UNL     1       7.903 -69.979  57.109  1.00  0.00     0.046 C 
BRANCH  13  14
HETATM   14  C10 UNL     1       8.164 -69.404  58.478  1.00  0.00     0.115 C 
BRANCH  14  15
HETATM   15  N4  UNL     1       7.573 -70.172  59.533  1.00  0.00    -0.417 N 
ATOM     16  H4  UNL     1       6.563 -70.282  59.621  1.00  0.00     0.153 HD
BRANCH  15  17
HETATM   17  C11 UNL     1       8.485 -70.777  60.458  1.00  0.00     0.152 C 
BRANCH  17  18
HETATM   18  C12 UNL     1       8.488 -72.262  60.220  1.00  0.00    -0.041 A 
HETATM   19  C13 UNL     1       7.455 -72.896  59.587  1.00  0.00     0.009 A 
HETATM   20  C14 UNL     1       7.540 -74.268  59.407  1.00  0.00     0.001 A 
HETATM   21  C15 UNL     1       8.619 -75.001  59.842  1.00  0.00     0.000 A 
HETATM   22  C16 UNL     1       9.670 -74.369  60.487  1.00  0.00     0.001 A 
HETATM   23  C17 UNL     1       9.565 -73.006  60.654  1.00  0.00     0.009 A 
ENDBRANCH  17  18
ENDBRANCH  15  17
ENDBRANCH  14  15
ENDBRANCH  13  14
ENDBRANCH  12  13
ENDBRANCH   9  12
ENDBRANCH   8   9
ENDBRANCH   6   8
BRANCH   1  24
HETATM   24  N1  UNL     1       6.760 -64.051  58.847  1.00  0.00    -0.381 N 
ATOM     25  H1  UNL     1       6.010 -63.533  59.304  1.00  0.00     0.160 HD
BRANCH  24  26
HETATM   26  C2  UNL     1       7.898 -64.305  59.658  1.00  0.00     0.111 C 
HETATM   27  C1  UNL     1       9.160 -64.639  58.922  1.00  0.00     0.037 C 
BRANCH  26  28
HETATM   28  C19 UNL     1       7.642 -65.198  60.786  1.00  0.00    -0.036 A 
HETATM   29  C20 UNL     1       7.579 -64.673  62.070  1.00  0.00     0.009 A 
HETATM   30  C21 UNL     1       7.343 -65.517  63.130  1.00  0.00     0.001 A 
HETATM   31  C22 UNL     1       7.168 -66.878  62.959  1.00  0.00     0.000 A 
HETATM   32  C23 UNL     1       7.229 -67.404  61.682  1.00  0.00     0.001 A 
HETATM   33  C24 UNL     1       7.468 -66.539  60.609  1.00  0.00     0.009 A 
ENDBRANCH  26  28
ENDBRANCH  24  26
ENDBRANCH   1  24
TORSDOF 11
ENDMDL
MODEL 5
REMARK VINA RESULT: -9.759942769      1.582      2.826
REMARK  11 active torsions:
REMARK  status: ('A' for Active; 'I' for Inactive)
REMARK    1  A    between atoms: C2_2  and  N1_3 
REMARK    2  A    between atoms: C2_2  and  C19_28 
REMARK    3  A    between atoms: N1_3  and  C3_5 
REMARK    4  A    between atoms: C6_10  and  C7_11 
REMARK    5  A    between atoms: C7_11  and  N3_12 
REMARK    6  A    between atoms: N3_12  and  C8_15 
REMARK    7  A    between atoms: C8_15  and  C9_16 
REMARK    8  A    between atoms: C9_16  and  C10_17 
REMARK    9  A    between atoms: C10_17  and  N4_18 
REMARK   10  A    between atoms: N4_18  and  C11_20 
REMARK   11  A    between atoms: C11_20  and  C12_21 
ROOT
HETATM    1  C3  UNL     1       7.084 -68.755  61.248  1.00  0.00     0.044 A 
HETATM    2  C4  UNL     1       6.988 -68.924  62.610  1.00  0.00     0.116 A 
HETATM    3  N2  UNL     1       7.070 -67.891  63.445  1.00  0.00    -0.372 N 
ATOM      4  H2  UNL     1       6.995 -68.036  64.452  1.00  0.00     0.164 HD
HETATM    5  C5  UNL     1       7.255 -66.648  62.949  1.00  0.00     0.096 A 
HETATM    6  C6  UNL     1       7.362 -66.386  61.604  1.00  0.00    -0.015 A 
HETATM    7  C18 UNL     1       7.269 -67.490  60.748  1.00  0.00     0.040 A 
ENDROOT
BRANCH   6   8
HETATM    8  C7  UNL     1       7.608 -65.004  61.188  1.00  0.00     0.272 C 
BRANCH   8   9
HETATM    9  N3  UNL     1       7.352 -64.677  59.837  1.00  0.00    -0.071 N 
ATOM     10  H32 UNL     1       6.859 -65.423  59.346  1.00  0.00     0.277 HD
ATOM     11  H31 UNL     1       6.645 -63.949  59.743  1.00  0.00     0.277 HD
BRANCH   9  12
HETATM   12  C8  UNL     1       8.611 -64.318  59.177  1.00  0.00     0.234 C 
BRANCH  12  13
HETATM   13  C9  UNL     1       8.811 -65.040  57.869  1.00  0.00     0.046 C 
BRANCH  13  14
HETATM   14  C10 UNL     1       7.511 -65.617  57.369  1.00  0.00     0.115 C 
BRANCH  14  15
HETATM   15  N4  UNL     1       6.944 -64.870  56.285  1.00  0.00    -0.417 N 
ATOM     16  H4  UNL     1       5.942 -64.693  56.216  1.00  0.00     0.153 HD
BRANCH  15  17
HETATM   17  C11 UNL     1       7.869 -64.387  55.302  1.00  0.00     0.152 C 
BRANCH  17  18
HETATM   18  C12 UNL     1       7.489 -62.975  54.947  1.00  0.00    -0.041 A 
HETATM   19  C13 UNL     1       7.172 -62.610  53.669  1.00  0.00     0.009 A 
HETATM   20  C14 UNL     1       6.831 -61.288  53.430  1.00  0.00     0.001 A 
HETATM   21  C15 UNL     1       6.805 -60.344  54.431  1.00  0.00     0.000 A 
HETATM   22  C16 UNL     1       7.128 -60.702  55.729  1.00  0.00     0.001 A 
HETATM   23  C17 UNL     1       7.461 -62.022  55.943  1.00  0.00     0.009 A 
ENDBRANCH  17  18
ENDBRANCH  15  17
ENDBRANCH  14  15
ENDBRANCH  13  14
ENDBRANCH  12  13
ENDBRANCH   9  12
ENDBRANCH   8   9
ENDBRANCH   6   8
BRANCH   1  24
HETATM   24  N1  UNL     1       7.059 -69.887  60.429  1.00  0.00    -0.381 N 
ATOM     25  H1  UNL     1       6.174 -70.395  60.423  1.00  0.00     0.160 HD
BRANCH  24  26
HETATM   26  C2  UNL     1       8.075 -70.438  59.604  1.00  0.00     0.111 C 
HETATM   27  C1  UNL     1       8.045 -70.016  58.167  1.00  0.00     0.037 C 
BRANCH  26  28
HETATM   28  C19 UNL     1       8.270 -71.875  59.775  1.00  0.00    -0.036 A 
HETATM   29  C20 UNL     1       7.311 -72.755  59.291  1.00  0.00     0.009 A 
HETATM   30  C21 UNL     1       7.495 -74.109  59.458  1.00  0.00     0.001 A 
HETATM   31  C22 UNL     1       8.607 -74.624  60.099  1.00  0.00     0.000 A 
HETATM   32  C23 UNL     1       9.564 -73.751  60.581  1.00  0.00     0.001 A 
HETATM   33  C24 UNL     1       9.371 -72.376  60.406  1.00  0.00     0.009 A 
ENDBRANCH  26  28
ENDBRANCH  24  26
ENDBRANCH   1  24
TORSDOF 11
ENDMDL
