MODEL 1
REMARK VINA RESULT: -7.923849908      0.000      0.000
REMARK  14 active torsions:
REMARK  status: ('A' for Active; 'I' for Inactive)
REMARK    1  A    between atoms: C2_2  and  C3_3 
REMARK    2  A    between atoms: C3_3  and  C4_4 
REMARK    3  A    between atoms: C4_4  and  C6_6 
REMARK    4  A    between atoms: C6_6  and  C8_8 
REMARK    5  A    between atoms: C8_8  and  C10_10 
REMARK    6  A    between atoms: C10_10  and  C11_11 
REMARK    7  A    between atoms: C11_11  and  C13_13 
REMARK    8  A    between atoms: C16_17  and  O2_18 
REMARK    9  A    between atoms: O2_18  and  C17_19 
REMARK   10  A    between atoms: C19_22  and  O4_23 
REMARK   11  A    between atoms: O4_23  and  C20_24 
REMARK   12  A    between atoms: C20_24  and  C21_26 
REMARK   13  A    between atoms: C29_34  and  O6_35 
REMARK   14  A    between atoms: C32_39  and  O7_40 
ROOT
HETATM    1  C13 UNL     1     -21.101 -45.614 -51.061  1.00  0.00     0.034 A 
HETATM    2  C14 UNL     1     -19.699 -45.242 -50.872  1.00  0.00     0.074 A 
HETATM    3  C15 UNL     1     -18.924 -44.375 -51.763  1.00  0.00     0.164 C 
HETATM    4  O1  UNL     1     -19.325 -43.265 -52.044  1.00  0.00    -0.295 OA
HETATM    5  C16 UNL     1     -17.617 -44.777 -52.378  1.00  0.00     0.231 C 
HETATM    6  C19 UNL     1     -17.924 -45.614 -53.578  1.00  0.00     0.180 C 
HETATM    7  C24 UNL     1     -18.443 -46.981 -53.364  1.00  0.00     0.026 C 
HETATM    8  C25 UNL     1     -18.772 -47.364 -54.837  1.00  0.00     0.022 C 
HETATM    9  C26 UNL     1     -17.513 -48.033 -52.898  1.00  0.00    -0.009 C 
HETATM   10  C27 UNL     1     -16.846 -47.831 -51.573  1.00  0.00     0.018 C 
HETATM   11  C28 UNL     1     -16.317 -48.232 -53.849  1.00  0.00     0.018 C 
HETATM   12  C29 UNL     1     -18.156 -49.400 -52.903  1.00  0.00     0.127 C 
HETATM   13  C30 UNL     1     -19.574 -49.477 -52.507  1.00  0.00     0.035 C 
HETATM   14  C31 UNL     1     -20.464 -48.364 -52.868  1.00  0.00     0.042 C 
HETATM   15  C32 UNL     1     -19.794 -46.985 -52.736  1.00  0.00     0.073 C 
HETATM   16  C33 UNL     1     -19.955 -46.593 -51.326  1.00  0.00     0.042 A 
ENDROOT
BRANCH   1  17
HETATM   17  C11 UNL     1     -22.040 -45.762 -49.947  1.00  0.00    -0.078 C 
HETATM   18  C12 UNL     1     -23.286 -46.557 -50.220  1.00  0.00     0.044 C 
BRANCH  17  19
HETATM   19  C10 UNL     1     -21.826 -45.239 -48.751  1.00  0.00     0.010 C 
BRANCH  19  20
HETATM   20  C8  UNL     1     -22.473 -45.541 -47.511  1.00  0.00    -0.056 C 
HETATM   21  C9  UNL     1     -21.904 -46.602 -46.652  1.00  0.00     0.049 C 
BRANCH  20  22
HETATM   22  C6  UNL     1     -23.415 -44.621 -46.884  1.00  0.00    -0.058 C 
HETATM   23  C7  UNL     1     -23.070 -43.663 -46.043  1.00  0.00     0.020 C 
BRANCH  22  24
HETATM   24  C4  UNL     1     -24.893 -44.793 -47.190  1.00  0.00     0.017 C 
HETATM   25  C5  UNL     1     -25.225 -43.751 -48.274  1.00  0.00     0.015 C 
BRANCH  24  26
HETATM   26  C3  UNL     1     -25.766 -44.576 -46.034  1.00  0.00     0.035 C 
BRANCH  26  27
HETATM   27  C2  UNL     1     -26.790 -43.531 -46.186  1.00  0.00    -0.036 C 
HETATM   28  C1  UNL     1     -27.567 -43.035 -45.255  1.00  0.00     0.007 C 
ENDBRANCH  26  27
ENDBRANCH  24  26
ENDBRANCH  22  24
ENDBRANCH  20  22
ENDBRANCH  19  20
ENDBRANCH  17  19
ENDBRANCH   1  17
BRANCH  15  29
HETATM   29  O7  UNL     1     -20.579 -46.143 -53.550  1.00  0.00    -0.389 OA
ATOM     30  H7  UNL     1     -20.641 -45.324 -53.073  1.00  0.00     0.210 HD
ENDBRANCH  15  29
BRANCH   5  31
HETATM   31  O2  UNL     1     -16.942 -43.607 -52.876  1.00  0.00    -0.306 OA
BRANCH  31  32
HETATM   32  C17 UNL     1     -15.778 -43.127 -52.303  1.00  0.00     0.255 C 
HETATM   33  C18 UNL     1     -14.752 -42.365 -53.048  1.00  0.00     0.126 C 
HETATM   34  O3  UNL     1     -15.548 -43.337 -51.065  1.00  0.00    -0.266 OA
ENDBRANCH  31  32
ENDBRANCH   5  31
BRANCH   6  35
HETATM   35  O4  UNL     1     -16.915 -45.490 -54.575  1.00  0.00    -0.312 OA
BRANCH  35  36
HETATM   36  C20 UNL     1     -16.848 -44.518 -55.536  1.00  0.00     0.262 C 
HETATM   37  O5  UNL     1     -15.722 -44.236 -56.019  1.00  0.00    -0.265 OA
BRANCH  36  38
HETATM   38  C21 UNL     1     -18.049 -43.780 -56.035  1.00  0.00     0.077 C 
HETATM   39  C22 UNL     1     -17.729 -42.327 -56.225  1.00  0.00     0.020 C 
HETATM   40  C23 UNL     1     -18.696 -44.431 -57.210  1.00  0.00     0.020 C 
ENDBRANCH  36  38
ENDBRANCH  35  36
ENDBRANCH   6  35
BRANCH  12  41
HETATM   41  O6  UNL     1     -17.880 -50.122 -54.093  1.00  0.00    -0.395 OA
ATOM     42  H6  UNL     1     -18.113 -51.041 -54.021  1.00  0.00     0.210 HD
ENDBRANCH  12  41
TORSDOF 14
ENDMDL
MODEL 2
REMARK VINA RESULT: -7.781010878      4.260      8.151
REMARK  14 active torsions:
REMARK  status: ('A' for Active; 'I' for Inactive)
REMARK    1  A    between atoms: C2_2  and  C3_3 
REMARK    2  A    between atoms: C3_3  and  C4_4 
REMARK    3  A    between atoms: C4_4  and  C6_6 
REMARK    4  A    between atoms: C6_6  and  C8_8 
REMARK    5  A    between atoms: C8_8  and  C10_10 
REMARK    6  A    between atoms: C10_10  and  C11_11 
REMARK    7  A    between atoms: C11_11  and  C13_13 
REMARK    8  A    between atoms: C16_17  and  O2_18 
REMARK    9  A    between atoms: O2_18  and  C17_19 
REMARK   10  A    between atoms: C19_22  and  O4_23 
REMARK   11  A    between atoms: O4_23  and  C20_24 
REMARK   12  A    between atoms: C20_24  and  C21_26 
REMARK   13  A    between atoms: C29_34  and  O6_35 
REMARK   14  A    between atoms: C32_39  and  O7_40 
ROOT
HETATM    1  C13 UNL     1     -18.960 -45.813 -51.800  1.00  0.00     0.034 A 
HETATM    2  C14 UNL     1     -20.089 -46.124 -52.676  1.00  0.00     0.074 A 
HETATM    3  C15 UNL     1     -21.230 -46.971 -52.321  1.00  0.00     0.164 C 
HETATM    4  O1  UNL     1     -21.886 -46.735 -51.327  1.00  0.00    -0.295 OA
HETATM    5  C16 UNL     1     -21.664 -48.157 -53.129  1.00  0.00     0.231 C 
HETATM    6  C19 UNL     1     -20.785 -49.305 -52.748  1.00  0.00     0.180 C 
HETATM    7  C24 UNL     1     -19.379 -49.291 -53.201  1.00  0.00     0.026 C 
HETATM    8  C25 UNL     1     -18.850 -50.538 -52.433  1.00  0.00     0.022 C 
HETATM    9  C26 UNL     1     -19.084 -49.569 -54.624  1.00  0.00    -0.009 C 
HETATM   10  C27 UNL     1     -19.663 -48.641 -55.646  1.00  0.00     0.018 C 
HETATM   11  C28 UNL     1     -19.610 -50.943 -55.082  1.00  0.00     0.018 C 
HETATM   12  C29 UNL     1     -17.601 -49.693 -54.880  1.00  0.00     0.127 C 
HETATM   13  C30 UNL     1     -16.711 -48.786 -54.134  1.00  0.00     0.035 C 
HETATM   14  C31 UNL     1     -17.080 -48.417 -52.760  1.00  0.00     0.042 C 
HETATM   15  C32 UNL     1     -18.592 -48.190 -52.579  1.00  0.00     0.073 C 
HETATM   16  C33 UNL     1     -18.838 -46.793 -52.970  1.00  0.00     0.042 A 
ENDROOT
BRANCH   1  17
HETATM   17  C11 UNL     1     -18.307 -44.502 -51.781  1.00  0.00    -0.078 C 
HETATM   18  C12 UNL     1     -17.214 -44.310 -50.767  1.00  0.00     0.044 C 
BRANCH  17  19
HETATM   19  C10 UNL     1     -18.638 -43.522 -52.605  1.00  0.00     0.010 C 
BRANCH  19  20
HETATM   20  C8  UNL     1     -17.946 -43.054 -53.766  1.00  0.00    -0.056 C 
HETATM   21  C9  UNL     1     -17.149 -41.811 -53.667  1.00  0.00     0.049 C 
BRANCH  20  22
HETATM   22  C6  UNL     1     -17.677 -43.918 -54.910  1.00  0.00    -0.058 C 
HETATM   23  C7  UNL     1     -16.704 -44.810 -54.954  1.00  0.00     0.020 C 
BRANCH  22  24
HETATM   24  C4  UNL     1     -18.551 -43.764 -56.143  1.00  0.00     0.017 C 
HETATM   25  C5  UNL     1     -19.598 -44.889 -56.063  1.00  0.00     0.015 C 
BRANCH  24  26
HETATM   26  C3  UNL     1     -17.818 -43.880 -57.406  1.00  0.00     0.035 C 
BRANCH  26  27
HETATM   27  C2  UNL     1     -17.205 -42.642 -57.912  1.00  0.00    -0.036 C 
HETATM   28  C1  UNL     1     -16.070 -42.104 -57.538  1.00  0.00     0.007 C 
ENDBRANCH  26  27
ENDBRANCH  24  26
ENDBRANCH  22  24
ENDBRANCH  20  22
ENDBRANCH  19  20
ENDBRANCH  17  19
ENDBRANCH   1  17
BRANCH  15  29
HETATM   29  O7  UNL     1     -18.795 -48.333 -51.190  1.00  0.00    -0.389 OA
ATOM     30  H7  UNL     1     -19.522 -47.756 -50.986  1.00  0.00     0.210 HD
ENDBRANCH  15  29
BRANCH   5  31
HETATM   31  O2  UNL     1     -22.998 -48.537 -52.744  1.00  0.00    -0.306 OA
BRANCH  31  32
HETATM   32  C17 UNL     1     -24.067 -48.466 -53.620  1.00  0.00     0.255 C 
HETATM   33  C18 UNL     1     -24.634 -47.193 -54.117  1.00  0.00     0.126 C 
HETATM   34  O3  UNL     1     -24.614 -49.539 -54.040  1.00  0.00    -0.266 OA
ENDBRANCH  31  32
ENDBRANCH   5  31
BRANCH   6  35
HETATM   35  O4  UNL     1     -21.462 -50.551 -52.886  1.00  0.00    -0.312 OA
BRANCH  35  36
HETATM   36  C20 UNL     1     -22.158 -51.202 -51.904  1.00  0.00     0.262 C 
HETATM   37  O5  UNL     1     -21.850 -50.972 -50.706  1.00  0.00    -0.265 OA
BRANCH  36  38
HETATM   38  C21 UNL     1     -23.261 -52.169 -52.189  1.00  0.00     0.077 C 
HETATM   39  C22 UNL     1     -23.122 -52.730 -53.573  1.00  0.00     0.020 C 
HETATM   40  C23 UNL     1     -23.437 -53.194 -51.120  1.00  0.00     0.020 C 
ENDBRANCH  36  38
ENDBRANCH  35  36
ENDBRANCH   6  35
BRANCH  12  41
HETATM   41  O6  UNL     1     -17.158 -51.041 -54.850  1.00  0.00    -0.395 OA
ATOM     42  H6  UNL     1     -16.248 -51.129 -55.109  1.00  0.00     0.210 HD
ENDBRANCH  12  41
TORSDOF 14
ENDMDL
MODEL 3
REMARK VINA RESULT: -7.678012660      2.006      3.455
REMARK  14 active torsions:
REMARK  status: ('A' for Active; 'I' for Inactive)
REMARK    1  A    between atoms: C2_2  and  C3_3 
REMARK    2  A    between atoms: C3_3  and  C4_4 
REMARK    3  A    between atoms: C4_4  and  C6_6 
REMARK    4  A    between atoms: C6_6  and  C8_8 
REMARK    5  A    between atoms: C8_8  and  C10_10 
REMARK    6  A    between atoms: C10_10  and  C11_11 
REMARK    7  A    between atoms: C11_11  and  C13_13 
REMARK    8  A    between atoms: C16_17  and  O2_18 
REMARK    9  A    between atoms: O2_18  and  C17_19 
REMARK   10  A    between atoms: C19_22  and  O4_23 
REMARK   11  A    between atoms: O4_23  and  C20_24 
REMARK   12  A    between atoms: C20_24  and  C21_26 
REMARK   13  A    between atoms: C29_34  and  O6_35 
REMARK   14  A    between atoms: C32_39  and  O7_40 
ROOT
HETATM    1  C13 UNL     1     -20.994 -45.563 -50.932  1.00  0.00     0.034 A 
HETATM    2  C14 UNL     1     -19.580 -45.212 -50.808  1.00  0.00     0.074 A 
HETATM    3  C15 UNL     1     -18.834 -44.360 -51.737  1.00  0.00     0.164 C 
HETATM    4  O1  UNL     1     -19.231 -43.245 -52.005  1.00  0.00    -0.295 OA
HETATM    5  C16 UNL     1     -17.561 -44.784 -52.409  1.00  0.00     0.231 C 
HETATM    6  C19 UNL     1     -17.935 -45.622 -53.589  1.00  0.00     0.180 C 
HETATM    7  C24 UNL     1     -18.464 -46.980 -53.346  1.00  0.00     0.026 C 
HETATM    8  C25 UNL     1     -18.866 -47.363 -54.800  1.00  0.00     0.022 C 
HETATM    9  C26 UNL     1     -17.530 -48.043 -52.918  1.00  0.00    -0.009 C 
HETATM   10  C27 UNL     1     -16.800 -47.846 -51.625  1.00  0.00     0.018 C 
HETATM   11  C28 UNL     1     -16.382 -48.264 -53.921  1.00  0.00     0.018 C 
HETATM   12  C29 UNL     1     -18.193 -49.400 -52.887  1.00  0.00     0.127 C 
HETATM   13  C30 UNL     1     -19.592 -49.455 -52.427  1.00  0.00     0.035 C 
HETATM   14  C31 UNL     1     -20.481 -48.330 -52.753  1.00  0.00     0.042 C 
HETATM   15  C32 UNL     1     -19.785 -46.960 -52.657  1.00  0.00     0.073 C 
HETATM   16  C33 UNL     1     -19.876 -46.561 -51.243  1.00  0.00     0.042 A 
ENDROOT
BRANCH   1  17
HETATM   17  C11 UNL     1     -21.884 -45.693 -49.775  1.00  0.00    -0.078 C 
HETATM   18  C12 UNL     1     -21.326 -45.262 -48.447  1.00  0.00     0.044 C 
BRANCH  17  19
HETATM   19  C10 UNL     1     -23.119 -46.157 -49.865  1.00  0.00     0.010 C 
BRANCH  19  20
HETATM   20  C8  UNL     1     -23.567 -47.421 -50.363  1.00  0.00    -0.056 C 
HETATM   21  C9  UNL     1     -22.873 -48.649 -49.914  1.00  0.00     0.049 C 
BRANCH  20  22
HETATM   22  C6  UNL     1     -24.882 -47.594 -50.971  1.00  0.00    -0.058 C 
HETATM   23  C7  UNL     1     -25.912 -48.154 -50.365  1.00  0.00     0.020 C 
BRANCH  22  24
HETATM   24  C4  UNL     1     -25.072 -47.129 -52.404  1.00  0.00     0.017 C 
HETATM   25  C5  UNL     1     -26.334 -46.247 -52.399  1.00  0.00     0.015 C 
BRANCH  24  26
HETATM   26  C3  UNL     1     -25.256 -48.221 -53.362  1.00  0.00     0.035 C 
BRANCH  26  27
HETATM   27  C2  UNL     1     -24.024 -48.829 -53.890  1.00  0.00    -0.036 C 
HETATM   28  C1  UNL     1     -23.374 -48.496 -54.977  1.00  0.00     0.007 C 
ENDBRANCH  26  27
ENDBRANCH  24  26
ENDBRANCH  22  24
ENDBRANCH  20  22
ENDBRANCH  19  20
ENDBRANCH  17  19
ENDBRANCH   1  17
BRANCH  15  29
HETATM   29  O7  UNL     1     -20.595 -46.110 -53.439  1.00  0.00    -0.389 OA
ATOM     30  H7  UNL     1     -21.431 -46.555 -53.504  1.00  0.00     0.210 HD
ENDBRANCH  15  29
BRANCH   5  31
HETATM   31  O2  UNL     1     -16.893 -43.626 -52.943  1.00  0.00    -0.306 OA
BRANCH  31  32
HETATM   32  C17 UNL     1     -15.749 -43.104 -52.365  1.00  0.00     0.255 C 
HETATM   33  C18 UNL     1     -14.749 -42.305 -53.108  1.00  0.00     0.126 C 
HETATM   34  O3  UNL     1     -15.516 -43.306 -51.127  1.00  0.00    -0.266 OA
ENDBRANCH  31  32
ENDBRANCH   5  31
BRANCH   6  35
HETATM   35  O4  UNL     1     -16.971 -45.517 -54.633  1.00  0.00    -0.312 OA
BRANCH  35  36
HETATM   36  C20 UNL     1     -16.913 -44.530 -55.578  1.00  0.00     0.262 C 
HETATM   37  O5  UNL     1     -15.790 -44.235 -56.061  1.00  0.00    -0.265 OA
BRANCH  36  38
HETATM   38  C21 UNL     1     -18.118 -43.789 -56.061  1.00  0.00     0.077 C 
HETATM   39  C22 UNL     1     -17.780 -42.352 -56.325  1.00  0.00     0.020 C 
HETATM   40  C23 UNL     1     -18.824 -44.476 -57.181  1.00  0.00     0.020 C 
ENDBRANCH  36  38
ENDBRANCH  35  36
ENDBRANCH   6  35
BRANCH  12  41
HETATM   41  O6  UNL     1     -17.982 -50.131 -54.085  1.00  0.00    -0.395 OA
ATOM     42  H6  UNL     1     -18.585 -50.861 -54.174  1.00  0.00     0.210 HD
ENDBRANCH  12  41
TORSDOF 14
ENDMDL
MODEL 4
REMARK VINA RESULT: -7.660419622      3.817      8.502
REMARK  14 active torsions:
REMARK  status: ('A' for Active; 'I' for Inactive)
REMARK    1  A    between atoms: C2_2  and  C3_3 
REMARK    2  A    between atoms: C3_3  and  C4_4 
REMARK    3  A    between atoms: C4_4  and  C6_6 
REMARK    4  A    between atoms: C6_6  and  C8_8 
REMARK    5  A    between atoms: C8_8  and  C10_10 
REMARK    6  A    between atoms: C10_10  and  C11_11 
REMARK    7  A    between atoms: C11_11  and  C13_13 
REMARK    8  A    between atoms: C16_17  and  O2_18 
REMARK    9  A    between atoms: O2_18  and  C17_19 
REMARK   10  A    between atoms: C19_22  and  O4_23 
REMARK   11  A    between atoms: O4_23  and  C20_24 
REMARK   12  A    between atoms: C20_24  and  C21_26 
REMARK   13  A    between atoms: C29_34  and  O6_35 
REMARK   14  A    between atoms: C32_39  and  O7_40 
ROOT
HETATM    1  C13 UNL     1     -19.379 -45.259 -55.911  1.00  0.00     0.034 A 
HETATM    2  C14 UNL     1     -18.712 -46.521 -55.591  1.00  0.00     0.074 A 
HETATM    3  C15 UNL     1     -19.382 -47.812 -55.410  1.00  0.00     0.164 C 
HETATM    4  O1  UNL     1     -20.111 -48.254 -56.273  1.00  0.00    -0.295 OA
HETATM    5  C16 UNL     1     -19.225 -48.660 -54.183  1.00  0.00     0.231 C 
HETATM    6  C19 UNL     1     -20.147 -48.116 -53.140  1.00  0.00     0.180 C 
HETATM    7  C24 UNL     1     -19.804 -46.827 -52.505  1.00  0.00     0.026 C 
HETATM    8  C25 UNL     1     -21.098 -46.599 -51.670  1.00  0.00     0.022 C 
HETATM    9  C26 UNL     1     -18.704 -46.789 -51.517  1.00  0.00    -0.009 C 
HETATM   10  C27 UNL     1     -17.338 -47.185 -51.985  1.00  0.00     0.018 C 
HETATM   11  C28 UNL     1     -18.941 -47.739 -50.328  1.00  0.00     0.018 C 
HETATM   12  C29 UNL     1     -18.602 -45.444 -50.836  1.00  0.00     0.127 C 
HETATM   13  C30 UNL     1     -18.858 -44.251 -51.661  1.00  0.00     0.035 C 
HETATM   14  C31 UNL     1     -19.869 -44.339 -52.725  1.00  0.00     0.042 C 
HETATM   15  C32 UNL     1     -19.854 -45.688 -53.465  1.00  0.00     0.073 C 
HETATM   16  C33 UNL     1     -18.829 -45.561 -54.514  1.00  0.00     0.042 A 
ENDROOT
BRANCH   1  17
HETATM   17  C11 UNL     1     -18.793 -44.256 -56.802  1.00  0.00    -0.078 C 
HETATM   18  C12 UNL     1     -19.755 -43.345 -57.514  1.00  0.00     0.044 C 
BRANCH  17  19
HETATM   19  C10 UNL     1     -17.489 -44.132 -56.988  1.00  0.00     0.010 C 
BRANCH  19  20
HETATM   20  C8  UNL     1     -16.616 -43.087 -56.549  1.00  0.00    -0.056 C 
HETATM   21  C9  UNL     1     -16.120 -42.109 -57.542  1.00  0.00     0.049 C 
BRANCH  20  22
HETATM   22  C6  UNL     1     -16.498 -42.714 -55.144  1.00  0.00    -0.058 C 
HETATM   23  C7  UNL     1     -17.408 -42.026 -54.479  1.00  0.00     0.020 C 
BRANCH  22  24
HETATM   24  C4  UNL     1     -15.235 -43.115 -54.401  1.00  0.00     0.017 C 
HETATM   25  C5  UNL     1     -15.676 -44.127 -53.329  1.00  0.00     0.015 C 
BRANCH  24  26
HETATM   26  C3  UNL     1     -14.550 -41.995 -53.751  1.00  0.00     0.035 C 
BRANCH  26  27
HETATM   27  C2  UNL     1     -13.525 -41.312 -54.555  1.00  0.00    -0.036 C 
HETATM   28  C1  UNL     1     -13.694 -40.298 -55.367  1.00  0.00     0.007 C 
ENDBRANCH  26  27
ENDBRANCH  24  26
ENDBRANCH  22  24
ENDBRANCH  20  22
ENDBRANCH  19  20
ENDBRANCH  17  19
ENDBRANCH   1  17
BRANCH  15  29
HETATM   29  O7  UNL     1     -21.130 -45.766 -54.061  1.00  0.00    -0.389 OA
ATOM     30  H7  UNL     1     -21.052 -45.286 -54.877  1.00  0.00     0.210 HD
ENDBRANCH  15  29
BRANCH   5  31
HETATM   31  O2  UNL     1     -19.689 -49.994 -54.462  1.00  0.00    -0.306 OA
BRANCH  31  32
HETATM   32  C17 UNL     1     -18.817 -51.052 -54.653  1.00  0.00     0.255 C 
HETATM   33  C18 UNL     1     -19.260 -52.443 -54.898  1.00  0.00     0.126 C 
HETATM   34  O3  UNL     1     -17.558 -50.849 -54.623  1.00  0.00    -0.266 OA
ENDBRANCH  31  32
ENDBRANCH   5  31
BRANCH   6  35
HETATM   35  O4  UNL     1     -20.597 -49.136 -52.254  1.00  0.00    -0.312 OA
BRANCH  35  36
HETATM   36  C20 UNL     1     -21.738 -49.878 -52.393  1.00  0.00     0.262 C 
HETATM   37  O5  UNL     1     -22.734 -49.339 -52.939  1.00  0.00    -0.265 OA
BRANCH  36  38
HETATM   38  C21 UNL     1     -21.853 -51.294 -51.927  1.00  0.00     0.077 C 
HETATM   39  C22 UNL     1     -22.512 -52.140 -52.975  1.00  0.00     0.020 C 
HETATM   40  C23 UNL     1     -20.573 -51.847 -51.399  1.00  0.00     0.020 C 
ENDBRANCH  36  38
ENDBRANCH  35  36
ENDBRANCH   6  35
BRANCH  12  41
HETATM   41  O6  UNL     1     -19.294 -45.412 -49.598  1.00  0.00    -0.395 OA
ATOM     42  H6  UNL     1     -18.814 -45.848 -48.903  1.00  0.00     0.210 HD
ENDBRANCH  12  41
TORSDOF 14
ENDMDL
MODEL 5
REMARK VINA RESULT: -7.603140541      1.641      3.411
REMARK  14 active torsions:
REMARK  status: ('A' for Active; 'I' for Inactive)
REMARK    1  A    between atoms: C2_2  and  C3_3 
REMARK    2  A    between atoms: C3_3  and  C4_4 
REMARK    3  A    between atoms: C4_4  and  C6_6 
REMARK    4  A    between atoms: C6_6  and  C8_8 
REMARK    5  A    between atoms: C8_8  and  C10_10 
REMARK    6  A    between atoms: C10_10  and  C11_11 
REMARK    7  A    between atoms: C11_11  and  C13_13 
REMARK    8  A    between atoms: C16_17  and  O2_18 
REMARK    9  A    between atoms: O2_18  and  C17_19 
REMARK   10  A    between atoms: C19_22  and  O4_23 
REMARK   11  A    between atoms: O4_23  and  C20_24 
REMARK   12  A    between atoms: C20_24  and  C21_26 
REMARK   13  A    between atoms: C29_34  and  O6_35 
REMARK   14  A    between atoms: C32_39  and  O7_40 
ROOT
HETATM    1  C13 UNL     1     -20.783 -45.365 -50.884  1.00  0.00     0.034 A 
HETATM    2  C14 UNL     1     -19.363 -45.020 -50.829  1.00  0.00     0.074 A 
HETATM    3  C15 UNL     1     -18.653 -44.193 -51.806  1.00  0.00     0.164 C 
HETATM    4  O1  UNL     1     -19.055 -43.081 -52.081  1.00  0.00    -0.295 OA
HETATM    5  C16 UNL     1     -17.413 -44.639 -52.523  1.00  0.00     0.231 C 
HETATM    6  C19 UNL     1     -17.842 -45.498 -53.669  1.00  0.00     0.180 C 
HETATM    7  C24 UNL     1     -18.367 -46.848 -53.374  1.00  0.00     0.026 C 
HETATM    8  C25 UNL     1     -18.833 -47.259 -54.801  1.00  0.00     0.022 C 
HETATM    9  C26 UNL     1     -17.421 -47.908 -52.964  1.00  0.00    -0.009 C 
HETATM   10  C27 UNL     1     -16.635 -47.689 -51.708  1.00  0.00     0.018 C 
HETATM   11  C28 UNL     1     -16.318 -48.157 -54.011  1.00  0.00     0.018 C 
HETATM   12  C29 UNL     1     -18.090 -49.260 -52.876  1.00  0.00     0.127 C 
HETATM   13  C30 UNL     1     -19.468 -49.296 -52.355  1.00  0.00     0.035 C 
HETATM   14  C31 UNL     1     -20.364 -48.173 -52.666  1.00  0.00     0.042 C 
HETATM   15  C32 UNL     1     -19.657 -46.806 -52.630  1.00  0.00     0.073 C 
HETATM   16  C33 UNL     1     -19.685 -46.376 -51.222  1.00  0.00     0.042 A 
ENDROOT
BRANCH   1  17
HETATM   17  C11 UNL     1     -21.623 -45.465 -49.688  1.00  0.00    -0.078 C 
HETATM   18  C12 UNL     1     -23.089 -45.711 -49.914  1.00  0.00     0.044 C 
BRANCH  17  19
HETATM   19  C10 UNL     1     -21.143 -45.352 -48.460  1.00  0.00     0.010 C 
BRANCH  19  20
HETATM   20  C8  UNL     1     -21.408 -46.169 -47.316  1.00  0.00    -0.056 C 
HETATM   21  C9  UNL     1     -22.609 -45.884 -46.501  1.00  0.00     0.049 C 
BRANCH  20  22
HETATM   22  C6  UNL     1     -20.785 -47.475 -47.134  1.00  0.00    -0.058 C 
HETATM   23  C7  UNL     1     -20.365 -47.942 -45.973  1.00  0.00     0.020 C 
BRANCH  22  24
HETATM   24  C4  UNL     1     -20.575 -48.344 -48.362  1.00  0.00     0.017 C 
HETATM   25  C5  UNL     1     -21.918 -49.052 -48.615  1.00  0.00     0.015 C 
BRANCH  24  26
HETATM   26  C3  UNL     1     -19.525 -49.352 -48.202  1.00  0.00     0.035 C 
BRANCH  26  27
HETATM   27  C2  UNL     1     -18.233 -49.044 -48.834  1.00  0.00    -0.036 C 
HETATM   28  C1  UNL     1     -17.036 -49.312 -48.372  1.00  0.00     0.007 C 
ENDBRANCH  26  27
ENDBRANCH  24  26
ENDBRANCH  22  24
ENDBRANCH  20  22
ENDBRANCH  19  20
ENDBRANCH  17  19
ENDBRANCH   1  17
BRANCH  15  29
HETATM   29  O7  UNL     1     -20.494 -45.967 -53.394  1.00  0.00    -0.389 OA
ATOM     30  H7  UNL     1     -20.770 -45.281 -52.797  1.00  0.00     0.210 HD
ENDBRANCH  15  29
BRANCH   5  31
HETATM   31  O2  UNL     1     -16.762 -43.497 -53.110  1.00  0.00    -0.306 OA
BRANCH  31  32
HETATM   32  C17 UNL     1     -15.746 -42.814 -52.463  1.00  0.00     0.255 C 
HETATM   33  C18 UNL     1     -14.850 -43.436 -51.463  1.00  0.00     0.126 C 
HETATM   34  O3  UNL     1     -15.548 -41.581 -52.721  1.00  0.00    -0.266 OA
ENDBRANCH  31  32
ENDBRANCH   5  31
BRANCH   6  35
HETATM   35  O4  UNL     1     -16.923 -45.422 -54.754  1.00  0.00    -0.312 OA
BRANCH  35  36
HETATM   36  C20 UNL     1     -16.907 -44.462 -55.729  1.00  0.00     0.262 C 
HETATM   37  O5  UNL     1     -15.801 -44.153 -56.241  1.00  0.00    -0.265 OA
BRANCH  36  38
HETATM   38  C21 UNL     1     -18.140 -43.766 -56.209  1.00  0.00     0.077 C 
HETATM   39  C22 UNL     1     -17.879 -42.300 -56.390  1.00  0.00     0.020 C 
HETATM   40  C23 UNL     1     -18.774 -44.432 -57.384  1.00  0.00     0.020 C 
ENDBRANCH  36  38
ENDBRANCH  35  36
ENDBRANCH   6  35
BRANCH  12  41
HETATM   41  O6  UNL     1     -17.934 -50.017 -54.066  1.00  0.00    -0.395 OA
ATOM     42  H6  UNL     1     -18.722 -50.497 -54.294  1.00  0.00     0.210 HD
ENDBRANCH  12  41
TORSDOF 14
ENDMDL
