MODEL 1
REMARK VINA RESULT: -7.146119832      0.000      0.000
REMARK  5 active torsions:
REMARK  status: ('A' for Active; 'I' for Inactive)
REMARK    1  A    between atoms: O1_2  and  C2_3 
REMARK    2  A    between atoms: C18_21  and  O3_22 
REMARK    3  A    between atoms: O3_22  and  C19_23 
REMARK    4  A    between atoms: C27_32  and  O5_33 
REMARK    5  A    between atoms: C28_35  and  O6_36 
ROOT
HETATM    1  C2  UNL     1      -0.160   0.980 102.557  1.00  0.00     0.095 C 
HETATM    2  C3  UNL     1       0.276   0.284 103.787  1.00  0.00     0.009 C 
HETATM    3  C4  UNL     1       1.466   0.086 104.178  1.00  0.00    -0.010 C 
HETATM    4  C5  UNL     1       2.615   0.554 103.408  1.00  0.00     0.041 C 
HETATM    5  C6  UNL     1       3.484  -0.695 103.364  1.00  0.00     0.028 C 
HETATM    6  C7  UNL     1       3.375   1.477 104.257  1.00  0.00     0.154 C 
HETATM    7  O2  UNL     1       3.021   1.850 105.325  1.00  0.00    -0.295 OA
HETATM    8  C8  UNL     1       4.650   1.903 103.646  1.00  0.00     0.137 C 
HETATM    9 BR1  UNL     1       5.151   3.484 104.665  1.00  0.00    -0.082 Br
HETATM   10  C9  UNL     1       4.536   2.191 102.199  1.00  0.00     0.045 C 
HETATM   11  C10 UNL     1       5.880   2.113 101.579  1.00  0.00    -0.064 C 
HETATM   12  C11 UNL     1       5.935   2.334 100.272  1.00  0.00    -0.048 C 
HETATM   13  C12 UNL     1       7.264   2.260  99.610  1.00  0.00     0.037 C 
HETATM   14  C13 UNL     1       8.339   2.980 100.344  1.00  0.00     0.009 C 
HETATM   15  C14 UNL     1       8.063   3.038 101.799  1.00  0.00    -0.011 C 
HETATM   16  C15 UNL     1       9.342   3.040 102.602  1.00  0.00     0.010 C 
HETATM   17  C16 UNL     1       7.143   1.882 102.276  1.00  0.00     0.015 C 
HETATM   18  C17 UNL     1       7.866   0.608 102.018  1.00  0.00     0.015 C 
HETATM   19  C18 UNL     1       4.744   2.679  99.497  1.00  0.00     0.162 C 
HETATM   20  C21 UNL     1       3.411   2.438 100.171  1.00  0.00     0.047 C 
HETATM   21  C22 UNL     1       3.493   1.477 101.370  1.00  0.00    -0.027 C 
HETATM   22  C23 UNL     1       4.026   0.228 100.672  1.00  0.00     0.016 C 
HETATM   23  C24 UNL     1       2.253   1.116 102.051  1.00  0.00     0.028 C 
HETATM   24  C25 UNL     1       0.982   1.934 102.056  1.00  0.00     0.026 C 
HETATM   25  C26 UNL     1       0.516   2.141 100.622  1.00  0.00     0.022 C 
HETATM   26  C27 UNL     1       0.976   3.238 102.717  1.00  0.00     0.158 C 
HETATM   27  C28 UNL     1      -0.172   3.554 103.650  1.00  0.00     0.148 C 
HETATM   28  C29 UNL     1      -1.406   3.126 102.966  1.00  0.00     0.046 C 
HETATM   29  C30 UNL     1      -1.435   1.621 102.796  1.00  0.00    -0.010 C 
HETATM   30  C31 UNL     1      -2.137   1.196 104.121  1.00  0.00     0.018 C 
HETATM   31  C32 UNL     1      -2.563   1.384 101.803  1.00  0.00     0.018 C 
ENDROOT
BRANCH  19  32
HETATM   32  O3  UNL     1       4.852   2.117  98.205  1.00  0.00    -0.312 OA
BRANCH  32  33
HETATM   33  C19 UNL     1       4.556   2.766  97.042  1.00  0.00     0.255 C 
HETATM   34  C20 UNL     1       5.626   3.534  96.342  1.00  0.00     0.126 C 
HETATM   35  O4  UNL     1       3.381   2.697  96.589  1.00  0.00    -0.266 OA
ENDBRANCH  32  33
ENDBRANCH  19  32
BRANCH   1  36
HETATM   36  O1  UNL     1      -0.255  -0.054 101.642  1.00  0.00    -0.379 OA
HETATM   37  C1  UNL     1      -0.494  -1.304 102.060  1.00  0.00     0.203 C 
ENDBRANCH   1  36
BRANCH  26  38
HETATM   38  O5  UNL     1       0.773   4.300 101.770  1.00  0.00    -0.392 OA
ATOM     39  H5  UNL     1       0.520   5.106 102.206  1.00  0.00     0.210 HD
ENDBRANCH  26  38
BRANCH  27  40
HETATM   40  O6  UNL     1      -0.014   3.263 104.966  1.00  0.00    -0.393 OA
ATOM     41  H6  UNL     1      -0.302   3.910 105.599  1.00  0.00     0.210 HD
ENDBRANCH  27  40
TORSDOF 5
ENDMDL
MODEL 2
REMARK VINA RESULT: -6.644787233      2.541      4.698
REMARK  5 active torsions:
REMARK  status: ('A' for Active; 'I' for Inactive)
REMARK    1  A    between atoms: O1_2  and  C2_3 
REMARK    2  A    between atoms: C18_21  and  O3_22 
REMARK    3  A    between atoms: O3_22  and  C19_23 
REMARK    4  A    between atoms: C27_32  and  O5_33 
REMARK    5  A    between atoms: C28_35  and  O6_36 
ROOT
HETATM    1  C2  UNL     1       1.204  -0.316 102.725  1.00  0.00     0.095 C 
HETATM    2  C3  UNL     1       0.606   0.995 102.393  1.00  0.00     0.009 C 
HETATM    3  C4  UNL     1       1.190   2.002 101.890  1.00  0.00    -0.010 C 
HETATM    4  C5  UNL     1       2.612   1.979 101.562  1.00  0.00     0.041 C 
HETATM    5  C6  UNL     1       3.096   3.274 102.202  1.00  0.00     0.028 C 
HETATM    6  C7  UNL     1       2.742   2.233 100.123  1.00  0.00     0.154 C 
HETATM    7  O2  UNL     1       1.829   2.311  99.372  1.00  0.00    -0.295 OA
HETATM    8  C8  UNL     1       4.145   2.388  99.691  1.00  0.00     0.137 C 
HETATM    9 BR1  UNL     1       4.069   2.147  97.761  1.00  0.00    -0.082 Br
HETATM   10  C9  UNL     1       5.065   1.422 100.333  1.00  0.00     0.045 C 
HETATM   11  C10 UNL     1       6.451   1.942 100.255  1.00  0.00    -0.064 C 
HETATM   12  C11 UNL     1       7.391   1.186 100.807  1.00  0.00    -0.048 C 
HETATM   13  C12 UNL     1       8.794   1.673 100.755  1.00  0.00     0.037 C 
HETATM   14  C13 UNL     1       9.201   2.184  99.419  1.00  0.00     0.009 C 
HETATM   15  C14 UNL     1       8.041   2.704  98.656  1.00  0.00    -0.011 C 
HETATM   16  C15 UNL     1       8.447   3.835  97.741  1.00  0.00     0.010 C 
HETATM   17  C16 UNL     1       6.880   3.163  99.578  1.00  0.00     0.015 C 
HETATM   18  C17 UNL     1       7.395   4.284 100.410  1.00  0.00     0.015 C 
HETATM   19  C18 UNL     1       7.082  -0.107 101.416  1.00  0.00     0.162 C 
HETATM   20  C21 UNL     1       5.621  -0.386 101.697  1.00  0.00     0.047 C 
HETATM   21  C22 UNL     1       4.745   0.879 101.706  1.00  0.00    -0.027 C 
HETATM   22  C23 UNL     1       5.416   1.658 102.836  1.00  0.00     0.016 C 
HETATM   23  C24 UNL     1       3.330   0.736 102.039  1.00  0.00     0.028 C 
HETATM   24  C25 UNL     1       2.515  -0.527 101.886  1.00  0.00     0.026 C 
HETATM   25  C26 UNL     1       3.154  -1.637 102.708  1.00  0.00     0.022 C 
HETATM   26  C27 UNL     1       2.263  -1.057 100.547  1.00  0.00     0.158 C 
HETATM   27  C28 UNL     1       0.847  -1.464 100.200  1.00  0.00     0.148 C 
HETATM   28  C29 UNL     1       0.334  -2.233 101.349  1.00  0.00     0.046 C 
HETATM   29  C30 UNL     1       0.204  -1.351 102.574  1.00  0.00    -0.010 C 
HETATM   30  C31 UNL     1      -1.252  -0.826 102.397  1.00  0.00     0.018 C 
HETATM   31  C32 UNL     1       0.001  -2.335 103.717  1.00  0.00     0.018 C 
ENDROOT
BRANCH  19  32
HETATM   32  O3  UNL     1       7.936  -0.314 102.522  1.00  0.00    -0.312 OA
BRANCH  32  33
HETATM   33  C19 UNL     1       7.801  -1.315 103.440  1.00  0.00     0.255 C 
HETATM   34  C20 UNL     1       7.340  -0.985 104.819  1.00  0.00     0.126 C 
HETATM   35  O4  UNL     1       8.071  -2.498 103.094  1.00  0.00    -0.266 OA
ENDBRANCH  32  33
ENDBRANCH  19  32
BRANCH   1  36
HETATM   36  O1  UNL     1       1.590  -0.147 104.044  1.00  0.00    -0.379 OA
HETATM   37  C1  UNL     1       0.950   0.732 104.825  1.00  0.00     0.203 C 
ENDBRANCH   1  36
BRANCH  26  38
HETATM   38  O5  UNL     1       2.898  -2.332 100.363  1.00  0.00    -0.392 OA
ATOM     39  H5  UNL     1       2.266  -3.001 100.127  1.00  0.00     0.210 HD
ENDBRANCH  26  38
BRANCH  27  40
HETATM   40  O6  UNL     1       0.048  -0.535  99.618  1.00  0.00    -0.393 OA
ATOM     41  H6  UNL     1      -0.371  -0.766  98.798  1.00  0.00     0.210 HD
ENDBRANCH  27  40
TORSDOF 5
ENDMDL
MODEL 3
REMARK VINA RESULT: -6.393366955      1.294      1.538
REMARK  5 active torsions:
REMARK  status: ('A' for Active; 'I' for Inactive)
REMARK    1  A    between atoms: O1_2  and  C2_3 
REMARK    2  A    between atoms: C18_21  and  O3_22 
REMARK    3  A    between atoms: O3_22  and  C19_23 
REMARK    4  A    between atoms: C27_32  and  O5_33 
REMARK    5  A    between atoms: C28_35  and  O6_36 
ROOT
HETATM    1  C2  UNL     1      -0.692   1.874 101.905  1.00  0.00     0.095 C 
HETATM    2  C3  UNL     1      -0.769   0.775 102.891  1.00  0.00     0.009 C 
HETATM    3  C4  UNL     1       0.188   0.071 103.334  1.00  0.00    -0.010 C 
HETATM    4  C5  UNL     1       1.564   0.279 102.891  1.00  0.00     0.041 C 
HETATM    5  C6  UNL     1       1.997  -1.141 102.553  1.00  0.00     0.028 C 
HETATM    6  C7  UNL     1       2.366   0.615 104.072  1.00  0.00     0.154 C 
HETATM    7  O2  UNL     1       1.920   0.800 105.155  1.00  0.00    -0.295 OA
HETATM    8  C8  UNL     1       3.811   0.700 103.780  1.00  0.00     0.137 C 
HETATM    9 BR1  UNL     1       4.538   1.675 105.300  1.00  0.00    -0.082 Br
HETATM   10  C9  UNL     1       4.109   1.374 102.497  1.00  0.00     0.045 C 
HETATM   11  C10 UNL     1       5.466   0.985 102.045  1.00  0.00    -0.064 C 
HETATM   12  C11 UNL     1       5.869   1.502 100.891  1.00  0.00    -0.048 C 
HETATM   13  C12 UNL     1       7.222   1.133 100.399  1.00  0.00     0.037 C 
HETATM   14  C13 UNL     1       8.278   1.204 101.443  1.00  0.00     0.009 C 
HETATM   15  C14 UNL     1       7.723   0.977 102.798  1.00  0.00    -0.011 C 
HETATM   16  C15 UNL     1       8.735   0.313 103.703  1.00  0.00     0.010 C 
HETATM   17  C16 UNL     1       6.413   0.146 102.773  1.00  0.00     0.015 C 
HETATM   18  C17 UNL     1       6.750  -1.189 102.209  1.00  0.00     0.015 C 
HETATM   19  C18 UNL     1       5.040   2.438 100.134  1.00  0.00     0.162 C 
HETATM   20  C21 UNL     1       3.583   2.524 100.537  1.00  0.00     0.047 C 
HETATM   21  C22 UNL     1       3.104   1.322 101.370  1.00  0.00    -0.027 C 
HETATM   22  C23 UNL     1       3.368   0.191 100.377  1.00  0.00     0.016 C 
HETATM   23  C24 UNL     1       1.696   1.265 101.751  1.00  0.00     0.028 C 
HETATM   24  C25 UNL     1       0.768   2.452 101.869  1.00  0.00     0.026 C 
HETATM   25  C26 UNL     1       0.711   3.175 100.532  1.00  0.00     0.022 C 
HETATM   26  C27 UNL     1       1.018   3.452 102.905  1.00  0.00     0.158 C 
HETATM   27  C28 UNL     1      -0.153   3.905 103.751  1.00  0.00     0.148 C 
HETATM   28  C29 UNL     1      -1.278   4.139 102.828  1.00  0.00     0.046 C 
HETATM   29  C30 UNL     1      -1.729   2.843 102.186  1.00  0.00    -0.010 C 
HETATM   30  C31 UNL     1      -2.798   2.369 103.216  1.00  0.00     0.018 C 
HETATM   31  C32 UNL     1      -2.631   3.291 101.045  1.00  0.00     0.018 C 
ENDROOT
BRANCH  19  32
HETATM   32  O3  UNL     1       5.249   2.231  98.752  1.00  0.00    -0.312 OA
BRANCH  32  33
HETATM   33  C19 UNL     1       5.370   3.221  97.821  1.00  0.00     0.255 C 
HETATM   34  C20 UNL     1       4.208   3.544  96.943  1.00  0.00     0.126 C 
HETATM   35  O4  UNL     1       6.467   3.836  97.728  1.00  0.00    -0.266 OA
ENDBRANCH  32  33
ENDBRANCH  19  32
BRANCH   1  36
HETATM   36  O1  UNL     1      -0.898   1.218 100.704  1.00  0.00    -0.379 OA
HETATM   37  C1  UNL     1      -1.605   0.081 100.670  1.00  0.00     0.203 C 
ENDBRANCH   1  36
BRANCH  26  38
HETATM   38  O5  UNL     1       1.362   4.723 102.329  1.00  0.00    -0.392 OA
ATOM     39  H5  UNL     1       1.842   5.262 102.947  1.00  0.00     0.210 HD
ENDBRANCH  26  38
BRANCH  27  40
HETATM   40  O6  UNL     1      -0.381   3.246 104.915  1.00  0.00    -0.393 OA
ATOM     41  H6  UNL     1      -0.246   3.722 105.725  1.00  0.00     0.210 HD
ENDBRANCH  27  40
TORSDOF 5
ENDMDL
MODEL 4
REMARK VINA RESULT: -6.217035654      1.592      2.010
REMARK  5 active torsions:
REMARK  status: ('A' for Active; 'I' for Inactive)
REMARK    1  A    between atoms: O1_2  and  C2_3 
REMARK    2  A    between atoms: C18_21  and  O3_22 
REMARK    3  A    between atoms: O3_22  and  C19_23 
REMARK    4  A    between atoms: C27_32  and  O5_33 
REMARK    5  A    between atoms: C28_35  and  O6_36 
ROOT
HETATM    1  C2  UNL     1       0.242  -1.566 102.349  1.00  0.00     0.095 C 
HETATM    2  C3  UNL     1       1.014  -2.391 103.304  1.00  0.00     0.009 C 
HETATM    3  C4  UNL     1       2.254  -2.320 103.555  1.00  0.00    -0.010 C 
HETATM    4  C5  UNL     1       3.118  -1.351 102.886  1.00  0.00     0.041 C 
HETATM    5  C6  UNL     1       4.278  -2.231 102.440  1.00  0.00     0.028 C 
HETATM    6  C7  UNL     1       3.709  -0.493 103.917  1.00  0.00     0.154 C 
HETATM    7  O2  UNL     1       3.417  -0.527 105.065  1.00  0.00    -0.295 OA
HETATM    8  C8  UNL     1       4.726   0.434 103.381  1.00  0.00     0.137 C 
HETATM    9 BR1  UNL     1       4.917   1.777 104.777  1.00  0.00    -0.082 Br
HETATM   10  C9  UNL     1       4.343   1.034 102.084  1.00  0.00     0.045 C 
HETATM   11  C10 UNL     1       5.561   1.520 101.392  1.00  0.00    -0.064 C 
HETATM   12  C11 UNL     1       5.375   2.073 100.201  1.00  0.00    -0.048 C 
HETATM   13  C12 UNL     1       6.571   2.569  99.471  1.00  0.00     0.037 C 
HETATM   14  C13 UNL     1       7.501   3.363 100.317  1.00  0.00     0.009 C 
HETATM   15  C14 UNL     1       7.421   2.963 101.741  1.00  0.00    -0.011 C 
HETATM   16  C15 UNL     1       8.749   3.140 102.439  1.00  0.00     0.010 C 
HETATM   17  C16 UNL     1       6.921   1.505 101.923  1.00  0.00     0.015 C 
HETATM   18  C17 UNL     1       7.920   0.613 101.273  1.00  0.00     0.015 C 
HETATM   19  C18 UNL     1       4.041   2.235  99.625  1.00  0.00     0.162 C 
HETATM   20  C21 UNL     1       2.927   1.445 100.276  1.00  0.00     0.047 C 
HETATM   21  C22 UNL     1       3.428   0.279 101.147  1.00  0.00    -0.027 C 
HETATM   22  C23 UNL     1       4.178  -0.534 100.094  1.00  0.00     0.016 C 
HETATM   23  C24 UNL     1       2.436  -0.595 101.766  1.00  0.00     0.028 C 
HETATM   24  C25 UNL     1       1.005  -0.221 102.075  1.00  0.00     0.026 C 
HETATM   25  C26 UNL     1       0.309   0.196 100.788  1.00  0.00     0.022 C 
HETATM   26  C27 UNL     1       0.737   0.808 103.079  1.00  0.00     0.158 C 
HETATM   27  C28 UNL     1      -0.315   0.520 104.127  1.00  0.00     0.148 C 
HETATM   28  C29 UNL     1      -1.469  -0.066 103.420  1.00  0.00     0.046 C 
HETATM   29  C30 UNL     1      -1.114  -1.416 102.832  1.00  0.00    -0.010 C 
HETATM   30  C31 UNL     1      -1.487  -2.354 104.020  1.00  0.00     0.018 C 
HETATM   31  C32 UNL     1      -2.260  -1.716 101.878  1.00  0.00     0.018 C 
ENDROOT
BRANCH  19  32
HETATM   32  O3  UNL     1       4.119   2.080  98.222  1.00  0.00    -0.312 OA
BRANCH  32  33
HETATM   33  C19 UNL     1       3.711   3.006  97.307  1.00  0.00     0.255 C 
HETATM   34  C20 UNL     1       4.732   3.809  96.575  1.00  0.00     0.126 C 
HETATM   35  O4  UNL     1       2.475   3.158  97.106  1.00  0.00    -0.266 OA
ENDBRANCH  32  33
ENDBRANCH  19  32
BRANCH   1  36
HETATM   36  O1  UNL     1       0.306  -2.313 101.185  1.00  0.00    -0.379 OA
HETATM   37  C1  UNL     1       0.460  -3.641 101.244  1.00  0.00     0.203 C 
ENDBRANCH   1  36
BRANCH  26  38
HETATM   38  O5  UNL     1       0.129   1.967 102.485  1.00  0.00    -0.392 OA
ATOM     39  H5  UNL     1      -0.264   2.525 103.146  1.00  0.00     0.210 HD
ENDBRANCH  26  38
BRANCH  27  40
HETATM   40  O6  UNL     1       0.094  -0.037 105.295  1.00  0.00    -0.393 OA
ATOM     41  H6  UNL     1      -0.147   0.404 106.101  1.00  0.00     0.210 HD
ENDBRANCH  27  40
TORSDOF 5
ENDMDL
MODEL 5
REMARK VINA RESULT: -5.878829759      2.422      4.854
REMARK  5 active torsions:
REMARK  status: ('A' for Active; 'I' for Inactive)
REMARK    1  A    between atoms: O1_2  and  C2_3 
REMARK    2  A    between atoms: C18_21  and  O3_22 
REMARK    3  A    between atoms: O3_22  and  C19_23 
REMARK    4  A    between atoms: C27_32  and  O5_33 
REMARK    5  A    between atoms: C28_35  and  O6_36 
ROOT
HETATM    1  C2  UNL     1       2.064   0.664 105.145  1.00  0.00     0.095 C 
HETATM    2  C3  UNL     1       1.438   1.943 104.748  1.00  0.00     0.009 C 
HETATM    3  C4  UNL     1       1.901   2.810 103.948  1.00  0.00    -0.010 C 
HETATM    4  C5  UNL     1       3.190   2.633 103.286  1.00  0.00     0.041 C 
HETATM    5  C6  UNL     1       3.858   3.976 103.549  1.00  0.00     0.028 C 
HETATM    6  C7  UNL     1       2.953   2.640 101.839  1.00  0.00     0.154 C 
HETATM    7  O2  UNL     1       1.880   2.661 101.336  1.00  0.00    -0.295 OA
HETATM    8  C8  UNL     1       4.203   2.622 101.052  1.00  0.00     0.137 C 
HETATM    9 BR1  UNL     1       3.627   2.078  99.274  1.00  0.00    -0.082 Br
HETATM   10  C9  UNL     1       5.228   1.710 101.604  1.00  0.00     0.045 C 
HETATM   11  C10 UNL     1       6.562   2.110 101.096  1.00  0.00    -0.064 C 
HETATM   12  C11 UNL     1       7.591   1.387 101.521  1.00  0.00    -0.048 C 
HETATM   13  C12 UNL     1       8.947   1.758 101.039  1.00  0.00     0.037 C 
HETATM   14  C13 UNL     1       9.011   2.015  99.575  1.00  0.00     0.009 C 
HETATM   15  C14 UNL     1       7.710   2.486  99.045  1.00  0.00    -0.011 C 
HETATM   16  C15 UNL     1       7.899   3.422  97.874  1.00  0.00     0.010 C 
HETATM   17  C16 UNL     1       6.838   3.171 100.131  1.00  0.00     0.015 C 
HETATM   18  C17 UNL     1       7.580   4.372 100.599  1.00  0.00     0.015 C 
HETATM   19  C18 UNL     1       7.412   0.236 102.405  1.00  0.00     0.162 C 
HETATM   20  C21 UNL     1       6.065   0.112 103.084  1.00  0.00     0.047 C 
HETATM   21  C22 UNL     1       5.256   1.421 103.087  1.00  0.00    -0.027 C 
HETATM   22  C23 UNL     1       6.216   2.322 103.861  1.00  0.00     0.016 C 
HETATM   23  C24 UNL     1       3.972   1.435 103.781  1.00  0.00     0.028 C 
HETATM   24  C25 UNL     1       3.109   0.226 104.058  1.00  0.00     0.026 C 
HETATM   25  C26 UNL     1       3.906  -0.779 104.877  1.00  0.00     0.022 C 
HETATM   26  C27 UNL     1       2.507  -0.494 102.937  1.00  0.00     0.158 C 
HETATM   27  C28 UNL     1       1.039  -0.851 103.029  1.00  0.00     0.148 C 
HETATM   28  C29 UNL     1       0.816  -1.383 104.386  1.00  0.00     0.046 C 
HETATM   29  C30 UNL     1       1.030  -0.308 105.431  1.00  0.00    -0.010 C 
HETATM   30  C31 UNL     1      -0.408   0.285 105.531  1.00  0.00     0.018 C 
HETATM   31  C32 UNL     1       1.099  -1.076 106.742  1.00  0.00     0.018 C 
ENDROOT
BRANCH  19  32
HETATM   32  O3  UNL     1       8.515   0.150 103.283  1.00  0.00    -0.312 OA
BRANCH  32  33
HETATM   33  C19 UNL     1       8.703  -0.832 104.211  1.00  0.00     0.255 C 
HETATM   34  C20 UNL     1       8.602  -2.260 103.794  1.00  0.00     0.126 C 
HETATM   35  O4  UNL     1       8.958  -0.503 105.402  1.00  0.00    -0.266 OA
ENDBRANCH  32  33
ENDBRANCH  19  32
BRANCH   1  36
HETATM   36  O1  UNL     1       2.780   1.017 106.277  1.00  0.00    -0.379 OA
HETATM   37  C1  UNL     1       2.336   1.993 107.078  1.00  0.00     0.203 C 
ENDBRANCH   1  36
BRANCH  26  38
HETATM   38  O5  UNL     1       3.038  -1.825 102.828  1.00  0.00    -0.392 OA
ATOM     39  H5  UNL     1       3.989  -1.817 102.834  1.00  0.00     0.210 HD
ENDBRANCH  26  38
BRANCH  27  40
HETATM   40  O6  UNL     1       0.144   0.027 102.510  1.00  0.00    -0.393 OA
ATOM     41  H6  UNL     1      -0.345  -0.244 101.742  1.00  0.00     0.210 HD
ENDBRANCH  27  40
TORSDOF 5
ENDMDL
