MODEL 1
REMARK VINA RESULT: -6.445856499      0.000      0.000
REMARK  2 active torsions:
REMARK  status: ('A' for Active; 'I' for Inactive)
REMARK    1  A    between atoms: N1_1  and  C1_5 
REMARK    2  A    between atoms: C1_5  and  C2_6 
ROOT
HETATM    1  C2  UNL     1     -48.289  10.822  -3.744  1.00  0.00     0.011 C 
HETATM    2  C3  UNL     1     -47.468  10.509  -2.532  1.00  0.00     0.006 C 
HETATM    3  C4  UNL     1     -45.990  10.394  -2.830  1.00  0.00     0.000 C 
HETATM    4  C5  UNL     1     -45.502  11.434  -3.788  1.00  0.00     0.000 C 
HETATM    5  C6  UNL     1     -44.895  10.807  -4.988  1.00  0.00     0.000 C 
HETATM    6  C7  UNL     1     -45.753  10.698  -6.178  1.00  0.00     0.000 C 
HETATM    7  C8  UNL     1     -47.216  10.923  -5.960  1.00  0.00     0.000 C 
HETATM    8  C9  UNL     1     -47.837  10.023  -4.947  1.00  0.00     0.006 C 
ENDROOT
BRANCH   1   9
HETATM    9  C1  UNL     1     -49.746  10.516  -3.390  1.00  0.00     0.234 C 
BRANCH   9  10
HETATM   10  N1  UNL     1     -50.391  10.134  -4.629  1.00  0.00    -0.079 N 
ATOM     11  H13 UNL     1     -49.779   9.619  -5.263  1.00  0.00     0.274 HD
ATOM     12  H12 UNL     1     -51.093   9.404  -4.513  1.00  0.00     0.274 HD
ATOM     13  H11 UNL     1     -50.762  10.994  -5.033  1.00  0.00     0.274 HD
ENDBRANCH   9  10
ENDBRANCH   1   9
TORSDOF 2
ENDMDL
MODEL 2
REMARK VINA RESULT: -5.775081923      1.209      1.209
REMARK  2 active torsions:
REMARK  status: ('A' for Active; 'I' for Inactive)
REMARK    1  A    between atoms: N1_1  and  C1_5 
REMARK    2  A    between atoms: C1_5  and  C2_6 
ROOT
HETATM    1  C2  UNL     1     -47.986  10.871  -3.467  1.00  0.00     0.011 C 
HETATM    2  C3  UNL     1     -46.931  10.570  -2.449  1.00  0.00     0.006 C 
HETATM    3  C4  UNL     1     -45.558  10.383  -3.055  1.00  0.00     0.000 C 
HETATM    4  C5  UNL     1     -45.258  11.366  -4.143  1.00  0.00     0.000 C 
HETATM    5  C6  UNL     1     -44.947  10.671  -5.416  1.00  0.00     0.000 C 
HETATM    6  C7  UNL     1     -46.048  10.553  -6.385  1.00  0.00     0.000 C 
HETATM    7  C8  UNL     1     -47.421  10.845  -5.865  1.00  0.00     0.000 C 
HETATM    8  C9  UNL     1     -47.833  10.010  -4.702  1.00  0.00     0.006 C 
ENDROOT
BRANCH   1   9
HETATM    9  C1  UNL     1     -49.340  10.639  -2.792  1.00  0.00     0.234 C 
BRANCH   9  10
HETATM   10  N1  UNL     1     -49.140  10.908  -1.383  1.00  0.00    -0.079 N 
ATOM     11  H13 UNL     1     -48.156  10.960  -1.116  1.00  0.00     0.274 HD
ATOM     12  H12 UNL     1     -49.393  11.858  -1.111  1.00  0.00     0.274 HD
ATOM     13  H11 UNL     1     -49.659  10.189  -0.880  1.00  0.00     0.274 HD
ENDBRANCH   9  10
ENDBRANCH   1   9
TORSDOF 2
ENDMDL
MODEL 3
REMARK VINA RESULT: -5.287392536      0.765      2.289
REMARK  2 active torsions:
REMARK  status: ('A' for Active; 'I' for Inactive)
REMARK    1  A    between atoms: N1_1  and  C1_5 
REMARK    2  A    between atoms: C1_5  and  C2_6 
ROOT
HETATM    1  C2  UNL     1     -48.529  10.044  -3.784  1.00  0.00     0.011 C 
HETATM    2  C3  UNL     1     -48.759  10.553  -5.172  1.00  0.00     0.006 C 
HETATM    3  C4  UNL     1     -47.503  11.081  -5.827  1.00  0.00     0.000 C 
HETATM    4  C5  UNL     1     -46.299  10.236  -5.555  1.00  0.00     0.000 C 
HETATM    5  C6  UNL     1     -45.232  11.028  -4.896  1.00  0.00     0.000 C 
HETATM    6  C7  UNL     1     -45.138  10.913  -3.432  1.00  0.00     0.000 C 
HETATM    7  C8  UNL     1     -46.308  10.285  -2.742  1.00  0.00     0.000 C 
HETATM    8  C9  UNL     1     -47.613  10.958  -2.998  1.00  0.00     0.006 C 
ENDROOT
BRANCH   1   9
HETATM    9  C1  UNL     1     -49.900   9.925  -3.116  1.00  0.00     0.234 C 
BRANCH   9  10
HETATM   10  N1  UNL     1     -50.750   9.231  -4.061  1.00  0.00    -0.079 N 
ATOM     11  H13 UNL     1     -51.734   9.221  -3.791  1.00  0.00     0.274 HD
ATOM     12  H12 UNL     1     -50.868   9.730  -4.943  1.00  0.00     0.274 HD
ATOM     13  H11 UNL     1     -50.351   8.299  -4.172  1.00  0.00     0.274 HD
ENDBRANCH   9  10
ENDBRANCH   1   9
TORSDOF 2
ENDMDL
MODEL 4
REMARK VINA RESULT: -5.046542672      1.497      2.550
REMARK  2 active torsions:
REMARK  status: ('A' for Active; 'I' for Inactive)
REMARK    1  A    between atoms: N1_1  and  C1_5 
REMARK    2  A    between atoms: C1_5  and  C2_6 
ROOT
HETATM    1  C2  UNL     1     -48.323  10.248  -3.280  1.00  0.00     0.011 C 
HETATM    2  C3  UNL     1     -48.959  10.703  -4.556  1.00  0.00     0.006 C 
HETATM    3  C4  UNL     1     -47.952  11.102  -5.611  1.00  0.00     0.000 C 
HETATM    4  C5  UNL     1     -46.773  10.183  -5.676  1.00  0.00     0.000 C 
HETATM    5  C6  UNL     1     -45.509  10.923  -5.447  1.00  0.00     0.000 C 
HETATM    6  C7  UNL     1     -44.957  10.875  -4.084  1.00  0.00     0.000 C 
HETATM    7  C8  UNL     1     -45.876  10.372  -3.016  1.00  0.00     0.000 C 
HETATM    8  C9  UNL     1     -47.154  11.128  -2.893  1.00  0.00     0.006 C 
ENDROOT
BRANCH   1   9
HETATM    9  C1  UNL     1     -49.412  10.265  -2.205  1.00  0.00     0.234 C 
BRANCH   9  10
HETATM   10  N1  UNL     1     -48.904  11.091  -1.129  1.00  0.00    -0.079 N 
ATOM     11  H13 UNL     1     -48.080  10.700  -0.673  1.00  0.00     0.274 HD
ATOM     12  H12 UNL     1     -48.470  11.956  -1.452  1.00  0.00     0.274 HD
ATOM     13  H11 UNL     1     -49.687  11.242  -0.493  1.00  0.00     0.274 HD
ENDBRANCH   9  10
ENDBRANCH   1   9
TORSDOF 2
ENDMDL
MODEL 5
REMARK VINA RESULT: -4.889358001      6.260      7.806
REMARK  2 active torsions:
REMARK  status: ('A' for Active; 'I' for Inactive)
REMARK    1  A    between atoms: N1_1  and  C1_5 
REMARK    2  A    between atoms: C1_5  and  C2_6 
ROOT
HETATM    1  C2  UNL     1     -51.012  12.822   2.645  1.00  0.00     0.011 C 
HETATM    2  C3  UNL     1     -50.230  13.718   1.736  1.00  0.00     0.006 C 
HETATM    3  C4  UNL     1     -49.062  13.020   1.076  1.00  0.00     0.000 C 
HETATM    4  C5  UNL     1     -49.388  11.632   0.622  1.00  0.00     0.000 C 
HETATM    5  C6  UNL     1     -48.485  10.640   1.257  1.00  0.00     0.000 C 
HETATM    6  C7  UNL     1     -49.008   9.939   2.439  1.00  0.00     0.000 C 
HETATM    7  C8  UNL     1     -50.238  10.521   3.063  1.00  0.00     0.000 C 
HETATM    8  C9  UNL     1     -50.105  11.945   3.481  1.00  0.00     0.006 C 
ENDROOT
BRANCH   1   9
HETATM    9  C1  UNL     1     -51.879  13.724   3.526  1.00  0.00     0.234 C 
BRANCH   9  10
HETATM   10  N1  UNL     1     -53.178  13.087   3.600  1.00  0.00    -0.079 N 
ATOM     11  H13 UNL     1     -53.439  12.808   4.546  1.00  0.00     0.274 HD
ATOM     12  H12 UNL     1     -53.954  13.729   3.441  1.00  0.00     0.274 HD
ATOM     13  H11 UNL     1     -53.151  12.310   2.940  1.00  0.00     0.274 HD
ENDBRANCH   9  10
ENDBRANCH   1   9
TORSDOF 2
ENDMDL
