MODEL 1
REMARK VINA RESULT: -3.633663851      0.000      0.000
REMARK  7 active torsions:
REMARK  status: ('A' for Active; 'I' for Inactive)
REMARK    1  A    between atoms: C2_2  and  O1_3 
REMARK    2  A    between atoms: O1_3  and  C3_4 
REMARK    3  A    between atoms: C3_4  and  C4_5 
REMARK    4  A    between atoms: C4_5  and  C5_6 
REMARK    5  A    between atoms: C5_6  and  N1_7 
REMARK    6  A    between atoms: N1_7  and  C6_9 
REMARK    7  A    between atoms: C7_14  and  N4_15 
ROOT
HETATM    1  C6  UNL     1      10.057   8.733   1.060  1.00  0.00     0.707 A 
HETATM    2  N2  UNL     1       9.936   7.771   1.991  1.00  0.00    -0.117 N 
ATOM      3  H2  UNL     1       9.333   7.829   2.811  1.00  0.00     0.206 HD
HETATM    4  N3  UNL     1      10.703   6.746   1.698  1.00  0.00    -0.118 N 
ATOM      5  H3  UNL     1      10.801   5.884   2.234  1.00  0.00     0.206 HD
HETATM    6  C7  UNL     1      11.331   7.056   0.554  1.00  0.00     0.705 A 
HETATM    7  N5  UNL     1      10.941   8.275   0.154  1.00  0.00    -0.020 N 
ATOM      8  H5  UNL     1      11.256   8.766  -0.684  1.00  0.00     0.203 HD
ENDROOT
BRANCH   1   9
HETATM    9  N1  UNL     1       9.437   9.889   1.041  1.00  0.00    -0.224 N 
ATOM     10  H1  UNL     1       9.739  10.637   1.665  1.00  0.00     0.177 HD
BRANCH   9  11
HETATM   11  C5  UNL     1       8.326  10.107   0.137  1.00  0.00     0.140 C 
BRANCH  11  12
HETATM   12  C4  UNL     1       8.383  11.486  -0.470  1.00  0.00     0.046 C 
BRANCH  12  13
HETATM   13  C3  UNL     1       9.068  11.505  -1.801  1.00  0.00     0.169 C 
BRANCH  13  14
HETATM   14  O1  UNL     1       9.823  10.391  -2.021  1.00  0.00    -0.391 OA
BRANCH  14  15
HETATM   15  C2  UNL     1      11.037  10.571  -2.612  1.00  0.00     0.163 C 
HETATM   16  C1  UNL     1      11.948  11.288  -1.618  1.00  0.00     0.033 C 
ENDBRANCH  14  15
ENDBRANCH  13  14
ENDBRANCH  12  13
ENDBRANCH  11  12
ENDBRANCH   9  11
ENDBRANCH   1   9
BRANCH   6  17
HETATM   17  N4  UNL     1      12.166   6.296  -0.046  1.00  0.00    -0.233 N 
ATOM     18  H42 UNL     1      13.183   6.344   0.024  1.00  0.00     0.174 HD
ATOM     19  H41 UNL     1      11.910   5.537  -0.677  1.00  0.00     0.174 HD
ENDBRANCH   6  17
TORSDOF 7
ENDMDL
MODEL 2
REMARK VINA RESULT: -3.425691159      1.826      2.532
REMARK  7 active torsions:
REMARK  status: ('A' for Active; 'I' for Inactive)
REMARK    1  A    between atoms: C2_2  and  O1_3 
REMARK    2  A    between atoms: O1_3  and  C3_4 
REMARK    3  A    between atoms: C3_4  and  C4_5 
REMARK    4  A    between atoms: C4_5  and  C5_6 
REMARK    5  A    between atoms: C5_6  and  N1_7 
REMARK    6  A    between atoms: N1_7  and  C6_9 
REMARK    7  A    between atoms: C7_14  and  N4_15 
ROOT
HETATM    1  C6  UNL     1      10.126   8.702   1.033  1.00  0.00     0.707 A 
HETATM    2  N2  UNL     1       9.963   7.639   1.839  1.00  0.00    -0.117 N 
ATOM      3  H2  UNL     1       9.339   7.612   2.646  1.00  0.00     0.206 HD
HETATM    4  N3  UNL     1      10.717   6.640   1.444  1.00  0.00    -0.118 N 
ATOM      5  H3  UNL     1      10.785   5.718   1.875  1.00  0.00     0.206 HD
HETATM    6  C7  UNL     1      11.381   7.070   0.360  1.00  0.00     0.705 A 
HETATM    7  N5  UNL     1      11.024   8.336   0.100  1.00  0.00    -0.020 N 
ATOM      8  H5  UNL     1      11.371   8.916  -0.665  1.00  0.00     0.203 HD
ENDROOT
BRANCH   1   9
HETATM    9  N1  UNL     1       9.528   9.865   1.138  1.00  0.00    -0.224 N 
ATOM     10  H1  UNL     1       9.936  10.594   1.724  1.00  0.00     0.177 HD
BRANCH   9  11
HETATM   11  C5  UNL     1       8.293  10.119   0.424  1.00  0.00     0.140 C 
BRANCH  11  12
HETATM   12  C4  UNL     1       8.485  11.179  -0.632  1.00  0.00     0.046 C 
BRANCH  12  13
HETATM   13  C3  UNL     1       9.005  12.467  -0.073  1.00  0.00     0.169 C 
BRANCH  13  14
HETATM   14  O1  UNL     1       8.403  12.813   1.100  1.00  0.00    -0.391 OA
BRANCH  14  15
HETATM   15  C2  UNL     1       8.548  14.103   1.514  1.00  0.00     0.163 C 
HETATM   16  C1  UNL     1       9.021  14.935   0.324  1.00  0.00     0.033 C 
ENDBRANCH  14  15
ENDBRANCH  13  14
ENDBRANCH  12  13
ENDBRANCH  11  12
ENDBRANCH   9  11
ENDBRANCH   1   9
BRANCH   6  17
HETATM   17  N4  UNL     1      12.217   6.369  -0.307  1.00  0.00    -0.233 N 
ATOM     18  H42 UNL     1      12.543   5.432  -0.068  1.00  0.00     0.174 HD
ATOM     19  H41 UNL     1      12.665   6.668  -1.172  1.00  0.00     0.174 HD
ENDBRANCH   6  17
TORSDOF 7
ENDMDL
MODEL 3
REMARK VINA RESULT: -3.379671509      5.016      7.139
REMARK  7 active torsions:
REMARK  status: ('A' for Active; 'I' for Inactive)
REMARK    1  A    between atoms: C2_2  and  O1_3 
REMARK    2  A    between atoms: O1_3  and  C3_4 
REMARK    3  A    between atoms: C3_4  and  C4_5 
REMARK    4  A    between atoms: C4_5  and  C5_6 
REMARK    5  A    between atoms: C5_6  and  N1_7 
REMARK    6  A    between atoms: N1_7  and  C6_9 
REMARK    7  A    between atoms: C7_14  and  N4_15 
ROOT
HETATM    1  C6  UNL     1       6.644  14.018   3.274  1.00  0.00     0.707 A 
HETATM    2  N2  UNL     1       6.529  13.524   4.519  1.00  0.00    -0.117 N 
ATOM      3  H2  UNL     1       6.905  12.627   4.826  1.00  0.00     0.206 HD
HETATM    4  N3  UNL     1       5.865  14.358   5.287  1.00  0.00    -0.118 N 
ATOM      5  H3  UNL     1       5.637  14.231   6.273  1.00  0.00     0.206 HD
HETATM    6  C7  UNL     1       5.547  15.410   4.518  1.00  0.00     0.705 A 
HETATM    7  N5  UNL     1       6.021  15.211   3.280  1.00  0.00    -0.020 N 
ATOM      8  H5  UNL     1       5.926  15.846   2.487  1.00  0.00     0.203 HD
ENDROOT
BRANCH   1   9
HETATM    9  N1  UNL     1       7.245  13.448   2.257  1.00  0.00    -0.224 N 
ATOM     10  H1  UNL     1       6.934  12.532   1.933  1.00  0.00     0.177 HD
BRANCH   9  11
HETATM   11  C5  UNL     1       8.347  14.113   1.592  1.00  0.00     0.140 C 
BRANCH  11  12
HETATM   12  C4  UNL     1       9.076  13.167   0.671  1.00  0.00     0.046 C 
BRANCH  12  13
HETATM   13  C3  UNL     1       8.218  12.030   0.211  1.00  0.00     0.169 C 
BRANCH  13  14
HETATM   14  O1  UNL     1       8.380  10.908   0.969  1.00  0.00    -0.391 OA
BRANCH  14  15
HETATM   15  C2  UNL     1       8.672   9.752   0.311  1.00  0.00     0.163 C 
HETATM   16  C1  UNL     1       9.656   8.954   1.164  1.00  0.00     0.033 C 
ENDBRANCH  14  15
ENDBRANCH  13  14
ENDBRANCH  12  13
ENDBRANCH  11  12
ENDBRANCH   9  11
ENDBRANCH   1   9
BRANCH   6  17
HETATM   17  N4  UNL     1       4.893  16.433   4.921  1.00  0.00    -0.233 N 
ATOM     18  H42 UNL     1       4.579  16.610   5.875  1.00  0.00     0.174 HD
ATOM     19  H41 UNL     1       4.604  17.208   4.325  1.00  0.00     0.174 HD
ENDBRANCH   6  17
TORSDOF 7
ENDMDL
MODEL 4
REMARK VINA RESULT: -3.354677439      1.254      1.778
REMARK  7 active torsions:
REMARK  status: ('A' for Active; 'I' for Inactive)
REMARK    1  A    between atoms: C2_2  and  O1_3 
REMARK    2  A    between atoms: O1_3  and  C3_4 
REMARK    3  A    between atoms: C3_4  and  C4_5 
REMARK    4  A    between atoms: C4_5  and  C5_6 
REMARK    5  A    between atoms: C5_6  and  N1_7 
REMARK    6  A    between atoms: N1_7  and  C6_9 
REMARK    7  A    between atoms: C7_14  and  N4_15 
ROOT
HETATM    1  C6  UNL     1      10.352   9.746   0.729  1.00  0.00     0.707 A 
HETATM    2  N2  UNL     1      11.425   9.486  -0.039  1.00  0.00    -0.117 N 
ATOM      3  H2  UNL     1      11.914  10.179  -0.607  1.00  0.00     0.206 HD
HETATM    4  N3  UNL     1      11.755   8.218   0.043  1.00  0.00    -0.118 N 
ATOM      5  H3  UNL     1      12.528   7.756  -0.437  1.00  0.00     0.206 HD
HETATM    6  C7  UNL     1      10.876   7.650   0.881  1.00  0.00     0.705 A 
HETATM    7  N5  UNL     1      10.010   8.581   1.309  1.00  0.00    -0.020 N 
ATOM      8  H5  UNL     1       9.234   8.432   1.954  1.00  0.00     0.203 HD
ENDROOT
BRANCH   1   9
HETATM    9  N1  UNL     1       9.759  10.906   0.882  1.00  0.00    -0.224 N 
ATOM     10  H1  UNL     1      10.249  11.669   1.348  1.00  0.00     0.177 HD
BRANCH   9  11
HETATM   11  C5  UNL     1       8.411  11.107   0.390  1.00  0.00     0.140 C 
BRANCH  11  12
HETATM   12  C4  UNL     1       8.323  10.818  -1.088  1.00  0.00     0.046 C 
BRANCH  12  13
HETATM   13  C3  UNL     1       9.024  11.845  -1.922  1.00  0.00     0.169 C 
BRANCH  13  14
HETATM   14  O1  UNL     1      10.337  11.545  -2.133  1.00  0.00    -0.391 OA
BRANCH  14  15
HETATM   15  C2  UNL     1      11.228  12.573  -2.055  1.00  0.00     0.163 C 
HETATM   16  C1  UNL     1      10.446  13.884  -2.091  1.00  0.00     0.033 C 
ENDBRANCH  14  15
ENDBRANCH  13  14
ENDBRANCH  12  13
ENDBRANCH  11  12
ENDBRANCH   9  11
ENDBRANCH   1   9
BRANCH   6  17
HETATM   17  N4  UNL     1      10.879   6.414   1.210  1.00  0.00    -0.233 N 
ATOM     18  H42 UNL     1      11.271   6.019   2.065  1.00  0.00     0.174 HD
ATOM     19  H41 UNL     1      10.483   5.663   0.646  1.00  0.00     0.174 HD
ENDBRANCH   6  17
TORSDOF 7
ENDMDL
MODEL 5
REMARK VINA RESULT: -3.339365013      8.268      9.823
REMARK  7 active torsions:
REMARK  status: ('A' for Active; 'I' for Inactive)
REMARK    1  A    between atoms: C2_2  and  O1_3 
REMARK    2  A    between atoms: O1_3  and  C3_4 
REMARK    3  A    between atoms: C3_4  and  C4_5 
REMARK    4  A    between atoms: C4_5  and  C5_6 
REMARK    5  A    between atoms: C5_6  and  N1_7 
REMARK    6  A    between atoms: N1_7  and  C6_9 
REMARK    7  A    between atoms: C7_14  and  N4_15 
ROOT
HETATM    1  C6  UNL     1       4.573  15.702   3.345  1.00  0.00     0.707 A 
HETATM    2  N2  UNL     1       4.829  16.256   4.544  1.00  0.00    -0.117 N 
ATOM      3  H2  UNL     1       4.427  17.132   4.877  1.00  0.00     0.206 HD
HETATM    4  N3  UNL     1       5.669  15.512   5.226  1.00  0.00    -0.118 N 
ATOM      5  H3  UNL     1       6.029  15.698   6.161  1.00  0.00     0.206 HD
HETATM    6  C7  UNL     1       5.959  14.457   4.449  1.00  0.00     0.705 A 
HETATM    7  N5  UNL     1       5.290  14.565   3.292  1.00  0.00    -0.020 N 
ATOM      8  H5  UNL     1       5.321  13.906   2.513  1.00  0.00     0.203 HD
ENDROOT
BRANCH   1   9
HETATM    9  N1  UNL     1       3.780  16.179   2.415  1.00  0.00    -0.224 N 
ATOM     10  H1  UNL     1       3.636  15.652   1.554  1.00  0.00     0.177 HD
BRANCH   9  11
HETATM   11  C5  UNL     1       3.110  17.449   2.605  1.00  0.00     0.140 C 
BRANCH  11  12
HETATM   12  C4  UNL     1       2.230  17.780   1.426  1.00  0.00     0.046 C 
BRANCH  12  13
HETATM   13  C3  UNL     1       2.804  17.310   0.125  1.00  0.00     0.169 C 
BRANCH  13  14
HETATM   14  O1  UNL     1       2.479  16.017  -0.157  1.00  0.00    -0.391 OA
BRANCH  14  15
HETATM   15  C2  UNL     1       2.099  15.737  -1.435  1.00  0.00     0.163 C 
HETATM   16  C1  UNL     1       0.604  16.021  -1.560  1.00  0.00     0.033 C 
ENDBRANCH  14  15
ENDBRANCH  13  14
ENDBRANCH  12  13
ENDBRANCH  11  12
ENDBRANCH   9  11
ENDBRANCH   1   9
BRANCH   6  17
HETATM   17  N4  UNL     1       6.751  13.508   4.778  1.00  0.00    -0.233 N 
ATOM     18  H42 UNL     1       6.519  12.706   5.364  1.00  0.00     0.174 HD
ATOM     19  H41 UNL     1       7.726  13.440   4.488  1.00  0.00     0.174 HD
ENDBRANCH   6  17
TORSDOF 7
ENDMDL
