MODEL 1
REMARK VINA RESULT: -4.042360489      0.000      0.000
REMARK  7 active torsions:
REMARK  status: ('A' for Active; 'I' for Inactive)
REMARK    1  A    between atoms: N1_1  and  C1_5 
REMARK    2  A    between atoms: C1_5  and  C2_6 
REMARK    3  A    between atoms: C2_6  and  N2_7 
REMARK    4  A    between atoms: N2_7  and  C3_10 
REMARK    5  A    between atoms: C3_10  and  C4_11 
REMARK    6  A    between atoms: C4_11  and  N3_12 
REMARK    7  A    between atoms: N3_12  and  C5_14 
ROOT
HETATM    1  N3  UNL     1       7.924  12.574   1.017  1.00  0.00    -0.373 N 
ATOM      2  H3  UNL     1       7.019  12.372   1.443  1.00  0.00     0.161 HD
ENDROOT
BRANCH   1   3
HETATM    3  C4  UNL     1       8.522  13.853   1.274  1.00  0.00     0.148 C 
BRANCH   3   4
HETATM    4  C3  UNL     1       7.763  14.475   2.454  1.00  0.00     0.251 C 
BRANCH   4   5
HETATM    5  N2  UNL     1       6.738  13.597   2.930  1.00  0.00    -0.072 N 
ATOM      6  H22 UNL     1       7.040  12.625   2.983  1.00  0.00     0.277 HD
ATOM      7  H21 UNL     1       5.983  13.466   2.258  1.00  0.00     0.277 HD
BRANCH   5   8
HETATM    8  C2  UNL     1       6.273  14.122   4.217  1.00  0.00     0.259 C 
BRANCH   8   9
HETATM    9  C1  UNL     1       5.598  15.478   4.008  1.00  0.00     0.257 C 
BRANCH   9  10
HETATM   10  N1  UNL     1       5.166  15.947   5.304  1.00  0.00    -0.078 N 
ATOM     11  H13 UNL     1       5.503  15.365   6.071  1.00  0.00     0.274 HD
ATOM     12  H12 UNL     1       5.622  16.815   5.586  1.00  0.00     0.274 HD
ATOM     13  H11 UNL     1       4.149  16.020   5.277  1.00  0.00     0.274 HD
ENDBRANCH   9  10
ENDBRANCH   8   9
ENDBRANCH   5   8
ENDBRANCH   4   5
ENDBRANCH   3   4
ENDBRANCH   1   3
BRANCH   1  14
HETATM   14  C5  UNL     1       8.463  11.663   0.276  1.00  0.00     0.133 A 
HETATM   15  N4  UNL     1       8.572  10.436   0.840  1.00  0.00    -0.337 N 
HETATM   16  C6  UNL     1       9.115   9.402   0.176  1.00  0.00     0.183 A 
ATOM     17  H4  UNL     1       8.234  10.295   1.793  1.00  0.00     0.168 HD
HETATM   18  N5  UNL     1       9.557   9.593  -1.072  1.00  0.00    -0.337 N 
HETATM   19  C7  UNL     1       9.471  10.786  -1.670  1.00  0.00     0.138 A 
ATOM     20  H5  UNL     1       9.970   8.810  -1.579  1.00  0.00     0.168 HD
HETATM   21  C8  UNL     1       8.901  11.901  -0.994  1.00  0.00     0.122 A 
HETATM   22  N6  UNL     1       9.400  12.007  -2.324  1.00  0.00    -0.334 N 
ATOM     23  H6  UNL     1       9.575  12.572  -3.155  1.00  0.00     0.168 HD
ENDBRANCH   1  14
TORSDOF 7
ENDMDL
MODEL 2
REMARK VINA RESULT: -4.025483818     10.723     12.992
REMARK  7 active torsions:
REMARK  status: ('A' for Active; 'I' for Inactive)
REMARK    1  A    between atoms: N1_1  and  C1_5 
REMARK    2  A    between atoms: C1_5  and  C2_6 
REMARK    3  A    between atoms: C2_6  and  N2_7 
REMARK    4  A    between atoms: N2_7  and  C3_10 
REMARK    5  A    between atoms: C3_10  and  C4_11 
REMARK    6  A    between atoms: C4_11  and  N3_12 
REMARK    7  A    between atoms: N3_12  and  C5_14 
ROOT
HETATM    1  N3  UNL     1       6.832  10.172  13.490  1.00  0.00    -0.373 N 
ATOM      2  H3  UNL     1       7.012  10.633  12.598  1.00  0.00     0.161 HD
ENDROOT
BRANCH   1   3
HETATM    3  C4  UNL     1       6.488  10.990  14.617  1.00  0.00     0.148 C 
BRANCH   3   4
HETATM    4  C3  UNL     1       7.117  12.370  14.380  1.00  0.00     0.251 C 
BRANCH   4   5
HETATM    5  N2  UNL     1       7.114  12.708  12.990  1.00  0.00    -0.072 N 
ATOM      6  H22 UNL     1       6.175  12.754  12.594  1.00  0.00     0.277 HD
ATOM      7  H21 UNL     1       7.472  11.959  12.397  1.00  0.00     0.277 HD
BRANCH   5   8
HETATM    8  C2  UNL     1       7.860  13.961  12.841  1.00  0.00     0.259 C 
BRANCH   8   9
HETATM    9  C1  UNL     1       7.778  14.442  11.392  1.00  0.00     0.257 C 
BRANCH   9  10
HETATM   10  N1  UNL     1       6.481  14.058  10.886  1.00  0.00    -0.078 N 
ATOM     11  H13 UNL     1       5.728  14.657  11.223  1.00  0.00     0.274 HD
ATOM     12  H12 UNL     1       6.369  14.251   9.890  1.00  0.00     0.274 HD
ATOM     13  H11 UNL     1       6.343  13.074  11.119  1.00  0.00     0.274 HD
ENDBRANCH   9  10
ENDBRANCH   8   9
ENDBRANCH   5   8
ENDBRANCH   4   5
ENDBRANCH   3   4
ENDBRANCH   1   3
BRANCH   1  14
HETATM   14  C5  UNL     1       6.928   8.884  13.537  1.00  0.00     0.133 A 
HETATM   15  N4  UNL     1       8.110   8.367  13.124  1.00  0.00    -0.337 N 
HETATM   16  C6  UNL     1       8.338   7.043  13.124  1.00  0.00     0.183 A 
ATOM     17  H4  UNL     1       8.845   8.999  12.805  1.00  0.00     0.168 HD
HETATM   18  N5  UNL     1       7.370   6.218  13.541  1.00  0.00    -0.337 N 
HETATM   19  C7  UNL     1       6.186   6.683  13.958  1.00  0.00     0.138 A 
ATOM     20  H5  UNL     1       7.539   5.213  13.542  1.00  0.00     0.168 HD
HETATM   21  C8  UNL     1       5.915   8.080  13.970  1.00  0.00     0.122 A 
HETATM   22  N6  UNL     1       4.947   7.125  14.396  1.00  0.00    -0.334 N 
ATOM     23  H6  UNL     1       4.017   6.917  14.760  1.00  0.00     0.168 HD
ENDBRANCH   1  14
TORSDOF 7
ENDMDL
MODEL 3
REMARK VINA RESULT: -3.900187971      2.244      4.005
REMARK  7 active torsions:
REMARK  status: ('A' for Active; 'I' for Inactive)
REMARK    1  A    between atoms: N1_1  and  C1_5 
REMARK    2  A    between atoms: C1_5  and  C2_6 
REMARK    3  A    between atoms: C2_6  and  N2_7 
REMARK    4  A    between atoms: N2_7  and  C3_10 
REMARK    5  A    between atoms: C3_10  and  C4_11 
REMARK    6  A    between atoms: C4_11  and  N3_12 
REMARK    7  A    between atoms: N3_12  and  C5_14 
ROOT
HETATM    1  N3  UNL     1       9.370   9.883   1.131  1.00  0.00    -0.373 N 
ATOM      2  H3  UNL     1       9.366  10.284   2.069  1.00  0.00     0.161 HD
ENDROOT
BRANCH   1   3
HETATM    3  C4  UNL     1       8.583  10.526   0.118  1.00  0.00     0.148 C 
BRANCH   3   4
HETATM    4  C3  UNL     1       8.853  12.033   0.227  1.00  0.00     0.251 C 
BRANCH   4   5
HETATM    5  N2  UNL     1       7.927  12.661   1.119  1.00  0.00    -0.072 N 
ATOM      6  H22 UNL     1       7.723  12.096   1.944  1.00  0.00     0.277 HD
ATOM      7  H21 UNL     1       6.978  12.699   0.746  1.00  0.00     0.277 HD
BRANCH   5   8
HETATM    8  C2  UNL     1       8.464  13.983   1.451  1.00  0.00     0.259 C 
BRANCH   8   9
HETATM    9  C1  UNL     1       7.642  14.607   2.578  1.00  0.00     0.257 C 
BRANCH   9  10
HETATM   10  N1  UNL     1       6.775  13.577   3.099  1.00  0.00    -0.078 N 
ATOM     11  H13 UNL     1       6.255  13.088   2.370  1.00  0.00     0.274 HD
ATOM     12  H12 UNL     1       7.286  12.771   3.460  1.00  0.00     0.274 HD
ATOM     13  H11 UNL     1       6.171  14.011   3.796  1.00  0.00     0.274 HD
ENDBRANCH   9  10
ENDBRANCH   8   9
ENDBRANCH   5   8
ENDBRANCH   4   5
ENDBRANCH   3   4
ENDBRANCH   1   3
BRANCH   1  14
HETATM   14  C5  UNL     1      10.084   8.826   0.926  1.00  0.00     0.133 A 
HETATM   15  N4  UNL     1      10.667   8.737  -0.293  1.00  0.00    -0.337 N 
HETATM   16  C6  UNL     1      11.434   7.687  -0.632  1.00  0.00     0.183 A 
ATOM     17  H4  UNL     1      10.519   9.486  -0.970  1.00  0.00     0.168 HD
HETATM   18  N5  UNL     1      11.623   6.708   0.259  1.00  0.00    -0.337 N 
HETATM   19  C7  UNL     1      11.067   6.751   1.476  1.00  0.00     0.138 A 
ATOM     20  H5  UNL     1      12.205   5.909   0.005  1.00  0.00     0.168 HD
HETATM   21  C8  UNL     1      10.250   7.849   1.865  1.00  0.00     0.122 A 
HETATM   22  N6  UNL     1      10.509   6.759   2.745  1.00  0.00    -0.334 N 
ATOM     23  H6  UNL     1      10.378   6.310   3.652  1.00  0.00     0.168 HD
ENDBRANCH   1  14
TORSDOF 7
ENDMDL
MODEL 4
REMARK VINA RESULT: -3.890021186      3.891      5.270
REMARK  7 active torsions:
REMARK  status: ('A' for Active; 'I' for Inactive)
REMARK    1  A    between atoms: N1_1  and  C1_5 
REMARK    2  A    between atoms: C1_5  and  C2_6 
REMARK    3  A    between atoms: C2_6  and  N2_7 
REMARK    4  A    between atoms: N2_7  and  C3_10 
REMARK    5  A    between atoms: C3_10  and  C4_11 
REMARK    6  A    between atoms: C4_11  and  N3_12 
REMARK    7  A    between atoms: N3_12  and  C5_14 
ROOT
HETATM    1  N3  UNL     1       9.492   9.835   1.189  1.00  0.00    -0.373 N 
ATOM      2  H3  UNL     1       9.820  10.430   1.950  1.00  0.00     0.161 HD
ENDROOT
BRANCH   1   3
HETATM    3  C4  UNL     1       8.284  10.209   0.511  1.00  0.00     0.148 C 
BRANCH   3   4
HETATM    4  C3  UNL     1       8.536  11.579  -0.135  1.00  0.00     0.251 C 
BRANCH   4   5
HETATM    5  N2  UNL     1       8.350  11.524  -1.553  1.00  0.00    -0.072 N 
ATOM      6  H22 UNL     1       7.743  12.265  -1.903  1.00  0.00     0.277 HD
ATOM      7  H21 UNL     1       7.779  10.732  -1.849  1.00  0.00     0.277 HD
BRANCH   5   8
HETATM    8  C2  UNL     1       9.679  11.532  -2.171  1.00  0.00     0.259 C 
BRANCH   8   9
HETATM    9  C1  UNL     1      10.516  12.667  -1.582  1.00  0.00     0.257 C 
BRANCH   9  10
HETATM   10  N1  UNL     1      10.645  13.680  -2.602  1.00  0.00    -0.078 N 
ATOM     11  H13 UNL     1      11.295  13.420  -3.343  1.00  0.00     0.274 HD
ATOM     12  H12 UNL     1       9.810  13.770  -3.182  1.00  0.00     0.274 HD
ATOM     13  H11 UNL     1      10.901  14.550  -2.134  1.00  0.00     0.274 HD
ENDBRANCH   9  10
ENDBRANCH   8   9
ENDBRANCH   5   8
ENDBRANCH   4   5
ENDBRANCH   3   4
ENDBRANCH   1   3
BRANCH   1  14
HETATM   14  C5  UNL     1      10.190   8.789   0.892  1.00  0.00     0.133 A 
HETATM   15  N4  UNL     1      10.140   7.775   1.789  1.00  0.00    -0.337 N 
HETATM   16  C6  UNL     1      10.821   6.632   1.598  1.00  0.00     0.183 A 
ATOM     17  H4  UNL     1       9.573   7.882   2.630  1.00  0.00     0.168 HD
HETATM   18  N5  UNL     1      11.566   6.497   0.495  1.00  0.00    -0.337 N 
HETATM   19  C7  UNL     1      11.646   7.471  -0.419  1.00  0.00     0.138 A 
ATOM     20  H5  UNL     1      12.084   5.631   0.347  1.00  0.00     0.168 HD
HETATM   21  C8  UNL     1      10.937   8.693  -0.246  1.00  0.00     0.122 A 
HETATM   22  N6  UNL     1      11.755   8.457  -1.388  1.00  0.00    -0.334 N 
ATOM     23  H6  UNL     1      12.141   8.780  -2.276  1.00  0.00     0.168 HD
ENDBRANCH   1  14
TORSDOF 7
ENDMDL
MODEL 5
REMARK VINA RESULT: -3.875946557      2.108      3.532
REMARK  7 active torsions:
REMARK  status: ('A' for Active; 'I' for Inactive)
REMARK    1  A    between atoms: N1_1  and  C1_5 
REMARK    2  A    between atoms: C1_5  and  C2_6 
REMARK    3  A    between atoms: C2_6  and  N2_7 
REMARK    4  A    between atoms: N2_7  and  C3_10 
REMARK    5  A    between atoms: C3_10  and  C4_11 
REMARK    6  A    between atoms: C4_11  and  N3_12 
REMARK    7  A    between atoms: N3_12  and  C5_14 
ROOT
HETATM    1  N3  UNL     1       9.302   9.788   1.158  1.00  0.00    -0.373 N 
ATOM      2  H3  UNL     1       9.342  10.169   2.104  1.00  0.00     0.161 HD
ENDROOT
BRANCH   1   3
HETATM    3  C4  UNL     1       8.409  10.404   0.219  1.00  0.00     0.148 C 
BRANCH   3   4
HETATM    4  C3  UNL     1       8.745  11.901   0.192  1.00  0.00     0.251 C 
BRANCH   4   5
HETATM    5  N2  UNL     1       7.924  12.631   1.108  1.00  0.00    -0.072 N 
ATOM      6  H22 UNL     1       7.744  12.123   1.974  1.00  0.00     0.277 HD
ATOM      7  H21 UNL     1       6.956  12.712   0.798  1.00  0.00     0.277 HD
BRANCH   5   8
HETATM    8  C2  UNL     1       8.563  13.932   1.331  1.00  0.00     0.259 C 
BRANCH   8   9
HETATM    9  C1  UNL     1       7.890  14.645   2.503  1.00  0.00     0.257 C 
BRANCH   9  10
HETATM   10  N1  UNL     1       6.871  13.759   3.016  1.00  0.00    -0.078 N 
ATOM     11  H13 UNL     1       5.933  14.157   2.961  1.00  0.00     0.274 HD
ATOM     12  H12 UNL     1       6.708  12.950   2.417  1.00  0.00     0.274 HD
ATOM     13  H11 UNL     1       7.141  13.505   3.967  1.00  0.00     0.274 HD
ENDBRANCH   9  10
ENDBRANCH   8   9
ENDBRANCH   5   8
ENDBRANCH   4   5
ENDBRANCH   3   4
ENDBRANCH   1   3
BRANCH   1  14
HETATM   14  C5  UNL     1      10.059   8.780   0.878  1.00  0.00     0.133 A 
HETATM   15  N4  UNL     1      10.039   7.763   1.772  1.00  0.00    -0.337 N 
HETATM   16  C6  UNL     1      10.782   6.656   1.597  1.00  0.00     0.183 A 
ATOM     17  H4  UNL     1       9.446   7.839   2.599  1.00  0.00     0.168 HD
HETATM   18  N5  UNL     1      11.559   6.562   0.513  1.00  0.00    -0.337 N 
HETATM   19  C7  UNL     1      11.613   7.541  -0.397  1.00  0.00     0.138 A 
ATOM     20  H5  UNL     1      12.124   5.724   0.377  1.00  0.00     0.168 HD
HETATM   21  C8  UNL     1      10.838   8.725  -0.241  1.00  0.00     0.122 A 
HETATM   22  N6  UNL     1      11.696   8.533  -1.363  1.00  0.00    -0.334 N 
ATOM     23  H6  UNL     1      12.086   8.877  -2.240  1.00  0.00     0.168 HD
ENDBRANCH   1  14
TORSDOF 7
ENDMDL
