MODEL 1
REMARK VINA RESULT: -3.615805164      0.000      0.000
REMARK  6 active torsions:
REMARK  status: ('A' for Active; 'I' for Inactive)
REMARK    1  A    between atoms: C2_2  and  C3_3 
REMARK    2  A    between atoms: C3_3  and  N1_4 
REMARK    3  A    between atoms: N1_4  and  C4_6 
REMARK    4  A    between atoms: C4_6  and  C5_7 
REMARK    5  A    between atoms: C5_7  and  C6_8 
REMARK    6  A    between atoms: C6_8  and  N2_9 
ROOT
HETATM    1  C1  UNL     1       9.992   9.563  -2.006  1.00  0.00     0.024 C 
HETATM    2  C2  UNL     1       9.662  10.392  -0.802  1.00  0.00     0.027 C 
HETATM    3  C7  UNL     1      10.911  11.033  -0.208  1.00  0.00     0.250 C 
HETATM    4  N3  UNL     1      11.665  11.526  -1.366  1.00  0.00    -0.059 N 
ATOM      5  H31 UNL     1      11.897  10.772  -2.013  1.00  0.00     0.279 HD
ATOM      6  H32 UNL     1      12.612  11.805  -1.108  1.00  0.00     0.279 HD
HETATM    7  C8  UNL     1      10.961  12.583  -2.017  1.00  0.00     0.349 C 
HETATM    8  N4  UNL     1       9.637  12.194  -2.361  1.00  0.00    -0.399 N 
ATOM      9  H4  UNL     1       9.264  12.336  -3.300  1.00  0.00     0.154 HD
HETATM   10  C9  UNL     1       8.859  11.596  -1.330  1.00  0.00     0.131 C 
ENDROOT
BRANCH   2  11
HETATM   11  C3  UNL     1       8.805   9.743   0.222  1.00  0.00     0.072 C 
BRANCH  11  12
HETATM   12  N1  UNL     1       9.367   9.296   1.414  1.00  0.00    -0.382 N 
ATOM     13  H1  UNL     1       9.527   9.973   2.160  1.00  0.00     0.164 HD
BRANCH  12  14
HETATM   14  C4  UNL     1       9.724   7.968   1.636  1.00  0.00     0.061 C 
BRANCH  14  15
HETATM   15  C5  UNL     1      11.184   7.644   1.784  1.00  0.00     0.072 C 
BRANCH  15  16
HETATM   16  C6  UNL     1      11.948   7.551   0.510  1.00  0.00     0.234 C 
BRANCH  16  17
HETATM   17  N2  UNL     1      11.889   6.216  -0.021  1.00  0.00    -0.079 N 
ATOM     18  H23 UNL     1      11.778   5.520   0.716  1.00  0.00     0.274 HD
ATOM     19  H22 UNL     1      11.018   6.047  -0.523  1.00  0.00     0.274 HD
ATOM     20  H21 UNL     1      12.704   6.024  -0.603  1.00  0.00     0.274 HD
ENDBRANCH  16  17
ENDBRANCH  15  16
ENDBRANCH  14  15
ENDBRANCH  12  14
ENDBRANCH  11  12
ENDBRANCH   2  11
TORSDOF 6
ENDMDL
MODEL 2
REMARK VINA RESULT: -3.541889485      1.689      2.550
REMARK  6 active torsions:
REMARK  status: ('A' for Active; 'I' for Inactive)
REMARK    1  A    between atoms: C2_2  and  C3_3 
REMARK    2  A    between atoms: C3_3  and  N1_4 
REMARK    3  A    between atoms: N1_4  and  C4_6 
REMARK    4  A    between atoms: C4_6  and  C5_7 
REMARK    5  A    between atoms: C5_7  and  C6_8 
REMARK    6  A    between atoms: C6_8  and  N2_9 
ROOT
HETATM    1  C1  UNL     1       8.428   9.610  -0.563  1.00  0.00     0.024 C 
HETATM    2  C2  UNL     1       9.834  10.014  -0.887  1.00  0.00     0.027 C 
HETATM    3  C7  UNL     1       9.866  11.157  -1.895  1.00  0.00     0.250 C 
HETATM    4  N3  UNL     1       8.826  12.086  -1.439  1.00  0.00    -0.059 N 
ATOM      5  H31 UNL     1       7.911  11.639  -1.404  1.00  0.00     0.279 HD
ATOM      6  H32 UNL     1       8.623  12.798  -2.142  1.00  0.00     0.279 HD
HETATM    7  C8  UNL     1       9.179  12.668  -0.185  1.00  0.00     0.349 C 
HETATM    8  N4  UNL     1       9.476  11.673   0.786  1.00  0.00    -0.399 N 
ATOM      9  H4  UNL     1       9.054  11.687   1.715  1.00  0.00     0.154 HD
HETATM   10  C9  UNL     1      10.393  10.655   0.397  1.00  0.00     0.131 C 
ENDROOT
BRANCH   2  11
HETATM   11  C3  UNL     1      10.766   8.913  -1.237  1.00  0.00     0.072 C 
BRANCH  11  12
HETATM   12  N1  UNL     1      11.642   8.416  -0.277  1.00  0.00    -0.382 N 
ATOM     13  H1  UNL     1      12.402   9.015   0.044  1.00  0.00     0.164 HD
BRANCH  12  14
HETATM   14  C4  UNL     1      11.530   7.138   0.267  1.00  0.00     0.061 C 
BRANCH  14  15
HETATM   15  C5  UNL     1      10.589   6.942   1.422  1.00  0.00     0.072 C 
BRANCH  15  16
HETATM   16  C6  UNL     1      11.127   7.332   2.754  1.00  0.00     0.234 C 
BRANCH  16  17
HETATM   17  N2  UNL     1      10.537   6.532   3.794  1.00  0.00    -0.079 N 
ATOM     18  H23 UNL     1      10.741   6.906   4.721  1.00  0.00     0.274 HD
ATOM     19  H22 UNL     1       9.521   6.624   3.812  1.00  0.00     0.274 HD
ATOM     20  H21 UNL     1      10.827   5.558   3.707  1.00  0.00     0.274 HD
ENDBRANCH  16  17
ENDBRANCH  15  16
ENDBRANCH  14  15
ENDBRANCH  12  14
ENDBRANCH  11  12
ENDBRANCH   2  11
TORSDOF 6
ENDMDL
MODEL 3
REMARK VINA RESULT: -3.486672386      1.562      4.252
REMARK  6 active torsions:
REMARK  status: ('A' for Active; 'I' for Inactive)
REMARK    1  A    between atoms: C2_2  and  C3_3 
REMARK    2  A    between atoms: C3_3  and  N1_4 
REMARK    3  A    between atoms: N1_4  and  C4_6 
REMARK    4  A    between atoms: C4_6  and  C5_7 
REMARK    5  A    between atoms: C5_7  and  C6_8 
REMARK    6  A    between atoms: C6_8  and  N2_9 
ROOT
HETATM    1  C1  UNL     1      10.221   7.705   1.532  1.00  0.00     0.024 C 
HETATM    2  C2  UNL     1      10.261   8.918   0.652  1.00  0.00     0.027 C 
HETATM    3  C7  UNL     1      11.215   9.972   1.200  1.00  0.00     0.250 C 
HETATM    4  N3  UNL     1      12.403   9.220   1.620  1.00  0.00    -0.059 N 
ATOM      5  H31 UNL     1      12.174   8.516   2.321  1.00  0.00     0.279 HD
ATOM      6  H32 UNL     1      13.034   9.794   2.179  1.00  0.00     0.279 HD
HETATM    7  C8  UNL     1      13.066   8.648   0.493  1.00  0.00     0.349 C 
HETATM    8  N4  UNL     1      12.178   7.861  -0.291  1.00  0.00    -0.399 N 
ATOM      9  H4  UNL     1      12.415   6.911  -0.578  1.00  0.00     0.154 HD
HETATM   10  C9  UNL     1      10.942   8.465  -0.654  1.00  0.00     0.131 C 
ENDROOT
BRANCH   2  11
HETATM   11  C3  UNL     1       8.946   9.481   0.257  1.00  0.00     0.072 C 
BRANCH  11  12
HETATM   12  N1  UNL     1       8.551  10.724   0.740  1.00  0.00    -0.382 N 
ATOM     13  H1  UNL     1       8.450  10.845   1.748  1.00  0.00     0.164 HD
BRANCH  12  14
HETATM   14  C4  UNL     1       8.288  11.814  -0.087  1.00  0.00     0.061 C 
BRANCH  14  15
HETATM   15  C5  UNL     1       8.684  11.714  -1.534  1.00  0.00     0.072 C 
BRANCH  15  16
HETATM   16  C6  UNL     1       9.955  12.400  -1.894  1.00  0.00     0.234 C 
BRANCH  16  17
HETATM   17  N2  UNL     1      10.827  11.510  -2.611  1.00  0.00    -0.079 N 
ATOM     18  H23 UNL     1      10.483  11.318  -3.552  1.00  0.00     0.274 HD
ATOM     19  H22 UNL     1      11.708  11.961  -2.860  1.00  0.00     0.274 HD
ATOM     20  H21 UNL     1      10.979  10.651  -2.082  1.00  0.00     0.274 HD
ENDBRANCH  16  17
ENDBRANCH  15  16
ENDBRANCH  14  15
ENDBRANCH  12  14
ENDBRANCH  11  12
ENDBRANCH   2  11
TORSDOF 6
ENDMDL
MODEL 4
REMARK VINA RESULT: -3.475870736      1.504      2.715
REMARK  6 active torsions:
REMARK  status: ('A' for Active; 'I' for Inactive)
REMARK    1  A    between atoms: C2_2  and  C3_3 
REMARK    2  A    between atoms: C3_3  and  N1_4 
REMARK    3  A    between atoms: N1_4  and  C4_6 
REMARK    4  A    between atoms: C4_6  and  C5_7 
REMARK    5  A    between atoms: C5_7  and  C6_8 
REMARK    6  A    between atoms: C6_8  and  N2_9 
ROOT
HETATM    1  C1  UNL     1      11.142  10.862  -0.398  1.00  0.00     0.024 C 
HETATM    2  C2  UNL     1      10.033  10.183  -1.143  1.00  0.00     0.027 C 
HETATM    3  C7  UNL     1       8.986   9.620  -0.188  1.00  0.00     0.250 C 
HETATM    4  N3  UNL     1       8.782  10.677   0.808  1.00  0.00    -0.059 N 
ATOM      5  H31 UNL     1       9.649  10.909   1.293  1.00  0.00     0.279 HD
ATOM      6  H32 UNL     1       8.244  10.341   1.608  1.00  0.00     0.279 HD
HETATM    7  C8  UNL     1       8.183  11.828   0.214  1.00  0.00     0.349 C 
HETATM    8  N4  UNL     1       8.929  12.282  -0.909  1.00  0.00    -0.399 N 
ATOM      9  H4  UNL     1       9.201  13.260  -1.012  1.00  0.00     0.154 HD
HETATM   10  C9  UNL     1       9.277  11.303  -1.882  1.00  0.00     0.131 C 
ENDROOT
BRANCH   2  11
HETATM   11  C3  UNL     1      10.446   9.209  -2.183  1.00  0.00     0.072 C 
BRANCH  11  12
HETATM   12  N1  UNL     1      11.712   8.633  -2.130  1.00  0.00    -0.382 N 
ATOM     13  H1  UNL     1      12.518   9.208  -2.374  1.00  0.00     0.164 HD
BRANCH  12  14
HETATM   14  C4  UNL     1      11.930   7.308  -1.759  1.00  0.00     0.061 C 
BRANCH  14  15
HETATM   15  C5  UNL     1      12.667   7.047  -0.475  1.00  0.00     0.072 C 
BRANCH  15  16
HETATM   16  C6  UNL     1      11.932   7.415   0.766  1.00  0.00     0.234 C 
BRANCH  16  17
HETATM   17  N2  UNL     1      10.915   6.442   1.061  1.00  0.00    -0.079 N 
ATOM     18  H23 UNL     1       9.994   6.872   1.146  1.00  0.00     0.274 HD
ATOM     19  H22 UNL     1      10.728   5.836   0.262  1.00  0.00     0.274 HD
ATOM     20  H21 UNL     1      11.160   5.906   1.893  1.00  0.00     0.274 HD
ENDBRANCH  16  17
ENDBRANCH  15  16
ENDBRANCH  14  15
ENDBRANCH  12  14
ENDBRANCH  11  12
ENDBRANCH   2  11
TORSDOF 6
ENDMDL
MODEL 5
REMARK VINA RESULT: -3.462454502      1.634      2.784
REMARK  6 active torsions:
REMARK  status: ('A' for Active; 'I' for Inactive)
REMARK    1  A    between atoms: C2_2  and  C3_3 
REMARK    2  A    between atoms: C3_3  and  N1_4 
REMARK    3  A    between atoms: N1_4  and  C4_6 
REMARK    4  A    between atoms: C4_6  and  C5_7 
REMARK    5  A    between atoms: C5_7  and  C6_8 
REMARK    6  A    between atoms: C6_8  and  N2_9 
ROOT
HETATM    1  C1  UNL     1       8.660   9.575  -0.009  1.00  0.00     0.024 C 
HETATM    2  C2  UNL     1       9.568  10.296  -0.960  1.00  0.00     0.027 C 
HETATM    3  C7  UNL     1       8.898  11.539  -1.535  1.00  0.00     0.250 C 
HETATM    4  N3  UNL     1       8.235  12.171  -0.389  1.00  0.00    -0.059 N 
ATOM      5  H31 UNL     1       7.559  11.545   0.048  1.00  0.00     0.279 HD
ATOM      6  H32 UNL     1       7.594  12.908  -0.684  1.00  0.00     0.279 HD
HETATM    7  C8  UNL     1       9.195  12.651   0.551  1.00  0.00     0.349 C 
HETATM    8  N4  UNL     1      10.095  11.624   0.948  1.00  0.00    -0.399 N 
ATOM      9  H4  UNL     1      10.294  11.435   1.931  1.00  0.00     0.154 HD
HETATM   10  C9  UNL     1      10.705  10.872  -0.095  1.00  0.00     0.131 C 
ENDROOT
BRANCH   2  11
HETATM   11  C3  UNL     1      10.221   9.461  -1.998  1.00  0.00     0.072 C 
BRANCH  11  12
HETATM   12  N1  UNL     1      11.494   8.948  -1.774  1.00  0.00    -0.382 N 
ATOM     13  H1  UNL     1      12.242   9.594  -1.521  1.00  0.00     0.164 HD
BRANCH  12  14
HETATM   14  C4  UNL     1      11.798   7.592  -1.879  1.00  0.00     0.061 C 
BRANCH  14  15
HETATM   15  C5  UNL     1      12.319   6.889  -0.656  1.00  0.00     0.072 C 
BRANCH  15  16
HETATM   16  C6  UNL     1      11.769   7.374   0.639  1.00  0.00     0.234 C 
BRANCH  16  17
HETATM   17  N2  UNL     1      10.843   6.420   1.187  1.00  0.00    -0.079 N 
ATOM     18  H23 UNL     1      10.548   6.676   2.129  1.00  0.00     0.274 HD
ATOM     19  H22 UNL     1       9.934   6.466   0.724  1.00  0.00     0.274 HD
ATOM     20  H21 UNL     1      11.235   5.479   1.156  1.00  0.00     0.274 HD
ENDBRANCH  16  17
ENDBRANCH  15  16
ENDBRANCH  14  15
ENDBRANCH  12  14
ENDBRANCH  11  12
ENDBRANCH   2  11
TORSDOF 6
ENDMDL
