MODEL 1
REMARK VINA RESULT: -6.411399932      0.000      0.000
REMARK  3 active torsions:
REMARK  status: ('A' for Active; 'I' for Inactive)
REMARK    1  A    between atoms: C4_6  and  C5_7 
REMARK    2  A    between atoms: C5_7  and  N2_8 
REMARK    3  A    between atoms: N2_8  and  C6_11 
ROOT
HETATM    1  N2  UNL     1       4.322 -71.947 -14.826  1.00  0.00    -0.067 N 
ATOM      2  H21 UNL     1       3.650 -72.221 -15.543  1.00  0.00     0.277 HD
ATOM      3  H22 UNL     1       3.709 -71.384 -14.235  1.00  0.00     0.277 HD
ENDROOT
BRANCH   1   4
HETATM    4  C5  UNL     1       5.375 -71.151 -15.383  1.00  0.00     0.257 C 
BRANCH   4   5
HETATM    5  C4  UNL     1       5.311 -69.748 -14.776  1.00  0.00     0.102 C 
HETATM    6  N1  UNL     1       6.585 -69.425 -14.267  1.00  0.00    -0.415 N 
HETATM    7  C3  UNL     1       7.102 -68.136 -14.619  1.00  0.00     0.114 C 
ATOM      8  H1  UNL     1       7.110 -70.073 -13.681  1.00  0.00     0.153 HD
HETATM    9  C2  UNL     1       6.283 -66.988 -14.118  1.00  0.00     0.019 C 
HETATM   10  C1  UNL     1       5.362 -66.564 -15.252  1.00  0.00     0.002 C 
HETATM   11  C12 UNL     1       4.206 -67.546 -15.239  1.00  0.00     0.002 C 
HETATM   12  C11 UNL     1       4.745 -68.845 -15.801  1.00  0.00     0.026 C 
ENDBRANCH   4   5
ENDBRANCH   1   4
BRANCH   1  13
HETATM   13  C6  UNL     1       4.814 -73.087 -14.119  1.00  0.00     0.211 C 
HETATM   14  C7  UNL     1       6.077 -73.655 -14.707  1.00  0.00     0.036 C 
HETATM   15  C8  UNL     1       6.553 -74.759 -13.754  1.00  0.00     0.029 C 
HETATM   16  C9  UNL     1       7.096 -74.075 -12.530  1.00  0.00     0.232 C 
HETATM   17  N3  UNL     1       6.468 -72.791 -12.355  1.00  0.00    -0.073 N 
HETATM   18  C10 UNL     1       5.046 -72.814 -12.662  1.00  0.00     0.265 C 
ATOM     19  H32 UNL     1       6.634 -72.428 -11.417  1.00  0.00     0.277 HD
ATOM     20  H31 UNL     1       6.948 -72.073 -12.898  1.00  0.00     0.277 HD
ENDBRANCH   1  13
TORSDOF 3
ENDMDL
MODEL 2
REMARK VINA RESULT: -6.109122655      1.339      5.828
REMARK  3 active torsions:
REMARK  status: ('A' for Active; 'I' for Inactive)
REMARK    1  A    between atoms: C4_6  and  C5_7 
REMARK    2  A    between atoms: C5_7  and  N2_8 
REMARK    3  A    between atoms: N2_8  and  C6_11 
ROOT
HETATM    1  N2  UNL     1       6.847 -70.637 -14.720  1.00  0.00    -0.067 N 
ATOM      2  H21 UNL     1       7.699 -70.261 -15.138  1.00  0.00     0.277 HD
ATOM      3  H22 UNL     1       7.228 -70.949 -13.827  1.00  0.00     0.277 HD
ENDROOT
BRANCH   1   4
HETATM    4  C5  UNL     1       6.343 -71.741 -15.480  1.00  0.00     0.257 C 
BRANCH   4   5
HETATM    5  C4  UNL     1       6.597 -73.035 -14.704  1.00  0.00     0.102 C 
HETATM    6  N1  UNL     1       7.411 -72.736 -13.593  1.00  0.00    -0.415 N 
HETATM    7  C3  UNL     1       6.990 -73.269 -12.332  1.00  0.00     0.114 C 
ATOM      8  H1  UNL     1       8.255 -72.170 -13.683  1.00  0.00     0.153 HD
HETATM    9  C2  UNL     1       6.954 -74.764 -12.279  1.00  0.00     0.019 C 
HETATM   10  C1  UNL     1       5.522 -75.190 -12.566  1.00  0.00     0.002 C 
HETATM   11  C12 UNL     1       5.362 -75.124 -14.073  1.00  0.00     0.002 C 
HETATM   12  C11 UNL     1       5.282 -73.654 -14.429  1.00  0.00     0.026 C 
ENDBRANCH   4   5
ENDBRANCH   1   4
BRANCH   1  13
HETATM   13  C6  UNL     1       5.870 -69.611 -14.533  1.00  0.00     0.211 C 
HETATM   14  C7  UNL     1       6.338 -68.252 -14.979  1.00  0.00     0.036 C 
HETATM   15  C8  UNL     1       5.134 -67.308 -14.859  1.00  0.00     0.029 C 
HETATM   16  C9  UNL     1       4.190 -67.659 -15.975  1.00  0.00     0.232 C 
HETATM   17  N3  UNL     1       4.358 -69.037 -16.355  1.00  0.00    -0.073 N 
HETATM   18  C10 UNL     1       4.568 -69.915 -15.213  1.00  0.00     0.265 C 
ATOM     19  H32 UNL     1       3.575 -69.358 -16.924  1.00  0.00     0.277 HD
ATOM     20  H31 UNL     1       5.110 -69.139 -17.037  1.00  0.00     0.277 HD
ENDBRANCH   1  13
TORSDOF 3
ENDMDL
MODEL 3
REMARK VINA RESULT: -6.098951207      1.004      1.646
REMARK  3 active torsions:
REMARK  status: ('A' for Active; 'I' for Inactive)
REMARK    1  A    between atoms: C4_6  and  C5_7 
REMARK    2  A    between atoms: C5_7  and  N2_8 
REMARK    3  A    between atoms: N2_8  and  C6_11 
ROOT
HETATM    1  N2  UNL     1       4.528 -71.311 -14.032  1.00  0.00    -0.067 N 
ATOM      2  H21 UNL     1       3.569 -71.087 -13.768  1.00  0.00     0.277 HD
ATOM      3  H22 UNL     1       5.021 -70.658 -13.422  1.00  0.00     0.277 HD
ENDROOT
BRANCH   1   4
HETATM    4  C5  UNL     1       4.768 -71.010 -15.412  1.00  0.00     0.257 C 
BRANCH   4   5
HETATM    5  C4  UNL     1       5.336 -69.594 -15.520  1.00  0.00     0.102 C 
HETATM    6  N1  UNL     1       4.357 -68.763 -16.100  1.00  0.00    -0.415 N 
HETATM    7  C3  UNL     1       4.112 -67.513 -15.445  1.00  0.00     0.114 C 
ATOM      8  H1  UNL     1       3.849 -69.038 -16.941  1.00  0.00     0.153 HD
HETATM    9  C2  UNL     1       5.295 -66.597 -15.412  1.00  0.00     0.019 C 
HETATM   10  C1  UNL     1       5.978 -66.793 -14.067  1.00  0.00     0.002 C 
HETATM   11  C12 UNL     1       6.811 -68.053 -14.203  1.00  0.00     0.002 C 
HETATM   12  C11 UNL     1       5.837 -69.212 -14.181  1.00  0.00     0.026 C 
ENDBRANCH   4   5
ENDBRANCH   1   4
BRANCH   1  13
HETATM   13  C6  UNL     1       4.850 -72.664 -13.704  1.00  0.00     0.211 C 
HETATM   14  C7  UNL     1       5.562 -73.394 -14.810  1.00  0.00     0.036 C 
HETATM   15  C8  UNL     1       5.969 -74.763 -14.248  1.00  0.00     0.029 C 
HETATM   16  C9  UNL     1       7.106 -74.522 -13.294  1.00  0.00     0.232 C 
HETATM   17  N3  UNL     1       7.030 -73.190 -12.754  1.00  0.00    -0.073 N 
HETATM   18  C10 UNL     1       5.666 -72.782 -12.451  1.00  0.00     0.265 C 
ATOM     19  H32 UNL     1       7.631 -73.093 -11.935  1.00  0.00     0.277 HD
ATOM     20  H31 UNL     1       7.484 -72.518 -13.372  1.00  0.00     0.277 HD
ENDBRANCH   1  13
TORSDOF 3
ENDMDL
MODEL 4
REMARK VINA RESULT: -6.077667066      0.963      1.124
REMARK  3 active torsions:
REMARK  status: ('A' for Active; 'I' for Inactive)
REMARK    1  A    between atoms: C4_6  and  C5_7 
REMARK    2  A    between atoms: C5_7  and  N2_8 
REMARK    3  A    between atoms: N2_8  and  C6_11 
ROOT
HETATM    1  N2  UNL     1       6.140 -71.838 -15.500  1.00  0.00    -0.067 N 
ATOM      2  H21 UNL     1       6.822 -71.278 -14.988  1.00  0.00     0.277 HD
ATOM      3  H22 UNL     1       6.629 -71.914 -16.393  1.00  0.00     0.277 HD
ENDROOT
BRANCH   1   4
HETATM    4  C5  UNL     1       4.901 -71.134 -15.649  1.00  0.00     0.257 C 
BRANCH   4   5
HETATM    5  C4  UNL     1       5.016 -69.775 -14.954  1.00  0.00     0.102 C 
HETATM    6  N1  UNL     1       6.321 -69.649 -14.436  1.00  0.00    -0.415 N 
HETATM    7  C3  UNL     1       6.998 -68.416 -14.710  1.00  0.00     0.114 C 
ATOM      8  H1  UNL     1       6.759 -70.395 -13.896  1.00  0.00     0.153 HD
HETATM    9  C2  UNL     1       6.330 -67.208 -14.130  1.00  0.00     0.019 C 
HETATM   10  C1  UNL     1       5.470 -66.599 -15.227  1.00  0.00     0.002 C 
HETATM   11  C12 UNL     1       4.199 -67.426 -15.267  1.00  0.00     0.002 C 
HETATM   12  C11 UNL     1       4.569 -68.744 -15.915  1.00  0.00     0.026 C 
ENDBRANCH   4   5
ENDBRANCH   1   4
BRANCH   1  13
HETATM   13  C6  UNL     1       5.969 -73.121 -14.895  1.00  0.00     0.211 C 
HETATM   14  C7  UNL     1       6.977 -73.413 -13.818  1.00  0.00     0.036 C 
HETATM   15  C8  UNL     1       6.564 -74.743 -13.172  1.00  0.00     0.029 C 
HETATM   16  C9  UNL     1       5.341 -74.464 -12.344  1.00  0.00     0.232 C 
HETATM   17  N3  UNL     1       4.625 -73.334 -12.875  1.00  0.00    -0.073 N 
HETATM   18  C10 UNL     1       4.594 -73.321 -14.330  1.00  0.00     0.265 C 
ATOM     19  H32 UNL     1       3.683 -73.284 -12.488  1.00  0.00     0.277 HD
ATOM     20  H31 UNL     1       5.001 -72.459 -12.509  1.00  0.00     0.277 HD
ENDBRANCH   1  13
TORSDOF 3
ENDMDL
MODEL 5
REMARK VINA RESULT: -5.986913951      1.318      5.769
REMARK  3 active torsions:
REMARK  status: ('A' for Active; 'I' for Inactive)
REMARK    1  A    between atoms: C4_6  and  C5_7 
REMARK    2  A    between atoms: C5_7  and  N2_8 
REMARK    3  A    between atoms: N2_8  and  C6_11 
ROOT
HETATM    1  N2  UNL     1       6.482 -70.380 -14.351  1.00  0.00    -0.067 N 
ATOM      2  H21 UNL     1       7.025 -70.036 -13.559  1.00  0.00     0.277 HD
ATOM      3  H22 UNL     1       5.685 -70.768 -13.846  1.00  0.00     0.277 HD
ENDROOT
BRANCH   1   4
HETATM    4  C5  UNL     1       7.193 -71.404 -15.058  1.00  0.00     0.257 C 
BRANCH   4   5
HETATM    5  C4  UNL     1       6.844 -72.763 -14.447  1.00  0.00     0.102 C 
HETATM    6  N1  UNL     1       7.530 -72.890 -13.222  1.00  0.00    -0.415 N 
HETATM    7  C3  UNL     1       6.757 -73.337 -12.103  1.00  0.00     0.114 C 
ATOM      8  H1  UNL     1       8.524 -72.675 -13.139  1.00  0.00     0.153 HD
HETATM    9  C2  UNL     1       6.181 -74.709 -12.264  1.00  0.00     0.019 C 
HETATM   10  C1  UNL     1       4.754 -74.542 -12.764  1.00  0.00     0.002 C 
HETATM   11  C12 UNL     1       4.863 -74.287 -14.255  1.00  0.00     0.002 C 
HETATM   12  C11 UNL     1       5.369 -72.868 -14.408  1.00  0.00     0.026 C 
ENDBRANCH   4   5
ENDBRANCH   1   4
BRANCH   1  13
HETATM   13  C6  UNL     1       6.079 -69.307 -15.204  1.00  0.00     0.211 C 
HETATM   14  C7  UNL     1       4.588 -69.209 -15.377  1.00  0.00     0.036 C 
HETATM   15  C8  UNL     1       4.318 -67.929 -16.180  1.00  0.00     0.029 C 
HETATM   16  C9  UNL     1       4.570 -66.771 -15.255  1.00  0.00     0.232 C 
HETATM   17  N3  UNL     1       5.516 -67.143 -14.236  1.00  0.00    -0.073 N 
HETATM   18  C10 UNL     1       6.596 -67.974 -14.747  1.00  0.00     0.265 C 
ATOM     19  H32 UNL     1       5.883 -66.319 -13.760  1.00  0.00     0.277 HD
ATOM     20  H31 UNL     1       5.049 -67.594 -13.450  1.00  0.00     0.277 HD
ENDBRANCH   1  13
TORSDOF 3
ENDMDL
