MODEL 1
REMARK VINA RESULT: -6.329223701      0.000      0.000
REMARK  7 active torsions:
REMARK  status: ('A' for Active; 'I' for Inactive)
REMARK    1  A    between atoms: C2_2  and  C3_3 
REMARK    2  A    between atoms: C4_4  and  C5_5 
REMARK    3  A    between atoms: C7_9  and  N2_10 
REMARK    4  A    between atoms: N2_10  and  C8_11 
REMARK    5  A    between atoms: N2_10  and  S1_15 
REMARK    6  A    between atoms: C8_11  and  C9_12 
REMARK    7  A    between atoms: S1_15  and  C11_18 
ROOT
HETATM    1  C9  UNL     1      30.794  16.036  98.397  1.00  0.00     0.144 C 
HETATM    2  C10 UNL     1      29.820  15.084  97.797  1.00  0.00     0.060 C 
HETATM    3  N3  UNL     1      29.068  14.347  97.311  1.00  0.00    -0.197 NA
ENDROOT
BRANCH   1   4
HETATM    4  C8  UNL     1      30.176  17.386  98.276  1.00  0.00     0.155 C 
BRANCH   4   5
HETATM    5  N2  UNL     1      30.812  18.300  97.381  1.00  0.00    -0.278 N 
BRANCH   5   6
HETATM    6  C7  UNL     1      32.239  18.393  97.441  1.00  0.00     0.137 A 
HETATM    7  N1  UNL     1      32.961  17.788  96.455  1.00  0.00    -0.349 N 
HETATM    8  C6  UNL     1      34.304  17.798  96.422  1.00  0.00     0.110 A 
ATOM      9  H1  UNL     1      32.459  17.306  95.709  1.00  0.00     0.167 HD
HETATM   10  C5  UNL     1      35.054  18.428  97.391  1.00  0.00     0.034 A 
HETATM   11  C16 UNL     1      34.357  19.050  98.402  1.00  0.00     0.049 A 
HETATM   12  C15 UNL     1      32.956  19.027  98.418  1.00  0.00     0.080 A 
HETATM   13 CL1  UNL     1      32.078  19.846  99.703  1.00  0.00    -0.080 Cl
BRANCH  10  14
HETATM   14  C4  UNL     1      36.501  18.428  97.340  1.00  0.00    -0.066 C 
HETATM   15  C3  UNL     1      37.707  18.416  97.285  1.00  0.00    -0.101 C 
BRANCH  15  16
HETATM   16  C2  UNL     1      39.180  18.401  97.196  1.00  0.00     0.090 C 
HETATM   17  C1  UNL     1      39.636  17.467  96.080  1.00  0.00     0.018 C 
ENDBRANCH  15  16
ENDBRANCH  10  14
ENDBRANCH   5   6
BRANCH   5  18
HETATM   18  S1  UNL     1      29.973  19.306  96.243  1.00  0.00     0.129 S 
HETATM   19  O1  UNL     1      30.187  20.757  96.535  1.00  0.00    -0.232 OA
HETATM   20  S2  UNL     1      30.708  18.994  94.710  1.00  0.00     0.035 SA
BRANCH  18  21
HETATM   21  C11 UNL     1      28.274  18.913  96.180  1.00  0.00     0.084 A 
HETATM   22  C12 UNL     1      27.243  19.774  95.874  1.00  0.00     0.131 A 
HETATM   23  N4  UNL     1      26.078  19.062  95.938  1.00  0.00    -0.309 N 
HETATM   24  N5  UNL     1      26.331  17.826  96.262  1.00  0.00    -0.307 N 
ATOM     25  H4  UNL     1      25.149  19.443  95.758  1.00  0.00     0.186 HD
HETATM   26  C13 UNL     1      25.310  16.795  96.418  1.00  0.00     0.177 C 
HETATM   27  C14 UNL     1      27.669  17.697  96.419  1.00  0.00     0.133 A 
ENDBRANCH  18  21
ENDBRANCH   5  18
ENDBRANCH   4   5
ENDBRANCH   1   4
TORSDOF 7
ENDMDL
MODEL 2
REMARK VINA RESULT: -6.313521898      2.911      8.295
REMARK  7 active torsions:
REMARK  status: ('A' for Active; 'I' for Inactive)
REMARK    1  A    between atoms: C2_2  and  C3_3 
REMARK    2  A    between atoms: C4_4  and  C5_5 
REMARK    3  A    between atoms: C7_9  and  N2_10 
REMARK    4  A    between atoms: N2_10  and  C8_11 
REMARK    5  A    between atoms: N2_10  and  S1_15 
REMARK    6  A    between atoms: C8_11  and  C9_12 
REMARK    7  A    between atoms: S1_15  and  C11_18 
ROOT
HETATM    1  C9  UNL     1      35.170  17.806  95.146  1.00  0.00     0.144 C 
HETATM    2  C10 UNL     1      36.586  17.452  95.433  1.00  0.00     0.060 C 
HETATM    3  N3  UNL     1      37.687  17.157  95.649  1.00  0.00    -0.197 NA
ENDROOT
BRANCH   1   4
HETATM    4  C8  UNL     1      34.373  17.265  96.282  1.00  0.00     0.155 C 
BRANCH   4   5
HETATM    5  N2  UNL     1      33.480  18.176  96.926  1.00  0.00    -0.278 N 
BRANCH   5   6
HETATM    6  C7  UNL     1      32.077  17.951  96.754  1.00  0.00     0.137 A 
HETATM    7  N1  UNL     1      31.445  17.141  97.651  1.00  0.00    -0.349 N 
HETATM    8  C6  UNL     1      30.136  16.849  97.576  1.00  0.00     0.110 A 
ATOM      9  H1  UNL     1      31.991  16.740  98.414  1.00  0.00     0.167 HD
HETATM   10  C5  UNL     1      29.331  17.352  96.577  1.00  0.00     0.034 A 
HETATM   11  C16 UNL     1      29.936  18.174  95.654  1.00  0.00     0.049 A 
HETATM   12  C15 UNL     1      31.304  18.466  95.751  1.00  0.00     0.080 A 
HETATM   13 CL1  UNL     1      32.059  19.537  94.578  1.00  0.00    -0.080 Cl
BRANCH  10  14
HETATM   14  C4  UNL     1      27.923  17.025  96.511  1.00  0.00    -0.066 C 
HETATM   15  C3  UNL     1      26.746  16.756  96.473  1.00  0.00    -0.101 C 
BRANCH  15  16
HETATM   16  C2  UNL     1      25.304  16.444  96.439  1.00  0.00     0.090 C 
HETATM   17  C1  UNL     1      24.483  17.728  96.407  1.00  0.00     0.018 C 
ENDBRANCH  15  16
ENDBRANCH  10  14
ENDBRANCH   5   6
BRANCH   5  18
HETATM   18  S1  UNL     1      33.980  19.534  97.883  1.00  0.00     0.129 S 
HETATM   19  O1  UNL     1      33.669  20.828  97.201  1.00  0.00    -0.232 OA
HETATM   20  S2  UNL     1      33.012  19.481  99.314  1.00  0.00     0.035 SA
BRANCH  18  21
HETATM   21  C11 UNL     1      35.670  19.426  98.304  1.00  0.00     0.084 A 
HETATM   22  C12 UNL     1      36.670  20.293  97.918  1.00  0.00     0.131 A 
HETATM   23  N4  UNL     1      37.839  19.844  98.464  1.00  0.00    -0.309 N 
HETATM   24  N5  UNL     1      37.620  18.762  99.155  1.00  0.00    -0.307 N 
ATOM     25  H4  UNL     1      38.749  20.291  98.348  1.00  0.00     0.186 HD
HETATM   26  C13 UNL     1      38.654  18.022  99.870  1.00  0.00     0.177 C 
HETATM   27  C14 UNL     1      36.299  18.474  99.080  1.00  0.00     0.133 A 
ENDBRANCH  18  21
ENDBRANCH   5  18
ENDBRANCH   4   5
ENDBRANCH   1   4
TORSDOF 7
ENDMDL
MODEL 3
REMARK VINA RESULT: -6.286282973      4.532      9.162
REMARK  7 active torsions:
REMARK  status: ('A' for Active; 'I' for Inactive)
REMARK    1  A    between atoms: C2_2  and  C3_3 
REMARK    2  A    between atoms: C4_4  and  C5_5 
REMARK    3  A    between atoms: C7_9  and  N2_10 
REMARK    4  A    between atoms: N2_10  and  C8_11 
REMARK    5  A    between atoms: N2_10  and  S1_15 
REMARK    6  A    between atoms: C8_11  and  C9_12 
REMARK    7  A    between atoms: S1_15  and  C11_18 
ROOT
HETATM    1  C9  UNL     1      38.823  16.558  97.362  1.00  0.00     0.144 C 
HETATM    2  C10 UNL     1      39.116  15.228  97.960  1.00  0.00     0.060 C 
HETATM    3  N3  UNL     1      39.327  14.183  98.419  1.00  0.00    -0.197 NA
ENDROOT
BRANCH   1   4
HETATM    4  C8  UNL     1      37.910  17.245  98.318  1.00  0.00     0.155 C 
BRANCH   4   5
HETATM    5  N2  UNL     1      37.227  18.401  97.828  1.00  0.00    -0.278 N 
BRANCH   5   6
HETATM    6  C7  UNL     1      35.839  18.257  97.511  1.00  0.00     0.137 A 
HETATM    7  N1  UNL     1      34.927  18.547  98.483  1.00  0.00    -0.349 N 
HETATM    8  C6  UNL     1      33.601  18.432  98.300  1.00  0.00     0.110 A 
ATOM      9  H1  UNL     1      35.267  18.867  99.390  1.00  0.00     0.167 HD
HETATM   10  C5  UNL     1      33.063  18.008  97.104  1.00  0.00     0.034 A 
HETATM   11  C16 UNL     1      33.955  17.707  96.099  1.00  0.00     0.049 A 
HETATM   12  C15 UNL     1      35.334  17.835  96.312  1.00  0.00     0.080 A 
HETATM   13 CL1  UNL     1      36.461  17.469  95.012  1.00  0.00    -0.080 Cl
BRANCH  10  14
HETATM   14  C4  UNL     1      31.632  17.889  96.924  1.00  0.00    -0.066 C 
HETATM   15  C3  UNL     1      30.440  17.793  96.758  1.00  0.00    -0.101 C 
BRANCH  15  16
HETATM   16  C2  UNL     1      28.986  17.666  96.536  1.00  0.00     0.090 C 
HETATM   17  C1  UNL     1      28.479  16.338  97.086  1.00  0.00     0.018 C 
ENDBRANCH  15  16
ENDBRANCH  10  14
ENDBRANCH   5   6
BRANCH   5  18
HETATM   18  S1  UNL     1      37.966  19.951  97.584  1.00  0.00     0.129 S 
HETATM   19  O1  UNL     1      36.940  21.024  97.402  1.00  0.00    -0.232 OA
HETATM   20  S2  UNL     1      38.804  20.309  99.053  1.00  0.00     0.035 SA
BRANCH  18  21
HETATM   21  C11 UNL     1      39.092  19.914  96.251  1.00  0.00     0.084 A 
HETATM   22  C12 UNL     1      38.808  20.176  94.928  1.00  0.00     0.131 A 
HETATM   23  N4  UNL     1      39.969  20.037  94.221  1.00  0.00    -0.309 N 
HETATM   24  N5  UNL     1      40.941  19.707  95.024  1.00  0.00    -0.307 N 
ATOM     25  H4  UNL     1      40.061  20.171  93.214  1.00  0.00     0.186 HD
HETATM   26  C13 UNL     1      42.316  19.478  94.595  1.00  0.00     0.177 C 
HETATM   27  C14 UNL     1      40.440  19.622  96.279  1.00  0.00     0.133 A 
ENDBRANCH  18  21
ENDBRANCH   5  18
ENDBRANCH   4   5
ENDBRANCH   1   4
TORSDOF 7
ENDMDL
MODEL 4
REMARK VINA RESULT: -6.276739103      2.294      3.075
REMARK  7 active torsions:
REMARK  status: ('A' for Active; 'I' for Inactive)
REMARK    1  A    between atoms: C2_2  and  C3_3 
REMARK    2  A    between atoms: C4_4  and  C5_5 
REMARK    3  A    between atoms: C7_9  and  N2_10 
REMARK    4  A    between atoms: N2_10  and  C8_11 
REMARK    5  A    between atoms: N2_10  and  S1_15 
REMARK    6  A    between atoms: C8_11  and  C9_12 
REMARK    7  A    between atoms: S1_15  and  C11_18 
ROOT
HETATM    1  C9  UNL     1      30.564  21.426  99.396  1.00  0.00     0.144 C 
HETATM    2  C10 UNL     1      29.426  21.939 100.205  1.00  0.00     0.060 C 
HETATM    3  N3  UNL     1      28.531  22.321 100.837  1.00  0.00    -0.197 NA
ENDROOT
BRANCH   1   4
HETATM    4  C8  UNL     1      30.058  21.318  97.999  1.00  0.00     0.155 C 
BRANCH   4   5
HETATM    5  N2  UNL     1      30.682  20.337  97.168  1.00  0.00    -0.278 N 
BRANCH   5   6
HETATM    6  C7  UNL     1      31.915  19.775  97.630  1.00  0.00     0.137 A 
HETATM    7  N1  UNL     1      33.066  20.461  97.375  1.00  0.00    -0.349 N 
HETATM    8  C6  UNL     1      34.278  20.018  97.748  1.00  0.00     0.110 A 
ATOM      9  H1  UNL     1      33.004  21.350  96.879  1.00  0.00     0.167 HD
HETATM   10  C5  UNL     1      34.446  18.828  98.422  1.00  0.00     0.034 A 
HETATM   11  C16 UNL     1      33.305  18.109  98.697  1.00  0.00     0.049 A 
HETATM   12  C15 UNL     1      32.050  18.590  98.299  1.00  0.00     0.080 A 
HETATM   13 CL1  UNL     1      30.598  17.672  98.677  1.00  0.00    -0.080 Cl
BRANCH  10  14
HETATM   14  C4  UNL     1      35.760  18.366  98.815  1.00  0.00    -0.066 C 
HETATM   15  C3  UNL     1      36.861  17.979  99.126  1.00  0.00    -0.101 C 
BRANCH  15  16
HETATM   16  C2  UNL     1      38.215  17.517  99.491  1.00  0.00     0.090 C 
HETATM   17  C1  UNL     1      38.701  16.464  98.502  1.00  0.00     0.018 C 
ENDBRANCH  15  16
ENDBRANCH  10  14
ENDBRANCH   5   6
BRANCH   5  18
HETATM   18  S1  UNL     1      30.056  19.797  95.643  1.00  0.00     0.129 S 
HETATM   19  O1  UNL     1      30.078  20.891  94.625  1.00  0.00    -0.232 OA
HETATM   20  S2  UNL     1      31.154  18.581  95.090  1.00  0.00     0.035 SA
BRANCH  18  21
HETATM   21  C11 UNL     1      28.457  19.120  95.818  1.00  0.00     0.084 A 
HETATM   22  C12 UNL     1      27.265  19.811  95.784  1.00  0.00     0.131 A 
HETATM   23  N4  UNL     1      26.258  18.905  95.959  1.00  0.00    -0.309 N 
HETATM   24  N5  UNL     1      26.756  17.709  96.098  1.00  0.00    -0.307 N 
ATOM     25  H4  UNL     1      25.263  19.131  95.978  1.00  0.00     0.186 HD
HETATM   26  C13 UNL     1      25.955  16.507  96.305  1.00  0.00     0.177 C 
HETATM   27  C14 UNL     1      28.104  17.802  96.017  1.00  0.00     0.133 A 
ENDBRANCH  18  21
ENDBRANCH   5  18
ENDBRANCH   4   5
ENDBRANCH   1   4
TORSDOF 7
ENDMDL
MODEL 5
REMARK VINA RESULT: -6.161891321      3.320      6.989
REMARK  7 active torsions:
REMARK  status: ('A' for Active; 'I' for Inactive)
REMARK    1  A    between atoms: C2_2  and  C3_3 
REMARK    2  A    between atoms: C4_4  and  C5_5 
REMARK    3  A    between atoms: C7_9  and  N2_10 
REMARK    4  A    between atoms: N2_10  and  C8_11 
REMARK    5  A    between atoms: N2_10  and  S1_15 
REMARK    6  A    between atoms: C8_11  and  C9_12 
REMARK    7  A    between atoms: S1_15  and  C11_18 
ROOT
HETATM    1  C9  UNL     1      34.313  17.792  96.109  1.00  0.00     0.144 C 
HETATM    2  C10 UNL     1      35.598  17.330  95.519  1.00  0.00     0.060 C 
HETATM    3  N3  UNL     1      36.600  16.954  95.071  1.00  0.00    -0.197 NA
ENDROOT
BRANCH   1   4
HETATM    4  C8  UNL     1      34.673  18.517  97.360  1.00  0.00     0.155 C 
BRANCH   4   5
HETATM    5  N2  UNL     1      33.590  19.070  98.111  1.00  0.00    -0.278 N 
BRANCH   5   6
HETATM    6  C7  UNL     1      32.265  18.697  97.722  1.00  0.00     0.137 A 
HETATM    7  N1  UNL     1      31.737  17.560  98.261  1.00  0.00    -0.349 N 
HETATM    8  C6  UNL     1      30.509  17.108  97.955  1.00  0.00     0.110 A 
ATOM      9  H1  UNL     1      32.299  17.030  98.926  1.00  0.00     0.167 HD
HETATM   10  C5  UNL     1      29.688  17.768  97.066  1.00  0.00     0.034 A 
HETATM   11  C16 UNL     1      30.189  18.920  96.503  1.00  0.00     0.049 A 
HETATM   12  C15 UNL     1      31.472  19.374  96.837  1.00  0.00     0.080 A 
HETATM   13 CL1  UNL     1      32.090  20.860  96.128  1.00  0.00    -0.080 Cl
BRANCH  10  14
HETATM   14  C4  UNL     1      28.369  17.266  96.747  1.00  0.00    -0.066 C 
HETATM   15  C3  UNL     1      27.262  16.854  96.496  1.00  0.00    -0.101 C 
BRANCH  15  16
HETATM   16  C2  UNL     1      25.900  16.369  96.194  1.00  0.00     0.090 C 
HETATM   17  C1  UNL     1      24.871  17.450  96.505  1.00  0.00     0.018 C 
ENDBRANCH  15  16
ENDBRANCH  10  14
ENDBRANCH   5   6
BRANCH   5  18
HETATM   18  S1  UNL     1      33.776  20.165  99.443  1.00  0.00     0.129 S 
HETATM   19  O1  UNL     1      34.705  19.615 100.478  1.00  0.00    -0.232 OA
HETATM   20  S2  UNL     1      34.536  21.574  98.791  1.00  0.00     0.035 SA
BRANCH  18  21
HETATM   21  C11 UNL     1      32.231  20.589 100.136  1.00  0.00     0.084 A 
HETATM   22  C12 UNL     1      31.588  19.941 101.168  1.00  0.00     0.131 A 
HETATM   23  N4  UNL     1      30.411  20.595 101.398  1.00  0.00    -0.309 N 
HETATM   24  N5  UNL     1      30.293  21.598 100.574  1.00  0.00    -0.307 N 
ATOM     25  H4  UNL     1      29.726  20.337 102.108  1.00  0.00     0.186 HD
HETATM   26  C13 UNL     1      29.152  22.506 100.547  1.00  0.00     0.177 C 
HETATM   27  C14 UNL     1      31.392  21.626  99.784  1.00  0.00     0.133 A 
ENDBRANCH  18  21
ENDBRANCH   5  18
ENDBRANCH   4   5
ENDBRANCH   1   4
TORSDOF 7
ENDMDL
