MODEL 1
REMARK VINA RESULT: -6.148246119      0.000      0.000
REMARK  7 active torsions:
REMARK  status: ('A' for Active; 'I' for Inactive)
REMARK    1  A    between atoms: N1_1  and  C1_5 
REMARK    2  A    between atoms: C1_5  and  C2_6 
REMARK    3  A    between atoms: C2_6  and  C3_7 
REMARK    4  A    between atoms: C3_7  and  C4_8 
REMARK    5  A    between atoms: C4_8  and  N2_9 
REMARK    6  A    between atoms: N2_9  and  C5_12 
REMARK    7  A    between atoms: C5_12  and  C6_13 
ROOT
HETATM    1  N2  UNL     1       3.357  18.276 -41.213  1.00  0.00    -0.075 N 
ATOM      2  H21 UNL     1       3.357  19.253 -40.918  1.00  0.00     0.277 HD
ATOM      3  H22 UNL     1       4.158  18.288 -41.846  1.00  0.00     0.277 HD
ENDROOT
BRANCH   1   4
HETATM    4  C4  UNL     1       2.160  17.965 -41.923  1.00  0.00     0.232 C 
BRANCH   4   5
HETATM    5  C3  UNL     1       2.262  18.027 -43.417  1.00  0.00     0.029 C 
BRANCH   5   6
HETATM    6  C2  UNL     1       2.900  16.769 -43.957  1.00  0.00     0.029 C 
BRANCH   6   7
HETATM    7  C1  UNL     1       3.480  17.116 -45.321  1.00  0.00     0.229 C 
BRANCH   7   8
HETATM    8  N1  UNL     1       4.873  16.697 -45.293  1.00  0.00    -0.079 N 
ATOM      9  H13 UNL     1       5.425  17.177 -44.582  1.00  0.00     0.274 HD
ATOM     10  H12 UNL     1       5.003  15.750 -44.938  1.00  0.00     0.274 HD
ATOM     11  H11 UNL     1       5.231  16.827 -46.239  1.00  0.00     0.274 HD
ENDBRANCH   7   8
ENDBRANCH   6   7
ENDBRANCH   5   6
ENDBRANCH   4   5
ENDBRANCH   1   4
BRANCH   1  12
HETATM   12  C5  UNL     1       3.607  17.414 -40.102  1.00  0.00     0.238 C 
BRANCH  12  13
HETATM   13  C6  UNL     1       3.581  15.960 -40.435  1.00  0.00     0.036 C 
HETATM   14  C7  UNL     1       4.952  15.359 -40.606  1.00  0.00     0.084 C 
HETATM   15  C8  UNL     1       4.600  13.899 -40.556  1.00  0.00     0.083 A 
HETATM   16  N3  UNL     1       4.988  12.675 -40.949  1.00  0.00    -0.354 N 
HETATM   17  N4  UNL     1       3.447  13.757 -39.838  1.00  0.00    -0.345 N 
HETATM   18  C9  UNL     1       4.136  11.748 -40.520  1.00  0.00     0.106 A 
ATOM     19  H3  UNL     1       5.823  12.482 -41.503  1.00  0.00     0.166 HD
HETATM   20  C10 UNL     1       3.154  12.442 -39.810  1.00  0.00     0.109 A 
HETATM   21  C11 UNL     1       2.987  15.072 -39.385  1.00  0.00     0.136 C 
ENDBRANCH  12  13
ENDBRANCH   1  12
TORSDOF 7
ENDMDL
MODEL 2
REMARK VINA RESULT: -5.863848111      2.533      4.222
REMARK  7 active torsions:
REMARK  status: ('A' for Active; 'I' for Inactive)
REMARK    1  A    between atoms: N1_1  and  C1_5 
REMARK    2  A    between atoms: C1_5  and  C2_6 
REMARK    3  A    between atoms: C2_6  and  C3_7 
REMARK    4  A    between atoms: C3_7  and  C4_8 
REMARK    5  A    between atoms: C4_8  and  N2_9 
REMARK    6  A    between atoms: N2_9  and  C5_12 
REMARK    7  A    between atoms: C5_12  and  C6_13 
ROOT
HETATM    1  N2  UNL     1       4.124  18.335 -40.478  1.00  0.00    -0.075 N 
ATOM      2  H21 UNL     1       4.891  17.774 -40.847  1.00  0.00     0.277 HD
ATOM      3  H22 UNL     1       3.824  18.801 -41.335  1.00  0.00     0.277 HD
ENDROOT
BRANCH   1   4
HETATM    4  C4  UNL     1       4.607  19.286 -39.531  1.00  0.00     0.232 C 
BRANCH   4   5
HETATM    5  C3  UNL     1       5.260  20.502 -40.114  1.00  0.00     0.029 C 
BRANCH   5   6
HETATM    6  C2  UNL     1       5.273  21.630 -39.111  1.00  0.00     0.029 C 
BRANCH   6   7
HETATM    7  C1  UNL     1       4.518  21.140 -37.883  1.00  0.00     0.229 C 
BRANCH   7   8
HETATM    8  N1  UNL     1       4.925  21.999 -36.782  1.00  0.00    -0.079 N 
ATOM      9  H13 UNL     1       4.495  21.748 -35.892  1.00  0.00     0.274 HD
ATOM     10  H12 UNL     1       5.895  21.859 -36.497  1.00  0.00     0.274 HD
ATOM     11  H11 UNL     1       4.723  22.955 -37.074  1.00  0.00     0.274 HD
ENDBRANCH   7   8
ENDBRANCH   6   7
ENDBRANCH   5   6
ENDBRANCH   4   5
ENDBRANCH   1   4
BRANCH   1  12
HETATM   12  C5  UNL     1       3.085  17.496 -39.972  1.00  0.00     0.238 C 
BRANCH  12  13
HETATM   13  C6  UNL     1       3.229  16.056 -40.332  1.00  0.00     0.036 C 
HETATM   14  C7  UNL     1       4.661  15.624 -40.522  1.00  0.00     0.084 C 
HETATM   15  C8  UNL     1       4.484  14.132 -40.498  1.00  0.00     0.083 A 
HETATM   16  N3  UNL     1       5.012  12.970 -40.917  1.00  0.00    -0.354 N 
HETATM   17  N4  UNL     1       3.361  13.842 -39.777  1.00  0.00    -0.345 N 
HETATM   18  C9  UNL     1       4.278  11.941 -40.501  1.00  0.00     0.106 A 
ATOM     19  H3  UNL     1       5.860  12.888 -41.478  1.00  0.00     0.166 HD
HETATM   20  C10 UNL     1       3.226  12.501 -39.773  1.00  0.00     0.109 A 
HETATM   21  C11 UNL     1       2.752  15.084 -39.298  1.00  0.00     0.136 C 
ENDBRANCH  12  13
ENDBRANCH   1  12
TORSDOF 7
ENDMDL
MODEL 3
REMARK VINA RESULT: -5.709903421      1.541      1.842
REMARK  7 active torsions:
REMARK  status: ('A' for Active; 'I' for Inactive)
REMARK    1  A    between atoms: N1_1  and  C1_5 
REMARK    2  A    between atoms: C1_5  and  C2_6 
REMARK    3  A    between atoms: C2_6  and  C3_7 
REMARK    4  A    between atoms: C3_7  and  C4_8 
REMARK    5  A    between atoms: C4_8  and  N2_9 
REMARK    6  A    between atoms: N2_9  and  C5_12 
REMARK    7  A    between atoms: C5_12  and  C6_13 
ROOT
HETATM    1  N2  UNL     1       3.315  18.280 -41.459  1.00  0.00    -0.075 N 
ATOM      2  H21 UNL     1       3.217  19.266 -41.216  1.00  0.00     0.277 HD
ATOM      3  H22 UNL     1       4.220  18.307 -41.929  1.00  0.00     0.277 HD
ENDROOT
BRANCH   1   4
HETATM    4  C4  UNL     1       2.288  17.882 -42.366  1.00  0.00     0.232 C 
BRANCH   4   5
HETATM    5  C3  UNL     1       2.732  17.652 -43.779  1.00  0.00     0.029 C 
BRANCH   5   6
HETATM    6  C2  UNL     1       1.538  17.527 -44.695  1.00  0.00     0.029 C 
BRANCH   6   7
HETATM    7  C1  UNL     1       0.295  17.631 -43.822  1.00  0.00     0.229 C 
BRANCH   7   8
HETATM    8  N1  UNL     1      -0.700  18.341 -44.609  1.00  0.00    -0.079 N 
ATOM      9  H13 UNL     1      -0.466  18.401 -45.600  1.00  0.00     0.274 HD
ATOM     10  H12 UNL     1      -1.574  17.826 -44.716  1.00  0.00     0.274 HD
ATOM     11  H11 UNL     1      -0.820  19.252 -44.166  1.00  0.00     0.274 HD
ENDBRANCH   7   8
ENDBRANCH   6   7
ENDBRANCH   5   6
ENDBRANCH   4   5
ENDBRANCH   1   4
BRANCH   1  12
HETATM   12  C5  UNL     1       3.384  17.475 -40.281  1.00  0.00     0.238 C 
BRANCH  12  13
HETATM   13  C6  UNL     1       3.426  16.007 -40.542  1.00  0.00     0.036 C 
HETATM   14  C7  UNL     1       4.824  15.465 -40.699  1.00  0.00     0.084 C 
HETATM   15  C8  UNL     1       4.544  13.994 -40.574  1.00  0.00     0.083 A 
HETATM   16  N3  UNL     1       4.987  12.772 -40.911  1.00  0.00    -0.354 N 
HETATM   17  N4  UNL     1       3.405  13.833 -39.837  1.00  0.00    -0.345 N 
HETATM   18  C9  UNL     1       4.185  11.827 -40.427  1.00  0.00     0.106 A 
ATOM     19  H3  UNL     1       5.826  12.593 -41.463  1.00  0.00     0.166 HD
HETATM   20  C10 UNL     1       3.177  12.508 -39.742  1.00  0.00     0.109 A 
HETATM   21  C11 UNL     1       2.885  15.144 -39.444  1.00  0.00     0.136 C 
ENDBRANCH  12  13
ENDBRANCH   1  12
TORSDOF 7
ENDMDL
MODEL 4
REMARK VINA RESULT: -5.708154034      2.234      3.927
REMARK  7 active torsions:
REMARK  status: ('A' for Active; 'I' for Inactive)
REMARK    1  A    between atoms: N1_1  and  C1_5 
REMARK    2  A    between atoms: C1_5  and  C2_6 
REMARK    3  A    between atoms: C2_6  and  C3_7 
REMARK    4  A    between atoms: C3_7  and  C4_8 
REMARK    5  A    between atoms: C4_8  and  N2_9 
REMARK    6  A    between atoms: N2_9  and  C5_12 
REMARK    7  A    between atoms: C5_12  and  C6_13 
ROOT
HETATM    1  N2  UNL     1       2.767  18.209 -40.976  1.00  0.00    -0.075 N 
ATOM      2  H21 UNL     1       3.109  19.170 -40.970  1.00  0.00     0.277 HD
ATOM      3  H22 UNL     1       2.967  17.962 -41.946  1.00  0.00     0.277 HD
ENDROOT
BRANCH   1   4
HETATM    4  C4  UNL     1       1.362  18.173 -40.728  1.00  0.00     0.232 C 
BRANCH   4   5
HETATM    5  C3  UNL     1       0.949  18.489 -39.323  1.00  0.00     0.029 C 
BRANCH   5   6
HETATM    6  C2  UNL     1      -0.018  17.450 -38.809  1.00  0.00     0.029 C 
BRANCH   6   7
HETATM    7  C1  UNL     1       0.433  17.079 -37.402  1.00  0.00     0.229 C 
BRANCH   7   8
HETATM    8  N1  UNL     1      -0.654  16.315 -36.811  1.00  0.00    -0.079 N 
ATOM      9  H13 UNL     1      -0.590  16.240 -35.796  1.00  0.00     0.274 HD
ATOM     10  H12 UNL     1      -1.552  16.797 -36.846  1.00  0.00     0.274 HD
ATOM     11  H11 UNL     1      -0.661  15.412 -37.284  1.00  0.00     0.274 HD
ENDBRANCH   7   8
ENDBRANCH   6   7
ENDBRANCH   5   6
ENDBRANCH   4   5
ENDBRANCH   1   4
BRANCH   1  12
HETATM   12  C5  UNL     1       3.530  17.397 -40.083  1.00  0.00     0.238 C 
BRANCH  12  13
HETATM   13  C6  UNL     1       3.530  15.944 -40.422  1.00  0.00     0.036 C 
HETATM   14  C7  UNL     1       4.911  15.369 -40.599  1.00  0.00     0.084 C 
HETATM   15  C8  UNL     1       4.586  13.903 -40.554  1.00  0.00     0.083 A 
HETATM   16  N3  UNL     1       4.995  12.687 -40.953  1.00  0.00    -0.354 N 
HETATM   17  N4  UNL     1       3.437  13.737 -39.834  1.00  0.00    -0.345 N 
HETATM   18  C9  UNL     1       4.161  11.743 -40.526  1.00  0.00     0.106 A 
ATOM     19  H3  UNL     1       5.832  12.512 -41.509  1.00  0.00     0.166 HD
HETATM   20  C10 UNL     1       3.168  12.417 -39.811  1.00  0.00     0.109 A 
HETATM   21  C11 UNL     1       2.954  15.041 -39.375  1.00  0.00     0.136 C 
ENDBRANCH  12  13
ENDBRANCH   1  12
TORSDOF 7
ENDMDL
MODEL 5
REMARK VINA RESULT: -5.682596676      3.235      5.231
REMARK  7 active torsions:
REMARK  status: ('A' for Active; 'I' for Inactive)
REMARK    1  A    between atoms: N1_1  and  C1_5 
REMARK    2  A    between atoms: C1_5  and  C2_6 
REMARK    3  A    between atoms: C2_6  and  C3_7 
REMARK    4  A    between atoms: C3_7  and  C4_8 
REMARK    5  A    between atoms: C4_8  and  N2_9 
REMARK    6  A    between atoms: N2_9  and  C5_12 
REMARK    7  A    between atoms: C5_12  and  C6_13 
ROOT
HETATM    1  N2  UNL     1       2.284  17.370 -37.980  1.00  0.00    -0.075 N 
ATOM      2  H21 UNL     1       2.480  16.463 -37.555  1.00  0.00     0.277 HD
ATOM      3  H22 UNL     1       2.927  17.953 -37.444  1.00  0.00     0.277 HD
ENDROOT
BRANCH   1   4
HETATM    4  C4  UNL     1       0.932  17.757 -37.737  1.00  0.00     0.232 C 
BRANCH   4   5
HETATM    5  C3  UNL     1       0.254  17.049 -36.605  1.00  0.00     0.029 C 
BRANCH   5   6
HETATM    6  C2  UNL     1      -1.086  16.508 -37.045  1.00  0.00     0.029 C 
BRANCH   6   7
HETATM    7  C1  UNL     1      -1.803  16.023 -35.792  1.00  0.00     0.229 C 
BRANCH   7   8
HETATM    8  N1  UNL     1      -2.272  14.678 -36.084  1.00  0.00    -0.079 N 
ATOM      9  H13 UNL     1      -1.631  14.144 -36.672  1.00  0.00     0.274 HD
ATOM     10  H12 UNL     1      -2.248  14.057 -35.275  1.00  0.00     0.274 HD
ATOM     11  H11 UNL     1      -3.203  14.780 -36.488  1.00  0.00     0.274 HD
ENDBRANCH   7   8
ENDBRANCH   6   7
ENDBRANCH   5   6
ENDBRANCH   4   5
ENDBRANCH   1   4
BRANCH   1  12
HETATM   12  C5  UNL     1       2.641  17.366 -39.363  1.00  0.00     0.238 C 
BRANCH  12  13
HETATM   13  C6  UNL     1       2.917  16.010 -39.921  1.00  0.00     0.036 C 
HETATM   14  C7  UNL     1       4.374  15.771 -40.224  1.00  0.00     0.084 C 
HETATM   15  C8  UNL     1       4.359  14.278 -40.396  1.00  0.00     0.083 A 
HETATM   16  N3  UNL     1       4.983  13.248 -40.989  1.00  0.00    -0.354 N 
HETATM   17  N4  UNL     1       3.313  13.772 -39.678  1.00  0.00    -0.345 N 
HETATM   18  C9  UNL     1       4.387  12.097 -40.689  1.00  0.00     0.106 A 
ATOM     19  H3  UNL     1       5.804  13.335 -41.589  1.00  0.00     0.166 HD
HETATM   20  C10 UNL     1       3.322  12.436 -39.851  1.00  0.00     0.109 A 
HETATM   21  C11 UNL     1       2.603  14.864 -39.010  1.00  0.00     0.136 C 
ENDBRANCH  12  13
ENDBRANCH   1  12
TORSDOF 7
ENDMDL
