MODEL 1
REMARK VINA RESULT: -5.836739597      0.000      0.000
REMARK  14 active torsions:
REMARK  status: ('A' for Active; 'I' for Inactive)
REMARK    1  A    between atoms: C2_2  and  C15_18 
REMARK    2  A    between atoms: C3_3  and  C4_4 
REMARK    3  A    between atoms: C4_4  and  C5_5 
REMARK    4  A    between atoms: C6_7  and  C7_8 
REMARK    5  A    between atoms: C8_9  and  C9_10 
REMARK    6  A    between atoms: C10_11  and  C11_12 
REMARK    7  A    between atoms: C15_18  and  C16_19 
REMARK    8  A    between atoms: C16_19  and  C17_20 
REMARK    9  A    between atoms: C17_20  and  C18_21 
REMARK   10  A    between atoms: C18_21  and  C20_23 
REMARK   11  A    between atoms: C20_23  and  C21_24 
REMARK   12  A    between atoms: C22_25  and  C23_26 
REMARK   13  A    between atoms: C23_26  and  C24_28 
REMARK   14  A    between atoms: C24_28  and  C25_29 
ROOT
HETATM    1  C1  UNL     1      -0.666  -5.307  38.017  1.00  0.00     0.043 C 
HETATM    2  C2  UNL     1      -0.063  -6.656  37.862  1.00  0.00    -0.087 C 
HETATM    3  C3  UNL     1      -0.719  -7.708  38.289  1.00  0.00    -0.022 C 
ENDROOT
BRANCH   2   4
HETATM    4  C15 UNL     1       1.302  -6.745  37.210  1.00  0.00     0.033 C 
BRANCH   4   5
HETATM    5  C16 UNL     1       1.175  -6.615  35.747  1.00  0.00     0.005 C 
BRANCH   5   6
HETATM    6  C17 UNL     1       0.747  -7.725  34.909  1.00  0.00     0.005 C 
BRANCH   6   7
HETATM    7  C18 UNL     1       1.605  -8.177  33.752  1.00  0.00    -0.015 C 
HETATM    8  C19 UNL     1       3.063  -7.854  34.000  1.00  0.00     0.010 C 
BRANCH   7   9
HETATM    9  C20 UNL     1       1.111  -7.561  32.472  1.00  0.00     0.031 C 
BRANCH   9  10
HETATM   10  C21 UNL     1      -0.274  -7.735  32.114  1.00  0.00    -0.023 C 
HETATM   11  C22 UNL     1      -0.806  -8.090  30.995  1.00  0.00     0.046 C 
BRANCH  11  12
HETATM   12  C23 UNL     1      -2.266  -8.224  30.789  1.00  0.00     0.159 C 
HETATM   13  O4  UNL     1      -3.087  -7.586  31.536  1.00  0.00    -0.293 OA
BRANCH  12  14
HETATM   14  C24 UNL     1      -2.849  -9.078  29.739  1.00  0.00     0.196 C 
BRANCH  14  15
HETATM   15  C25 UNL     1      -3.993  -9.829  30.304  1.00  0.00     0.180 C 
HETATM   16  O5  UNL     1      -3.786 -10.739  31.140  1.00  0.00    -0.648 OA
HETATM   17  O6  UNL     1      -5.282  -9.534  29.917  1.00  0.00    -0.648 OA
ENDBRANCH  14  15
ENDBRANCH  12  14
ENDBRANCH  11  12
ENDBRANCH   9  10
ENDBRANCH   7   9
ENDBRANCH   6   7
ENDBRANCH   5   6
ENDBRANCH   4   5
ENDBRANCH   2   4
BRANCH   3  18
HETATM   18  C4  UNL     1      -2.062  -7.562  38.927  1.00  0.00     0.059 C 
BRANCH  18  19
HETATM   19  C5  UNL     1      -2.093  -8.539  40.096  1.00  0.00     0.129 C 
HETATM   20  O1  UNL     1      -0.865  -8.598  40.734  1.00  0.00    -0.376 OA
HETATM   21  C6  UNL     1      -0.945  -7.728  41.815  1.00  0.00     0.145 C 
HETATM   22  C12 UNL     1      -2.351  -7.739  42.297  1.00  0.00     0.042 C 
HETATM   23  C13 UNL     1      -3.146  -8.179  41.099  1.00  0.00     0.013 C 
HETATM   24  C14 UNL     1      -3.988  -6.994  40.651  1.00  0.00     0.012 C 
BRANCH  21  25
HETATM   25  C7  UNL     1       0.025  -8.085  42.886  1.00  0.00     0.005 C 
HETATM   26  C8  UNL     1       0.036  -7.449  44.039  1.00  0.00    -0.001 C 
BRANCH  26  27
HETATM   27  C9  UNL     1       0.991  -7.817  45.065  1.00  0.00     0.007 C 
HETATM   28  C10 UNL     1       2.153  -7.173  45.149  1.00  0.00     0.084 C 
BRANCH  28  29
HETATM   29  C11 UNL     1       3.130  -7.536  46.184  1.00  0.00     0.198 C 
HETATM   30  O2  UNL     1       2.721  -8.218  47.183  1.00  0.00    -0.645 OA
HETATM   31  O3  UNL     1       4.439  -7.134  46.044  1.00  0.00    -0.645 OA
ENDBRANCH  28  29
ENDBRANCH  26  27
ENDBRANCH  21  25
ENDBRANCH  18  19
ENDBRANCH   3  18
TORSDOF 14
ENDMDL
MODEL 2
REMARK VINA RESULT: -5.673620656      3.912      6.171
REMARK  14 active torsions:
REMARK  status: ('A' for Active; 'I' for Inactive)
REMARK    1  A    between atoms: C2_2  and  C15_18 
REMARK    2  A    between atoms: C3_3  and  C4_4 
REMARK    3  A    between atoms: C4_4  and  C5_5 
REMARK    4  A    between atoms: C6_7  and  C7_8 
REMARK    5  A    between atoms: C8_9  and  C9_10 
REMARK    6  A    between atoms: C10_11  and  C11_12 
REMARK    7  A    between atoms: C15_18  and  C16_19 
REMARK    8  A    between atoms: C16_19  and  C17_20 
REMARK    9  A    between atoms: C17_20  and  C18_21 
REMARK   10  A    between atoms: C18_21  and  C20_23 
REMARK   11  A    between atoms: C20_23  and  C21_24 
REMARK   12  A    between atoms: C22_25  and  C23_26 
REMARK   13  A    between atoms: C23_26  and  C24_28 
REMARK   14  A    between atoms: C24_28  and  C25_29 
ROOT
HETATM    1  C1  UNL     1       0.338  -5.144  35.964  1.00  0.00     0.043 C 
HETATM    2  C2  UNL     1       0.166  -6.586  35.648  1.00  0.00    -0.087 C 
HETATM    3  C3  UNL     1      -0.002  -7.444  36.625  1.00  0.00    -0.022 C 
ENDROOT
BRANCH   2   4
HETATM    4  C15 UNL     1       0.198  -6.995  34.190  1.00  0.00     0.033 C 
BRANCH   4   5
HETATM    5  C16 UNL     1       0.983  -8.233  34.027  1.00  0.00     0.005 C 
BRANCH   5   6
HETATM    6  C17 UNL     1       2.426  -8.210  33.839  1.00  0.00     0.005 C 
BRANCH   6   7
HETATM    7  C18 UNL     1       3.115  -6.938  33.406  1.00  0.00    -0.015 C 
HETATM    8  C19 UNL     1       3.643  -7.063  31.993  1.00  0.00     0.010 C 
BRANCH   7   9
HETATM    9  C20 UNL     1       4.208  -6.587  34.378  1.00  0.00     0.031 C 
BRANCH   9  10
HETATM   10  C21 UNL     1       3.887  -6.522  35.781  1.00  0.00    -0.023 C 
HETATM   11  C22 UNL     1       4.493  -7.033  36.798  1.00  0.00     0.046 C 
BRANCH  11  12
HETATM   12  C23 UNL     1       4.026  -6.872  38.194  1.00  0.00     0.159 C 
HETATM   13  O4  UNL     1       3.344  -7.794  38.760  1.00  0.00    -0.293 OA
BRANCH  12  14
HETATM   14  C24 UNL     1       4.312  -5.668  38.997  1.00  0.00     0.196 C 
BRANCH  14  15
HETATM   15  C25 UNL     1       5.609  -5.843  39.687  1.00  0.00     0.180 C 
HETATM   16  O5  UNL     1       5.649  -6.423  40.797  1.00  0.00    -0.648 OA
HETATM   17  O6  UNL     1       6.773  -5.373  39.118  1.00  0.00    -0.648 OA
ENDBRANCH  14  15
ENDBRANCH  12  14
ENDBRANCH  11  12
ENDBRANCH   9  10
ENDBRANCH   7   9
ENDBRANCH   6   7
ENDBRANCH   5   6
ENDBRANCH   4   5
ENDBRANCH   2   4
BRANCH   3  18
HETATM   18  C4  UNL     1      -0.023  -6.986  38.047  1.00  0.00     0.059 C 
BRANCH  18  19
HETATM   19  C5  UNL     1      -0.317  -8.217  38.894  1.00  0.00     0.129 C 
HETATM   20  O1  UNL     1       0.318  -8.145  40.124  1.00  0.00    -0.376 OA
HETATM   21  C6  UNL     1      -0.621  -7.644  41.017  1.00  0.00     0.145 C 
HETATM   22  C12 UNL     1      -1.958  -8.126  40.581  1.00  0.00     0.042 C 
HETATM   23  C13 UNL     1      -1.786  -8.408  39.115  1.00  0.00     0.013 C 
HETATM   24  C14 UNL     1      -2.621  -7.390  38.354  1.00  0.00     0.012 C 
BRANCH  21  25
HETATM   25  C7  UNL     1      -0.310  -8.027  42.420  1.00  0.00     0.005 C 
HETATM   26  C8  UNL     1       0.072  -7.131  43.307  1.00  0.00    -0.001 C 
BRANCH  26  27
HETATM   27  C9  UNL     1       0.370  -7.532  44.668  1.00  0.00     0.007 C 
HETATM   28  C10 UNL     1       1.561  -7.256  45.194  1.00  0.00     0.084 C 
BRANCH  28  29
HETATM   29  C11 UNL     1       1.875  -7.657  46.571  1.00  0.00     0.198 C 
HETATM   30  O2  UNL     1       2.752  -8.568  46.746  1.00  0.00    -0.645 OA
HETATM   31  O3  UNL     1       1.221  -7.045  47.616  1.00  0.00    -0.645 OA
ENDBRANCH  28  29
ENDBRANCH  26  27
ENDBRANCH  21  25
ENDBRANCH  18  19
ENDBRANCH   3  18
TORSDOF 14
ENDMDL
MODEL 3
REMARK VINA RESULT: -5.559006978      5.818     10.244
REMARK  14 active torsions:
REMARK  status: ('A' for Active; 'I' for Inactive)
REMARK    1  A    between atoms: C2_2  and  C15_18 
REMARK    2  A    between atoms: C3_3  and  C4_4 
REMARK    3  A    between atoms: C4_4  and  C5_5 
REMARK    4  A    between atoms: C6_7  and  C7_8 
REMARK    5  A    between atoms: C8_9  and  C9_10 
REMARK    6  A    between atoms: C10_11  and  C11_12 
REMARK    7  A    between atoms: C15_18  and  C16_19 
REMARK    8  A    between atoms: C16_19  and  C17_20 
REMARK    9  A    between atoms: C17_20  and  C18_21 
REMARK   10  A    between atoms: C18_21  and  C20_23 
REMARK   11  A    between atoms: C20_23  and  C21_24 
REMARK   12  A    between atoms: C22_25  and  C23_26 
REMARK   13  A    between atoms: C23_26  and  C24_28 
REMARK   14  A    between atoms: C24_28  and  C25_29 
ROOT
HETATM    1  C1  UNL     1       3.242  -5.053  32.622  1.00  0.00     0.043 C 
HETATM    2  C2  UNL     1       3.554  -6.501  32.510  1.00  0.00    -0.087 C 
HETATM    3  C3  UNL     1       4.030  -6.972  31.382  1.00  0.00    -0.022 C 
ENDROOT
BRANCH   2   4
HETATM    4  C15 UNL     1       3.301  -7.371  33.724  1.00  0.00     0.033 C 
BRANCH   4   5
HETATM    5  C16 UNL     1       2.108  -8.211  33.506  1.00  0.00     0.005 C 
BRANCH   5   6
HETATM    6  C17 UNL     1       0.829  -7.907  34.130  1.00  0.00     0.005 C 
BRANCH   6   7
HETATM    7  C18 UNL     1       0.611  -6.574  34.805  1.00  0.00    -0.015 C 
HETATM    8  C19 UNL     1       0.307  -6.757  36.276  1.00  0.00     0.010 C 
BRANCH   7   9
HETATM    9  C20 UNL     1      -0.479  -5.812  34.103  1.00  0.00     0.031 C 
BRANCH   9  10
HETATM   10  C21 UNL     1      -1.844  -6.235  34.289  1.00  0.00    -0.023 C 
HETATM   11  C22 UNL     1      -2.856  -6.154  33.495  1.00  0.00     0.046 C 
BRANCH  11  12
HETATM   12  C23 UNL     1      -4.210  -6.643  33.842  1.00  0.00     0.159 C 
HETATM   13  O4  UNL     1      -4.442  -7.140  34.998  1.00  0.00    -0.293 OA
BRANCH  12  14
HETATM   14  C24 UNL     1      -5.343  -6.588  32.901  1.00  0.00     0.196 C 
BRANCH  14  15
HETATM   15  C25 UNL     1      -5.299  -7.776  32.020  1.00  0.00     0.180 C 
HETATM   16  O5  UNL     1      -5.170  -8.917  32.521  1.00  0.00    -0.648 OA
HETATM   17  O6  UNL     1      -5.398  -7.636  30.652  1.00  0.00    -0.648 OA
ENDBRANCH  14  15
ENDBRANCH  12  14
ENDBRANCH  11  12
ENDBRANCH   9  10
ENDBRANCH   7   9
ENDBRANCH   6   7
ENDBRANCH   5   6
ENDBRANCH   4   5
ENDBRANCH   2   4
BRANCH   3  18
HETATM   18  C4  UNL     1       4.259  -6.069  30.214  1.00  0.00     0.059 C 
BRANCH  18  19
HETATM   19  C5  UNL     1       3.347  -6.564  29.099  1.00  0.00     0.129 C 
HETATM   20  O1  UNL     1       2.324  -7.354  29.600  1.00  0.00    -0.376 OA
HETATM   21  C6  UNL     1       1.225  -6.517  29.754  1.00  0.00     0.145 C 
HETATM   22  C12 UNL     1       1.294  -5.485  28.686  1.00  0.00     0.042 C 
HETATM   23  C13 UNL     1       2.751  -5.433  28.319  1.00  0.00     0.013 C 
HETATM   24  C14 UNL     1       3.285  -4.081  28.764  1.00  0.00     0.012 C 
BRANCH  21  25
HETATM   25  C7  UNL     1      -0.055  -7.274  29.730  1.00  0.00     0.005 C 
HETATM   26  C8  UNL     1      -0.572  -7.780  30.831  1.00  0.00    -0.001 C 
BRANCH  26  27
HETATM   27  C9  UNL     1      -1.821  -8.514  30.780  1.00  0.00     0.007 C 
HETATM   28  C10 UNL     1      -1.843  -9.749  30.285  1.00  0.00     0.084 C 
BRANCH  28  29
HETATM   29  C11 UNL     1      -3.102 -10.503  30.227  1.00  0.00     0.198 C 
HETATM   30  O2  UNL     1      -3.881 -10.295  29.237  1.00  0.00    -0.645 OA
HETATM   31  O3  UNL     1      -3.397 -11.398  31.229  1.00  0.00    -0.645 OA
ENDBRANCH  28  29
ENDBRANCH  26  27
ENDBRANCH  21  25
ENDBRANCH  18  19
ENDBRANCH   3  18
TORSDOF 14
ENDMDL
MODEL 4
REMARK VINA RESULT: -5.533523127      3.505      4.622
REMARK  14 active torsions:
REMARK  status: ('A' for Active; 'I' for Inactive)
REMARK    1  A    between atoms: C2_2  and  C15_18 
REMARK    2  A    between atoms: C3_3  and  C4_4 
REMARK    3  A    between atoms: C4_4  and  C5_5 
REMARK    4  A    between atoms: C6_7  and  C7_8 
REMARK    5  A    between atoms: C8_9  and  C9_10 
REMARK    6  A    between atoms: C10_11  and  C11_12 
REMARK    7  A    between atoms: C15_18  and  C16_19 
REMARK    8  A    between atoms: C16_19  and  C17_20 
REMARK    9  A    between atoms: C17_20  and  C18_21 
REMARK   10  A    between atoms: C18_21  and  C20_23 
REMARK   11  A    between atoms: C20_23  and  C21_24 
REMARK   12  A    between atoms: C22_25  and  C23_26 
REMARK   13  A    between atoms: C23_26  and  C24_28 
REMARK   14  A    between atoms: C24_28  and  C25_29 
ROOT
HETATM    1  C1  UNL     1       2.460  -4.537  35.340  1.00  0.00     0.043 C 
HETATM    2  C2  UNL     1       3.038  -5.710  36.047  1.00  0.00    -0.087 C 
HETATM    3  C3  UNL     1       2.321  -6.335  36.950  1.00  0.00    -0.022 C 
ENDROOT
BRANCH   2   4
HETATM    4  C15 UNL     1       4.448  -6.125  35.683  1.00  0.00     0.033 C 
BRANCH   4   5
HETATM    5  C16 UNL     1       4.437  -6.939  34.452  1.00  0.00     0.005 C 
BRANCH   5   6
HETATM    6  C17 UNL     1       3.431  -7.963  34.217  1.00  0.00     0.005 C 
BRANCH   6   7
HETATM    7  C18 UNL     1       2.529  -7.877  33.008  1.00  0.00    -0.015 C 
HETATM    8  C19 UNL     1       3.131  -6.982  31.947  1.00  0.00     0.010 C 
BRANCH   7   9
HETATM    9  C20 UNL     1       1.160  -7.407  33.419  1.00  0.00     0.031 C 
BRANCH   9  10
HETATM   10  C21 UNL     1       0.016  -7.908  32.700  1.00  0.00    -0.023 C 
HETATM   11  C22 UNL     1      -0.534  -7.486  31.614  1.00  0.00     0.046 C 
BRANCH  11  12
HETATM   12  C23 UNL     1      -1.721  -8.121  30.997  1.00  0.00     0.159 C 
HETATM   13  O4  UNL     1      -2.900  -7.774  31.353  1.00  0.00    -0.293 OA
BRANCH  12  14
HETATM   14  C24 UNL     1      -1.619  -9.166  29.962  1.00  0.00     0.196 C 
BRANCH  14  15
HETATM   15  C25 UNL     1      -2.472 -10.313  30.346  1.00  0.00     0.180 C 
HETATM   16  O5  UNL     1      -2.217 -10.954  31.392  1.00  0.00    -0.648 OA
HETATM   17  O6  UNL     1      -3.544 -10.681  29.562  1.00  0.00    -0.648 OA
ENDBRANCH  14  15
ENDBRANCH  12  14
ENDBRANCH  11  12
ENDBRANCH   9  10
ENDBRANCH   7   9
ENDBRANCH   6   7
ENDBRANCH   5   6
ENDBRANCH   4   5
ENDBRANCH   2   4
BRANCH   3  18
HETATM   18  C4  UNL     1       0.935  -5.881  37.272  1.00  0.00     0.059 C 
BRANCH  18  19
HETATM   19  C5  UNL     1       0.018  -7.065  36.999  1.00  0.00     0.129 C 
HETATM   20  O1  UNL     1      -0.292  -7.741  38.169  1.00  0.00    -0.376 OA
HETATM   21  C6  UNL     1      -1.516  -7.242  38.595  1.00  0.00     0.145 C 
HETATM   22  C12 UNL     1      -2.299  -6.878  37.385  1.00  0.00     0.042 C 
HETATM   23  C13 UNL     1      -1.255  -6.646  36.329  1.00  0.00     0.013 C 
HETATM   24  C14 UNL     1      -1.268  -5.163  35.993  1.00  0.00     0.012 C 
BRANCH  21  25
HETATM   25  C7  UNL     1      -2.236  -8.209  39.466  1.00  0.00     0.005 C 
HETATM   26  C8  UNL     1      -2.654  -7.870  40.669  1.00  0.00    -0.001 C 
BRANCH  26  27
HETATM   27  C9  UNL     1      -3.352  -8.832  41.497  1.00  0.00     0.007 C 
HETATM   28  C10 UNL     1      -4.644  -8.658  41.769  1.00  0.00     0.084 C 
BRANCH  28  29
HETATM   29  C11 UNL     1      -5.363  -9.626  42.607  1.00  0.00     0.198 C 
HETATM   30  O2  UNL     1      -6.558  -9.345  42.957  1.00  0.00    -0.645 OA
HETATM   31  O3  UNL     1      -4.733 -10.789  42.982  1.00  0.00    -0.645 OA
ENDBRANCH  28  29
ENDBRANCH  26  27
ENDBRANCH  21  25
ENDBRANCH  18  19
ENDBRANCH   3  18
TORSDOF 14
ENDMDL
MODEL 5
REMARK VINA RESULT: -5.509923800      4.782      9.410
REMARK  14 active torsions:
REMARK  status: ('A' for Active; 'I' for Inactive)
REMARK    1  A    between atoms: C2_2  and  C15_18 
REMARK    2  A    between atoms: C3_3  and  C4_4 
REMARK    3  A    between atoms: C4_4  and  C5_5 
REMARK    4  A    between atoms: C6_7  and  C7_8 
REMARK    5  A    between atoms: C8_9  and  C9_10 
REMARK    6  A    between atoms: C10_11  and  C11_12 
REMARK    7  A    between atoms: C15_18  and  C16_19 
REMARK    8  A    between atoms: C16_19  and  C17_20 
REMARK    9  A    between atoms: C17_20  and  C18_21 
REMARK   10  A    between atoms: C18_21  and  C20_23 
REMARK   11  A    between atoms: C20_23  and  C21_24 
REMARK   12  A    between atoms: C22_25  and  C23_26 
REMARK   13  A    between atoms: C23_26  and  C24_28 
REMARK   14  A    between atoms: C24_28  and  C25_29 
ROOT
HETATM    1  C1  UNL     1       1.923  -4.702  35.345  1.00  0.00     0.043 C 
HETATM    2  C2  UNL     1       2.040  -6.013  36.034  1.00  0.00    -0.087 C 
HETATM    3  C3  UNL     1       2.869  -6.915  35.565  1.00  0.00    -0.022 C 
ENDROOT
BRANCH   2   4
HETATM    4  C15 UNL     1       1.181  -6.243  37.260  1.00  0.00     0.033 C 
BRANCH   4   5
HETATM    5  C16 UNL     1       0.052  -7.132  36.929  1.00  0.00     0.005 C 
BRANCH   5   6
HETATM    6  C17 UNL     1      -1.311  -6.635  36.818  1.00  0.00     0.005 C 
BRANCH   6   7
HETATM    7  C18 UNL     1      -2.310  -6.909  37.917  1.00  0.00    -0.015 C 
HETATM    8  C19 UNL     1      -1.759  -7.907  38.913  1.00  0.00     0.010 C 
BRANCH   7   9
HETATM    9  C20 UNL     1      -3.612  -7.376  37.326  1.00  0.00     0.031 C 
BRANCH   9  10
HETATM   10  C21 UNL     1      -3.976  -6.913  36.011  1.00  0.00    -0.023 C 
HETATM   11  C22 UNL     1      -5.082  -7.038  35.361  1.00  0.00     0.046 C 
BRANCH  11  12
HETATM   12  C23 UNL     1      -5.297  -6.498  34.000  1.00  0.00     0.159 C 
HETATM   13  O4  UNL     1      -6.264  -5.694  33.767  1.00  0.00    -0.293 OA
BRANCH  12  14
HETATM   14  C24 UNL     1      -4.431  -6.845  32.858  1.00  0.00     0.196 C 
BRANCH  14  15
HETATM   15  C25 UNL     1      -5.088  -7.902  32.056  1.00  0.00     0.180 C 
HETATM   16  O5  UNL     1      -5.232  -9.049  32.538  1.00  0.00    -0.648 OA
HETATM   17  O6  UNL     1      -5.543  -7.632  30.783  1.00  0.00    -0.648 OA
ENDBRANCH  14  15
ENDBRANCH  12  14
ENDBRANCH  11  12
ENDBRANCH   9  10
ENDBRANCH   7   9
ENDBRANCH   6   7
ENDBRANCH   5   6
ENDBRANCH   4   5
ENDBRANCH   2   4
BRANCH   3  18
HETATM   18  C4  UNL     1       3.692  -6.637  34.349  1.00  0.00     0.059 C 
BRANCH  18  19
HETATM   19  C5  UNL     1       3.273  -7.658  33.300  1.00  0.00     0.129 C 
HETATM   20  O1  UNL     1       1.954  -8.045  33.474  1.00  0.00    -0.376 OA
HETATM   21  C6  UNL     1       1.200  -7.257  32.613  1.00  0.00     0.145 C 
HETATM   22  C12 UNL     1       2.035  -6.975  31.416  1.00  0.00     0.042 C 
HETATM   23  C13 UNL     1       3.446  -7.134  31.907  1.00  0.00     0.013 C 
HETATM   24  C14 UNL     1       4.095  -5.759  31.885  1.00  0.00     0.012 C 
BRANCH  21  25
HETATM   25  C7  UNL     1      -0.094  -7.903  32.262  1.00  0.00     0.005 C 
HETATM   26  C8  UNL     1      -0.544  -7.907  31.024  1.00  0.00    -0.001 C 
BRANCH  26  27
HETATM   27  C9  UNL     1      -1.808  -8.544  30.711  1.00  0.00     0.007 C 
HETATM   28  C10 UNL     1      -1.845  -9.847  30.442  1.00  0.00     0.084 C 
BRANCH  28  29
HETATM   29  C11 UNL     1      -3.119 -10.504  30.122  1.00  0.00     0.198 C 
HETATM   30  O2  UNL     1      -3.519 -11.442  30.890  1.00  0.00    -0.645 OA
HETATM   31  O3  UNL     1      -3.830 -10.091  29.020  1.00  0.00    -0.645 OA
ENDBRANCH  28  29
ENDBRANCH  26  27
ENDBRANCH  21  25
ENDBRANCH  18  19
ENDBRANCH   3  18
TORSDOF 14
ENDMDL
