MODEL 1
REMARK VINA RESULT: -7.218654928      0.000      0.000
REMARK  10 active torsions:
REMARK  status: ('A' for Active; 'I' for Inactive)
REMARK    1  A    between atoms: C2_2  and  C3_3 
REMARK    2  A    between atoms: C2_2  and  C4_6 
REMARK    3  A    between atoms: C4_6  and  N2_9 
REMARK    4  A    between atoms: N2_9  and  C6_11 
REMARK    5  A    between atoms: C6_11  and  C7_12 
REMARK    6  A    between atoms: C6_11  and  C8_15 
REMARK    7  A    between atoms: C8_15  and  C9_16 
REMARK    8  A    between atoms: C8_15  and  C10_21 
REMARK    9  A    between atoms: C9_16  and  N4_17 
REMARK   10  A    between atoms: C10_21  and  C11_22 
ROOT
HETATM    1  C4  UNL     1      92.909  44.908  63.572  1.00  0.00     0.225 C 
HETATM    2  C5  UNL     1      93.902  44.269  62.668  1.00  0.00     0.089 C 
HETATM    3  N1  UNL     1      94.679  43.788  61.953  1.00  0.00    -0.195 NA
ENDROOT
BRANCH   1   4
HETATM    4  C2  UNL     1      91.661  45.001  62.767  1.00  0.00     0.045 C 
HETATM    5  C1  UNL     1      90.993  43.905  62.498  1.00  0.00     0.029 C 
BRANCH   4   6
HETATM    6  C3  UNL     1      91.161  46.280  62.273  1.00  0.00     0.207 C 
HETATM    7  O1  UNL     1      90.559  47.068  63.029  1.00  0.00    -0.644 OA
HETATM    8  O2  UNL     1      91.376  46.589  60.941  1.00  0.00    -0.644 OA
ENDBRANCH   4   6
ENDBRANCH   1   4
BRANCH   1   9
HETATM    9  N2  UNL     1      93.360  46.157  64.019  1.00  0.00    -0.390 N 
ATOM     10  H2  UNL     1      93.947  46.737  63.419  1.00  0.00     0.155 HD
BRANCH   9  11
HETATM   11  C6  UNL     1      92.995  46.606  65.311  1.00  0.00     0.173 C 
BRANCH  11  12
HETATM   12  C7  UNL     1      94.178  47.222  65.916  1.00  0.00     0.254 C 
HETATM   13  N3  UNL     1      94.178  47.996  67.100  1.00  0.00    -0.060 NA
HETATM   14  O3  UNL     1      95.300  47.073  65.369  1.00  0.00    -0.275 OA
ENDBRANCH  11  12
BRANCH  11  15
HETATM   15  C8  UNL     1      92.408  45.475  66.175  1.00  0.00     0.042 C 
BRANCH  15  16
HETATM   16  C9  UNL     1      93.446  44.749  66.922  1.00  0.00     0.236 C 
BRANCH  16  17
HETATM   17  N4  UNL     1      93.357  45.033  68.368  1.00  0.00    -0.079 N 
ATOM     18  H43 UNL     1      93.998  45.777  68.645  1.00  0.00     0.274 HD
ATOM     19  H42 UNL     1      92.476  45.489  68.608  1.00  0.00     0.274 HD
ATOM     20  H41 UNL     1      93.504  44.187  68.919  1.00  0.00     0.274 HD
ENDBRANCH  16  17
ENDBRANCH  15  16
BRANCH  15  21
HETATM   21  C10 UNL     1      91.110  45.789  66.779  1.00  0.00     0.013 C 
BRANCH  21  22
HETATM   22  C11 UNL     1      90.090  44.754  66.986  1.00  0.00    -0.014 C 
HETATM   23  C12 UNL     1      90.066  43.664  65.916  1.00  0.00     0.005 C 
HETATM   24  C13 UNL     1      89.159  42.550  66.451  1.00  0.00     0.000 C 
HETATM   25  C14 UNL     1      87.965  43.175  67.154  1.00  0.00     0.000 C 
HETATM   26  C15 UNL     1      88.363  43.808  68.469  1.00  0.00     0.000 C 
HETATM   27  C16 UNL     1      89.845  44.233  68.357  1.00  0.00     0.005 C 
ENDBRANCH  21  22
ENDBRANCH  15  21
ENDBRANCH  11  15
ENDBRANCH   9  11
ENDBRANCH   1   9
TORSDOF 10
ENDMDL
MODEL 2
REMARK VINA RESULT: -7.174443938      0.906      1.352
REMARK  10 active torsions:
REMARK  status: ('A' for Active; 'I' for Inactive)
REMARK    1  A    between atoms: C2_2  and  C3_3 
REMARK    2  A    between atoms: C2_2  and  C4_6 
REMARK    3  A    between atoms: C4_6  and  N2_9 
REMARK    4  A    between atoms: N2_9  and  C6_11 
REMARK    5  A    between atoms: C6_11  and  C7_12 
REMARK    6  A    between atoms: C6_11  and  C8_15 
REMARK    7  A    between atoms: C8_15  and  C9_16 
REMARK    8  A    between atoms: C8_15  and  C10_21 
REMARK    9  A    between atoms: C9_16  and  N4_17 
REMARK   10  A    between atoms: C10_21  and  C11_22 
ROOT
HETATM    1  C4  UNL     1      93.035  44.796  63.760  1.00  0.00     0.225 C 
HETATM    2  C5  UNL     1      93.973  44.224  62.758  1.00  0.00     0.089 C 
HETATM    3  N1  UNL     1      94.706  43.796  61.967  1.00  0.00    -0.195 NA
ENDROOT
BRANCH   1   4
HETATM    4  C2  UNL     1      91.731  44.899  63.052  1.00  0.00     0.045 C 
HETATM    5  C1  UNL     1      90.822  43.975  63.253  1.00  0.00     0.029 C 
BRANCH   4   6
HETATM    6  C3  UNL     1      91.437  46.003  62.143  1.00  0.00     0.207 C 
HETATM    7  O1  UNL     1      91.141  47.132  62.580  1.00  0.00    -0.644 OA
HETATM    8  O2  UNL     1      91.498  45.755  60.782  1.00  0.00    -0.644 OA
ENDBRANCH   4   6
ENDBRANCH   1   4
BRANCH   1   9
HETATM    9  N2  UNL     1      93.493  46.032  64.235  1.00  0.00    -0.390 N 
ATOM     10  H2  UNL     1      94.183  46.564  63.704  1.00  0.00     0.155 HD
BRANCH   9  11
HETATM   11  C6  UNL     1      92.990  46.537  65.459  1.00  0.00     0.173 C 
BRANCH  11  12
HETATM   12  C7  UNL     1      94.014  47.413  66.030  1.00  0.00     0.254 C 
HETATM   13  N3  UNL     1      95.359  47.486  65.595  1.00  0.00    -0.060 NA
HETATM   14  O3  UNL     1      93.714  48.175  66.984  1.00  0.00    -0.275 OA
ENDBRANCH  11  12
BRANCH  11  15
HETATM   15  C8  UNL     1      92.567  45.412  66.421  1.00  0.00     0.042 C 
BRANCH  15  16
HETATM   16  C9  UNL     1      93.682  44.950  67.262  1.00  0.00     0.236 C 
BRANCH  16  17
HETATM   17  N4  UNL     1      93.548  45.450  68.644  1.00  0.00    -0.079 N 
ATOM     18  H43 UNL     1      93.295  46.438  68.663  1.00  0.00     0.274 HD
ATOM     19  H42 UNL     1      92.720  45.068  69.102  1.00  0.00     0.274 HD
ATOM     20  H41 UNL     1      94.394  45.268  69.184  1.00  0.00     0.274 HD
ENDBRANCH  16  17
ENDBRANCH  15  16
BRANCH  15  21
HETATM   21  C10 UNL     1      91.212  45.557  66.961  1.00  0.00     0.013 C 
BRANCH  21  22
HETATM   22  C11 UNL     1      90.392  44.388  67.300  1.00  0.00    -0.014 C 
HETATM   23  C12 UNL     1      90.189  44.168  68.798  1.00  0.00     0.005 C 
HETATM   24  C13 UNL     1      89.095  43.104  68.936  1.00  0.00     0.000 C 
HETATM   25  C14 UNL     1      89.298  42.039  67.870  1.00  0.00     0.000 C 
HETATM   26  C15 UNL     1      88.949  42.559  66.493  1.00  0.00     0.000 C 
HETATM   27  C16 UNL     1      89.178  44.088  66.495  1.00  0.00     0.005 C 
ENDBRANCH  21  22
ENDBRANCH  15  21
ENDBRANCH  11  15
ENDBRANCH   9  11
ENDBRANCH   1   9
TORSDOF 10
ENDMDL
MODEL 3
REMARK VINA RESULT: -7.112269406      2.188      4.193
REMARK  10 active torsions:
REMARK  status: ('A' for Active; 'I' for Inactive)
REMARK    1  A    between atoms: C2_2  and  C3_3 
REMARK    2  A    between atoms: C2_2  and  C4_6 
REMARK    3  A    between atoms: C4_6  and  N2_9 
REMARK    4  A    between atoms: N2_9  and  C6_11 
REMARK    5  A    between atoms: C6_11  and  C7_12 
REMARK    6  A    between atoms: C6_11  and  C8_15 
REMARK    7  A    between atoms: C8_15  and  C9_16 
REMARK    8  A    between atoms: C8_15  and  C10_21 
REMARK    9  A    between atoms: C9_16  and  N4_17 
REMARK   10  A    between atoms: C10_21  and  C11_22 
ROOT
HETATM    1  C4  UNL     1      90.906  44.130  63.149  1.00  0.00     0.225 C 
HETATM    2  C5  UNL     1      92.188  43.607  62.608  1.00  0.00     0.089 C 
HETATM    3  N1  UNL     1      93.198  43.216  62.191  1.00  0.00    -0.195 NA
ENDROOT
BRANCH   1   4
HETATM    4  C2  UNL     1      90.391  45.047  62.099  1.00  0.00     0.045 C 
HETATM    5  C1  UNL     1      89.323  44.702  61.419  1.00  0.00     0.029 C 
BRANCH   4   6
HETATM    6  C3  UNL     1      91.039  46.322  61.807  1.00  0.00     0.207 C 
HETATM    7  O1  UNL     1      91.366  46.622  60.643  1.00  0.00    -0.644 OA
HETATM    8  O2  UNL     1      91.278  47.183  62.864  1.00  0.00    -0.644 OA
ENDBRANCH   4   6
ENDBRANCH   1   4
BRANCH   1   9
HETATM    9  N2  UNL     1      91.099  44.770  64.381  1.00  0.00    -0.390 N 
ATOM     10  H2  UNL     1      91.865  45.433  64.501  1.00  0.00     0.155 HD
BRANCH   9  11
HETATM   11  C6  UNL     1      90.223  44.488  65.457  1.00  0.00     0.173 C 
BRANCH  11  12
HETATM   12  C7  UNL     1      89.290  45.610  65.573  1.00  0.00     0.254 C 
HETATM   13  N3  UNL     1      89.462  46.729  66.422  1.00  0.00    -0.060 NA
HETATM   14  O3  UNL     1      88.241  45.617  64.879  1.00  0.00    -0.275 OA
ENDBRANCH  11  12
BRANCH  11  15
HETATM   15  C8  UNL     1      90.982  44.210  66.767  1.00  0.00     0.042 C 
BRANCH  15  16
HETATM   16  C9  UNL     1      90.232  43.322  67.668  1.00  0.00     0.236 C 
BRANCH  16  17
HETATM   17  N4  UNL     1      89.676  42.168  66.934  1.00  0.00    -0.079 N 
ATOM     18  H43 UNL     1      88.676  42.278  66.763  1.00  0.00     0.274 HD
ATOM     19  H42 UNL     1      89.998  42.148  65.967  1.00  0.00     0.274 HD
ATOM     20  H41 UNL     1      89.880  41.293  67.417  1.00  0.00     0.274 HD
ENDBRANCH  16  17
ENDBRANCH  15  16
BRANCH  15  21
HETATM   21  C10 UNL     1      92.434  44.088  66.609  1.00  0.00     0.013 C 
BRANCH  21  22
HETATM   22  C11 UNL     1      93.321  45.249  66.747  1.00  0.00    -0.014 C 
HETATM   23  C12 UNL     1      94.099  45.606  65.481  1.00  0.00     0.005 C 
HETATM   24  C13 UNL     1      94.726  46.983  65.732  1.00  0.00     0.000 C 
HETATM   25  C14 UNL     1      95.224  47.049  67.167  1.00  0.00     0.000 C 
HETATM   26  C15 UNL     1      94.076  47.130  68.149  1.00  0.00     0.000 C 
HETATM   27  C16 UNL     1      92.854  46.441  67.502  1.00  0.00     0.005 C 
ENDBRANCH  21  22
ENDBRANCH  15  21
ENDBRANCH  11  15
ENDBRANCH   9  11
ENDBRANCH   1   9
TORSDOF 10
ENDMDL
MODEL 4
REMARK VINA RESULT: -7.096743557      1.136      1.647
REMARK  10 active torsions:
REMARK  status: ('A' for Active; 'I' for Inactive)
REMARK    1  A    between atoms: C2_2  and  C3_3 
REMARK    2  A    between atoms: C2_2  and  C4_6 
REMARK    3  A    between atoms: C4_6  and  N2_9 
REMARK    4  A    between atoms: N2_9  and  C6_11 
REMARK    5  A    between atoms: C6_11  and  C7_12 
REMARK    6  A    between atoms: C6_11  and  C8_15 
REMARK    7  A    between atoms: C8_15  and  C9_16 
REMARK    8  A    between atoms: C8_15  and  C10_21 
REMARK    9  A    between atoms: C9_16  and  N4_17 
REMARK   10  A    between atoms: C10_21  and  C11_22 
ROOT
HETATM    1  C4  UNL     1      92.153  44.636  64.000  1.00  0.00     0.225 C 
HETATM    2  C5  UNL     1      92.787  43.734  63.002  1.00  0.00     0.089 C 
HETATM    3  N1  UNL     1      93.287  43.047  62.212  1.00  0.00    -0.195 NA
ENDROOT
BRANCH   1   4
HETATM    4  C2  UNL     1      90.856  45.032  63.391  1.00  0.00     0.045 C 
HETATM    5  C1  UNL     1      89.740  44.669  63.978  1.00  0.00     0.029 C 
BRANCH   4   6
HETATM    6  C3  UNL     1      90.791  45.814  62.161  1.00  0.00     0.207 C 
HETATM    7  O1  UNL     1      91.211  46.988  62.125  1.00  0.00    -0.644 OA
HETATM    8  O2  UNL     1      90.251  45.212  61.037  1.00  0.00    -0.644 OA
ENDBRANCH   4   6
ENDBRANCH   1   4
BRANCH   1   9
HETATM    9  N2  UNL     1      92.976  45.735  64.284  1.00  0.00    -0.390 N 
ATOM     10  H2  UNL     1      93.700  46.020  63.625  1.00  0.00     0.155 HD
BRANCH   9  11
HETATM   11  C6  UNL     1      92.792  46.446  65.495  1.00  0.00     0.173 C 
BRANCH  11  12
HETATM   12  C7  UNL     1      94.040  47.153  65.786  1.00  0.00     0.254 C 
HETATM   13  N3  UNL     1      94.172  48.237  66.686  1.00  0.00    -0.060 NA
HETATM   14  O3  UNL     1      95.101  46.798  65.212  1.00  0.00    -0.275 OA
ENDBRANCH  11  12
BRANCH  11  15
HETATM   15  C8  UNL     1      92.349  45.525  66.647  1.00  0.00     0.042 C 
BRANCH  15  16
HETATM   16  C9  UNL     1      93.492  44.924  67.350  1.00  0.00     0.236 C 
BRANCH  16  17
HETATM   17  N4  UNL     1      93.753  45.615  68.628  1.00  0.00    -0.079 N 
ATOM     18  H43 UNL     1      93.368  45.099  69.420  1.00  0.00     0.274 HD
ATOM     19  H42 UNL     1      94.740  45.574  68.882  1.00  0.00     0.274 HD
ATOM     20  H41 UNL     1      93.411  46.576  68.603  1.00  0.00     0.274 HD
ENDBRANCH  16  17
ENDBRANCH  15  16
BRANCH  15  21
HETATM   21  C10 UNL     1      91.166  45.995  67.374  1.00  0.00     0.013 C 
BRANCH  21  22
HETATM   22  C11 UNL     1      90.314  45.071  68.132  1.00  0.00    -0.014 C 
HETATM   23  C12 UNL     1      90.264  45.343  69.635  1.00  0.00     0.005 C 
HETATM   24  C13 UNL     1      89.125  44.482  70.193  1.00  0.00     0.000 C 
HETATM   25  C14 UNL     1      89.139  43.128  69.504  1.00  0.00     0.000 C 
HETATM   26  C15 UNL     1      88.675  43.231  68.067  1.00  0.00     0.000 C 
HETATM   27  C16 UNL     1      89.002  44.657  67.569  1.00  0.00     0.005 C 
ENDBRANCH  21  22
ENDBRANCH  15  21
ENDBRANCH  11  15
ENDBRANCH   9  11
ENDBRANCH   1   9
TORSDOF 10
ENDMDL
MODEL 5
REMARK VINA RESULT: -7.064512908      2.596      3.841
REMARK  10 active torsions:
REMARK  status: ('A' for Active; 'I' for Inactive)
REMARK    1  A    between atoms: C2_2  and  C3_3 
REMARK    2  A    between atoms: C2_2  and  C4_6 
REMARK    3  A    between atoms: C4_6  and  N2_9 
REMARK    4  A    between atoms: N2_9  and  C6_11 
REMARK    5  A    between atoms: C6_11  and  C7_12 
REMARK    6  A    between atoms: C6_11  and  C8_15 
REMARK    7  A    between atoms: C8_15  and  C9_16 
REMARK    8  A    between atoms: C8_15  and  C10_21 
REMARK    9  A    between atoms: C9_16  and  N4_17 
REMARK   10  A    between atoms: C10_21  and  C11_22 
ROOT
HETATM    1  C4  UNL     1      92.227  46.340  63.586  1.00  0.00     0.225 C 
HETATM    2  C5  UNL     1      91.375  46.416  62.370  1.00  0.00     0.089 C 
HETATM    3  N1  UNL     1      90.699  46.460  61.428  1.00  0.00    -0.195 NA
ENDROOT
BRANCH   1   4
HETATM    4  C2  UNL     1      93.093  45.150  63.376  1.00  0.00     0.045 C 
HETATM    5  C1  UNL     1      93.999  44.854  64.278  1.00  0.00     0.029 C 
BRANCH   4   6
HETATM    6  C3  UNL     1      92.959  44.303  62.195  1.00  0.00     0.207 C 
HETATM    7  O1  UNL     1      92.137  43.367  62.168  1.00  0.00    -0.644 OA
HETATM    8  O2  UNL     1      93.774  44.572  61.109  1.00  0.00    -0.644 OA
ENDBRANCH   4   6
ENDBRANCH   1   4
BRANCH   1   9
HETATM    9  N2  UNL     1      91.446  46.244  64.746  1.00  0.00    -0.390 N 
ATOM     10  H2  UNL     1      91.811  46.569  65.641  1.00  0.00     0.155 HD
BRANCH   9  11
HETATM   11  C6  UNL     1      90.144  45.691  64.665  1.00  0.00     0.173 C 
BRANCH  11  12
HETATM   12  C7  UNL     1      89.205  46.695  65.165  1.00  0.00     0.254 C 
HETATM   13  N3  UNL     1      88.216  47.344  64.388  1.00  0.00    -0.060 NA
HETATM   14  O3  UNL     1      89.248  47.034  66.375  1.00  0.00    -0.275 OA
ENDBRANCH  11  12
BRANCH  11  15
HETATM   15  C8  UNL     1      90.036  44.350  65.414  1.00  0.00     0.042 C 
BRANCH  15  16
HETATM   16  C9  UNL     1      89.691  43.237  64.516  1.00  0.00     0.236 C 
BRANCH  16  17
HETATM   17  N4  UNL     1      89.418  43.723  63.149  1.00  0.00    -0.079 N 
ATOM     18  H43 UNL     1      88.428  43.930  63.015  1.00  0.00     0.274 HD
ATOM     19  H42 UNL     1      89.795  44.658  63.001  1.00  0.00     0.274 HD
ATOM     20  H41 UNL     1      89.762  43.064  62.450  1.00  0.00     0.274 HD
ENDBRANCH  16  17
ENDBRANCH  15  16
BRANCH  15  21
HETATM   21  C10 UNL     1      91.007  44.184  66.498  1.00  0.00     0.013 C 
BRANCH  21  22
HETATM   22  C11 UNL     1      90.600  44.230  67.907  1.00  0.00    -0.014 C 
HETATM   23  C12 UNL     1      91.235  45.361  68.715  1.00  0.00     0.005 C 
HETATM   24  C13 UNL     1      90.480  45.419  70.048  1.00  0.00     0.000 C 
HETATM   25  C14 UNL     1      90.191  44.003  70.519  1.00  0.00     0.000 C 
HETATM   26  C15 UNL     1      89.125  43.343  69.672  1.00  0.00     0.000 C 
HETATM   27  C16 UNL     1      89.178  43.982  68.266  1.00  0.00     0.005 C 
ENDBRANCH  21  22
ENDBRANCH  15  21
ENDBRANCH  11  15
ENDBRANCH   9  11
ENDBRANCH   1   9
TORSDOF 10
ENDMDL
