MODEL 1
REMARK VINA RESULT: -7.321474474      0.000      0.000
REMARK  9 active torsions:
REMARK  status: ('A' for Active; 'I' for Inactive)
REMARK    1  A    between atoms: C2_2  and  C3_3 
REMARK    2  A    between atoms: C3_3  and  N1_4 
REMARK    3  A    between atoms: N1_4  and  C4_6 
REMARK    4  A    between atoms: C4_6  and  C5_7 
REMARK    5  A    between atoms: C5_7  and  C6_8 
REMARK    6  A    between atoms: C5_7  and  C13_15 
REMARK    7  A    between atoms: C6_8  and  C7_9 
REMARK       I    between atoms: C13_15  and  N2_17 
REMARK    8  A    between atoms: N2_17  and  C14_19 
REMARK    9  A    between atoms: C14_19  and  C15_20 
ROOT
HETATM    1  C5  UNL     1      91.226  44.612  69.036  1.00  0.00     0.048 C 
ENDROOT
BRANCH   1   2
HETATM    2  C4  UNL     1      92.272  45.528  69.528  1.00  0.00     0.104 C 
BRANCH   2   3
HETATM    3  N1  UNL     1      93.514  45.592  68.932  1.00  0.00    -0.374 N 
ATOM      4  H1  UNL     1      94.150  44.829  69.166  1.00  0.00     0.164 HD
BRANCH   3   5
HETATM    5  C3  UNL     1      94.020  46.536  68.066  1.00  0.00     0.087 C 
BRANCH   5   6
HETATM    6  C2  UNL     1      94.129  45.939  66.680  1.00  0.00     0.007 C 
HETATM    7  C1  UNL     1      94.585  46.696  65.713  1.00  0.00     0.012 C 
ENDBRANCH   5   6
ENDBRANCH   3   5
ENDBRANCH   2   3
ENDBRANCH   1   2
BRANCH   1   8
HETATM    8  C6  UNL     1      90.257  43.949  69.893  1.00  0.00     0.029 C 
BRANCH   8   9
HETATM    9  C7  UNL     1      89.506  44.661  70.903  1.00  0.00    -0.035 A 
HETATM   10  C8  UNL     1      88.120  44.800  70.746  1.00  0.00     0.011 A 
HETATM   11  C9  UNL     1      87.328  45.471  71.656  1.00  0.00     0.001 A 
HETATM   12  C10 UNL     1      87.909  46.035  72.777  1.00  0.00     0.000 A 
HETATM   13  C11 UNL     1      89.266  45.916  72.964  1.00  0.00     0.001 A 
HETATM   14  C12 UNL     1      90.029  45.229  72.016  1.00  0.00     0.011 A 
ENDBRANCH   8   9
ENDBRANCH   1   8
BRANCH   1  15
HETATM   15  C13 UNL     1      90.686  45.118  67.698  1.00  0.00     0.256 C 
HETATM   16  O1  UNL     1      90.522  46.333  67.616  1.00  0.00    -0.267 OA
HETATM   17  N2  UNL     1      90.413  44.236  66.663  1.00  0.00    -0.334 N 
ATOM     18  H2  UNL     1      90.610  43.255  66.864  1.00  0.00     0.168 HD
BRANCH  17  19
HETATM   19  C14 UNL     1      89.912  44.491  65.391  1.00  0.00     0.098 C 
BRANCH  19  20
HETATM   20  C15 UNL     1      90.758  44.832  64.240  1.00  0.00     0.241 C 
HETATM   21  C16 UNL     1      91.134  46.226  63.976  1.00  0.00     0.152 C 
HETATM   22  N3  UNL     1      92.163  46.356  62.958  1.00  0.00    -0.417 N 
HETATM   23  C17 UNL     1      92.379  45.205  62.147  1.00  0.00     0.141 C 
ATOM     24  H3  UNL     1      92.696  47.216  62.833  1.00  0.00     0.153 HD
HETATM   25  C18 UNL     1      92.423  43.910  62.898  1.00  0.00     0.252 C 
HETATM   26  N4  UNL     1      92.032  44.060  64.282  1.00  0.00    -0.063 N 
ATOM     27  H42 UNL     1      92.751  44.480  64.871  1.00  0.00     0.278 HD
ATOM     28  H41 UNL     1      91.964  43.179  64.790  1.00  0.00     0.278 HD
ENDBRANCH  19  20
ENDBRANCH  17  19
ENDBRANCH   1  15
TORSDOF 9
ENDMDL
MODEL 2
REMARK VINA RESULT: -7.270890541      2.575      7.112
REMARK  9 active torsions:
REMARK  status: ('A' for Active; 'I' for Inactive)
REMARK    1  A    between atoms: C2_2  and  C3_3 
REMARK    2  A    between atoms: C3_3  and  N1_4 
REMARK    3  A    between atoms: N1_4  and  C4_6 
REMARK    4  A    between atoms: C4_6  and  C5_7 
REMARK    5  A    between atoms: C5_7  and  C6_8 
REMARK    6  A    between atoms: C5_7  and  C13_15 
REMARK    7  A    between atoms: C6_8  and  C7_9 
REMARK       I    between atoms: C13_15  and  N2_17 
REMARK    8  A    between atoms: N2_17  and  C14_19 
REMARK    9  A    between atoms: C14_19  and  C15_20 
ROOT
HETATM    1  C5  UNL     1      94.522  47.071  66.330  1.00  0.00     0.048 C 
ENDROOT
BRANCH   1   2
HETATM    2  C4  UNL     1      95.551  48.126  66.260  1.00  0.00     0.104 C 
BRANCH   2   3
HETATM    3  N1  UNL     1      96.781  47.974  66.863  1.00  0.00    -0.374 N 
ATOM      4  H1  UNL     1      97.124  47.015  66.919  1.00  0.00     0.164 HD
BRANCH   3   5
HETATM    5  C3  UNL     1      97.614  48.930  67.402  1.00  0.00     0.087 C 
BRANCH   5   6
HETATM    6  C2  UNL     1      98.272  49.709  66.285  1.00  0.00     0.007 C 
HETATM    7  C1  UNL     1      99.579  49.800  66.279  1.00  0.00     0.012 C 
ENDBRANCH   5   6
ENDBRANCH   3   5
ENDBRANCH   2   3
ENDBRANCH   1   2
BRANCH   1   8
HETATM    8  C6  UNL     1      94.538  45.865  65.519  1.00  0.00     0.029 C 
BRANCH   8   9
HETATM    9  C7  UNL     1      93.669  45.692  64.376  1.00  0.00    -0.035 A 
HETATM   10  C8  UNL     1      92.573  46.554  64.221  1.00  0.00     0.011 A 
HETATM   11  C9  UNL     1      91.688  46.455  63.166  1.00  0.00     0.001 A 
HETATM   12  C10 UNL     1      91.874  45.471  62.212  1.00  0.00     0.000 A 
HETATM   13  C11 UNL     1      92.939  44.610  62.333  1.00  0.00     0.001 A 
HETATM   14  C12 UNL     1      93.810  44.746  63.417  1.00  0.00     0.011 A 
ENDBRANCH   8   9
ENDBRANCH   1   8
BRANCH   1  15
HETATM   15  C13 UNL     1      94.071  46.885  67.779  1.00  0.00     0.256 C 
HETATM   16  O1  UNL     1      94.385  47.786  68.553  1.00  0.00    -0.267 OA
HETATM   17  N2  UNL     1      93.351  45.762  68.161  1.00  0.00    -0.334 N 
ATOM     18  H2  UNL     1      93.147  45.101  67.411  1.00  0.00     0.168 HD
BRANCH  17  19
HETATM   19  C14 UNL     1      92.866  45.405  69.414  1.00  0.00     0.098 C 
BRANCH  19  20
HETATM   20  C15 UNL     1      91.437  45.257  69.718  1.00  0.00     0.241 C 
HETATM   21  C16 UNL     1      90.605  44.316  68.959  1.00  0.00     0.152 C 
HETATM   22  N3  UNL     1      89.291  44.115  69.546  1.00  0.00    -0.417 N 
HETATM   23  C17 UNL     1      88.889  45.086  70.507  1.00  0.00     0.141 C 
ATOM     24  H3  UNL     1      88.696  43.329  69.286  1.00  0.00     0.153 HD
HETATM   25  C18 UNL     1      89.948  45.463  71.496  1.00  0.00     0.252 C 
HETATM   26  N4  UNL     1      91.242  44.917  71.155  1.00  0.00    -0.063 N 
ATOM     27  H42 UNL     1      91.338  43.923  71.361  1.00  0.00     0.278 HD
ATOM     28  H41 UNL     1      91.997  45.235  71.761  1.00  0.00     0.278 HD
ENDBRANCH  19  20
ENDBRANCH  17  19
ENDBRANCH   1  15
TORSDOF 9
ENDMDL
MODEL 3
REMARK VINA RESULT: -7.269918153      2.079      3.374
REMARK  9 active torsions:
REMARK  status: ('A' for Active; 'I' for Inactive)
REMARK    1  A    between atoms: C2_2  and  C3_3 
REMARK    2  A    between atoms: C3_3  and  N1_4 
REMARK    3  A    between atoms: N1_4  and  C4_6 
REMARK    4  A    between atoms: C4_6  and  C5_7 
REMARK    5  A    between atoms: C5_7  and  C6_8 
REMARK    6  A    between atoms: C5_7  and  C13_15 
REMARK    7  A    between atoms: C6_8  and  C7_9 
REMARK       I    between atoms: C13_15  and  N2_17 
REMARK    8  A    between atoms: N2_17  and  C14_19 
REMARK    9  A    between atoms: C14_19  and  C15_20 
ROOT
HETATM    1  C5  UNL     1      93.344  45.747  67.234  1.00  0.00     0.048 C 
ENDROOT
BRANCH   1   2
HETATM    2  C4  UNL     1      94.745  46.159  67.445  1.00  0.00     0.104 C 
BRANCH   2   3
HETATM    3  N1  UNL     1      95.459  46.816  66.465  1.00  0.00    -0.374 N 
ATOM      4  H1  UNL     1      95.763  46.235  65.685  1.00  0.00     0.164 HD
BRANCH   3   5
HETATM    5  C3  UNL     1      95.820  48.143  66.389  1.00  0.00     0.087 C 
BRANCH   5   6
HETATM    6  C2  UNL     1      97.057  48.377  67.227  1.00  0.00     0.007 C 
HETATM    7  C1  UNL     1      97.907  49.293  66.836  1.00  0.00     0.012 C 
ENDBRANCH   5   6
ENDBRANCH   3   5
ENDBRANCH   2   3
ENDBRANCH   1   2
BRANCH   1   8
HETATM    8  C6  UNL     1      92.228  46.216  68.038  1.00  0.00     0.029 C 
BRANCH   8   9
HETATM    9  C7  UNL     1      91.305  45.307  68.681  1.00  0.00    -0.035 A 
HETATM   10  C8  UNL     1      91.313  45.210  70.080  1.00  0.00     0.011 A 
HETATM   11  C9  UNL     1      90.473  44.362  70.775  1.00  0.00     0.001 A 
HETATM   12  C10 UNL     1      89.580  43.569  70.079  1.00  0.00     0.000 A 
HETATM   13  C11 UNL     1      89.544  43.640  68.706  1.00  0.00     0.001 A 
HETATM   14  C12 UNL     1      90.413  44.511  68.044  1.00  0.00     0.011 A 
ENDBRANCH   8   9
ENDBRANCH   1   8
BRANCH   1  15
HETATM   15  C13 UNL     1      93.067  45.611  65.736  1.00  0.00     0.256 C 
HETATM   16  O1  UNL     1      92.867  46.665  65.135  1.00  0.00    -0.267 OA
HETATM   17  N2  UNL     1      93.053  44.366  65.125  1.00  0.00    -0.334 N 
ATOM     18  H2  UNL     1      93.249  43.578  65.742  1.00  0.00     0.168 HD
BRANCH  17  19
HETATM   19  C14 UNL     1      92.812  44.034  63.797  1.00  0.00     0.098 C 
BRANCH  19  20
HETATM   20  C15 UNL     1      91.508  44.205  63.143  1.00  0.00     0.241 C 
HETATM   21  C16 UNL     1      90.269  43.846  63.841  1.00  0.00     0.152 C 
HETATM   22  N3  UNL     1      89.074  44.305  63.154  1.00  0.00    -0.417 N 
HETATM   23  C17 UNL     1      89.252  44.689  61.793  1.00  0.00     0.141 C 
ATOM     24  H3  UNL     1      88.166  44.351  63.616  1.00  0.00     0.153 HD
HETATM   25  C18 UNL     1      90.466  45.527  61.535  1.00  0.00     0.252 C 
HETATM   26  N4  UNL     1      91.335  45.613  62.687  1.00  0.00    -0.063 N 
ATOM     27  H42 UNL     1      90.997  46.244  63.413  1.00  0.00     0.278 HD
ATOM     28  H41 UNL     1      92.212  46.100  62.507  1.00  0.00     0.278 HD
ENDBRANCH  19  20
ENDBRANCH  17  19
ENDBRANCH   1  15
TORSDOF 9
ENDMDL
MODEL 4
REMARK VINA RESULT: -7.244017001      2.172      4.173
REMARK  9 active torsions:
REMARK  status: ('A' for Active; 'I' for Inactive)
REMARK    1  A    between atoms: C2_2  and  C3_3 
REMARK    2  A    between atoms: C3_3  and  N1_4 
REMARK    3  A    between atoms: N1_4  and  C4_6 
REMARK    4  A    between atoms: C4_6  and  C5_7 
REMARK    5  A    between atoms: C5_7  and  C6_8 
REMARK    6  A    between atoms: C5_7  and  C13_15 
REMARK    7  A    between atoms: C6_8  and  C7_9 
REMARK       I    between atoms: C13_15  and  N2_17 
REMARK    8  A    between atoms: N2_17  and  C14_19 
REMARK    9  A    between atoms: C14_19  and  C15_20 
ROOT
HETATM    1  C5  UNL     1      88.673  44.679  68.095  1.00  0.00     0.048 C 
ENDROOT
BRANCH   1   2
HETATM    2  C4  UNL     1      87.926  44.155  66.935  1.00  0.00     0.104 C 
BRANCH   2   3
HETATM    3  N1  UNL     1      86.861  44.844  66.393  1.00  0.00    -0.374 N 
ATOM      4  H1  UNL     1      86.490  44.459  65.525  1.00  0.00     0.164 HD
BRANCH   3   5
HETATM    5  C3  UNL     1      86.227  45.977  66.854  1.00  0.00     0.087 C 
BRANCH   5   6
HETATM    6  C2  UNL     1      85.125  45.581  67.812  1.00  0.00     0.007 C 
HETATM    7  C1  UNL     1      84.940  46.315  68.881  1.00  0.00     0.012 C 
ENDBRANCH   5   6
ENDBRANCH   3   5
ENDBRANCH   2   3
ENDBRANCH   1   2
BRANCH   1   8
HETATM    8  C6  UNL     1      88.819  43.971  69.356  1.00  0.00     0.029 C 
BRANCH   8   9
HETATM    9  C7  UNL     1      88.705  44.639  70.633  1.00  0.00    -0.035 A 
HETATM   10  C8  UNL     1      87.427  44.913  71.143  1.00  0.00     0.011 A 
HETATM   11  C9  UNL     1      87.226  45.554  72.349  1.00  0.00     0.001 A 
HETATM   12  C10 UNL     1      88.318  45.950  73.100  1.00  0.00     0.000 A 
HETATM   13  C11 UNL     1      89.585  45.695  72.630  1.00  0.00     0.001 A 
HETATM   14  C12 UNL     1      89.742  45.044  71.404  1.00  0.00     0.011 A 
ENDBRANCH   8   9
ENDBRANCH   1   8
BRANCH   1  15
HETATM   15  C13 UNL     1      89.915  45.428  67.612  1.00  0.00     0.256 C 
HETATM   16  O1  UNL     1      89.701  46.431  66.934  1.00  0.00    -0.267 OA
HETATM   17  N2  UNL     1      91.187  44.982  67.941  1.00  0.00    -0.334 N 
ATOM     18  H2  UNL     1      91.216  44.145  68.523  1.00  0.00     0.168 HD
BRANCH  17  19
HETATM   19  C14 UNL     1      92.427  45.508  67.596  1.00  0.00     0.098 C 
BRANCH  19  20
HETATM   20  C15 UNL     1      92.988  45.436  66.240  1.00  0.00     0.241 C 
HETATM   21  C16 UNL     1      94.347  45.919  65.968  1.00  0.00     0.152 C 
HETATM   22  N3  UNL     1      94.828  45.550  64.648  1.00  0.00    -0.417 N 
HETATM   23  C17 UNL     1      93.832  45.120  63.724  1.00  0.00     0.141 C 
ATOM     24  H3  UNL     1      95.816  45.595  64.398  1.00  0.00     0.153 HD
HETATM   25  C18 UNL     1      92.821  44.173  64.291  1.00  0.00     0.252 C 
HETATM   26  N4  UNL     1      92.933  44.039  65.726  1.00  0.00    -0.063 N 
ATOM     27  H42 UNL     1      93.715  43.457  66.027  1.00  0.00     0.278 HD
ATOM     28  H41 UNL     1      92.198  43.472  66.147  1.00  0.00     0.278 HD
ENDBRANCH  19  20
ENDBRANCH  17  19
ENDBRANCH   1  15
TORSDOF 9
ENDMDL
MODEL 5
REMARK VINA RESULT: -7.240267075      2.021      4.033
REMARK  9 active torsions:
REMARK  status: ('A' for Active; 'I' for Inactive)
REMARK    1  A    between atoms: C2_2  and  C3_3 
REMARK    2  A    between atoms: C3_3  and  N1_4 
REMARK    3  A    between atoms: N1_4  and  C4_6 
REMARK    4  A    between atoms: C4_6  and  C5_7 
REMARK    5  A    between atoms: C5_7  and  C6_8 
REMARK    6  A    between atoms: C5_7  and  C13_15 
REMARK    7  A    between atoms: C6_8  and  C7_9 
REMARK       I    between atoms: C13_15  and  N2_17 
REMARK    8  A    between atoms: N2_17  and  C14_19 
REMARK    9  A    between atoms: C14_19  and  C15_20 
ROOT
HETATM    1  C5  UNL     1      90.238  44.441  69.993  1.00  0.00     0.048 C 
ENDROOT
BRANCH   1   2
HETATM    2  C4  UNL     1      90.814  45.231  71.099  1.00  0.00     0.104 C 
BRANCH   2   3
HETATM    3  N1  UNL     1      90.339  45.117  72.389  1.00  0.00    -0.374 N 
ATOM      4  H1  UNL     1      90.651  44.288  72.896  1.00  0.00     0.164 HD
BRANCH   3   5
HETATM    5  C3  UNL     1      89.506  45.960  73.091  1.00  0.00     0.087 C 
BRANCH   5   6
HETATM    6  C2  UNL     1      89.451  47.303  72.398  1.00  0.00     0.007 C 
HETATM    7  C1  UNL     1      88.446  48.099  72.667  1.00  0.00     0.012 C 
ENDBRANCH   5   6
ENDBRANCH   3   5
ENDBRANCH   2   3
ENDBRANCH   1   2
BRANCH   1   8
HETATM    8  C6  UNL     1      88.871  43.949  69.971  1.00  0.00     0.029 C 
BRANCH   8   9
HETATM    9  C7  UNL     1      87.731  44.838  69.982  1.00  0.00    -0.035 A 
HETATM   10  C8  UNL     1      87.383  45.508  68.800  1.00  0.00     0.011 A 
HETATM   11  C9  UNL     1      86.316  46.381  68.723  1.00  0.00     0.001 A 
HETATM   12  C10 UNL     1      85.547  46.617  69.848  1.00  0.00     0.000 A 
HETATM   13  C11 UNL     1      85.859  45.975  71.023  1.00  0.00     0.001 A 
HETATM   14  C12 UNL     1      86.948  45.100  71.055  1.00  0.00     0.011 A 
ENDBRANCH   8   9
ENDBRANCH   1   8
BRANCH   1  15
HETATM   15  C13 UNL     1      90.775  44.957  68.658  1.00  0.00     0.256 C 
HETATM   16  O1  UNL     1      90.847  46.179  68.550  1.00  0.00    -0.267 OA
HETATM   17  N2  UNL     1      91.151  44.075  67.655  1.00  0.00    -0.334 N 
ATOM     18  H2  UNL     1      91.051  43.087  67.885  1.00  0.00     0.168 HD
BRANCH  17  19
HETATM   19  C14 UNL     1      91.644  44.340  66.382  1.00  0.00     0.098 C 
BRANCH  19  20
HETATM   20  C15 UNL     1      92.859  45.125  66.131  1.00  0.00     0.241 C 
HETATM   21  C16 UNL     1      93.710  44.835  64.970  1.00  0.00     0.152 C 
HETATM   22  N3  UNL     1      94.720  45.852  64.736  1.00  0.00    -0.417 N 
HETATM   23  C17 UNL     1      94.965  46.742  65.822  1.00  0.00     0.141 C 
ATOM     24  H3  UNL     1      95.221  45.925  63.851  1.00  0.00     0.153 HD
HETATM   25  C18 UNL     1      93.733  47.251  66.503  1.00  0.00     0.252 C 
HETATM   26  N4  UNL     1      92.535  46.578  66.055  1.00  0.00    -0.063 N 
ATOM     27  H42 UNL     1      92.209  46.881  65.137  1.00  0.00     0.278 HD
ATOM     28  H41 UNL     1      91.696  46.841  66.570  1.00  0.00     0.278 HD
ENDBRANCH  19  20
ENDBRANCH  17  19
ENDBRANCH   1  15
TORSDOF 9
ENDMDL
