MODEL 1
REMARK VINA RESULT: -8.341278316      0.000      0.000
REMARK  9 active torsions:
REMARK  status: ('A' for Active; 'I' for Inactive)
REMARK    1  A    between atoms: C2_2  and  C3_3 
REMARK    2  A    between atoms: C3_3  and  N1_4 
REMARK    3  A    between atoms: N1_4  and  C4_6 
REMARK    4  A    between atoms: C8_13  and  O2_14 
REMARK    5  A    between atoms: C10_16  and  O3_17 
REMARK    6  A    between atoms: C16_23  and  O4_24 
REMARK    7  A    between atoms: O4_24  and  C17_25 
REMARK    8  A    between atoms: C19_27  and  O5_28 
REMARK    9  A    between atoms: O5_28  and  C20_29 
ROOT
HETATM    1  C4  UNL     1     -31.094  44.445  64.592  1.00  0.00     0.115 C 
HETATM    2  N2  UNL     1     -30.087  43.577  64.799  1.00  0.00    -0.308 N 
ATOM      3  H2  UNL     1     -30.356  42.684  65.213  1.00  0.00     0.170 HD
HETATM    4  C5  UNL     1     -28.756  43.722  64.534  1.00  0.00     0.258 C 
HETATM    5  O1  UNL     1     -27.939  42.946  65.059  1.00  0.00    -0.267 OA
HETATM    6  C6  UNL     1     -28.205  44.675  63.707  1.00  0.00     0.046 A 
HETATM    7  C7  UNL     1     -27.053  44.278  63.085  1.00  0.00     0.057 A 
HETATM    8  C8  UNL     1     -26.406  45.086  62.187  1.00  0.00     0.102 A 
HETATM    9  C10 UNL     1     -26.937  46.325  61.907  1.00  0.00     0.102 A 
HETATM   10  C12 UNL     1     -28.100  46.780  62.507  1.00  0.00     0.053 A 
HETATM   11  C13 UNL     1     -28.711  45.954  63.394  1.00  0.00    -0.006 A 
HETATM   12  C14 UNL     1     -29.839  46.525  63.946  1.00  0.00    -0.008 A 
HETATM   13  C15 UNL     1     -29.790  47.883  63.927  1.00  0.00     0.053 A 
HETATM   14  C16 UNL     1     -30.874  48.574  64.420  1.00  0.00     0.102 A 
HETATM   15  C19 UNL     1     -31.998  47.893  64.933  1.00  0.00     0.102 A 
HETATM   16  C22 UNL     1     -32.013  46.518  64.938  1.00  0.00     0.055 A 
HETATM   17  C23 UNL     1     -30.928  45.814  64.445  1.00  0.00     0.022 A 
ENDROOT
BRANCH   1  18
HETATM   18  N1  UNL     1     -32.279  44.027  64.538  1.00  0.00    -0.376 N 
ATOM     19  H1  UNL     1     -32.990  44.757  64.492  1.00  0.00     0.161 HD
BRANCH  18  20
HETATM   20  C3  UNL     1     -32.781  42.708  64.531  1.00  0.00     0.121 C 
BRANCH  20  21
HETATM   21  C2  UNL     1     -33.047  42.184  63.119  1.00  0.00     0.015 C 
HETATM   22  C1  UNL     1     -34.340  41.406  63.089  1.00  0.00     0.006 C 
ENDBRANCH  20  21
ENDBRANCH  18  20
ENDBRANCH   1  18
BRANCH  15  23
HETATM   23  O5  UNL     1     -33.028  48.650  65.401  1.00  0.00    -0.349 OA
BRANCH  23  24
HETATM   24  C20 UNL     1     -34.020  48.202  66.279  1.00  0.00     0.171 C 
HETATM   25  C21 UNL     1     -33.798  48.598  67.704  1.00  0.00     0.034 C 
ENDBRANCH  23  24
ENDBRANCH  15  23
BRANCH  14  26
HETATM   26  O4  UNL     1     -30.828  49.954  64.401  1.00  0.00    -0.349 OA
BRANCH  26  27
HETATM   27  C17 UNL     1     -30.056  50.682  65.315  1.00  0.00     0.171 C 
HETATM   28  C18 UNL     1     -30.101  50.138  66.703  1.00  0.00     0.034 C 
ENDBRANCH  26  27
ENDBRANCH  14  26
BRANCH   8  29
HETATM   29  O2  UNL     1     -25.249  44.687  61.564  1.00  0.00    -0.353 OA
HETATM   30  C9  UNL     1     -24.744  43.387  61.553  1.00  0.00     0.210 C 
ENDBRANCH   8  29
BRANCH   9  31
HETATM   31  O3  UNL     1     -26.308  47.153  61.009  1.00  0.00    -0.353 OA
HETATM   32  C11 UNL     1     -27.065  47.864  60.061  1.00  0.00     0.210 C 
ENDBRANCH   9  31
TORSDOF 9
ENDMDL
MODEL 2
REMARK VINA RESULT: -8.112805853      1.062      1.348
REMARK  9 active torsions:
REMARK  status: ('A' for Active; 'I' for Inactive)
REMARK    1  A    between atoms: C2_2  and  C3_3 
REMARK    2  A    between atoms: C3_3  and  N1_4 
REMARK    3  A    between atoms: N1_4  and  C4_6 
REMARK    4  A    between atoms: C8_13  and  O2_14 
REMARK    5  A    between atoms: C10_16  and  O3_17 
REMARK    6  A    between atoms: C16_23  and  O4_24 
REMARK    7  A    between atoms: O4_24  and  C17_25 
REMARK    8  A    between atoms: C19_27  and  O5_28 
REMARK    9  A    between atoms: O5_28  and  C20_29 
ROOT
HETATM    1  C4  UNL     1     -31.706  45.110  64.450  1.00  0.00     0.115 C 
HETATM    2  N2  UNL     1     -30.812  44.116  64.607  1.00  0.00    -0.308 N 
ATOM      3  H2  UNL     1     -31.193  43.234  64.949  1.00  0.00     0.170 HD
HETATM    4  C5  UNL     1     -29.467  44.122  64.376  1.00  0.00     0.258 C 
HETATM    5  O1  UNL     1     -28.759  43.220  64.855  1.00  0.00    -0.267 OA
HETATM    6  C6  UNL     1     -28.788  45.062  63.632  1.00  0.00     0.046 A 
HETATM    7  C7  UNL     1     -27.675  44.579  63.001  1.00  0.00     0.057 A 
HETATM    8  C8  UNL     1     -26.917  45.368  62.176  1.00  0.00     0.102 A 
HETATM    9  C10 UNL     1     -27.293  46.678  61.982  1.00  0.00     0.102 A 
HETATM   10  C12 UNL     1     -28.410  47.221  62.595  1.00  0.00     0.053 A 
HETATM   11  C13 UNL     1     -29.135  46.411  63.407  1.00  0.00    -0.006 A 
HETATM   12  C14 UNL     1     -30.203  47.069  63.982  1.00  0.00    -0.008 A 
HETATM   13  C15 UNL     1     -29.996  48.410  64.066  1.00  0.00     0.053 A 
HETATM   14  C16 UNL     1     -31.004  49.186  64.592  1.00  0.00     0.102 A 
HETATM   15  C19 UNL     1     -32.213  48.606  65.033  1.00  0.00     0.102 A 
HETATM   16  C22 UNL     1     -32.387  47.246  64.935  1.00  0.00     0.055 A 
HETATM   17  C23 UNL     1     -31.378  46.456  64.408  1.00  0.00     0.022 A 
ENDROOT
BRANCH   1  18
HETATM   18  N1  UNL     1     -32.930  44.839  64.345  1.00  0.00    -0.376 N 
ATOM     19  H1  UNL     1     -33.433  45.389  63.650  1.00  0.00     0.161 HD
BRANCH  18  20
HETATM   20  C3  UNL     1     -33.717  43.894  65.037  1.00  0.00     0.121 C 
BRANCH  20  21
HETATM   21  C2  UNL     1     -35.195  44.282  65.091  1.00  0.00     0.015 C 
HETATM   22  C1  UNL     1     -35.401  45.406  66.077  1.00  0.00     0.006 C 
ENDBRANCH  20  21
ENDBRANCH  18  20
ENDBRANCH   1  18
BRANCH  15  23
HETATM   23  O5  UNL     1     -33.159  49.442  65.541  1.00  0.00    -0.349 OA
BRANCH  23  24
HETATM   24  C20 UNL     1     -34.198  49.057  66.393  1.00  0.00     0.171 C 
HETATM   25  C21 UNL     1     -33.773  48.836  67.810  1.00  0.00     0.034 C 
ENDBRANCH  23  24
ENDBRANCH  15  23
BRANCH  14  26
HETATM   26  O4  UNL     1     -30.799  50.548  64.677  1.00  0.00    -0.349 OA
BRANCH  26  27
HETATM   27  C17 UNL     1     -29.877  51.103  65.573  1.00  0.00     0.171 C 
HETATM   28  C18 UNL     1     -30.014  50.589  66.968  1.00  0.00     0.034 C 
ENDBRANCH  26  27
ENDBRANCH  14  26
BRANCH   8  29
HETATM   29  O2  UNL     1     -25.799  44.882  61.544  1.00  0.00    -0.353 OA
HETATM   30  C9  UNL     1     -25.108  43.724  61.900  1.00  0.00     0.210 C 
ENDBRANCH   8  29
BRANCH   9  31
HETATM   31  O3  UNL     1     -26.550  47.489  61.159  1.00  0.00    -0.353 OA
HETATM   32  C11 UNL     1     -27.081  47.915  59.928  1.00  0.00     0.210 C 
ENDBRANCH   9  31
TORSDOF 9
ENDMDL
MODEL 3
REMARK VINA RESULT: -7.977923678      2.754      6.211
REMARK  9 active torsions:
REMARK  status: ('A' for Active; 'I' for Inactive)
REMARK    1  A    between atoms: C2_2  and  C3_3 
REMARK    2  A    between atoms: C3_3  and  N1_4 
REMARK    3  A    between atoms: N1_4  and  C4_6 
REMARK    4  A    between atoms: C8_13  and  O2_14 
REMARK    5  A    between atoms: C10_16  and  O3_17 
REMARK    6  A    between atoms: C16_23  and  O4_24 
REMARK    7  A    between atoms: O4_24  and  C17_25 
REMARK    8  A    between atoms: C19_27  and  O5_28 
REMARK    9  A    between atoms: O5_28  and  C20_29 
ROOT
HETATM    1  C4  UNL     1     -30.606  44.980  62.929  1.00  0.00     0.115 C 
HETATM    2  N2  UNL     1     -31.007  43.903  62.229  1.00  0.00    -0.308 N 
ATOM      3  H2  UNL     1     -30.426  43.659  61.427  1.00  0.00     0.170 HD
HETATM    4  C5  UNL     1     -32.083  43.089  62.441  1.00  0.00     0.258 C 
HETATM    5  O1  UNL     1     -32.466  42.332  61.533  1.00  0.00    -0.267 OA
HETATM    6  C6  UNL     1     -32.813  43.017  63.606  1.00  0.00     0.046 A 
HETATM    7  C7  UNL     1     -33.361  41.787  63.848  1.00  0.00     0.057 A 
HETATM    8  C8  UNL     1     -34.071  41.529  64.991  1.00  0.00     0.102 A 
HETATM    9  C10 UNL     1     -34.231  42.537  65.915  1.00  0.00     0.102 A 
HETATM   10  C12 UNL     1     -33.699  43.801  65.723  1.00  0.00     0.053 A 
HETATM   11  C13 UNL     1     -33.005  44.022  64.578  1.00  0.00    -0.006 A 
HETATM   12  C14 UNL     1     -32.550  45.321  64.485  1.00  0.00    -0.008 A 
HETATM   13  C15 UNL     1     -33.308  46.184  65.212  1.00  0.00     0.053 A 
HETATM   14  C16 UNL     1     -32.938  47.510  65.229  1.00  0.00     0.102 A 
HETATM   15  C19 UNL     1     -31.808  47.958  64.512  1.00  0.00     0.102 A 
HETATM   16  C22 UNL     1     -31.065  47.058  63.786  1.00  0.00     0.055 A 
HETATM   17  C23 UNL     1     -31.430  45.722  63.762  1.00  0.00     0.022 A 
ENDROOT
BRANCH   1  18
HETATM   18  N1  UNL     1     -29.417  45.380  62.835  1.00  0.00    -0.376 N 
ATOM     19  H1  UNL     1     -29.299  46.264  62.341  1.00  0.00     0.161 HD
BRANCH  18  20
HETATM   20  C3  UNL     1     -28.220  44.798  63.304  1.00  0.00     0.121 C 
BRANCH  20  21
HETATM   21  C2  UNL     1     -27.852  45.260  64.714  1.00  0.00     0.015 C 
HETATM   22  C1  UNL     1     -28.328  44.252  65.732  1.00  0.00     0.006 C 
ENDBRANCH  20  21
ENDBRANCH  18  20
ENDBRANCH   1  18
BRANCH  15  23
HETATM   23  O5  UNL     1     -31.509  49.284  64.581  1.00  0.00    -0.349 OA
BRANCH  23  24
HETATM   24  C20 UNL     1     -30.274  49.811  64.971  1.00  0.00     0.171 C 
HETATM   25  C21 UNL     1     -30.039  49.783  66.448  1.00  0.00     0.034 C 
ENDBRANCH  23  24
ENDBRANCH  15  23
BRANCH  14  26
HETATM   26  O4  UNL     1     -33.704  48.389  65.967  1.00  0.00    -0.349 OA
BRANCH  26  27
HETATM   27  C17 UNL     1     -33.468  48.615  67.329  1.00  0.00     0.171 C 
HETATM   28  C18 UNL     1     -34.447  47.934  68.226  1.00  0.00     0.034 C 
ENDBRANCH  26  27
ENDBRANCH  14  26
BRANCH   8  29
HETATM   29  O2  UNL     1     -34.622  40.294  65.231  1.00  0.00    -0.353 OA
HETATM   30  C9  UNL     1     -33.922  39.166  65.660  1.00  0.00     0.210 C 
ENDBRANCH   8  29
BRANCH   9  31
HETATM   31  O3  UNL     1     -34.938  42.302  67.069  1.00  0.00    -0.353 OA
HETATM   32  C11 UNL     1     -34.255  42.135  68.288  1.00  0.00     0.210 C 
ENDBRANCH   9  31
TORSDOF 9
ENDMDL
MODEL 4
REMARK VINA RESULT: -7.933340092      2.552      6.255
REMARK  9 active torsions:
REMARK  status: ('A' for Active; 'I' for Inactive)
REMARK    1  A    between atoms: C2_2  and  C3_3 
REMARK    2  A    between atoms: C3_3  and  N1_4 
REMARK    3  A    between atoms: N1_4  and  C4_6 
REMARK    4  A    between atoms: C8_13  and  O2_14 
REMARK    5  A    between atoms: C10_16  and  O3_17 
REMARK    6  A    between atoms: C16_23  and  O4_24 
REMARK    7  A    between atoms: O4_24  and  C17_25 
REMARK    8  A    between atoms: C19_27  and  O5_28 
REMARK    9  A    between atoms: O5_28  and  C20_29 
ROOT
HETATM    1  C4  UNL     1     -30.396  45.179  62.930  1.00  0.00     0.115 C 
HETATM    2  N2  UNL     1     -30.769  44.126  62.180  1.00  0.00    -0.308 N 
ATOM      3  H2  UNL     1     -30.154  43.906  61.396  1.00  0.00     0.170 HD
HETATM    4  C5  UNL     1     -31.854  43.309  62.318  1.00  0.00     0.258 C 
HETATM    5  O1  UNL     1     -32.199  42.583  61.371  1.00  0.00    -0.267 OA
HETATM    6  C6  UNL     1     -32.634  43.202  63.448  1.00  0.00     0.046 A 
HETATM    7  C7  UNL     1     -33.195  41.967  63.626  1.00  0.00     0.057 A 
HETATM    8  C8  UNL     1     -33.953  41.674  64.729  1.00  0.00     0.102 A 
HETATM    9  C10 UNL     1     -34.151  42.653  65.677  1.00  0.00     0.102 A 
HETATM   10  C12 UNL     1     -33.608  43.921  65.549  1.00  0.00     0.053 A 
HETATM   11  C13 UNL     1     -32.865  44.176  64.443  1.00  0.00    -0.006 A 
HETATM   12  C14 UNL     1     -32.404  45.476  64.412  1.00  0.00    -0.008 A 
HETATM   13  C15 UNL     1     -33.192  46.317  65.133  1.00  0.00     0.053 A 
HETATM   14  C16 UNL     1     -32.820  47.641  65.209  1.00  0.00     0.102 A 
HETATM   15  C19 UNL     1     -31.660  48.109  64.556  1.00  0.00     0.102 A 
HETATM   16  C22 UNL     1     -30.888  47.229  63.833  1.00  0.00     0.055 A 
HETATM   17  C23 UNL     1     -31.254  45.896  63.750  1.00  0.00     0.022 A 
ENDROOT
BRANCH   1  18
HETATM   18  N1  UNL     1     -29.204  45.577  62.900  1.00  0.00    -0.376 N 
ATOM     19  H1  UNL     1     -29.014  46.407  63.462  1.00  0.00     0.161 HD
BRANCH  18  20
HETATM   20  C3  UNL     1     -28.086  45.058  62.212  1.00  0.00     0.121 C 
BRANCH  20  21
HETATM   21  C2  UNL     1     -27.049  46.130  61.875  1.00  0.00     0.015 C 
HETATM   22  C1  UNL     1     -27.734  47.370  61.355  1.00  0.00     0.006 C 
ENDBRANCH  20  21
ENDBRANCH  18  20
ENDBRANCH   1  18
BRANCH  15  23
HETATM   23  O5  UNL     1     -31.361  49.431  64.680  1.00  0.00    -0.349 OA
BRANCH  23  24
HETATM   24  C20 UNL     1     -30.144  49.940  65.142  1.00  0.00     0.171 C 
HETATM   25  C21 UNL     1     -30.044  50.019  66.633  1.00  0.00     0.034 C 
ENDBRANCH  23  24
ENDBRANCH  15  23
BRANCH  14  26
HETATM   26  O4  UNL     1     -33.616  48.499  65.941  1.00  0.00    -0.349 OA
BRANCH  26  27
HETATM   27  C17 UNL     1     -33.484  48.628  67.329  1.00  0.00     0.171 C 
HETATM   28  C18 UNL     1     -34.553  47.928  68.099  1.00  0.00     0.034 C 
ENDBRANCH  26  27
ENDBRANCH  14  26
BRANCH   8  29
HETATM   29  O2  UNL     1     -34.516  40.434  64.906  1.00  0.00    -0.353 OA
HETATM   30  C9  UNL     1     -34.880  39.558  63.884  1.00  0.00     0.210 C 
ENDBRANCH   8  29
BRANCH   9  31
HETATM   31  O3  UNL     1     -34.907  42.383  66.792  1.00  0.00    -0.353 OA
HETATM   32  C11 UNL     1     -34.840  43.236  67.909  1.00  0.00     0.210 C 
ENDBRANCH   9  31
TORSDOF 9
ENDMDL
MODEL 5
REMARK VINA RESULT: -7.897293931      2.647      5.995
REMARK  9 active torsions:
REMARK  status: ('A' for Active; 'I' for Inactive)
REMARK    1  A    between atoms: C2_2  and  C3_3 
REMARK    2  A    between atoms: C3_3  and  N1_4 
REMARK    3  A    between atoms: N1_4  and  C4_6 
REMARK    4  A    between atoms: C8_13  and  O2_14 
REMARK    5  A    between atoms: C10_16  and  O3_17 
REMARK    6  A    between atoms: C16_23  and  O4_24 
REMARK    7  A    between atoms: O4_24  and  C17_25 
REMARK    8  A    between atoms: C19_27  and  O5_28 
REMARK    9  A    between atoms: O5_28  and  C20_29 
ROOT
HETATM    1  C4  UNL     1     -29.988  45.050  62.585  1.00  0.00     0.115 C 
HETATM    2  N2  UNL     1     -30.441  44.115  61.730  1.00  0.00    -0.308 N 
ATOM      3  H2  UNL     1     -29.844  43.933  60.923  1.00  0.00     0.170 HD
HETATM    4  C5  UNL     1     -31.587  43.376  61.789  1.00  0.00     0.258 C 
HETATM    5  O1  UNL     1     -31.986  42.784  60.772  1.00  0.00    -0.267 OA
HETATM    6  C6  UNL     1     -32.374  43.210  62.907  1.00  0.00     0.046 A 
HETATM    7  C7  UNL     1     -33.030  42.010  62.957  1.00  0.00     0.057 A 
HETATM    8  C8  UNL     1     -33.811  41.662  64.027  1.00  0.00     0.102 A 
HETATM    9  C10 UNL     1     -33.932  42.547  65.076  1.00  0.00     0.102 A 
HETATM   10  C12 UNL     1     -33.292  43.775  65.079  1.00  0.00     0.053 A 
HETATM   11  C13 UNL     1     -32.530  44.087  64.001  1.00  0.00    -0.006 A 
HETATM   12  C14 UNL     1     -31.968  45.343  64.104  1.00  0.00    -0.008 A 
HETATM   13  C15 UNL     1     -32.688  46.162  64.916  1.00  0.00     0.053 A 
HETATM   14  C16 UNL     1     -32.214  47.437  65.130  1.00  0.00     0.102 A 
HETATM   15  C19 UNL     1     -31.020  47.880  64.522  1.00  0.00     0.102 A 
HETATM   16  C22 UNL     1     -30.318  47.025  63.705  1.00  0.00     0.055 A 
HETATM   17  C23 UNL     1     -30.787  45.741  63.483  1.00  0.00     0.022 A 
ENDROOT
BRANCH   1  18
HETATM   18  N1  UNL     1     -28.767  45.355  62.589  1.00  0.00    -0.376 N 
ATOM     19  H1  UNL     1     -28.556  46.284  62.226  1.00  0.00     0.161 HD
BRANCH  18  20
HETATM   20  C3  UNL     1     -27.644  44.615  63.016  1.00  0.00     0.121 C 
BRANCH  20  21
HETATM   21  C2  UNL     1     -27.284  44.879  64.479  1.00  0.00     0.015 C 
HETATM   22  C1  UNL     1     -27.888  43.814  65.362  1.00  0.00     0.006 C 
ENDBRANCH  20  21
ENDBRANCH  18  20
ENDBRANCH   1  18
BRANCH  15  23
HETATM   23  O5  UNL     1     -30.619  49.154  64.784  1.00  0.00    -0.349 OA
BRANCH  23  24
HETATM   24  C20 UNL     1     -29.725  49.523  65.794  1.00  0.00     0.171 C 
HETATM   25  C21 UNL     1     -30.305  50.458  66.808  1.00  0.00     0.034 C 
ENDBRANCH  23  24
ENDBRANCH  15  23
BRANCH  14  26
HETATM   26  O4  UNL     1     -32.941  48.271  65.955  1.00  0.00    -0.349 OA
BRANCH  26  27
HETATM   27  C17 UNL     1     -34.049  48.990  65.490  1.00  0.00     0.171 C 
HETATM   28  C18 UNL     1     -33.799  50.455  65.355  1.00  0.00     0.034 C 
ENDBRANCH  26  27
ENDBRANCH  14  26
BRANCH   8  29
HETATM   29  O2  UNL     1     -34.469  40.458  64.076  1.00  0.00    -0.353 OA
HETATM   30  C9  UNL     1     -35.051  39.810  62.987  1.00  0.00     0.210 C 
ENDBRANCH   8  29
BRANCH   9  31
HETATM   31  O3  UNL     1     -34.708  42.220  66.161  1.00  0.00    -0.353 OA
HETATM   32  C11 UNL     1     -34.663  43.014  67.321  1.00  0.00     0.210 C 
ENDBRANCH   9  31
TORSDOF 9
ENDMDL
