MODEL 1
REMARK VINA RESULT: -7.416599862      0.000      0.000
REMARK  10 active torsions:
REMARK  status: ('A' for Active; 'I' for Inactive)
REMARK    1  A    between atoms: C2_2  and  C3_3 
REMARK    2  A    between atoms: C3_3  and  C4_4 
REMARK    3  A    between atoms: C4_4  and  C5_5 
REMARK    4  A    between atoms: C4_4  and  C6_8 
REMARK    5  A    between atoms: C5_5  and  O1_6 
REMARK    6  A    between atoms: C6_8  and  C7_9 
REMARK    7  A    between atoms: C7_9  and  C9_11 
REMARK    8  A    between atoms: C22_25  and  O3_26 
REMARK    9  A    between atoms: C22_25  and  O4_28 
REMARK   10  A    between atoms: C27_34  and  O5_35 
ROOT
HETATM    1  C9  UNL     1      -8.213   4.203 -24.052  1.00  0.00     0.127 C 
HETATM    2  C10 UNL     1      -7.904   4.819 -22.736  1.00  0.00     0.050 C 
HETATM    3  C11 UNL     1      -8.883   5.923 -22.382  1.00  0.00     0.032 C 
HETATM    4  C12 UNL     1      -8.323   6.511 -21.108  1.00  0.00     0.024 C 
HETATM    5  C13 UNL     1     -10.217   5.295 -21.955  1.00  0.00     0.137 C 
HETATM    6  O2  UNL     1     -10.300   4.792 -20.873  1.00  0.00    -0.297 OA
HETATM    7  C14 UNL     1     -11.459   5.263 -22.819  1.00  0.00     0.090 C 
HETATM    8  C15 UNL     1     -11.350   5.754 -24.185  1.00  0.00     0.044 C 
HETATM    9  C16 UNL     1     -11.870   7.043 -24.653  1.00  0.00    -0.023 C 
HETATM   10  C17 UNL     1     -11.052   7.993 -25.397  1.00  0.00    -0.022 C 
HETATM   11  C18 UNL     1      -9.620   8.135 -25.417  1.00  0.00     0.048 C 
HETATM   12  C19 UNL     1      -9.264   9.586 -25.822  1.00  0.00     0.010 C 
HETATM   13  C20 UNL     1      -9.987   9.776 -27.171  1.00  0.00     0.011 C 
HETATM   14  C21 UNL     1      -8.958  10.627 -27.929  1.00  0.00     0.069 C 
HETATM   15  C22 UNL     1      -7.711   9.781 -27.629  1.00  0.00     0.167 C 
HETATM   16  C23 UNL     1      -7.827   9.729 -26.093  1.00  0.00     0.017 C 
HETATM   17  C24 UNL     1      -7.413  11.151 -25.666  1.00  0.00     0.021 C 
HETATM   18  C25 UNL     1      -6.869   8.788 -25.539  1.00  0.00     0.018 C 
HETATM   19  C26 UNL     1      -7.368   7.547 -24.873  1.00  0.00     0.040 C 
HETATM   20  C27 UNL     1      -8.724   7.836 -24.243  1.00  0.00     0.076 C 
HETATM   21  C28 UNL     1      -9.351   6.815 -23.416  1.00  0.00     0.029 C 
HETATM   22  C29 UNL     1     -10.129   7.724 -22.525  1.00  0.00     0.022 C 
HETATM   23  C30 UNL     1      -9.845   5.841 -24.384  1.00  0.00     0.142 C 
HETATM   24  O6  UNL     1      -9.501   4.479 -24.263  1.00  0.00    -0.379 OA
ENDROOT
BRANCH   1  25
HETATM   25  C7  UNL     1      -8.022   2.674 -24.082  1.00  0.00     0.011 C 
HETATM   26  C8  UNL     1      -8.908   1.921 -23.172  1.00  0.00     0.012 C 
BRANCH  25  27
HETATM   27  C6  UNL     1      -6.581   2.323 -24.109  1.00  0.00     0.014 C 
BRANCH  27  28
HETATM   28  C4  UNL     1      -5.866   2.307 -25.415  1.00  0.00     0.013 C 
BRANCH  28  29
HETATM   29  C3  UNL     1      -4.725   3.372 -25.384  1.00  0.00     0.033 C 
BRANCH  29  30
HETATM   30  C2  UNL     1      -4.732   4.194 -26.583  1.00  0.00    -0.036 C 
HETATM   31  C1  UNL     1      -5.750   5.036 -26.767  1.00  0.00     0.007 C 
ENDBRANCH  29  30
ENDBRANCH  28  29
BRANCH  28  32
HETATM   32  C5  UNL     1      -5.079   1.041 -25.711  1.00  0.00     0.168 C 
BRANCH  32  33
HETATM   33  O1  UNL     1      -5.264   0.690 -27.077  1.00  0.00    -0.400 OA
ATOM     34  H1  UNL     1      -6.006   0.100 -27.146  1.00  0.00     0.209 HD
ENDBRANCH  32  33
ENDBRANCH  28  32
ENDBRANCH  27  28
ENDBRANCH  25  27
ENDBRANCH   1  25
BRANCH  20  35
HETATM   35  O5  UNL     1      -8.335   9.016 -23.553  1.00  0.00    -0.388 OA
ATOM     36  H5  UNL     1      -8.598   9.000 -22.640  1.00  0.00     0.210 HD
ENDBRANCH  20  35
BRANCH  15  37
HETATM   37  O3  UNL     1      -7.881   8.562 -28.224  1.00  0.00    -0.365 OA
ATOM     38  H3  UNL     1      -7.556   7.900 -27.626  1.00  0.00     0.213 HD
ENDBRANCH  15  37
BRANCH  15  39
HETATM   39  O4  UNL     1      -6.558  10.452 -28.017  1.00  0.00    -0.365 OA
ATOM     40  H4  UNL     1      -6.186  10.056 -28.796  1.00  0.00     0.213 HD
ENDBRANCH  15  39
TORSDOF 10
ENDMDL
MODEL 2
REMARK VINA RESULT: -6.801105598     11.679     16.458
REMARK  10 active torsions:
REMARK  status: ('A' for Active; 'I' for Inactive)
REMARK    1  A    between atoms: C2_2  and  C3_3 
REMARK    2  A    between atoms: C3_3  and  C4_4 
REMARK    3  A    between atoms: C4_4  and  C5_5 
REMARK    4  A    between atoms: C4_4  and  C6_8 
REMARK    5  A    between atoms: C5_5  and  O1_6 
REMARK    6  A    between atoms: C6_8  and  C7_9 
REMARK    7  A    between atoms: C7_9  and  C9_11 
REMARK    8  A    between atoms: C22_25  and  O3_26 
REMARK    9  A    between atoms: C22_25  and  O4_28 
REMARK   10  A    between atoms: C27_34  and  O5_35 
ROOT
HETATM    1  C9  UNL     1       3.900  -4.735 -28.657  1.00  0.00     0.127 C 
HETATM    2  C10 UNL     1       3.772  -3.329 -29.120  1.00  0.00     0.050 C 
HETATM    3  C11 UNL     1       3.826  -2.344 -27.968  1.00  0.00     0.032 C 
HETATM    4  C12 UNL     1       3.536  -1.010 -28.616  1.00  0.00     0.024 C 
HETATM    5  C13 UNL     1       5.275  -2.220 -27.477  1.00  0.00     0.137 C 
HETATM    6  O2  UNL     1       6.055  -1.590 -28.131  1.00  0.00    -0.297 OA
HETATM    7  C14 UNL     1       5.801  -2.849 -26.205  1.00  0.00     0.090 C 
HETATM    8  C15 UNL     1       4.908  -3.723 -25.459  1.00  0.00     0.044 C 
HETATM    9  C16 UNL     1       4.235  -3.357 -24.208  1.00  0.00    -0.023 C 
HETATM   10  C17 UNL     1       2.800  -3.523 -24.014  1.00  0.00    -0.022 C 
HETATM   11  C18 UNL     1       1.753  -3.584 -25.000  1.00  0.00     0.048 C 
HETATM   12  C19 UNL     1       0.419  -3.153 -24.344  1.00  0.00     0.010 C 
HETATM   13  C20 UNL     1       0.279  -4.107 -23.140  1.00  0.00     0.011 C 
HETATM   14  C21 UNL     1      -1.236  -4.356 -23.148  1.00  0.00     0.069 C 
HETATM   15  C22 UNL     1      -1.396  -4.680 -24.642  1.00  0.00     0.167 C 
HETATM   16  C23 UNL     1      -0.723  -3.423 -25.227  1.00  0.00     0.017 C 
HETATM   17  C24 UNL     1      -1.773  -2.322 -24.979  1.00  0.00     0.021 C 
HETATM   18  C25 UNL     1      -0.537  -3.563 -26.661  1.00  0.00     0.018 C 
HETATM   19  C26 UNL     1       0.849  -3.650 -27.210  1.00  0.00     0.040 C 
HETATM   20  C27 UNL     1       1.787  -2.851 -26.315  1.00  0.00     0.076 C 
HETATM   21  C28 UNL     1       3.172  -2.672 -26.723  1.00  0.00     0.029 C 
HETATM   22  C29 UNL     1       3.417  -1.365 -26.047  1.00  0.00     0.022 C 
HETATM   23  C30 UNL     1       3.783  -3.969 -26.452  1.00  0.00     0.142 C 
HETATM   24  O6  UNL     1       4.492  -4.647 -27.465  1.00  0.00    -0.379 OA
ENDROOT
BRANCH   1  25
HETATM   25  C7  UNL     1       4.764  -5.618 -29.577  1.00  0.00     0.011 C 
HETATM   26  C8  UNL     1       4.601  -5.354 -31.020  1.00  0.00     0.012 C 
BRANCH  25  27
HETATM   27  C6  UNL     1       4.755  -7.027 -29.116  1.00  0.00     0.014 C 
BRANCH  27  28
HETATM   28  C4  UNL     1       6.014  -7.622 -28.586  1.00  0.00     0.013 C 
BRANCH  28  29
HETATM   29  C3  UNL     1       5.700  -8.380 -27.258  1.00  0.00     0.033 C 
BRANCH  29  30
HETATM   30  C2  UNL     1       5.700  -7.477 -26.118  1.00  0.00    -0.036 C 
HETATM   31  C1  UNL     1       6.858  -6.933 -25.742  1.00  0.00     0.007 C 
ENDBRANCH  29  30
ENDBRANCH  28  29
BRANCH  28  32
HETATM   32  C5  UNL     1       6.610  -8.739 -29.428  1.00  0.00     0.168 C 
BRANCH  32  33
HETATM   33  O1  UNL     1       6.074  -8.662 -30.743  1.00  0.00    -0.400 OA
ATOM     34  H1  UNL     1       5.166  -8.942 -30.723  1.00  0.00     0.209 HD
ENDBRANCH  32  33
ENDBRANCH  28  32
ENDBRANCH  27  28
ENDBRANCH  25  27
ENDBRANCH   1  25
BRANCH  20  35
HETATM   35  O5  UNL     1       1.008  -1.661 -26.284  1.00  0.00    -0.388 OA
ATOM     36  H5  UNL     1       0.458  -1.574 -27.054  1.00  0.00     0.210 HD
ENDBRANCH  20  35
BRANCH  15  37
HETATM   37  O3  UNL     1      -0.702  -5.830 -24.896  1.00  0.00    -0.365 OA
ATOM     38  H3  UNL     1      -0.896  -6.094 -25.788  1.00  0.00     0.213 HD
ENDBRANCH  15  37
BRANCH  15  39
HETATM   39  O4  UNL     1      -2.739  -4.732 -24.991  1.00  0.00    -0.365 OA
ATOM     40  H4  UNL     1      -3.235  -5.219 -24.344  1.00  0.00     0.213 HD
ENDBRANCH  15  39
TORSDOF 10
ENDMDL
MODEL 3
REMARK VINA RESULT: -6.761172812     10.475     13.776
REMARK  10 active torsions:
REMARK  status: ('A' for Active; 'I' for Inactive)
REMARK    1  A    between atoms: C2_2  and  C3_3 
REMARK    2  A    between atoms: C3_3  and  C4_4 
REMARK    3  A    between atoms: C4_4  and  C5_5 
REMARK    4  A    between atoms: C4_4  and  C6_8 
REMARK    5  A    between atoms: C5_5  and  O1_6 
REMARK    6  A    between atoms: C6_8  and  C7_9 
REMARK    7  A    between atoms: C7_9  and  C9_11 
REMARK    8  A    between atoms: C22_25  and  O3_26 
REMARK    9  A    between atoms: C22_25  and  O4_28 
REMARK   10  A    between atoms: C27_34  and  O5_35 
ROOT
HETATM    1  C9  UNL     1       3.332  -0.266 -21.678  1.00  0.00     0.127 C 
HETATM    2  C10 UNL     1       4.109  -0.226 -22.942  1.00  0.00     0.050 C 
HETATM    3  C11 UNL     1       3.264   0.235 -24.115  1.00  0.00     0.032 C 
HETATM    4  C12 UNL     1       4.175   0.068 -25.308  1.00  0.00     0.024 C 
HETATM    5  C13 UNL     1       3.045   1.751 -24.013  1.00  0.00     0.137 C 
HETATM    6  O2  UNL     1       3.946   2.486 -24.297  1.00  0.00    -0.297 OA
HETATM    7  C14 UNL     1       1.750   2.398 -23.572  1.00  0.00     0.090 C 
HETATM    8  C15 UNL     1       0.682   1.529 -23.101  1.00  0.00     0.044 C 
HETATM    9  C16 UNL     1      -0.524   1.197 -23.868  1.00  0.00    -0.023 C 
HETATM   10  C17 UNL     1      -0.968  -0.176 -24.074  1.00  0.00    -0.022 C 
HETATM   11  C18 UNL     1      -0.199  -1.392 -24.038  1.00  0.00     0.048 C 
HETATM   12  C19 UNL     1      -0.919  -2.467 -24.888  1.00  0.00     0.010 C 
HETATM   13  C20 UNL     1      -2.331  -2.534 -24.271  1.00  0.00     0.011 C 
HETATM   14  C21 UNL     1      -2.615  -4.039 -24.372  1.00  0.00     0.069 C 
HETATM   15  C22 UNL     1      -1.292  -4.551 -23.778  1.00  0.00     0.167 C 
HETATM   16  C23 UNL     1      -0.315  -3.793 -24.697  1.00  0.00     0.017 C 
HETATM   17  C24 UNL     1      -0.434  -4.554 -26.032  1.00  0.00     0.021 C 
HETATM   18  C25 UNL     1       1.048  -3.925 -24.214  1.00  0.00     0.018 C 
HETATM   19  C26 UNL     1       1.761  -2.716 -23.703  1.00  0.00     0.040 C 
HETATM   20  C27 UNL     1       1.248  -1.490 -24.445  1.00  0.00     0.076 C 
HETATM   21  C28 UNL     1       1.893  -0.205 -24.217  1.00  0.00     0.029 C 
HETATM   22  C29 UNL     1       1.612   0.404 -25.551  1.00  0.00     0.022 C 
HETATM   23  C30 UNL     1       1.399   0.202 -22.905  1.00  0.00     0.142 C 
HETATM   24  O6  UNL     1       2.304   0.559 -21.884  1.00  0.00    -0.379 OA
ENDROOT
BRANCH   1  25
HETATM   25  C7  UNL     1       4.120   0.222 -20.447  1.00  0.00     0.011 C 
HETATM   26  C8  UNL     1       4.526  -0.843 -19.510  1.00  0.00     0.012 C 
BRANCH  25  27
HETATM   27  C6  UNL     1       3.513   1.455 -19.887  1.00  0.00     0.014 C 
BRANCH  27  28
HETATM   28  C4  UNL     1       2.693   1.357 -18.647  1.00  0.00     0.013 C 
BRANCH  28  29
HETATM   29  C3  UNL     1       3.158   2.456 -17.641  1.00  0.00     0.033 C 
BRANCH  29  30
HETATM   30  C2  UNL     1       2.084   2.842 -16.741  1.00  0.00    -0.036 C 
HETATM   31  C1  UNL     1       2.329   2.849 -15.430  1.00  0.00     0.007 C 
ENDBRANCH  29  30
ENDBRANCH  28  29
BRANCH  28  32
HETATM   32  C5  UNL     1       1.224   1.711 -18.810  1.00  0.00     0.168 C 
BRANCH  32  33
HETATM   33  O1  UNL     1       0.543   0.601 -19.383  1.00  0.00    -0.400 OA
ATOM     34  H1  UNL     1      -0.347   0.860 -19.593  1.00  0.00     0.209 HD
ENDBRANCH  32  33
ENDBRANCH  28  32
ENDBRANCH  27  28
ENDBRANCH  25  27
ENDBRANCH   1  25
BRANCH  20  35
HETATM   35  O5  UNL     1       1.401  -2.017 -25.757  1.00  0.00    -0.388 OA
ATOM     36  H5  UNL     1       1.211  -1.370 -26.426  1.00  0.00     0.210 HD
ENDBRANCH  20  35
BRANCH  15  37
HETATM   37  O3  UNL     1      -1.235  -4.143 -22.475  1.00  0.00    -0.365 OA
ATOM     38  H3  UNL     1      -0.606  -3.433 -22.422  1.00  0.00     0.213 HD
ENDBRANCH  15  37
BRANCH  15  39
HETATM   39  O4  UNL     1      -1.175  -5.924 -23.954  1.00  0.00    -0.365 OA
ATOM     40  H4  UNL     1      -0.450  -6.127 -24.533  1.00  0.00     0.213 HD
ENDBRANCH  15  39
TORSDOF 10
ENDMDL
MODEL 4
REMARK VINA RESULT: -6.674093372      3.291      5.335
REMARK  10 active torsions:
REMARK  status: ('A' for Active; 'I' for Inactive)
REMARK    1  A    between atoms: C2_2  and  C3_3 
REMARK    2  A    between atoms: C3_3  and  C4_4 
REMARK    3  A    between atoms: C4_4  and  C5_5 
REMARK    4  A    between atoms: C4_4  and  C6_8 
REMARK    5  A    between atoms: C5_5  and  O1_6 
REMARK    6  A    between atoms: C6_8  and  C7_9 
REMARK    7  A    between atoms: C7_9  and  C9_11 
REMARK    8  A    between atoms: C22_25  and  O3_26 
REMARK    9  A    between atoms: C22_25  and  O4_28 
REMARK   10  A    between atoms: C27_34  and  O5_35 
ROOT
HETATM    1  C9  UNL     1     -10.861   5.874 -23.714  1.00  0.00     0.127 C 
HETATM    2  C10 UNL     1      -9.825   6.478 -24.589  1.00  0.00     0.050 C 
HETATM    3  C11 UNL     1     -10.002   7.979 -24.728  1.00  0.00     0.032 C 
HETATM    4  C12 UNL     1      -8.966   8.375 -25.753  1.00  0.00     0.024 C 
HETATM    5  C13 UNL     1      -9.537   8.662 -23.434  1.00  0.00     0.137 C 
HETATM    6  O2  UNL     1      -8.364   8.760 -23.221  1.00  0.00    -0.297 OA
HETATM    7  C14 UNL     1     -10.471   9.231 -22.387  1.00  0.00     0.090 C 
HETATM    8  C15 UNL     1     -11.899   9.013 -22.560  1.00  0.00     0.044 C 
HETATM    9  C16 UNL     1     -12.852  10.037 -23.003  1.00  0.00    -0.023 C 
HETATM   10  C17 UNL     1     -13.786   9.815 -24.101  1.00  0.00    -0.022 C 
HETATM   11  C18 UNL     1     -13.689   8.890 -25.199  1.00  0.00     0.048 C 
HETATM   12  C19 UNL     1     -14.540   9.421 -26.379  1.00  0.00     0.010 C 
HETATM   13  C20 UNL     1     -15.942   9.604 -25.764  1.00  0.00     0.011 C 
HETATM   14  C21 UNL     1     -16.829   9.168 -26.938  1.00  0.00     0.069 C 
HETATM   15  C22 UNL     1     -16.105   7.856 -27.282  1.00  0.00     0.167 C 
HETATM   16  C23 UNL     1     -14.676   8.411 -27.437  1.00  0.00     0.017 C 
HETATM   17  C24 UNL     1     -14.738   9.156 -28.785  1.00  0.00     0.021 C 
HETATM   18  C25 UNL     1     -13.716   7.327 -27.558  1.00  0.00     0.018 C 
HETATM   19  C26 UNL     1     -12.715   7.116 -26.469  1.00  0.00     0.040 C 
HETATM   20  C27 UNL     1     -12.390   8.459 -25.829  1.00  0.00     0.076 C 
HETATM   21  C28 UNL     1     -11.333   8.529 -24.832  1.00  0.00     0.029 C 
HETATM   22  C29 UNL     1     -10.920   9.943 -25.071  1.00  0.00     0.022 C 
HETATM   23  C30 UNL     1     -11.941   7.944 -23.641  1.00  0.00     0.142 C 
HETATM   24  O6  UNL     1     -11.304   6.884 -22.964  1.00  0.00    -0.379 OA
ENDROOT
BRANCH   1  25
HETATM   25  C7  UNL     1     -10.323   4.767 -22.787  1.00  0.00     0.011 C 
HETATM   26  C8  UNL     1     -10.338   5.102 -21.349  1.00  0.00     0.012 C 
BRANCH  25  27
HETATM   27  C6  UNL     1      -9.096   4.155 -23.352  1.00  0.00     0.014 C 
BRANCH  27  28
HETATM   28  C4  UNL     1      -9.092   2.699 -23.664  1.00  0.00     0.013 C 
BRANCH  28  29
HETATM   29  C3  UNL     1      -7.706   2.097 -23.275  1.00  0.00     0.033 C 
BRANCH  29  30
HETATM   30  C2  UNL     1      -6.718   2.320 -24.318  1.00  0.00    -0.036 C 
HETATM   31  C1  UNL     1      -5.969   1.288 -24.712  1.00  0.00     0.007 C 
ENDBRANCH  29  30
ENDBRANCH  28  29
BRANCH  28  32
HETATM   32  C5  UNL     1     -10.028   1.850 -22.818  1.00  0.00     0.168 C 
BRANCH  32  33
HETATM   33  O1  UNL     1     -11.236   1.636 -23.539  1.00  0.00    -0.400 OA
ATOM     34  H1  UNL     1     -11.615   2.479 -23.762  1.00  0.00     0.209 HD
ENDBRANCH  32  33
ENDBRANCH  28  32
ENDBRANCH  27  28
ENDBRANCH  25  27
ENDBRANCH   1  25
BRANCH  20  35
HETATM   35  O5  UNL     1     -12.125   9.156 -27.040  1.00  0.00    -0.388 OA
ATOM     36  H5  UNL     1     -11.292   9.612 -27.015  1.00  0.00     0.210 HD
ENDBRANCH  20  35
BRANCH  15  37
HETATM   37  O3  UNL     1     -16.243   7.012 -26.215  1.00  0.00    -0.365 OA
ATOM     38  H3  UNL     1     -16.449   6.149 -26.554  1.00  0.00     0.213 HD
ENDBRANCH  15  37
BRANCH  15  39
HETATM   39  O4  UNL     1     -16.570   7.340 -28.484  1.00  0.00    -0.365 OA
ATOM     40  H4  UNL     1     -15.867   6.916 -28.962  1.00  0.00     0.213 HD
ENDBRANCH  15  39
TORSDOF 10
ENDMDL
MODEL 5
REMARK VINA RESULT: -6.608609117     11.680     16.542
REMARK  10 active torsions:
REMARK  status: ('A' for Active; 'I' for Inactive)
REMARK    1  A    between atoms: C2_2  and  C3_3 
REMARK    2  A    between atoms: C3_3  and  C4_4 
REMARK    3  A    between atoms: C4_4  and  C5_5 
REMARK    4  A    between atoms: C4_4  and  C6_8 
REMARK    5  A    between atoms: C5_5  and  O1_6 
REMARK    6  A    between atoms: C6_8  and  C7_9 
REMARK    7  A    between atoms: C7_9  and  C9_11 
REMARK    8  A    between atoms: C22_25  and  O3_26 
REMARK    9  A    between atoms: C22_25  and  O4_28 
REMARK   10  A    between atoms: C27_34  and  O5_35 
ROOT
HETATM    1  C9  UNL     1       4.206  -4.856 -28.266  1.00  0.00     0.127 C 
HETATM    2  C10 UNL     1       4.078  -3.503 -28.864  1.00  0.00     0.050 C 
HETATM    3  C11 UNL     1       4.007  -2.417 -27.806  1.00  0.00     0.032 C 
HETATM    4  C12 UNL     1       3.735  -1.158 -28.594  1.00  0.00     0.024 C 
HETATM    5  C13 UNL     1       5.407  -2.200 -27.214  1.00  0.00     0.137 C 
HETATM    6  O2  UNL     1       6.221  -1.603 -27.857  1.00  0.00    -0.297 OA
HETATM    7  C14 UNL     1       5.843  -2.694 -25.852  1.00  0.00     0.090 C 
HETATM    8  C15 UNL     1       4.916  -3.530 -25.103  1.00  0.00     0.044 C 
HETATM    9  C16 UNL     1       4.132  -3.079 -23.948  1.00  0.00    -0.023 C 
HETATM   10  C17 UNL     1       2.690  -3.278 -23.855  1.00  0.00    -0.022 C 
HETATM   11  C18 UNL     1       1.732  -3.463 -24.912  1.00  0.00     0.048 C 
HETATM   12  C19 UNL     1       0.336  -3.023 -24.408  1.00  0.00     0.010 C 
HETATM   13  C20 UNL     1       0.123  -3.871 -23.137  1.00  0.00     0.011 C 
HETATM   14  C21 UNL     1      -1.378  -4.174 -23.244  1.00  0.00     0.069 C 
HETATM   15  C22 UNL     1      -1.404  -4.634 -24.710  1.00  0.00     0.167 C 
HETATM   16  C23 UNL     1      -0.721  -3.411 -25.351  1.00  0.00     0.017 C 
HETATM   17  C24 UNL     1      -1.818  -2.330 -25.290  1.00  0.00     0.021 C 
HETATM   18  C25 UNL     1      -0.413  -3.670 -26.747  1.00  0.00     0.018 C 
HETATM   19  C26 UNL     1       1.016  -3.756 -27.173  1.00  0.00     0.040 C 
HETATM   20  C27 UNL     1       1.853  -2.849 -26.282  1.00  0.00     0.076 C 
HETATM   21  C28 UNL     1       3.262  -2.657 -26.593  1.00  0.00     0.029 C 
HETATM   22  C29 UNL     1       3.413  -1.287 -26.021  1.00  0.00     0.022 C 
HETATM   23  C30 UNL     1       3.885  -3.903 -26.156  1.00  0.00     0.142 C 
HETATM   24  O6  UNL     1       4.695  -4.642 -27.043  1.00  0.00    -0.379 OA
ENDROOT
BRANCH   1  25
HETATM   25  C7  UNL     1       5.168  -5.786 -29.029  1.00  0.00     0.011 C 
HETATM   26  C8  UNL     1       4.549  -6.547 -30.132  1.00  0.00     0.012 C 
BRANCH  25  27
HETATM   27  C6  UNL     1       6.058  -6.510 -28.089  1.00  0.00     0.014 C 
BRANCH  27  28
HETATM   28  C4  UNL     1       5.728  -7.916 -27.722  1.00  0.00     0.013 C 
BRANCH  28  29
HETATM   29  C3  UNL     1       6.910  -8.844 -28.142  1.00  0.00     0.033 C 
BRANCH  29  30
HETATM   30  C2  UNL     1       6.604  -9.576 -29.360  1.00  0.00    -0.036 C 
HETATM   31  C1  UNL     1       5.512 -10.340 -29.382  1.00  0.00     0.007 C 
ENDBRANCH  29  30
ENDBRANCH  28  29
BRANCH  28  32
HETATM   32  C5  UNL     1       5.651  -8.196 -26.230  1.00  0.00     0.168 C 
BRANCH  32  33
HETATM   33  O1  UNL     1       5.553  -6.960 -25.532  1.00  0.00    -0.400 OA
ATOM     34  H1  UNL     1       5.180  -7.120 -24.673  1.00  0.00     0.209 HD
ENDBRANCH  32  33
ENDBRANCH  28  32
ENDBRANCH  27  28
ENDBRANCH  25  27
ENDBRANCH   1  25
BRANCH  20  35
HETATM   35  O5  UNL     1       1.042  -1.689 -26.423  1.00  0.00    -0.388 OA
ATOM     36  H5  UNL     1       0.485  -1.549 -25.666  1.00  0.00     0.210 HD
ENDBRANCH  20  35
BRANCH  15  37
HETATM   37  O3  UNL     1      -0.660  -5.777 -24.801  1.00  0.00    -0.365 OA
ATOM     38  H3  UNL     1      -1.134  -6.388 -25.353  1.00  0.00     0.213 HD
ENDBRANCH  15  37
BRANCH  15  39
HETATM   39  O4  UNL     1      -2.712  -4.765 -25.159  1.00  0.00    -0.365 OA
ATOM     40  H4  UNL     1      -2.973  -5.678 -25.169  1.00  0.00     0.213 HD
ENDBRANCH  15  39
TORSDOF 10
ENDMDL
