MODEL 1
REMARK VINA RESULT: -5.874300133      0.000      0.000
REMARK  8 active torsions:
REMARK  status: ('A' for Active; 'I' for Inactive)
REMARK    1  A    between atoms: N1_2  and  C2_5 
REMARK    2  A    between atoms: C2_5  and  C3_6 
REMARK    3  A    between atoms: C3_6  and  C4_7 
REMARK    4  A    between atoms: C13_18  and  C14_19 
REMARK    5  A    between atoms: C14_19  and  C15_21 
REMARK    6  A    between atoms: C15_21  and  N2_22 
REMARK    7  A    between atoms: C18_30  and  C19_31 
REMARK    8  A    between atoms: C22_34  and  N4_35 
ROOT
HETATM    1  C4  UNL     1      20.659  -5.210  -5.398  1.00  0.00     0.122 C 
HETATM    2  C5  UNL     1      19.190  -5.009  -5.215  1.00  0.00     0.032 C 
HETATM    3  C6  UNL     1      18.641  -5.291  -3.872  1.00  0.00     0.008 C 
HETATM    4  C7  UNL     1      17.546  -4.283  -3.504  1.00  0.00     0.079 C 
HETATM    5  C8  UNL     1      16.231  -4.598  -4.150  1.00  0.00     0.243 C 
HETATM    6  F1  UNL     1      16.197  -5.741  -4.883  1.00  0.00    -0.206 F 
HETATM    7  F2  UNL     1      15.299  -4.748  -3.116  1.00  0.00    -0.206 F 
HETATM    8  C9  UNL     1      15.764  -3.440  -5.044  1.00  0.00     0.079 C 
HETATM    9  C10 UNL     1      14.678  -3.850  -5.989  1.00  0.00     0.006 C 
HETATM   10  C11 UNL     1      14.580  -3.009  -7.227  1.00  0.00     0.003 C 
HETATM   11  C12 UNL     1      15.340  -1.705  -7.102  1.00  0.00     0.033 C 
HETATM   12  C13 UNL     1      14.790  -0.612  -7.992  1.00  0.00     0.158 C 
HETATM   13  N3  UNL     1      15.618  -0.271  -9.122  1.00  0.00    -0.344 N 
HETATM   14  C16 UNL     1      14.973   0.737 -10.004  1.00  0.00     0.153 C 
HETATM   15  C17 UNL     1      16.883  -0.715  -9.477  1.00  0.00     0.226 C 
HETATM   16  O2  UNL     1      17.779   0.223  -9.515  1.00  0.00    -0.273 OA
HETATM   17  C18 UNL     1      17.419  -2.049  -9.823  1.00  0.00     0.103 C 
HETATM   18  C22 UNL     1      18.898  -2.144  -9.702  1.00  0.00     0.089 C 
HETATM   19  C24 UNL     1      19.308  -2.481  -8.263  1.00  0.00     0.028 C 
HETATM   20  C25 UNL     1      20.692  -3.029  -8.225  1.00  0.00     0.028 C 
HETATM   21  C26 UNL     1      21.059  -3.372  -6.794  1.00  0.00     0.168 C 
HETATM   22  O3  UNL     1      21.129  -4.710  -6.604  1.00  0.00    -0.386 OA
ENDROOT
BRANCH  12  23
HETATM   23  C14 UNL     1      14.489   0.508  -7.078  1.00  0.00     0.174 C 
HETATM   24  O1  UNL     1      15.452   1.107  -6.596  1.00  0.00    -0.294 OA
BRANCH  23  25
HETATM   25  C15 UNL     1      13.143   0.951  -6.715  1.00  0.00     0.309 C 
BRANCH  25  26
HETATM   26  N2  UNL     1      12.336  -0.157  -6.191  1.00  0.00    -0.073 N 
ATOM     27  H23 UNL     1      12.813  -1.052  -6.303  1.00  0.00     0.274 HD
ATOM     28  H22 UNL     1      12.286  -0.133  -5.172  1.00  0.00     0.274 HD
ATOM     29  H21 UNL     1      11.407  -0.173  -6.610  1.00  0.00     0.274 HD
ENDBRANCH  25  26
ENDBRANCH  23  25
ENDBRANCH  12  23
BRANCH  17  30
HETATM   30  C19 UNL     1      16.995  -2.552 -11.186  1.00  0.00    -0.008 C 
HETATM   31  C20 UNL     1      15.513  -2.887 -11.210  1.00  0.00     0.010 C 
HETATM   32  C21 UNL     1      17.730  -3.868 -11.442  1.00  0.00     0.010 C 
ENDBRANCH  17  30
BRANCH  18  33
HETATM   33  N4  UNL     1      19.722  -1.152 -10.241  1.00  0.00    -0.420 N 
HETATM   34  C23 UNL     1      20.428  -1.346 -11.440  1.00  0.00     0.140 C 
ATOM     35  H4  UNL     1      19.814  -0.262  -9.750  1.00  0.00     0.153 HD
ENDBRANCH  18  33
BRANCH   1  36
HETATM   36  C3  UNL     1      21.526  -4.974  -4.231  1.00  0.00     0.059 C 
BRANCH  36  37
HETATM   37  C2  UNL     1      22.656  -5.877  -3.975  1.00  0.00     0.234 C 
BRANCH  37  38
HETATM   38  N1  UNL     1      23.555  -5.842  -5.140  1.00  0.00    -0.079 N 
HETATM   39  C1  UNL     1      24.410  -4.697  -5.153  1.00  0.00     0.266 C 
ATOM     40  H12 UNL     1      23.027  -5.911  -6.010  1.00  0.00     0.276 HD
ATOM     41  H11 UNL     1      24.099  -6.702  -5.206  1.00  0.00     0.276 HD
ENDBRANCH  37  38
ENDBRANCH  36  37
ENDBRANCH   1  36
TORSDOF 8
ENDMDL
MODEL 2
REMARK VINA RESULT: -5.618282743      4.911     10.846
REMARK  8 active torsions:
REMARK  status: ('A' for Active; 'I' for Inactive)
REMARK    1  A    between atoms: N1_2  and  C2_5 
REMARK    2  A    between atoms: C2_5  and  C3_6 
REMARK    3  A    between atoms: C3_6  and  C4_7 
REMARK    4  A    between atoms: C13_18  and  C14_19 
REMARK    5  A    between atoms: C14_19  and  C15_21 
REMARK    6  A    between atoms: C15_21  and  N2_22 
REMARK    7  A    between atoms: C18_30  and  C19_31 
REMARK    8  A    between atoms: C22_34  and  N4_35 
ROOT
HETATM    1  C4  UNL     1      18.241  -5.339  -4.537  1.00  0.00     0.122 C 
HETATM    2  C5  UNL     1      19.637  -5.073  -4.997  1.00  0.00     0.032 C 
HETATM    3  C6  UNL     1      19.947  -3.692  -5.424  1.00  0.00     0.008 C 
HETATM    4  C7  UNL     1      21.359  -3.286  -4.988  1.00  0.00     0.079 C 
HETATM    5  C8  UNL     1      22.422  -3.843  -5.885  1.00  0.00     0.243 C 
HETATM    6  F1  UNL     1      21.976  -4.542  -6.960  1.00  0.00    -0.206 F 
HETATM    7  F2  UNL     1      23.146  -2.751  -6.379  1.00  0.00    -0.206 F 
HETATM    8  C9  UNL     1      23.393  -4.738  -5.100  1.00  0.00     0.079 C 
HETATM    9  C10 UNL     1      24.223  -5.604  -5.996  1.00  0.00     0.006 C 
HETATM   10  C11 UNL     1      24.736  -6.856  -5.348  1.00  0.00     0.003 C 
HETATM   11  C12 UNL     1      24.631  -6.812  -3.839  1.00  0.00     0.033 C 
HETATM   12  C13 UNL     1      25.646  -7.696  -3.149  1.00  0.00     0.158 C 
HETATM   13  N3  UNL     1      25.104  -8.883  -2.535  1.00  0.00    -0.344 N 
HETATM   14  C16 UNL     1      26.168  -9.751  -1.962  1.00  0.00     0.153 C 
HETATM   15  C17 UNL     1      23.791  -9.301  -2.390  1.00  0.00     0.226 C 
HETATM   16  O2  UNL     1      23.408  -9.418  -1.156  1.00  0.00    -0.273 OA
HETATM   17  C18 UNL     1      22.732  -9.643  -3.364  1.00  0.00     0.103 C 
HETATM   18  C22 UNL     1      21.362  -9.609  -2.789  1.00  0.00     0.089 C 
HETATM   19  C24 UNL     1      20.784  -8.189  -2.836  1.00  0.00     0.028 C 
HETATM   20  C25 UNL     1      19.301  -8.219  -2.713  1.00  0.00     0.028 C 
HETATM   21  C26 UNL     1      18.760  -6.805  -2.784  1.00  0.00     0.168 C 
HETATM   22  O3  UNL     1      18.094  -6.583  -3.942  1.00  0.00    -0.386 OA
ENDROOT
BRANCH  12  23
HETATM   23  C14 UNL     1      26.375  -6.795  -2.233  1.00  0.00     0.174 C 
HETATM   24  O1  UNL     1      25.746  -6.352  -1.271  1.00  0.00    -0.294 OA
BRANCH  23  25
HETATM   25  C15 UNL     1      27.776  -6.404  -2.386  1.00  0.00     0.309 C 
BRANCH  25  26
HETATM   26  N2  UNL     1      28.529  -6.608  -1.143  1.00  0.00    -0.073 N 
ATOM     27  H23 UNL     1      29.399  -6.075  -1.141  1.00  0.00     0.274 HD
ATOM     28  H22 UNL     1      28.069  -6.161  -0.350  1.00  0.00     0.274 HD
ATOM     29  H21 UNL     1      28.697  -7.598  -0.967  1.00  0.00     0.274 HD
ENDBRANCH  25  26
ENDBRANCH  23  25
ENDBRANCH  12  23
BRANCH  17  30
HETATM   30  C19 UNL     1      22.945 -10.964  -4.071  1.00  0.00    -0.008 C 
HETATM   31  C20 UNL     1      24.093 -10.876  -5.064  1.00  0.00     0.010 C 
HETATM   32  C21 UNL     1      21.693 -11.253  -4.899  1.00  0.00     0.010 C 
ENDBRANCH  17  30
BRANCH  18  33
HETATM   33  N4  UNL     1      21.088 -10.223  -1.563  1.00  0.00    -0.420 N 
HETATM   34  C23 UNL     1      20.242 -11.340  -1.467  1.00  0.00     0.140 C 
ATOM     35  H4  UNL     1      21.514  -9.849  -0.714  1.00  0.00     0.153 HD
ENDBRANCH  18  33
BRANCH   1  36
HETATM   36  C3  UNL     1      17.521  -4.233  -3.882  1.00  0.00     0.059 C 
BRANCH  36  37
HETATM   37  C2  UNL     1      16.083  -4.364  -3.616  1.00  0.00     0.234 C 
BRANCH  37  38
HETATM   38  N1  UNL     1      15.478  -5.155  -4.700  1.00  0.00    -0.079 N 
HETATM   39  C1  UNL     1      14.703  -4.366  -5.604  1.00  0.00     0.266 C 
ATOM     40  H12 UNL     1      14.925  -5.925  -4.323  1.00  0.00     0.276 HD
ATOM     41  H11 UNL     1      16.188  -5.690  -5.200  1.00  0.00     0.276 HD
ENDBRANCH  37  38
ENDBRANCH  36  37
ENDBRANCH   1  36
TORSDOF 8
ENDMDL
MODEL 3
REMARK VINA RESULT: -5.609580507      4.443      8.670
REMARK  8 active torsions:
REMARK  status: ('A' for Active; 'I' for Inactive)
REMARK    1  A    between atoms: N1_2  and  C2_5 
REMARK    2  A    between atoms: C2_5  and  C3_6 
REMARK    3  A    between atoms: C3_6  and  C4_7 
REMARK    4  A    between atoms: C13_18  and  C14_19 
REMARK    5  A    between atoms: C14_19  and  C15_21 
REMARK    6  A    between atoms: C15_21  and  N2_22 
REMARK    7  A    between atoms: C18_30  and  C19_31 
REMARK    8  A    between atoms: C22_34  and  N4_35 
ROOT
HETATM    1  C4  UNL     1      16.571  -5.497  -8.661  1.00  0.00     0.122 C 
HETATM    2  C5  UNL     1      16.805  -5.130  -7.232  1.00  0.00     0.032 C 
HETATM    3  C6  UNL     1      15.657  -4.568  -6.491  1.00  0.00     0.008 C 
HETATM    4  C7  UNL     1      15.636  -5.072  -5.043  1.00  0.00     0.079 C 
HETATM    5  C8  UNL     1      16.608  -4.345  -4.166  1.00  0.00     0.243 C 
HETATM    6  F1  UNL     1      17.285  -3.328  -4.757  1.00  0.00    -0.206 F 
HETATM    7  F2  UNL     1      15.866  -3.787  -3.118  1.00  0.00    -0.206 F 
HETATM    8  C9  UNL     1      17.632  -5.314  -3.556  1.00  0.00     0.079 C 
HETATM    9  C10 UNL     1      18.825  -4.605  -2.995  1.00  0.00     0.006 C 
HETATM   10  C11 UNL     1      20.068  -5.442  -2.924  1.00  0.00     0.003 C 
HETATM   11  C12 UNL     1      19.781  -6.920  -3.079  1.00  0.00     0.033 C 
HETATM   12  C13 UNL     1      20.822  -7.798  -2.419  1.00  0.00     0.158 C 
HETATM   13  N3  UNL     1      21.691  -8.502  -3.329  1.00  0.00    -0.344 N 
HETATM   14  C16 UNL     1      22.748  -9.265  -2.614  1.00  0.00     0.153 C 
HETATM   15  C17 UNL     1      21.671  -8.581  -4.712  1.00  0.00     0.226 C 
HETATM   16  O2  UNL     1      21.491  -9.782  -5.169  1.00  0.00    -0.273 OA
HETATM   17  C18 UNL     1      21.814  -7.567  -5.779  1.00  0.00     0.103 C 
HETATM   18  C22 UNL     1      21.288  -8.014  -7.097  1.00  0.00     0.089 C 
HETATM   19  C24 UNL     1      19.782  -7.745  -7.204  1.00  0.00     0.028 C 
HETATM   20  C25 UNL     1      19.348  -7.742  -8.628  1.00  0.00     0.028 C 
HETATM   21  C26 UNL     1      17.861  -7.453  -8.701  1.00  0.00     0.168 C 
HETATM   22  O3  UNL     1      17.616  -6.223  -9.213  1.00  0.00    -0.386 OA
ENDROOT
BRANCH  12  23
HETATM   23  C14 UNL     1      20.061  -8.657  -1.490  1.00  0.00     0.174 C 
HETATM   24  O1  UNL     1      19.883  -8.224  -0.351  1.00  0.00    -0.294 OA
BRANCH  23  25
HETATM   25  C15 UNL     1      19.508  -9.968  -1.829  1.00  0.00     0.309 C 
BRANCH  25  26
HETATM   26  N2  UNL     1      18.758 -10.541  -0.705  1.00  0.00    -0.073 N 
ATOM     27  H23 UNL     1      18.437  -9.817  -0.063  1.00  0.00     0.274 HD
ATOM     28  H22 UNL     1      17.851 -10.899  -1.005  1.00  0.00     0.274 HD
ATOM     29  H21 UNL     1      19.300 -11.257  -0.222  1.00  0.00     0.274 HD
ENDBRANCH  25  26
ENDBRANCH  23  25
ENDBRANCH  12  23
BRANCH  17  30
HETATM   30  C19 UNL     1      23.224  -7.047  -5.954  1.00  0.00    -0.008 C 
HETATM   31  C20 UNL     1      23.643  -6.192  -4.769  1.00  0.00     0.010 C 
HETATM   32  C21 UNL     1      23.227  -6.118  -7.167  1.00  0.00     0.010 C 
ENDBRANCH  17  30
BRANCH  18  33
HETATM   33  N4  UNL     1      21.611  -9.276  -7.602  1.00  0.00    -0.420 N 
HETATM   34  C23 UNL     1      22.565  -9.445  -8.619  1.00  0.00     0.140 C 
ATOM     35  H4  UNL     1      21.141 -10.098  -7.222  1.00  0.00     0.153 HD
ENDBRANCH  18  33
BRANCH   1  36
HETATM   36  C3  UNL     1      15.219  -5.948  -9.032  1.00  0.00     0.059 C 
BRANCH  36  37
HETATM   37  C2  UNL     1      14.861  -6.066 -10.452  1.00  0.00     0.234 C 
BRANCH  37  38
HETATM   38  N1  UNL     1      15.042  -7.467 -10.864  1.00  0.00    -0.079 N 
HETATM   39  C1  UNL     1      14.457  -8.400  -9.954  1.00  0.00     0.266 C 
ATOM     40  H12 UNL     1      16.029  -7.676 -11.015  1.00  0.00     0.276 HD
ATOM     41  H11 UNL     1      14.694  -7.615 -11.812  1.00  0.00     0.276 HD
ENDBRANCH  37  38
ENDBRANCH  36  37
ENDBRANCH   1  36
TORSDOF 8
ENDMDL
MODEL 4
REMARK VINA RESULT: -5.459357465      4.552     10.569
REMARK  8 active torsions:
REMARK  status: ('A' for Active; 'I' for Inactive)
REMARK    1  A    between atoms: N1_2  and  C2_5 
REMARK    2  A    between atoms: C2_5  and  C3_6 
REMARK    3  A    between atoms: C3_6  and  C4_7 
REMARK    4  A    between atoms: C13_18  and  C14_19 
REMARK    5  A    between atoms: C14_19  and  C15_21 
REMARK    6  A    between atoms: C15_21  and  N2_22 
REMARK    7  A    between atoms: C18_30  and  C19_31 
REMARK    8  A    between atoms: C22_34  and  N4_35 
ROOT
HETATM    1  C4  UNL     1      18.326  -4.699  -5.599  1.00  0.00     0.122 C 
HETATM    2  C5  UNL     1      19.772  -4.688  -5.972  1.00  0.00     0.032 C 
HETATM    3  C6  UNL     1      20.297  -3.442  -6.569  1.00  0.00     0.008 C 
HETATM    4  C7  UNL     1      21.721  -3.154  -6.078  1.00  0.00     0.079 C 
HETATM    5  C8  UNL     1      22.752  -3.975  -6.789  1.00  0.00     0.243 C 
HETATM    6  F1  UNL     1      22.285  -4.771  -7.785  1.00  0.00    -0.206 F 
HETATM    7  F2  UNL     1      23.651  -3.074  -7.374  1.00  0.00    -0.206 F 
HETATM    8  C9  UNL     1      23.537  -4.851  -5.801  1.00  0.00     0.079 C 
HETATM    9  C10 UNL     1      24.296  -5.945  -6.486  1.00  0.00     0.006 C 
HETATM   10  C11 UNL     1      24.588  -7.135  -5.621  1.00  0.00     0.003 C 
HETATM   11  C12 UNL     1      24.392  -6.842  -4.149  1.00  0.00     0.033 C 
HETATM   12  C13 UNL     1      25.228  -7.729  -3.252  1.00  0.00     0.158 C 
HETATM   13  N3  UNL     1      24.489  -8.726  -2.519  1.00  0.00    -0.344 N 
HETATM   14  C16 UNL     1      25.382  -9.622  -1.737  1.00  0.00     0.153 C 
HETATM   15  C17 UNL     1      23.123  -8.947  -2.428  1.00  0.00     0.226 C 
HETATM   16  O2  UNL     1      22.648  -8.820  -1.227  1.00  0.00    -0.273 OA
HETATM   17  C18 UNL     1      22.094  -9.300  -3.429  1.00  0.00     0.103 C 
HETATM   18  C22 UNL     1      20.706  -9.003  -2.984  1.00  0.00     0.089 C 
HETATM   19  C24 UNL     1      20.335  -7.546  -3.287  1.00  0.00     0.028 C 
HETATM   20  C25 UNL     1      18.857  -7.370  -3.288  1.00  0.00     0.028 C 
HETATM   21  C26 UNL     1      18.522  -5.927  -3.612  1.00  0.00     0.168 C 
HETATM   22  O3  UNL     1      17.970  -5.807  -4.843  1.00  0.00    -0.386 OA
ENDROOT
BRANCH  12  23
HETATM   23  C14 UNL     1      26.013  -6.795  -2.419  1.00  0.00     0.174 C 
HETATM   24  O1  UNL     1      25.384  -6.100  -1.620  1.00  0.00    -0.294 OA
BRANCH  23  25
HETATM   25  C15 UNL     1      27.468  -6.648  -2.475  1.00  0.00     0.309 C 
BRANCH  25  26
HETATM   26  N2  UNL     1      28.094  -7.026  -1.203  1.00  0.00    -0.073 N 
ATOM     27  H23 UNL     1      27.649  -6.559  -0.414  1.00  0.00     0.274 HD
ATOM     28  H22 UNL     1      27.881  -7.992  -0.955  1.00  0.00     0.274 HD
ATOM     29  H21 UNL     1      29.100  -6.858  -1.219  1.00  0.00     0.274 HD
ENDBRANCH  25  26
ENDBRANCH  23  25
ENDBRANCH  12  23
BRANCH  17  30
HETATM   30  C19 UNL     1      22.168 -10.732  -3.913  1.00  0.00    -0.008 C 
HETATM   31  C20 UNL     1      23.377 -10.946  -4.809  1.00  0.00     0.010 C 
HETATM   32  C21 UNL     1      20.942 -10.987  -4.791  1.00  0.00     0.010 C 
ENDBRANCH  17  30
BRANCH  18  33
HETATM   33  N4  UNL     1      20.271  -9.378  -1.709  1.00  0.00    -0.420 N 
HETATM   34  C23 UNL     1      19.409 -10.470  -1.512  1.00  0.00     0.140 C 
ATOM     35  H4  UNL     1      20.588  -8.844  -0.899  1.00  0.00     0.153 HD
ENDBRANCH  18  33
BRANCH   1  36
HETATM   36  C3  UNL     1      17.725  -3.423  -5.177  1.00  0.00     0.059 C 
BRANCH  36  37
HETATM   37  C2  UNL     1      16.278  -3.220  -5.329  1.00  0.00     0.234 C 
BRANCH  37  38
HETATM   38  N1  UNL     1      15.587  -3.967  -4.266  1.00  0.00    -0.079 N 
HETATM   39  C1  UNL     1      15.791  -3.410  -2.966  1.00  0.00     0.266 C 
ATOM     40  H12 UNL     1      15.850  -4.953  -4.285  1.00  0.00     0.276 HD
ATOM     41  H11 UNL     1      14.592  -4.056  -4.472  1.00  0.00     0.276 HD
ENDBRANCH  37  38
ENDBRANCH  36  37
ENDBRANCH   1  36
TORSDOF 8
ENDMDL
MODEL 5
REMARK VINA RESULT: -5.455234093      4.593     10.178
REMARK  8 active torsions:
REMARK  status: ('A' for Active; 'I' for Inactive)
REMARK    1  A    between atoms: N1_2  and  C2_5 
REMARK    2  A    between atoms: C2_5  and  C3_6 
REMARK    3  A    between atoms: C3_6  and  C4_7 
REMARK    4  A    between atoms: C13_18  and  C14_19 
REMARK    5  A    between atoms: C14_19  and  C15_21 
REMARK    6  A    between atoms: C15_21  and  N2_22 
REMARK    7  A    between atoms: C18_30  and  C19_31 
REMARK    8  A    between atoms: C22_34  and  N4_35 
ROOT
HETATM    1  C4  UNL     1      17.821  -5.261  -4.707  1.00  0.00     0.122 C 
HETATM    2  C5  UNL     1      19.092  -4.832  -5.365  1.00  0.00     0.032 C 
HETATM    3  C6  UNL     1      19.127  -3.463  -5.920  1.00  0.00     0.008 C 
HETATM    4  C7  UNL     1      20.501  -2.817  -5.702  1.00  0.00     0.079 C 
HETATM    5  C8  UNL     1      21.522  -3.286  -6.691  1.00  0.00     0.243 C 
HETATM    6  F1  UNL     1      21.066  -4.133  -7.650  1.00  0.00    -0.206 F 
HETATM    7  F2  UNL     1      22.001  -2.146  -7.349  1.00  0.00    -0.206 F 
HETATM    8  C9  UNL     1      22.709  -3.957  -5.984  1.00  0.00     0.079 C 
HETATM    9  C10 UNL     1      23.551  -4.764  -6.921  1.00  0.00     0.006 C 
HETATM   10  C11 UNL     1      24.329  -5.867  -6.265  1.00  0.00     0.003 C 
HETATM   11  C12 UNL     1      24.400  -5.709  -4.761  1.00  0.00     0.033 C 
HETATM   12  C13 UNL     1      25.618  -6.371  -4.153  1.00  0.00     0.158 C 
HETATM   13  N3  UNL     1      25.347  -7.567  -3.395  1.00  0.00    -0.344 N 
HETATM   14  C16 UNL     1      26.594  -8.216  -2.911  1.00  0.00     0.153 C 
HETATM   15  C17 UNL     1      24.142  -8.161  -3.051  1.00  0.00     0.226 C 
HETATM   16  O2  UNL     1      23.933  -8.226  -1.772  1.00  0.00    -0.273 OA
HETATM   17  C18 UNL     1      23.042  -8.738  -3.852  1.00  0.00     0.103 C 
HETATM   18  C22 UNL     1      21.762  -8.857  -3.105  1.00  0.00     0.089 C 
HETATM   19  C24 UNL     1      20.967  -7.547  -3.170  1.00  0.00     0.028 C 
HETATM   20  C25 UNL     1      19.533  -7.785  -2.851  1.00  0.00     0.028 C 
HETATM   21  C26 UNL     1      18.770  -6.478  -2.944  1.00  0.00     0.168 C 
HETATM   22  O3  UNL     1      17.944  -6.458  -4.017  1.00  0.00    -0.386 OA
ENDROOT
BRANCH  12  23
HETATM   23  C14 UNL     1      26.300  -5.297  -3.403  1.00  0.00     0.174 C 
HETATM   24  O1  UNL     1      25.709  -4.841  -2.423  1.00  0.00    -0.294 OA
BRANCH  23  25
HETATM   25  C15 UNL     1      27.615  -4.750  -3.739  1.00  0.00     0.309 C 
BRANCH  25  26
HETATM   26  N2  UNL     1      27.568  -3.290  -3.883  1.00  0.00    -0.073 N 
ATOM     27  H23 UNL     1      26.659  -2.917  -3.611  1.00  0.00     0.274 HD
ATOM     28  H22 UNL     1      28.145  -2.827  -3.180  1.00  0.00     0.274 HD
ATOM     29  H21 UNL     1      27.824  -3.000  -4.827  1.00  0.00     0.274 HD
ENDBRANCH  25  26
ENDBRANCH  23  25
ENDBRANCH  12  23
BRANCH  17  30
HETATM   30  C19 UNL     1      23.373 -10.069  -4.491  1.00  0.00    -0.008 C 
HETATM   31  C20 UNL     1      24.371  -9.899  -5.625  1.00  0.00     0.010 C 
HETATM   32  C21 UNL     1      22.094 -10.605  -5.133  1.00  0.00     0.010 C 
ENDBRANCH  17  30
BRANCH  18  33
HETATM   33  N4  UNL     1      21.737  -9.397  -1.815  1.00  0.00    -0.420 N 
HETATM   34  C23 UNL     1      21.222 -10.678  -1.559  1.00  0.00     0.140 C 
ATOM     35  H4  UNL     1      22.104  -8.845  -1.039  1.00  0.00     0.153 HD
ENDBRANCH  18  33
BRANCH   1  36
HETATM   36  C3  UNL     1      17.020  -4.221  -4.039  1.00  0.00     0.059 C 
BRANCH  36  37
HETATM   37  C2  UNL     1      15.614  -4.490  -3.714  1.00  0.00     0.234 C 
BRANCH  37  38
HETATM   38  N1  UNL     1      14.971  -5.099  -4.890  1.00  0.00    -0.079 N 
HETATM   39  C1  UNL     1      14.566  -4.138  -5.867  1.00  0.00     0.266 C 
ATOM     40  H12 UNL     1      14.185  -5.687  -4.611  1.00  0.00     0.276 HD
ATOM     41  H11 UNL     1      15.572  -5.810  -5.306  1.00  0.00     0.276 HD
ENDBRANCH  37  38
ENDBRANCH  36  37
ENDBRANCH   1  36
TORSDOF 8
ENDMDL
