MODEL 1
REMARK VINA RESULT: -6.271270846      0.000      0.000
REMARK  8 active torsions:
REMARK  status: ('A' for Active; 'I' for Inactive)
REMARK    1  A    between atoms: N1_1  and  C1_4 
REMARK    2  A    between atoms: C2_5  and  N2_6 
REMARK    3  A    between atoms: C3_9  and  C4_10 
REMARK    4  A    between atoms: N3_11  and  N4_13 
REMARK    5  A    between atoms: N4_13  and  C5_15 
REMARK    6  A    between atoms: C6_18  and  O3_19 
REMARK    7  A    between atoms: C6_18  and  C7_21 
REMARK    8  A    between atoms: N8_29  and  N9_30 
ROOT
HETATM    1  C1  UNL     1      23.415   6.860   0.821  1.00  0.00     0.156 A 
HETATM    2  C2  UNL     1      23.350   8.067   0.128  1.00  0.00     0.159 A 
HETATM    3  C3  UNL     1      24.484   8.821  -0.072  1.00  0.00     0.021 A 
HETATM    4  C9  UNL     1      25.670   8.314   0.451  1.00  0.00     0.062 A 
HETATM    5  C10 UNL     1      25.737   7.123   1.135  1.00  0.00     0.140 A 
HETATM    6  N7  UNL     1      26.948   6.617   1.664  1.00  0.00    -0.081 NA
HETATM    7  N8  UNL     1      24.607   6.417   1.308  1.00  0.00    -0.230 N 
ENDROOT
BRANCH   3   8
HETATM    8  C4  UNL     1      24.444  10.077  -0.798  1.00  0.00     0.121 C 
HETATM    9  N3  UNL     1      23.979  11.164  -0.282  1.00  0.00    -0.310 N 
ATOM     10  H3  UNL     1      23.625  11.133   0.674  1.00  0.00     0.186 HD
BRANCH   9  11
HETATM   11  N4  UNL     1      23.934  12.371  -0.960  1.00  0.00    -0.289 N 
ATOM     12  H4  UNL     1      24.627  12.567  -1.683  1.00  0.00     0.188 HD
BRANCH  11  13
HETATM   13  C5  UNL     1      22.907  13.373  -0.654  1.00  0.00     0.104 C 
HETATM   14  N5  UNL     1      22.245  13.330   0.389  1.00  0.00    -0.330 N 
HETATM   15  C6  UNL     1      21.265  14.289   0.679  1.00  0.00     0.266 C 
ATOM     16  H5  UNL     1      22.417  12.577   1.055  1.00  0.00     0.165 HD
HETATM   17  S1  UNL     1      21.156  15.198  -0.902  1.00  0.00    -0.092 SA
HETATM   18  C8  UNL     1      22.653  14.469  -1.610  1.00  0.00     0.157 C 
BRANCH  15  19
HETATM   19  O3  UNL     1      21.750  15.173   1.624  1.00  0.00    -0.355 OA
ATOM     20  H3  UNL     1      21.069  15.794   1.857  1.00  0.00     0.214 HD
ENDBRANCH  15  19
BRANCH  15  21
HETATM   21  C7  UNL     1      19.945  13.763   1.086  1.00  0.00     0.298 C 
HETATM   22  N6  UNL     1      18.708  14.137   0.524  1.00  0.00    -0.057 NA
HETATM   23  O4  UNL     1      19.910  12.907   2.013  1.00  0.00    -0.270 OA
ENDBRANCH  15  21
ENDBRANCH  11  13
ENDBRANCH   9  11
ENDBRANCH   3   8
BRANCH   2  24
HETATM   24  N2  UNL     1      22.083   8.501  -0.365  1.00  0.00    -0.111 N 
HETATM   25  O1  UNL     1      21.426   9.314   0.322  1.00  0.00    -0.532 OA
HETATM   26  O2  UNL     1      21.626   8.023  -1.568  1.00  0.00    -0.532 OA
ENDBRANCH   2  24
BRANCH   1  27
HETATM   27  N1  UNL     1      22.327   6.182   0.987  1.00  0.00    -0.382 N 
ATOM     28  H12 UNL     1      21.999   5.523   0.281  1.00  0.00     0.157 HD
ATOM     29  H11 UNL     1      21.792   6.318   1.845  1.00  0.00     0.157 HD
ENDBRANCH   1  27
BRANCH   7  30
HETATM   30  N9  UNL     1      24.629   5.209   1.994  1.00  0.00    -0.336 N 
ATOM     31  H92 UNL     1      25.485   4.656   2.042  1.00  0.00     0.177 HD
ATOM     32  H91 UNL     1      23.770   4.894   2.443  1.00  0.00     0.177 HD
ENDBRANCH   7  30
TORSDOF 8
ENDMDL
MODEL 2
REMARK VINA RESULT: -6.202292155      4.067      5.881
REMARK  8 active torsions:
REMARK  status: ('A' for Active; 'I' for Inactive)
REMARK    1  A    between atoms: N1_1  and  C1_4 
REMARK    2  A    between atoms: C2_5  and  N2_6 
REMARK    3  A    between atoms: C3_9  and  C4_10 
REMARK    4  A    between atoms: N3_11  and  N4_13 
REMARK    5  A    between atoms: N4_13  and  C5_15 
REMARK    6  A    between atoms: C6_18  and  O3_19 
REMARK    7  A    between atoms: C6_18  and  C7_21 
REMARK    8  A    between atoms: N8_29  and  N9_30 
ROOT
HETATM    1  C1  UNL     1      18.753   4.922  -2.919  1.00  0.00     0.156 A 
HETATM    2  C2  UNL     1      19.861   5.578  -2.385  1.00  0.00     0.159 A 
HETATM    3  C3  UNL     1      20.548   5.037  -1.323  1.00  0.00     0.021 A 
HETATM    4  C9  UNL     1      20.078   3.825  -0.827  1.00  0.00     0.062 A 
HETATM    5  C10 UNL     1      18.985   3.176  -1.352  1.00  0.00     0.140 A 
HETATM    6  N7  UNL     1      18.514   1.944  -0.839  1.00  0.00    -0.081 NA
HETATM    7  N8  UNL     1      18.342   3.736  -2.389  1.00  0.00    -0.230 N 
ENDROOT
BRANCH   3   8
HETATM    8  C4  UNL     1      21.710   5.697  -0.754  1.00  0.00     0.121 C 
HETATM    9  N3  UNL     1      21.764   6.068   0.480  1.00  0.00    -0.310 N 
ATOM     10  H3  UNL     1      20.955   5.890   1.075  1.00  0.00     0.186 HD
BRANCH   9  11
HETATM   11  N4  UNL     1      22.864   6.697   1.039  1.00  0.00    -0.289 N 
ATOM     12  H4  UNL     1      23.448   6.191   1.705  1.00  0.00     0.188 HD
BRANCH  11  13
HETATM   13  C5  UNL     1      23.204   8.080   0.688  1.00  0.00     0.104 C 
HETATM   14  N5  UNL     1      22.513   9.035   1.057  1.00  0.00    -0.330 N 
HETATM   15  C6  UNL     1      22.841  10.356   0.720  1.00  0.00     0.266 C 
ATOM     16  H5  UNL     1      21.682   8.858   1.622  1.00  0.00     0.165 HD
HETATM   17  S1  UNL     1      24.184  10.107  -0.492  1.00  0.00    -0.092 SA
HETATM   18  C8  UNL     1      24.406   8.349  -0.127  1.00  0.00     0.157 C 
BRANCH  15  19
HETATM   19  O3  UNL     1      23.394  10.988   1.817  1.00  0.00    -0.355 OA
ATOM     20  H3  UNL     1      24.327  11.106   1.679  1.00  0.00     0.214 HD
ENDBRANCH  15  19
BRANCH  15  21
HETATM   21  C7  UNL     1      21.747  11.168   0.147  1.00  0.00     0.298 C 
HETATM   22  N6  UNL     1      21.117  12.256   0.784  1.00  0.00    -0.057 NA
HETATM   23  O4  UNL     1      21.331  10.871  -1.007  1.00  0.00    -0.270 OA
ENDBRANCH  15  21
ENDBRANCH  11  13
ENDBRANCH   9  11
ENDBRANCH   3   8
BRANCH   2  24
HETATM   24  N2  UNL     1      20.260   6.819  -2.963  1.00  0.00    -0.111 N 
HETATM   25  O1  UNL     1      19.887   7.879  -2.412  1.00  0.00    -0.532 OA
HETATM   26  O2  UNL     1      21.037   6.819  -4.095  1.00  0.00    -0.532 OA
ENDBRANCH   2  24
BRANCH   1  27
HETATM   27  N1  UNL     1      18.135   5.464  -3.917  1.00  0.00    -0.382 N 
ATOM     28  H12 UNL     1      18.643   5.946  -4.657  1.00  0.00     0.157 HD
ATOM     29  H11 UNL     1      17.117   5.401  -3.954  1.00  0.00     0.157 HD
ENDBRANCH   1  27
BRANCH   7  30
HETATM   30  N9  UNL     1      17.233   3.115  -2.950  1.00  0.00    -0.336 N 
ATOM     31  H92 UNL     1      16.576   3.646  -3.521  1.00  0.00     0.177 HD
ATOM     32  H91 UNL     1      17.099   2.119  -2.776  1.00  0.00     0.177 HD
ENDBRANCH   7  30
TORSDOF 8
ENDMDL
MODEL 3
REMARK VINA RESULT: -6.183818891      4.218      6.721
REMARK  8 active torsions:
REMARK  status: ('A' for Active; 'I' for Inactive)
REMARK    1  A    between atoms: N1_1  and  C1_4 
REMARK    2  A    between atoms: C2_5  and  N2_6 
REMARK    3  A    between atoms: C3_9  and  C4_10 
REMARK    4  A    between atoms: N3_11  and  N4_13 
REMARK    5  A    between atoms: N4_13  and  C5_15 
REMARK    6  A    between atoms: C6_18  and  O3_19 
REMARK    7  A    between atoms: C6_18  and  C7_21 
REMARK    8  A    between atoms: N8_29  and  N9_30 
ROOT
HETATM    1  C1  UNL     1      22.274  12.416  -0.162  1.00  0.00     0.156 A 
HETATM    2  C2  UNL     1      21.137  13.221  -0.125  1.00  0.00     0.159 A 
HETATM    3  C3  UNL     1      20.571  13.686  -1.290  1.00  0.00     0.021 A 
HETATM    4  C9  UNL     1      21.193  13.313  -2.478  1.00  0.00     0.062 A 
HETATM    5  C10 UNL     1      22.315  12.519  -2.518  1.00  0.00     0.140 A 
HETATM    6  N7  UNL     1      22.940  12.147  -3.731  1.00  0.00    -0.081 NA
HETATM    7  N8  UNL     1      22.836  12.085  -1.358  1.00  0.00    -0.230 N 
ENDROOT
BRANCH   3   8
HETATM    8  C4  UNL     1      19.382  14.519  -1.278  1.00  0.00     0.121 C 
HETATM    9  N3  UNL     1      18.229  14.091  -1.668  1.00  0.00    -0.310 N 
ATOM     10  H3  UNL     1      18.157  13.129  -1.998  1.00  0.00     0.186 HD
BRANCH   9  11
HETATM   11  N4  UNL     1      17.085  14.871  -1.662  1.00  0.00    -0.289 N 
ATOM     12  H4  UNL     1      16.220  14.492  -1.275  1.00  0.00     0.188 HD
BRANCH  11  13
HETATM   13  C5  UNL     1      17.096  16.235  -2.203  1.00  0.00     0.104 C 
HETATM   14  N5  UNL     1      17.051  17.228  -1.468  1.00  0.00    -0.330 N 
HETATM   15  C6  UNL     1      17.062  18.530  -1.988  1.00  0.00     0.266 C 
ATOM     16  H5  UNL     1      17.003  17.096  -0.458  1.00  0.00     0.165 HD
HETATM   17  S1  UNL     1      16.863  18.217  -3.776  1.00  0.00    -0.092 SA
HETATM   18  C8  UNL     1      17.168  16.437  -3.664  1.00  0.00     0.157 C 
BRANCH  15  19
HETATM   19  O3  UNL     1      18.314  19.086  -1.809  1.00  0.00    -0.355 OA
ATOM     20  H3  UNL     1      18.379  19.446  -0.932  1.00  0.00     0.214 HD
ENDBRANCH  15  19
BRANCH  15  21
HETATM   21  C7  UNL     1      16.011  19.437  -1.483  1.00  0.00     0.298 C 
HETATM   22  N6  UNL     1      15.646  19.592  -0.130  1.00  0.00    -0.057 NA
HETATM   23  O4  UNL     1      15.379  20.137  -2.322  1.00  0.00    -0.270 OA
ENDBRANCH  15  21
ENDBRANCH  11  13
ENDBRANCH   9  11
ENDBRANCH   3   8
BRANCH   2  24
HETATM   24  N2  UNL     1      20.578  13.550   1.146  1.00  0.00    -0.111 N 
HETATM   25  O1  UNL     1      20.869  14.656   1.654  1.00  0.00    -0.532 OA
HETATM   26  O2  UNL     1      19.743  12.656   1.769  1.00  0.00    -0.532 OA
ENDBRANCH   2  24
BRANCH   1  27
HETATM   27  N1  UNL     1      22.774  12.000   0.954  1.00  0.00    -0.382 N 
ATOM     28  H12 UNL     1      22.491  12.404   1.847  1.00  0.00     0.157 HD
ATOM     29  H11 UNL     1      23.467  11.251   0.931  1.00  0.00     0.157 HD
ENDBRANCH   1  27
BRANCH   7  30
HETATM   30  N9  UNL     1      23.969  11.281  -1.352  1.00  0.00    -0.336 N 
ATOM     31  H92 UNL     1      24.751  11.493  -0.732  1.00  0.00     0.177 HD
ATOM     32  H91 UNL     1      23.994  10.479  -1.981  1.00  0.00     0.177 HD
ENDBRANCH   7  30
TORSDOF 8
ENDMDL
MODEL 4
REMARK VINA RESULT: -6.081081274      2.343      3.028
REMARK  8 active torsions:
REMARK  status: ('A' for Active; 'I' for Inactive)
REMARK    1  A    between atoms: N1_1  and  C1_4 
REMARK    2  A    between atoms: C2_5  and  N2_6 
REMARK    3  A    between atoms: C3_9  and  C4_10 
REMARK    4  A    between atoms: N3_11  and  N4_13 
REMARK    5  A    between atoms: N4_13  and  C5_15 
REMARK    6  A    between atoms: C6_18  and  O3_19 
REMARK    7  A    between atoms: C6_18  and  C7_21 
REMARK    8  A    between atoms: N8_29  and  N9_30 
ROOT
HETATM    1  C1  UNL     1      20.509   6.622  -1.923  1.00  0.00     0.156 A 
HETATM    2  C2  UNL     1      21.009   7.881  -1.596  1.00  0.00     0.159 A 
HETATM    3  C3  UNL     1      21.667   8.084  -0.404  1.00  0.00     0.021 A 
HETATM    4  C9  UNL     1      21.797   6.980   0.433  1.00  0.00     0.062 A 
HETATM    5  C10 UNL     1      21.304   5.736   0.113  1.00  0.00     0.140 A 
HETATM    6  N7  UNL     1      21.441   4.621   0.972  1.00  0.00    -0.081 NA
HETATM    7  N8  UNL     1      20.669   5.579  -1.060  1.00  0.00    -0.230 N 
ENDROOT
BRANCH   3   8
HETATM    8  C4  UNL     1      22.204   9.384  -0.045  1.00  0.00     0.121 C 
HETATM    9  N3  UNL     1      23.103   9.985  -0.748  1.00  0.00    -0.310 N 
ATOM     10  H3  UNL     1      23.447   9.522  -1.590  1.00  0.00     0.186 HD
BRANCH   9  11
HETATM   11  N4  UNL     1      23.625  11.225  -0.420  1.00  0.00    -0.289 N 
ATOM     12  H4  UNL     1      24.610  11.305  -0.168  1.00  0.00     0.188 HD
BRANCH  11  13
HETATM   13  C5  UNL     1      22.782  12.426  -0.431  1.00  0.00     0.104 C 
HETATM   14  N5  UNL     1      22.161  12.795   0.572  1.00  0.00    -0.330 N 
HETATM   15  C6  UNL     1      21.357  13.944   0.559  1.00  0.00     0.266 C 
ATOM     16  H5  UNL     1      22.235  12.250   1.430  1.00  0.00     0.165 HD
HETATM   17  S1  UNL     1      21.336  14.361  -1.219  1.00  0.00    -0.092 SA
HETATM   18  C8  UNL     1      22.670  13.225  -1.668  1.00  0.00     0.157 C 
BRANCH  15  19
HETATM   19  O3  UNL     1      22.012  14.972   1.211  1.00  0.00    -0.355 OA
ATOM     20  H3  UNL     1      21.809  14.939   2.139  1.00  0.00     0.214 HD
ENDBRANCH  15  19
BRANCH  15  21
HETATM   21  C7  UNL     1      19.987  13.780   1.087  1.00  0.00     0.298 C 
HETATM   22  N6  UNL     1      18.859  14.519   0.676  1.00  0.00    -0.057 NA
HETATM   23  O4  UNL     1      19.797  12.911   1.982  1.00  0.00    -0.270 OA
ENDBRANCH  15  21
ENDBRANCH  11  13
ENDBRANCH   9  11
ENDBRANCH   3   8
BRANCH   2  24
HETATM   24  N2  UNL     1      20.820   8.949  -2.522  1.00  0.00    -0.111 N 
HETATM   25  O1  UNL     1      19.800   9.665  -2.403  1.00  0.00    -0.532 OA
HETATM   26  O2  UNL     1      21.752   9.163  -3.507  1.00  0.00    -0.532 OA
ENDBRANCH   2  24
BRANCH   1  27
HETATM   27  N1  UNL     1      19.897   6.473  -3.052  1.00  0.00    -0.382 N 
ATOM     28  H12 UNL     1      20.354   6.693  -3.936  1.00  0.00     0.157 HD
ATOM     29  H11 UNL     1      18.937   6.127  -3.046  1.00  0.00     0.157 HD
ENDBRANCH   1  27
BRANCH   7  30
HETATM   30  N9  UNL     1      20.156   4.341  -1.424  1.00  0.00    -0.336 N 
ATOM     31  H92 UNL     1      19.831   4.174  -2.376  1.00  0.00     0.177 HD
ATOM     32  H91 UNL     1      20.115   3.609  -0.715  1.00  0.00     0.177 HD
ENDBRANCH   7  30
TORSDOF 8
ENDMDL
MODEL 5
REMARK VINA RESULT: -6.062824450      1.127      1.355
REMARK  8 active torsions:
REMARK  status: ('A' for Active; 'I' for Inactive)
REMARK    1  A    between atoms: N1_1  and  C1_4 
REMARK    2  A    between atoms: C2_5  and  N2_6 
REMARK    3  A    between atoms: C3_9  and  C4_10 
REMARK    4  A    between atoms: N3_11  and  N4_13 
REMARK    5  A    between atoms: N4_13  and  C5_15 
REMARK    6  A    between atoms: C6_18  and  O3_19 
REMARK    7  A    between atoms: C6_18  and  C7_21 
REMARK    8  A    between atoms: N8_29  and  N9_30 
ROOT
HETATM    1  C1  UNL     1      22.331   6.312  -0.341  1.00  0.00     0.156 A 
HETATM    2  C2  UNL     1      22.449   7.576  -0.918  1.00  0.00     0.159 A 
HETATM    3  C3  UNL     1      23.320   8.505  -0.397  1.00  0.00     0.021 A 
HETATM    4  C9  UNL     1      24.058   8.113   0.716  1.00  0.00     0.062 A 
HETATM    5  C10 UNL     1      23.944   6.867   1.288  1.00  0.00     0.140 A 
HETATM    6  N7  UNL     1      24.699   6.480   2.420  1.00  0.00    -0.081 NA
HETATM    7  N8  UNL     1      23.083   5.989   0.749  1.00  0.00    -0.230 N 
ENDROOT
BRANCH   3   8
HETATM    8  C4  UNL     1      23.465   9.824  -0.986  1.00  0.00     0.121 C 
HETATM    9  N3  UNL     1      23.761  10.868  -0.288  1.00  0.00    -0.310 N 
ATOM     10  H3  UNL     1      23.895  10.756   0.717  1.00  0.00     0.186 HD
BRANCH   9  11
HETATM   11  N4  UNL     1      23.905  12.133  -0.833  1.00  0.00    -0.289 N 
ATOM     12  H4  UNL     1      24.726  12.345  -1.401  1.00  0.00     0.188 HD
BRANCH  11  13
HETATM   13  C5  UNL     1      22.895  13.173  -0.607  1.00  0.00     0.104 C 
HETATM   14  N5  UNL     1      22.230  13.221   0.433  1.00  0.00    -0.330 N 
HETATM   15  C6  UNL     1      21.266  14.216   0.646  1.00  0.00     0.266 C 
ATOM     16  H5  UNL     1      22.386  12.518   1.155  1.00  0.00     0.165 HD
HETATM   17  S1  UNL     1      21.177  15.004  -0.999  1.00  0.00    -0.092 SA
HETATM   18  C8  UNL     1      22.663  14.198  -1.645  1.00  0.00     0.157 C 
BRANCH  15  19
HETATM   19  O3  UNL     1      21.764  15.160   1.523  1.00  0.00    -0.355 OA
ATOM     20  H3  UNL     1      21.045  15.659   1.895  1.00  0.00     0.214 HD
ENDBRANCH  15  19
BRANCH  15  21
HETATM   21  C7  UNL     1      19.936  13.745   1.086  1.00  0.00     0.298 C 
HETATM   22  N6  UNL     1      18.702  14.163   0.548  1.00  0.00    -0.057 NA
HETATM   23  O4  UNL     1      19.887  12.900   2.022  1.00  0.00    -0.270 OA
ENDBRANCH  15  21
ENDBRANCH  11  13
ENDBRANCH   9  11
ENDBRANCH   3   8
BRANCH   2  24
HETATM   24  N2  UNL     1      21.643   7.880  -2.056  1.00  0.00    -0.111 N 
HETATM   25  O1  UNL     1      20.512   8.380  -1.866  1.00  0.00    -0.532 OA
HETATM   26  O2  UNL     1      22.127   7.623  -3.315  1.00  0.00    -0.532 OA
ENDBRANCH   2  24
BRANCH   1  27
HETATM   27  N1  UNL     1      21.502   5.469  -0.861  1.00  0.00    -0.382 N 
ATOM     28  H12 UNL     1      21.242   4.611  -0.374  1.00  0.00     0.157 HD
ATOM     29  H11 UNL     1      21.105   5.675  -1.778  1.00  0.00     0.157 HD
ENDBRANCH   1  27
BRANCH   7  30
HETATM   30  N9  UNL     1      22.937   4.720   1.294  1.00  0.00    -0.336 N 
ATOM     31  H92 UNL     1      22.105   4.480   1.832  1.00  0.00     0.177 HD
ATOM     32  H91 UNL     1      23.682   4.041   1.140  1.00  0.00     0.177 HD
ENDBRANCH   7  30
TORSDOF 8
ENDMDL
