MODEL 1
REMARK VINA RESULT: -7.530511885      0.000      0.000
REMARK  11 active torsions:
REMARK  status: ('A' for Active; 'I' for Inactive)
REMARK    1  A    between atoms: C6_6  and  S1_7 
REMARK    2  A    between atoms: S1_7  and  N1_10 
REMARK    3  A    between atoms: N1_10  and  C7_12 
REMARK    4  A    between atoms: C7_12  and  C8_13 
REMARK    5  A    between atoms: C8_13  and  O3_14 
REMARK    6  A    between atoms: O3_14  and  C9_15 
REMARK    7  A    between atoms: C9_15  and  C10_16 
REMARK    8  A    between atoms: C10_16  and  N2_17 
REMARK    9  A    between atoms: N2_17  and  C11_19 
REMARK   10  A    between atoms: C11_19  and  C12_21 
REMARK   11  A    between atoms: C15_24  and  C16_25 
ROOT
HETATM    1  C9  UNL     1      13.061 -69.472 -22.071  1.00  0.00     0.187 C 
ENDROOT
BRANCH   1   2
HETATM    2  O3  UNL     1      11.885 -70.011 -22.693  1.00  0.00    -0.388 OA
BRANCH   2   3
HETATM    3  C8  UNL     1      12.017 -71.416 -22.625  1.00  0.00     0.188 C 
BRANCH   3   4
HETATM    4  C7  UNL     1      13.218 -71.874 -21.888  1.00  0.00     0.158 C 
BRANCH   4   5
HETATM    5  N1  UNL     1      13.843 -72.961 -22.670  1.00  0.00    -0.313 N 
ATOM      6  H1  UNL     1      13.794 -73.089 -23.681  1.00  0.00     0.172 HD
BRANCH   5   7
HETATM    7  S1  UNL     1      14.656 -73.948 -21.567  1.00  0.00     0.258 S 
HETATM    8  O1  UNL     1      13.806 -73.963 -20.281  1.00  0.00    -0.201 OA
HETATM    9  O2  UNL     1      14.780 -75.379 -22.060  1.00  0.00    -0.201 OA
BRANCH   7  10
HETATM   10  C6  UNL     1      16.225 -73.429 -21.080  1.00  0.00     0.080 A 
HETATM   11  C5  UNL     1      16.521 -72.318 -20.337  1.00  0.00     0.025 A 
HETATM   12  C4  UNL     1      17.823 -71.983 -20.013  1.00  0.00     0.002 A 
HETATM   13  C3  UNL     1      18.907 -72.766 -20.433  1.00  0.00     0.007 A 
HETATM   14  C2  UNL     1      18.619 -73.883 -21.179  1.00  0.00    -0.060 A 
HETATM   15  C1  UNL     1      19.783 -74.716 -21.651  1.00  0.00     0.048 C 
HETATM   16  C22 UNL     1      17.338 -74.195 -21.486  1.00  0.00     0.032 A 
ENDBRANCH   7  10
ENDBRANCH   5   7
ENDBRANCH   4   5
ENDBRANCH   3   4
ENDBRANCH   2   3
ENDBRANCH   1   2
BRANCH   1  17
HETATM   17  C10 UNL     1      13.491 -68.188 -22.682  1.00  0.00     0.146 C 
BRANCH  17  18
HETATM   18  N2  UNL     1      14.901 -67.981 -22.600  1.00  0.00    -0.378 N 
ATOM     19  H2  UNL     1      15.170 -67.056 -22.936  1.00  0.00     0.160 HD
BRANCH  18  20
HETATM   20  C11 UNL     1      15.976 -68.702 -22.187  1.00  0.00     0.106 C 
HETATM   21  S2  UNL     1      16.528 -68.404 -20.621  1.00  0.00    -0.060 SA
BRANCH  20  22
HETATM   22  C12 UNL     1      16.743 -69.702 -22.857  1.00  0.00     0.002 A 
HETATM   23  C13 UNL     1      18.151 -69.474 -22.818  1.00  0.00     0.015 A 
HETATM   24  C14 UNL     1      19.017 -70.308 -23.460  1.00  0.00     0.009 A 
HETATM   25  C15 UNL     1      18.555 -71.396 -24.165  1.00  0.00    -0.051 A 
HETATM   26  C20 UNL     1      17.221 -71.658 -24.230  1.00  0.00     0.009 A 
HETATM   27  C21 UNL     1      16.347 -70.785 -23.560  1.00  0.00     0.015 A 
BRANCH  25  28
HETATM   28  C16 UNL     1      19.568 -72.213 -24.858  1.00  0.00    -0.024 C 
HETATM   29  C17 UNL     1      19.868 -71.730 -26.228  1.00  0.00     0.019 C 
HETATM   30  C18 UNL     1      20.836 -72.119 -24.033  1.00  0.00     0.019 C 
HETATM   31  C19 UNL     1      19.128 -73.676 -24.917  1.00  0.00     0.019 C 
ENDBRANCH  25  28
ENDBRANCH  20  22
ENDBRANCH  18  20
ENDBRANCH  17  18
ENDBRANCH   1  17
TORSDOF 11
ENDMDL
MODEL 2
REMARK VINA RESULT: -7.497779911      3.060      5.557
REMARK  11 active torsions:
REMARK  status: ('A' for Active; 'I' for Inactive)
REMARK    1  A    between atoms: C6_6  and  S1_7 
REMARK    2  A    between atoms: S1_7  and  N1_10 
REMARK    3  A    between atoms: N1_10  and  C7_12 
REMARK    4  A    between atoms: C7_12  and  C8_13 
REMARK    5  A    between atoms: C8_13  and  O3_14 
REMARK    6  A    between atoms: O3_14  and  C9_15 
REMARK    7  A    between atoms: C9_15  and  C10_16 
REMARK    8  A    between atoms: C10_16  and  N2_17 
REMARK    9  A    between atoms: N2_17  and  C11_19 
REMARK   10  A    between atoms: C11_19  and  C12_21 
REMARK   11  A    between atoms: C15_24  and  C16_25 
ROOT
HETATM    1  C9  UNL     1       8.642 -70.913 -24.476  1.00  0.00     0.187 C 
ENDROOT
BRANCH   1   2
HETATM    2  O3  UNL     1       8.836 -69.493 -24.390  1.00  0.00    -0.388 OA
BRANCH   2   3
HETATM    3  C8  UNL     1       9.669 -69.146 -25.477  1.00  0.00     0.188 C 
BRANCH   3   4
HETATM    4  C7  UNL     1      11.117 -69.301 -25.200  1.00  0.00     0.158 C 
BRANCH   4   5
HETATM    5  N1  UNL     1      11.656 -67.971 -24.848  1.00  0.00    -0.313 N 
ATOM      6  H1  UNL     1      11.704 -67.153 -25.456  1.00  0.00     0.172 HD
BRANCH   5   7
HETATM    7  S1  UNL     1      12.178 -68.067 -23.245  1.00  0.00     0.258 S 
HETATM    8  O1  UNL     1      12.224 -66.622 -22.709  1.00  0.00    -0.201 OA
HETATM    9  O2  UNL     1      11.215 -68.856 -22.374  1.00  0.00    -0.201 OA
BRANCH   7  10
HETATM   10  C6  UNL     1      13.756 -68.708 -22.986  1.00  0.00     0.080 A 
HETATM   11  C5  UNL     1      14.573 -69.270 -23.930  1.00  0.00     0.025 A 
HETATM   12  C4  UNL     1      15.822 -69.770 -23.611  1.00  0.00     0.002 A 
HETATM   13  C3  UNL     1      16.313 -69.727 -22.299  1.00  0.00     0.007 A 
HETATM   14  C2  UNL     1      15.501 -69.165 -21.344  1.00  0.00    -0.060 A 
HETATM   15  C1  UNL     1      16.017 -69.137 -19.929  1.00  0.00     0.048 C 
HETATM   16  C22 UNL     1      14.281 -68.681 -21.677  1.00  0.00     0.032 A 
ENDBRANCH   7  10
ENDBRANCH   5   7
ENDBRANCH   4   5
ENDBRANCH   3   4
ENDBRANCH   2   3
ENDBRANCH   1   2
BRANCH   1  17
HETATM   17  C10 UNL     1       8.936 -71.606 -23.196  1.00  0.00     0.146 C 
BRANCH  17  18
HETATM   18  N2  UNL     1      10.333 -71.664 -22.906  1.00  0.00    -0.378 N 
ATOM     19  H2  UNL     1      10.603 -70.980 -22.200  1.00  0.00     0.160 HD
BRANCH  18  20
HETATM   20  C11 UNL     1      11.393 -72.399 -23.332  1.00  0.00     0.106 C 
HETATM   21  S2  UNL     1      11.189 -73.250 -24.775  1.00  0.00    -0.060 SA
BRANCH  20  22
HETATM   22  C12 UNL     1      12.690 -72.583 -22.767  1.00  0.00     0.002 A 
HETATM   23  C13 UNL     1      13.656 -73.092 -23.686  1.00  0.00     0.015 A 
HETATM   24  C14 UNL     1      14.928 -73.376 -23.286  1.00  0.00     0.009 A 
HETATM   25  C15 UNL     1      15.316 -73.178 -21.981  1.00  0.00    -0.051 A 
HETATM   26  C20 UNL     1      14.433 -72.691 -21.066  1.00  0.00     0.009 A 
HETATM   27  C21 UNL     1      13.128 -72.406 -21.501  1.00  0.00     0.015 A 
BRANCH  25  28
HETATM   28  C16 UNL     1      16.699 -73.554 -21.638  1.00  0.00    -0.024 C 
HETATM   29  C17 UNL     1      17.692 -73.101 -22.644  1.00  0.00     0.019 C 
HETATM   30  C18 UNL     1      17.017 -72.875 -20.320  1.00  0.00     0.019 C 
HETATM   31  C19 UNL     1      16.815 -75.067 -21.452  1.00  0.00     0.019 C 
ENDBRANCH  25  28
ENDBRANCH  20  22
ENDBRANCH  18  20
ENDBRANCH  17  18
ENDBRANCH   1  17
TORSDOF 11
ENDMDL
MODEL 3
REMARK VINA RESULT: -7.478612656      2.739      7.080
REMARK  11 active torsions:
REMARK  status: ('A' for Active; 'I' for Inactive)
REMARK    1  A    between atoms: C6_6  and  S1_7 
REMARK    2  A    between atoms: S1_7  and  N1_10 
REMARK    3  A    between atoms: N1_10  and  C7_12 
REMARK    4  A    between atoms: C7_12  and  C8_13 
REMARK    5  A    between atoms: C8_13  and  O3_14 
REMARK    6  A    between atoms: O3_14  and  C9_15 
REMARK    7  A    between atoms: C9_15  and  C10_16 
REMARK    8  A    between atoms: C10_16  and  N2_17 
REMARK    9  A    between atoms: N2_17  and  C11_19 
REMARK   10  A    between atoms: C11_19  and  C12_21 
REMARK   11  A    between atoms: C15_24  and  C16_25 
ROOT
HETATM    1  C9  UNL     1      18.625 -71.771 -23.852  1.00  0.00     0.187 C 
ENDROOT
BRANCH   1   2
HETATM    2  O3  UNL     1      18.964 -70.936 -22.735  1.00  0.00    -0.388 OA
BRANCH   2   3
HETATM    3  C8  UNL     1      18.748 -69.607 -23.162  1.00  0.00     0.188 C 
BRANCH   3   4
HETATM    4  C7  UNL     1      17.540 -68.975 -22.580  1.00  0.00     0.158 C 
BRANCH   4   5
HETATM    5  N1  UNL     1      17.216 -69.685 -21.325  1.00  0.00    -0.313 N 
ATOM      6  H1  UNL     1      17.532 -70.616 -21.054  1.00  0.00     0.172 HD
BRANCH   5   7
HETATM    7  S1  UNL     1      16.222 -68.657 -20.428  1.00  0.00     0.258 S 
HETATM    8  O1  UNL     1      16.014 -69.330 -19.057  1.00  0.00    -0.201 OA
HETATM    9  O2  UNL     1      16.864 -67.301 -20.188  1.00  0.00    -0.201 OA
BRANCH   7  10
HETATM   10  C6  UNL     1      14.639 -68.379 -21.052  1.00  0.00     0.080 A 
HETATM   11  C5  UNL     1      14.259 -67.362 -21.885  1.00  0.00     0.025 A 
HETATM   12  C4  UNL     1      12.952 -67.222 -22.316  1.00  0.00     0.002 A 
HETATM   13  C3  UNL     1      11.950 -68.117 -21.917  1.00  0.00     0.007 A 
HETATM   14  C2  UNL     1      12.322 -69.141 -21.080  1.00  0.00    -0.060 A 
HETATM   15  C1  UNL     1      11.244 -70.093 -20.632  1.00  0.00     0.048 C 
HETATM   16  C22 UNL     1      13.607 -69.262 -20.670  1.00  0.00     0.032 A 
ENDBRANCH   7  10
ENDBRANCH   5   7
ENDBRANCH   4   5
ENDBRANCH   3   4
ENDBRANCH   2   3
ENDBRANCH   1   2
BRANCH   1  17
HETATM   17  C10 UNL     1      17.599 -72.790 -23.510  1.00  0.00     0.146 C 
BRANCH  17  18
HETATM   18  N2  UNL     1      16.269 -72.273 -23.559  1.00  0.00    -0.378 N 
ATOM     19  H2  UNL     1      16.136 -71.640 -24.347  1.00  0.00     0.160 HD
BRANCH  18  20
HETATM   20  C11 UNL     1      15.135 -72.412 -22.823  1.00  0.00     0.106 C 
HETATM   21  S2  UNL     1      15.337 -72.812 -21.197  1.00  0.00    -0.060 SA
BRANCH  20  22
HETATM   22  C12 UNL     1      13.763 -72.269 -23.186  1.00  0.00     0.002 A 
HETATM   23  C13 UNL     1      13.488 -71.106 -23.966  1.00  0.00     0.015 A 
HETATM   24  C14 UNL     1      12.216 -70.797 -24.345  1.00  0.00     0.009 A 
HETATM   25  C15 UNL     1      11.159 -71.601 -23.985  1.00  0.00    -0.051 A 
HETATM   26  C20 UNL     1      11.369 -72.723 -23.243  1.00  0.00     0.009 A 
HETATM   27  C21 UNL     1      12.688 -73.022 -22.864  1.00  0.00     0.015 A 
BRANCH  25  28
HETATM   28  C16 UNL     1       9.818 -71.159 -24.408  1.00  0.00    -0.024 C 
HETATM   29  C17 UNL     1       9.324 -71.869 -25.613  1.00  0.00     0.019 C 
HETATM   30  C18 UNL     1       8.879 -71.466 -23.258  1.00  0.00     0.019 C 
HETATM   31  C19 UNL     1       9.805 -69.651 -24.663  1.00  0.00     0.019 C 
ENDBRANCH  25  28
ENDBRANCH  20  22
ENDBRANCH  18  20
ENDBRANCH  17  18
ENDBRANCH   1  17
TORSDOF 11
ENDMDL
MODEL 4
REMARK VINA RESULT: -7.354371780      2.823      7.332
REMARK  11 active torsions:
REMARK  status: ('A' for Active; 'I' for Inactive)
REMARK    1  A    between atoms: C6_6  and  S1_7 
REMARK    2  A    between atoms: S1_7  and  N1_10 
REMARK    3  A    between atoms: N1_10  and  C7_12 
REMARK    4  A    between atoms: C7_12  and  C8_13 
REMARK    5  A    between atoms: C8_13  and  O3_14 
REMARK    6  A    between atoms: O3_14  and  C9_15 
REMARK    7  A    between atoms: C9_15  and  C10_16 
REMARK    8  A    between atoms: C10_16  and  N2_17 
REMARK    9  A    between atoms: N2_17  and  C11_19 
REMARK   10  A    between atoms: C11_19  and  C12_21 
REMARK   11  A    between atoms: C15_24  and  C16_25 
ROOT
HETATM    1  C9  UNL     1      16.725 -73.163 -20.209  1.00  0.00     0.187 C 
ENDROOT
BRANCH   1   2
HETATM    2  O3  UNL     1      17.811 -73.175 -21.148  1.00  0.00    -0.388 OA
BRANCH   2   3
HETATM    3  C8  UNL     1      18.078 -71.821 -21.451  1.00  0.00     0.188 C 
BRANCH   3   4
HETATM    4  C7  UNL     1      17.269 -70.856 -20.670  1.00  0.00     0.158 C 
BRANCH   4   5
HETATM    5  N1  UNL     1      17.115 -69.631 -21.482  1.00  0.00    -0.313 N 
ATOM      6  H1  UNL     1      17.519 -69.455 -22.401  1.00  0.00     0.172 HD
BRANCH   5   7
HETATM    7  S1  UNL     1      16.140 -68.578 -20.591  1.00  0.00     0.258 S 
HETATM    8  O1  UNL     1      15.946 -69.224 -19.204  1.00  0.00    -0.201 OA
HETATM    9  O2  UNL     1      16.795 -67.223 -20.386  1.00  0.00    -0.201 OA
BRANCH   7  10
HETATM   10  C6  UNL     1      14.551 -68.301 -21.198  1.00  0.00     0.080 A 
HETATM   11  C5  UNL     1      14.164 -67.291 -22.038  1.00  0.00     0.025 A 
HETATM   12  C4  UNL     1      12.854 -67.151 -22.455  1.00  0.00     0.002 A 
HETATM   13  C3  UNL     1      11.853 -68.037 -22.034  1.00  0.00     0.007 A 
HETATM   14  C2  UNL     1      12.231 -69.054 -21.191  1.00  0.00    -0.060 A 
HETATM   15  C1  UNL     1      11.154 -69.997 -20.720  1.00  0.00     0.048 C 
HETATM   16  C22 UNL     1      13.520 -69.175 -20.795  1.00  0.00     0.032 A 
ENDBRANCH   7  10
ENDBRANCH   5   7
ENDBRANCH   4   5
ENDBRANCH   3   4
ENDBRANCH   2   3
ENDBRANCH   1   2
BRANCH   1  17
HETATM   17  C10 UNL     1      15.578 -73.994 -20.656  1.00  0.00     0.146 C 
BRANCH  17  18
HETATM   18  N2  UNL     1      14.578 -73.236 -21.338  1.00  0.00    -0.378 N 
ATOM     19  H2  UNL     1      13.973 -72.734 -20.689  1.00  0.00     0.160 HD
BRANCH  18  20
HETATM   20  C11 UNL     1      14.228 -73.015 -22.632  1.00  0.00     0.106 C 
HETATM   21  S2  UNL     1      15.279 -73.611 -23.810  1.00  0.00    -0.060 SA
BRANCH  20  22
HETATM   22  C12 UNL     1      13.095 -72.355 -23.193  1.00  0.00     0.002 A 
HETATM   23  C13 UNL     1      11.851 -72.993 -22.902  1.00  0.00     0.015 A 
HETATM   24  C14 UNL     1      10.680 -72.518 -23.413  1.00  0.00     0.009 A 
HETATM   25  C15 UNL     1      10.665 -71.407 -24.225  1.00  0.00    -0.051 A 
HETATM   26  C20 UNL     1      11.824 -70.761 -24.529  1.00  0.00     0.009 A 
HETATM   27  C21 UNL     1      13.019 -71.268 -23.992  1.00  0.00     0.015 A 
BRANCH  25  28
HETATM   28  C16 UNL     1       9.354 -70.996 -24.760  1.00  0.00    -0.024 C 
HETATM   29  C17 UNL     1       8.289 -70.960 -23.727  1.00  0.00     0.019 C 
HETATM   30  C18 UNL     1       9.531 -69.594 -25.308  1.00  0.00     0.019 C 
HETATM   31  C19 UNL     1       8.927 -71.919 -25.901  1.00  0.00     0.019 C 
ENDBRANCH  25  28
ENDBRANCH  20  22
ENDBRANCH  18  20
ENDBRANCH  17  18
ENDBRANCH   1  17
TORSDOF 11
ENDMDL
MODEL 5
REMARK VINA RESULT: -7.273868350      2.482      6.279
REMARK  11 active torsions:
REMARK  status: ('A' for Active; 'I' for Inactive)
REMARK    1  A    between atoms: C6_6  and  S1_7 
REMARK    2  A    between atoms: S1_7  and  N1_10 
REMARK    3  A    between atoms: N1_10  and  C7_12 
REMARK    4  A    between atoms: C7_12  and  C8_13 
REMARK    5  A    between atoms: C8_13  and  O3_14 
REMARK    6  A    between atoms: O3_14  and  C9_15 
REMARK    7  A    between atoms: C9_15  and  C10_16 
REMARK    8  A    between atoms: C10_16  and  N2_17 
REMARK    9  A    between atoms: N2_17  and  C11_19 
REMARK   10  A    between atoms: C11_19  and  C12_21 
REMARK   11  A    between atoms: C15_24  and  C16_25 
ROOT
HETATM    1  C9  UNL     1      18.694 -74.085 -24.366  1.00  0.00     0.187 C 
ENDROOT
BRANCH   1   2
HETATM    2  O3  UNL     1      18.195 -74.857 -23.263  1.00  0.00    -0.388 OA
BRANCH   2   3
HETATM    3  C8  UNL     1      17.038 -75.515 -23.739  1.00  0.00     0.188 C 
BRANCH   3   4
HETATM    4  C7  UNL     1      15.999 -75.732 -22.705  1.00  0.00     0.158 C 
BRANCH   4   5
HETATM    5  N1  UNL     1      15.653 -74.418 -22.126  1.00  0.00    -0.313 N 
ATOM      6  H1  UNL     1      16.302 -73.668 -21.887  1.00  0.00     0.172 HD
BRANCH   5   7
HETATM    7  S1  UNL     1      13.975 -74.398 -21.935  1.00  0.00     0.258 S 
HETATM    8  O1  UNL     1      13.494 -75.851 -22.122  1.00  0.00    -0.201 OA
HETATM    9  O2  UNL     1      13.560 -73.946 -20.546  1.00  0.00    -0.201 OA
BRANCH   7  10
HETATM   10  C6  UNL     1      13.081 -73.465 -23.075  1.00  0.00     0.080 A 
HETATM   11  C5  UNL     1      13.541 -72.979 -24.270  1.00  0.00     0.025 A 
HETATM   12  C4  UNL     1      12.741 -72.224 -25.107  1.00  0.00     0.002 A 
HETATM   13  C3  UNL     1      11.416 -71.916 -24.770  1.00  0.00     0.007 A 
HETATM   14  C2  UNL     1      10.945 -72.399 -23.573  1.00  0.00    -0.060 A 
HETATM   15  C1  UNL     1       9.527 -72.052 -23.199  1.00  0.00     0.048 C 
HETATM   16  C22 UNL     1      11.744 -73.137 -22.768  1.00  0.00     0.032 A 
ENDBRANCH   7  10
ENDBRANCH   5   7
ENDBRANCH   4   5
ENDBRANCH   3   4
ENDBRANCH   2   3
ENDBRANCH   1   2
BRANCH   1  17
HETATM   17  C10 UNL     1      17.717 -73.072 -24.840  1.00  0.00     0.146 C 
BRANCH  17  18
HETATM   18  N2  UNL     1      17.784 -71.851 -24.103  1.00  0.00    -0.378 N 
ATOM     19  H2  UNL     1      18.432 -71.187 -24.525  1.00  0.00     0.160 HD
BRANCH  18  20
HETATM   20  C11 UNL     1      17.202 -71.350 -22.982  1.00  0.00     0.106 C 
HETATM   21  S2  UNL     1      18.026 -71.597 -21.531  1.00  0.00    -0.060 SA
BRANCH  20  22
HETATM   22  C12 UNL     1      15.988 -70.623 -22.805  1.00  0.00     0.002 A 
HETATM   23  C13 UNL     1      15.326 -70.893 -21.569  1.00  0.00     0.015 A 
HETATM   24  C14 UNL     1      14.124 -70.322 -21.274  1.00  0.00     0.009 A 
HETATM   25  C15 UNL     1      13.515 -69.465 -22.162  1.00  0.00    -0.051 A 
HETATM   26  C20 UNL     1      14.106 -69.173 -23.352  1.00  0.00     0.009 A 
HETATM   27  C21 UNL     1      15.345 -69.774 -23.635  1.00  0.00     0.015 A 
BRANCH  25  28
HETATM   28  C16 UNL     1      12.199 -68.931 -21.768  1.00  0.00    -0.024 C 
HETATM   29  C17 UNL     1      12.284 -67.618 -21.083  1.00  0.00     0.019 C 
HETATM   30  C18 UNL     1      11.407 -68.748 -23.048  1.00  0.00     0.019 C 
HETATM   31  C19 UNL     1      11.461 -69.927 -20.873  1.00  0.00     0.019 C 
ENDBRANCH  25  28
ENDBRANCH  20  22
ENDBRANCH  18  20
ENDBRANCH  17  18
ENDBRANCH   1  17
TORSDOF 11
ENDMDL
