MODEL 1
REMARK VINA RESULT: -5.103997926      0.000      0.000
REMARK  10 active torsions:
REMARK  status: ('A' for Active; 'I' for Inactive)
REMARK    1  A    between atoms: C2_2  and  N1_3 
REMARK    2  A    between atoms: N1_3  and  C3_5 
REMARK    3  A    between atoms: C3_5  and  C4_6 
REMARK    4  A    between atoms: C4_6  and  N2_7 
REMARK    5  A    between atoms: N2_7  and  C5_8 
REMARK    6  A    between atoms: N2_7  and  C7_12 
REMARK    7  A    between atoms: C5_8  and  C6_9 
REMARK    8  A    between atoms: C6_9  and  O1_10 
REMARK    9  A    between atoms: C7_12  and  C8_13 
REMARK   10  A    between atoms: C8_13  and  O2_14 
ROOT
HETATM    1  N2  UNL     1      -5.950  19.563   2.998  1.00  0.00    -0.388 N 
ENDROOT
BRANCH   1   2
HETATM    2  C4  UNL     1      -4.767  20.162   3.332  1.00  0.00     0.077 C 
BRANCH   2   3
HETATM    3  C3  UNL     1      -3.987  21.008   2.409  1.00  0.00     0.158 C 
BRANCH   3   4
HETATM    4  N1  UNL     1      -4.172  22.418   2.494  1.00  0.00    -0.417 N 
ATOM      5  H1  UNL     1      -5.096  22.829   2.623  1.00  0.00     0.153 HD
BRANCH   4   6
HETATM    6  C2  UNL     1      -3.010  23.220   2.391  1.00  0.00     0.109 C 
HETATM    7  C1  UNL     1      -1.968  22.414   1.616  1.00  0.00     0.026 C 
ENDBRANCH   4   6
ENDBRANCH   3   4
ENDBRANCH   2   3
ENDBRANCH   1   2
BRANCH   1   8
HETATM    8  C5  UNL     1      -6.753  18.773   3.805  1.00  0.00     0.148 C 
BRANCH   8   9
HETATM    9  C6  UNL     1      -7.137  17.500   3.026  1.00  0.00     0.183 C 
BRANCH   9  10
HETATM   10  O1  UNL     1      -6.757  16.379   3.765  1.00  0.00    -0.399 OA
ATOM     11  H1  UNL     1      -7.486  15.772   3.806  1.00  0.00     0.209 HD
ENDBRANCH   9  10
ENDBRANCH   8   9
ENDBRANCH   1   8
BRANCH   1  12
HETATM   12  C7  UNL     1      -6.385  19.681   1.621  1.00  0.00     0.148 C 
BRANCH  12  13
HETATM   13  C8  UNL     1      -7.613  20.588   1.497  1.00  0.00     0.183 C 
BRANCH  13  14
HETATM   14  O2  UNL     1      -7.298  21.828   2.079  1.00  0.00    -0.399 OA
ATOM     15  H2  UNL     1      -6.553  22.190   1.614  1.00  0.00     0.209 HD
ENDBRANCH  13  14
ENDBRANCH  12  13
ENDBRANCH   1  12
TORSDOF 10
ENDMDL
MODEL 2
REMARK VINA RESULT: -4.939468468      1.655      3.287
REMARK  10 active torsions:
REMARK  status: ('A' for Active; 'I' for Inactive)
REMARK    1  A    between atoms: C2_2  and  N1_3 
REMARK    2  A    between atoms: N1_3  and  C3_5 
REMARK    3  A    between atoms: C3_5  and  C4_6 
REMARK    4  A    between atoms: C4_6  and  N2_7 
REMARK    5  A    between atoms: N2_7  and  C5_8 
REMARK    6  A    between atoms: N2_7  and  C7_12 
REMARK    7  A    between atoms: C5_8  and  C6_9 
REMARK    8  A    between atoms: C6_9  and  O1_10 
REMARK    9  A    between atoms: C7_12  and  C8_13 
REMARK   10  A    between atoms: C8_13  and  O2_14 
ROOT
HETATM    1  N2  UNL     1      -6.909  18.730   2.262  1.00  0.00    -0.388 N 
ENDROOT
BRANCH   1   2
HETATM    2  C4  UNL     1      -6.215  18.578   3.431  1.00  0.00     0.077 C 
BRANCH   2   3
HETATM    3  C3  UNL     1      -4.965  19.298   3.741  1.00  0.00     0.158 C 
BRANCH   3   4
HETATM    4  N1  UNL     1      -4.883  20.668   3.360  1.00  0.00    -0.417 N 
ATOM      5  H1  UNL     1      -5.432  21.387   3.831  1.00  0.00     0.153 HD
BRANCH   4   6
HETATM    6  C2  UNL     1      -4.002  20.982   2.298  1.00  0.00     0.109 C 
HETATM    7  C1  UNL     1      -3.635  22.459   2.433  1.00  0.00     0.026 C 
ENDBRANCH   4   6
ENDBRANCH   3   4
ENDBRANCH   2   3
ENDBRANCH   1   2
BRANCH   1   8
HETATM    8  C5  UNL     1      -8.142  19.337   2.086  1.00  0.00     0.148 C 
BRANCH   8   9
HETATM    9  C6  UNL     1      -7.949  20.615   1.247  1.00  0.00     0.183 C 
BRANCH   9  10
HETATM   10  O1  UNL     1      -7.390  21.610   2.050  1.00  0.00    -0.399 OA
ATOM     11  H1  UNL     1      -6.893  22.207   1.505  1.00  0.00     0.209 HD
ENDBRANCH   9  10
ENDBRANCH   8   9
ENDBRANCH   1   8
BRANCH   1  12
HETATM   12  C7  UNL     1      -6.351  18.112   1.076  1.00  0.00     0.148 C 
BRANCH  12  13
HETATM   13  C8  UNL     1      -7.370  17.196   0.390  1.00  0.00     0.183 C 
BRANCH  13  14
HETATM   14  O2  UNL     1      -6.735  15.974   0.106  1.00  0.00    -0.399 OA
ATOM     15  H2  UNL     1      -7.318  15.461  -0.440  1.00  0.00     0.209 HD
ENDBRANCH  13  14
ENDBRANCH  12  13
ENDBRANCH   1  12
TORSDOF 10
ENDMDL
MODEL 3
REMARK VINA RESULT: -4.929264929      1.652      2.221
REMARK  10 active torsions:
REMARK  status: ('A' for Active; 'I' for Inactive)
REMARK    1  A    between atoms: C2_2  and  N1_3 
REMARK    2  A    between atoms: N1_3  and  C3_5 
REMARK    3  A    between atoms: C3_5  and  C4_6 
REMARK    4  A    between atoms: C4_6  and  N2_7 
REMARK    5  A    between atoms: N2_7  and  C5_8 
REMARK    6  A    between atoms: N2_7  and  C7_12 
REMARK    7  A    between atoms: C5_8  and  C6_9 
REMARK    8  A    between atoms: C6_9  and  O1_10 
REMARK    9  A    between atoms: C7_12  and  C8_13 
REMARK   10  A    between atoms: C8_13  and  O2_14 
ROOT
HETATM    1  N2  UNL     1      -6.830  18.658   2.189  1.00  0.00    -0.388 N 
ENDROOT
BRANCH   1   2
HETATM    2  C4  UNL     1      -6.235  18.589   3.419  1.00  0.00     0.077 C 
BRANCH   2   3
HETATM    3  C3  UNL     1      -4.983  19.290   3.763  1.00  0.00     0.158 C 
BRANCH   3   4
HETATM    4  N1  UNL     1      -4.876  20.662   3.399  1.00  0.00    -0.417 N 
ATOM      5  H1  UNL     1      -5.396  21.389   3.892  1.00  0.00     0.153 HD
BRANCH   4   6
HETATM    6  C2  UNL     1      -4.013  20.970   2.320  1.00  0.00     0.109 C 
HETATM    7  C1  UNL     1      -3.648  22.449   2.436  1.00  0.00     0.026 C 
ENDBRANCH   4   6
ENDBRANCH   3   4
ENDBRANCH   2   3
ENDBRANCH   1   2
BRANCH   1   8
HETATM    8  C5  UNL     1      -6.321  18.211   0.980  1.00  0.00     0.148 C 
BRANCH   8   9
HETATM    9  C6  UNL     1      -7.338  17.244   0.343  1.00  0.00     0.183 C 
BRANCH   9  10
HETATM   10  O1  UNL     1      -6.727  16.006   0.140  1.00  0.00    -0.399 OA
ATOM     11  H1  UNL     1      -7.041  15.634  -0.675  1.00  0.00     0.209 HD
ENDBRANCH   9  10
ENDBRANCH   8   9
ENDBRANCH   1   8
BRANCH   1  12
HETATM   12  C7  UNL     1      -8.096  19.356   2.106  1.00  0.00     0.148 C 
BRANCH  12  13
HETATM   13  C8  UNL     1      -7.983  20.621   1.248  1.00  0.00     0.183 C 
BRANCH  13  14
HETATM   14  O2  UNL     1      -7.386  21.625   2.032  1.00  0.00    -0.399 OA
ATOM     15  H2  UNL     1      -7.306  22.406   1.497  1.00  0.00     0.209 HD
ENDBRANCH  13  14
ENDBRANCH  12  13
ENDBRANCH   1  12
TORSDOF 10
ENDMDL
MODEL 4
REMARK VINA RESULT: -4.872248859      4.008      6.144
REMARK  10 active torsions:
REMARK  status: ('A' for Active; 'I' for Inactive)
REMARK    1  A    between atoms: C2_2  and  N1_3 
REMARK    2  A    between atoms: N1_3  and  C3_5 
REMARK    3  A    between atoms: C3_5  and  C4_6 
REMARK    4  A    between atoms: C4_6  and  N2_7 
REMARK    5  A    between atoms: N2_7  and  C5_8 
REMARK    6  A    between atoms: N2_7  and  C7_12 
REMARK    7  A    between atoms: C5_8  and  C6_9 
REMARK    8  A    between atoms: C6_9  and  O1_10 
REMARK    9  A    between atoms: C7_12  and  C8_13 
REMARK   10  A    between atoms: C8_13  and  O2_14 
ROOT
HETATM    1  N2  UNL     1      -1.673  22.275   1.437  1.00  0.00    -0.388 N 
ENDROOT
BRANCH   1   2
HETATM    2  C4  UNL     1      -1.639  21.090   0.754  1.00  0.00     0.077 C 
BRANCH   2   3
HETATM    3  C3  UNL     1      -0.430  20.256   0.621  1.00  0.00     0.158 C 
BRANCH   3   4
HETATM    4  N1  UNL     1      -0.528  19.076  -0.170  1.00  0.00    -0.417 N 
ATOM      5  H1  UNL     1      -1.334  18.900  -0.770  1.00  0.00     0.153 HD
BRANCH   4   6
HETATM    6  C2  UNL     1       0.547  18.159  -0.083  1.00  0.00     0.109 C 
HETATM    7  C1  UNL     1       1.643  18.654  -1.027  1.00  0.00     0.026 C 
ENDBRANCH   4   6
ENDBRANCH   3   4
ENDBRANCH   2   3
ENDBRANCH   1   2
BRANCH   1   8
HETATM    8  C5  UNL     1      -2.761  22.848   2.078  1.00  0.00     0.148 C 
BRANCH   8   9
HETATM    9  C6  UNL     1      -3.763  21.735   2.442  1.00  0.00     0.183 C 
BRANCH   9  10
HETATM   10  O1  UNL     1      -5.060  22.240   2.351  1.00  0.00    -0.399 OA
ATOM     11  H1  UNL     1      -5.502  22.115   3.182  1.00  0.00     0.209 HD
ENDBRANCH   9  10
ENDBRANCH   8   9
ENDBRANCH   1   8
BRANCH   1  12
HETATM   12  C7  UNL     1      -0.470  23.081   1.425  1.00  0.00     0.148 C 
BRANCH  12  13
HETATM   13  C8  UNL     1      -0.681  24.414   2.150  1.00  0.00     0.183 C 
BRANCH  13  14
HETATM   14  O2  UNL     1       0.348  24.562   3.096  1.00  0.00    -0.399 OA
ATOM     15  H2  UNL     1       0.423  23.746   3.577  1.00  0.00     0.209 HD
ENDBRANCH  13  14
ENDBRANCH  12  13
ENDBRANCH   1  12
TORSDOF 10
ENDMDL
MODEL 5
REMARK VINA RESULT: -4.790741544      1.015      2.927
REMARK  10 active torsions:
REMARK  status: ('A' for Active; 'I' for Inactive)
REMARK    1  A    between atoms: C2_2  and  N1_3 
REMARK    2  A    between atoms: N1_3  and  C3_5 
REMARK    3  A    between atoms: C3_5  and  C4_6 
REMARK    4  A    between atoms: C4_6  and  N2_7 
REMARK    5  A    between atoms: N2_7  and  C5_8 
REMARK    6  A    between atoms: N2_7  and  C7_12 
REMARK    7  A    between atoms: C5_8  and  C6_9 
REMARK    8  A    between atoms: C6_9  and  O1_10 
REMARK    9  A    between atoms: C7_12  and  C8_13 
REMARK   10  A    between atoms: C8_13  and  O2_14 
ROOT
HETATM    1  N2  UNL     1      -6.054  19.812   1.942  1.00  0.00    -0.388 N 
ENDROOT
BRANCH   1   2
HETATM    2  C4  UNL     1      -4.718  20.103   1.905  1.00  0.00     0.077 C 
BRANCH   2   3
HETATM    3  C3  UNL     1      -4.068  21.083   2.796  1.00  0.00     0.158 C 
BRANCH   3   4
HETATM    4  N1  UNL     1      -4.154  22.458   2.436  1.00  0.00    -0.417 N 
ATOM      5  H1  UNL     1      -5.051  22.907   2.248  1.00  0.00     0.153 HD
BRANCH   4   6
HETATM    6  C2  UNL     1      -2.935  23.172   2.351  1.00  0.00     0.109 C 
HETATM    7  C1  UNL     1      -1.945  22.293   1.588  1.00  0.00     0.026 C 
ENDBRANCH   4   6
ENDBRANCH   3   4
ENDBRANCH   2   3
ENDBRANCH   1   2
BRANCH   1   8
HETATM    8  C5  UNL     1      -7.112  20.708   1.943  1.00  0.00     0.148 C 
BRANCH   8   9
HETATM    9  C6  UNL     1      -8.107  20.299   0.840  1.00  0.00     0.183 C 
BRANCH   9  10
HETATM   10  O1  UNL     1      -9.263  21.072   0.957  1.00  0.00    -0.399 OA
ATOM     11  H1  UNL     1      -9.912  20.757   0.339  1.00  0.00     0.209 HD
ENDBRANCH   9  10
ENDBRANCH   8   9
ENDBRANCH   1   8
BRANCH   1  12
HETATM   12  C7  UNL     1      -6.424  18.419   2.089  1.00  0.00     0.148 C 
BRANCH  12  13
HETATM   13  C8  UNL     1      -6.762  18.080   3.544  1.00  0.00     0.183 C 
BRANCH  13  14
HETATM   14  O2  UNL     1      -6.791  16.680   3.668  1.00  0.00    -0.399 OA
ATOM     15  H2  UNL     1      -6.522  16.458   4.552  1.00  0.00     0.209 HD
ENDBRANCH  13  14
ENDBRANCH  12  13
ENDBRANCH   1  12
TORSDOF 10
ENDMDL
