MODEL 1
REMARK VINA RESULT: -4.945462344      0.000      0.000
REMARK  10 active torsions:
REMARK  status: ('A' for Active; 'I' for Inactive)
REMARK    1  A    between atoms: C2_2  and  O1_3 
REMARK    2  A    between atoms: O1_3  and  N1_4 
REMARK    3  A    between atoms: N1_4  and  C3_5 
REMARK    4  A    between atoms: C3_5  and  C4_6 
REMARK    5  A    between atoms: C3_5  and  C5_9 
REMARK    6  A    between atoms: C4_6  and  O2_7 
REMARK    7  A    between atoms: C5_9  and  N2_10 
REMARK    8  A    between atoms: N2_10  and  C6_13 
REMARK    9  A    between atoms: C6_13  and  C7_14 
REMARK   10  A    between atoms: C7_14  and  O3_15 
ROOT
HETATM    1  C3  UNL     1      -1.906  21.962   1.148  1.00  0.00     0.156 C 
ENDROOT
BRANCH   1   2
HETATM    2  N1  UNL     1      -1.779  20.896   0.208  1.00  0.00    -0.087 NA
BRANCH   2   3
HETATM    3  O1  UNL     1      -0.637  20.149   0.383  1.00  0.00    -0.257 OA
BRANCH   3   4
HETATM    4  C2  UNL     1      -0.427  18.985  -0.343  1.00  0.00     0.152 C 
HETATM    5  C1  UNL     1       0.583  18.224  -0.028  1.00  0.00     0.039 C 
ENDBRANCH   3   4
ENDBRANCH   2   3
ENDBRANCH   1   2
BRANCH   1   6
HETATM    6  C4  UNL     1      -0.625  22.282   1.866  1.00  0.00     0.189 C 
BRANCH   6   7
HETATM    7  O2  UNL     1       0.337  22.823   1.020  1.00  0.00    -0.399 OA
ATOM      8  H2  UNL     1       0.510  22.269   0.268  1.00  0.00     0.209 HD
ENDBRANCH   6   7
ENDBRANCH   1   6
BRANCH   1   9
HETATM    9  C5  UNL     1      -3.037  21.655   2.094  1.00  0.00     0.258 C 
BRANCH   9  10
HETATM   10  N2  UNL     1      -3.585  20.336   1.878  1.00  0.00    -0.071 N 
ATOM     11  H22 UNL     1      -3.585  20.105   0.884  1.00  0.00     0.277 HD
ATOM     12  H21 UNL     1      -2.943  19.621   2.220  1.00  0.00     0.277 HD
BRANCH  10  13
HETATM   13  C6  UNL     1      -4.900  20.148   2.442  1.00  0.00     0.258 C 
BRANCH  13  14
HETATM   14  C7  UNL     1      -4.837  19.781   3.910  1.00  0.00     0.191 C 
BRANCH  14  15
HETATM   15  O3  UNL     1      -4.480  18.417   4.020  1.00  0.00    -0.399 OA
ATOM     16  H3  UNL     1      -4.650  18.130   4.910  1.00  0.00     0.209 HD
ENDBRANCH  14  15
ENDBRANCH  13  14
ENDBRANCH  10  13
ENDBRANCH   9  10
ENDBRANCH   1   9
TORSDOF 10
ENDMDL
MODEL 2
REMARK VINA RESULT: -4.919323755      2.285      3.896
REMARK  10 active torsions:
REMARK  status: ('A' for Active; 'I' for Inactive)
REMARK    1  A    between atoms: C2_2  and  O1_3 
REMARK    2  A    between atoms: O1_3  and  N1_4 
REMARK    3  A    between atoms: N1_4  and  C3_5 
REMARK    4  A    between atoms: C3_5  and  C4_6 
REMARK    5  A    between atoms: C3_5  and  C5_9 
REMARK    6  A    between atoms: C4_6  and  O2_7 
REMARK    7  A    between atoms: C5_9  and  N2_10 
REMARK    8  A    between atoms: N2_10  and  C6_13 
REMARK    9  A    between atoms: C6_13  and  C7_14 
REMARK   10  A    between atoms: C7_14  and  O3_15 
ROOT
HETATM    1  C3  UNL     1      -4.845  20.665   2.852  1.00  0.00     0.156 C 
ENDROOT
BRANCH   1   2
HETATM    2  N1  UNL     1      -3.999  21.751   2.472  1.00  0.00    -0.087 NA
BRANCH   2   3
HETATM    3  O1  UNL     1      -3.049  21.400   1.541  1.00  0.00    -0.257 OA
BRANCH   3   4
HETATM    4  C2  UNL     1      -1.858  22.103   1.437  1.00  0.00     0.152 C 
HETATM    5  C1  UNL     1      -0.741  21.436   1.352  1.00  0.00     0.039 C 
ENDBRANCH   3   4
ENDBRANCH   2   3
ENDBRANCH   1   2
BRANCH   1   6
HETATM    6  C4  UNL     1      -4.448  20.024   4.151  1.00  0.00     0.189 C 
BRANCH   6   7
HETATM    7  O2  UNL     1      -4.444  18.635   4.077  1.00  0.00    -0.399 OA
ATOM      8  H2  UNL     1      -5.319  18.269   4.100  1.00  0.00     0.209 HD
ENDBRANCH   6   7
ENDBRANCH   1   6
BRANCH   1   9
HETATM    9  C5  UNL     1      -4.919  19.676   1.718  1.00  0.00     0.258 C 
BRANCH   9  10
HETATM   10  N2  UNL     1      -6.282  19.323   1.392  1.00  0.00    -0.071 N 
ATOM     11  H22 UNL     1      -6.938  19.873   1.947  1.00  0.00     0.277 HD
ATOM     12  H21 UNL     1      -6.525  19.656   0.460  1.00  0.00     0.277 HD
BRANCH  10  13
HETATM   13  C6  UNL     1      -6.568  17.914   1.518  1.00  0.00     0.258 C 
BRANCH  13  14
HETATM   14  C7  UNL     1      -7.494  17.629   2.684  1.00  0.00     0.191 C 
BRANCH  14  15
HETATM   15  O3  UNL     1      -6.792  16.859   3.640  1.00  0.00    -0.399 OA
ATOM     16  H3  UNL     1      -7.417  16.331   4.123  1.00  0.00     0.209 HD
ENDBRANCH  14  15
ENDBRANCH  13  14
ENDBRANCH  10  13
ENDBRANCH   9  10
ENDBRANCH   1   9
TORSDOF 10
ENDMDL
MODEL 3
REMARK VINA RESULT: -4.880617086      5.178      6.332
REMARK  10 active torsions:
REMARK  status: ('A' for Active; 'I' for Inactive)
REMARK    1  A    between atoms: C2_2  and  O1_3 
REMARK    2  A    between atoms: O1_3  and  N1_4 
REMARK    3  A    between atoms: N1_4  and  C3_5 
REMARK    4  A    between atoms: C3_5  and  C4_6 
REMARK    5  A    between atoms: C3_5  and  C5_9 
REMARK    6  A    between atoms: C4_6  and  O2_7 
REMARK    7  A    between atoms: C5_9  and  N2_10 
REMARK    8  A    between atoms: N2_10  and  C6_13 
REMARK    9  A    between atoms: C6_13  and  C7_14 
REMARK   10  A    between atoms: C7_14  and  O3_15 
ROOT
HETATM    1  C3  UNL     1      -8.823  19.524   1.396  1.00  0.00     0.156 C 
ENDROOT
BRANCH   1   2
HETATM    2  N1  UNL     1      -9.002  18.622   0.304  1.00  0.00    -0.087 NA
BRANCH   2   3
HETATM    3  O1  UNL     1      -8.054  18.768  -0.682  1.00  0.00    -0.257 OA
BRANCH   3   4
HETATM    4  C2  UNL     1      -7.405  17.664  -1.217  1.00  0.00     0.152 C 
HETATM    5  C1  UNL     1      -7.653  16.487  -0.715  1.00  0.00     0.039 C 
ENDBRANCH   3   4
ENDBRANCH   2   3
ENDBRANCH   1   2
BRANCH   1   6
HETATM    6  C4  UNL     1      -7.935  20.690   1.070  1.00  0.00     0.189 C 
BRANCH   6   7
HETATM    7  O2  UNL     1      -7.573  21.414   2.201  1.00  0.00    -0.399 OA
ATOM      8  H2  UNL     1      -6.674  21.718   2.164  1.00  0.00     0.209 HD
ENDBRANCH   6   7
ENDBRANCH   1   6
BRANCH   1   9
HETATM    9  C5  UNL     1      -8.347  18.754   2.600  1.00  0.00     0.258 C 
BRANCH   9  10
HETATM   10  N2  UNL     1      -7.015  18.226   2.417  1.00  0.00    -0.071 N 
ATOM     11  H22 UNL     1      -7.050  17.308   1.974  1.00  0.00     0.277 HD
ATOM     12  H21 UNL     1      -6.519  18.746   1.694  1.00  0.00     0.277 HD
BRANCH  10  13
HETATM   13  C6  UNL     1      -6.234  18.174   3.630  1.00  0.00     0.258 C 
BRANCH  13  14
HETATM   14  C7  UNL     1      -5.228  19.305   3.702  1.00  0.00     0.191 C 
BRANCH  14  15
HETATM   15  O3  UNL     1      -5.838  20.411   4.339  1.00  0.00    -0.399 OA
ATOM     16  H3  UNL     1      -5.525  21.209   3.927  1.00  0.00     0.209 HD
ENDBRANCH  14  15
ENDBRANCH  13  14
ENDBRANCH  10  13
ENDBRANCH   9  10
ENDBRANCH   1   9
TORSDOF 10
ENDMDL
MODEL 4
REMARK VINA RESULT: -4.878194824      3.924      6.497
REMARK  10 active torsions:
REMARK  status: ('A' for Active; 'I' for Inactive)
REMARK    1  A    between atoms: C2_2  and  O1_3 
REMARK    2  A    between atoms: O1_3  and  N1_4 
REMARK    3  A    between atoms: N1_4  and  C3_5 
REMARK    4  A    between atoms: C3_5  and  C4_6 
REMARK    5  A    between atoms: C3_5  and  C5_9 
REMARK    6  A    between atoms: C4_6  and  O2_7 
REMARK    7  A    between atoms: C5_9  and  N2_10 
REMARK    8  A    between atoms: N2_10  and  C6_13 
REMARK    9  A    between atoms: C6_13  and  C7_14 
REMARK   10  A    between atoms: C7_14  and  O3_15 
ROOT
HETATM    1  C3  UNL     1      -6.434  18.817   2.713  1.00  0.00     0.156 C 
ENDROOT
BRANCH   1   2
HETATM    2  N1  UNL     1      -7.250  19.962   2.960  1.00  0.00    -0.087 NA
BRANCH   2   3
HETATM    3  O1  UNL     1      -7.379  20.784   1.865  1.00  0.00    -0.257 OA
BRANCH   3   4
HETATM    4  C2  UNL     1      -8.389  20.580   0.934  1.00  0.00     0.152 C 
HETATM    5  C1  UNL     1      -9.598  20.347   1.363  1.00  0.00     0.039 C 
ENDBRANCH   3   4
ENDBRANCH   2   3
ENDBRANCH   1   2
BRANCH   1   6
HETATM    6  C4  UNL     1      -7.168  17.515   2.861  1.00  0.00     0.189 C 
BRANCH   6   7
HETATM    7  O2  UNL     1      -6.611  16.701   3.841  1.00  0.00    -0.399 OA
ATOM      8  H2  UNL     1      -7.168  16.621   4.606  1.00  0.00     0.209 HD
ENDBRANCH   6   7
ENDBRANCH   1   6
BRANCH   1   9
HETATM    9  C5  UNL     1      -5.205  18.890   3.581  1.00  0.00     0.258 C 
BRANCH   9  10
HETATM   10  N2  UNL     1      -5.057  20.182   4.209  1.00  0.00    -0.071 N 
ATOM     11  H22 UNL     1      -5.863  20.774   4.006  1.00  0.00     0.277 HD
ATOM     12  H21 UNL     1      -5.153  20.102   5.221  1.00  0.00     0.277 HD
BRANCH  10  13
HETATM   13  C6  UNL     1      -3.830  20.862   3.868  1.00  0.00     0.258 C 
BRANCH  13  14
HETATM   14  C7  UNL     1      -3.870  21.428   2.463  1.00  0.00     0.191 C 
BRANCH  14  15
HETATM   15  O3  UNL     1      -5.026  22.232   2.333  1.00  0.00    -0.399 OA
ATOM     16  H3  UNL     1      -5.790  21.667   2.323  1.00  0.00     0.209 HD
ENDBRANCH  14  15
ENDBRANCH  13  14
ENDBRANCH  10  13
ENDBRANCH   9  10
ENDBRANCH   1   9
TORSDOF 10
ENDMDL
MODEL 5
REMARK VINA RESULT: -4.857161618      1.303      1.414
REMARK  10 active torsions:
REMARK  status: ('A' for Active; 'I' for Inactive)
REMARK    1  A    between atoms: C2_2  and  O1_3 
REMARK    2  A    between atoms: O1_3  and  N1_4 
REMARK    3  A    between atoms: N1_4  and  C3_5 
REMARK    4  A    between atoms: C3_5  and  C4_6 
REMARK    5  A    between atoms: C3_5  and  C5_9 
REMARK    6  A    between atoms: C4_6  and  O2_7 
REMARK    7  A    between atoms: C5_9  and  N2_10 
REMARK    8  A    between atoms: N2_10  and  C6_13 
REMARK    9  A    between atoms: C6_13  and  C7_14 
REMARK   10  A    between atoms: C7_14  and  O3_15 
ROOT
HETATM    1  C3  UNL     1      -1.904  22.015   1.151  1.00  0.00     0.156 C 
ENDROOT
BRANCH   1   2
HETATM    2  N1  UNL     1      -1.825  20.917   0.243  1.00  0.00    -0.087 NA
BRANCH   2   3
HETATM    3  O1  UNL     1      -0.653  20.205   0.352  1.00  0.00    -0.257 OA
BRANCH   3   4
HETATM    4  C2  UNL     1      -0.471  19.020  -0.348  1.00  0.00     0.152 C 
HETATM    5  C1  UNL     1       0.544  18.261  -0.041  1.00  0.00     0.039 C 
ENDBRANCH   3   4
ENDBRANCH   2   3
ENDBRANCH   1   2
BRANCH   1   6
HETATM    6  C4  UNL     1      -0.616  22.289   1.874  1.00  0.00     0.189 C 
BRANCH   6   7
HETATM    7  O2  UNL     1       0.347  22.856   1.045  1.00  0.00    -0.399 OA
ATOM      8  H2  UNL     1       0.908  23.467   1.508  1.00  0.00     0.209 HD
ENDBRANCH   6   7
ENDBRANCH   1   6
BRANCH   1   9
HETATM    9  C5  UNL     1      -3.060  21.796   2.093  1.00  0.00     0.258 C 
BRANCH   9  10
HETATM   10  N2  UNL     1      -3.744  20.551   1.835  1.00  0.00    -0.071 N 
ATOM     11  H22 UNL     1      -4.084  20.520   0.873  1.00  0.00     0.277 HD
ATOM     12  H21 UNL     1      -3.081  19.777   1.807  1.00  0.00     0.277 HD
BRANCH  10  13
HETATM   13  C6  UNL     1      -4.815  20.268   2.760  1.00  0.00     0.258 C 
BRANCH  13  14
HETATM   14  C7  UNL     1      -6.169  20.286   2.079  1.00  0.00     0.191 C 
BRANCH  14  15
HETATM   15  O3  UNL     1      -6.713  21.587   2.192  1.00  0.00    -0.399 OA
ATOM     16  H3  UNL     1      -6.708  21.993   1.333  1.00  0.00     0.209 HD
ENDBRANCH  14  15
ENDBRANCH  13  14
ENDBRANCH  10  13
ENDBRANCH   9  10
ENDBRANCH   1   9
TORSDOF 10
ENDMDL
