MODEL 1
REMARK VINA RESULT: -7.877977495      0.000      0.000
REMARK  3 active torsions:
REMARK  status: ('A' for Active; 'I' for Inactive)
REMARK    1  A    between atoms: C2_4  and  C4_6 
REMARK    2  A    between atoms: C7_10  and  N2_11 
REMARK       I    between atoms: N2_11  and  C8_13 
REMARK    3  A    between atoms: C8_13  and  C9_15 
ROOT
HETATM    1  C4  UNL     1      -2.428  19.796  22.142  1.00  0.00     0.025 A 
HETATM    2  C5  UNL     1      -3.359  20.213  21.186  1.00  0.00     0.064 A 
HETATM    3  C6  UNL     1      -4.564  21.080  21.475  1.00  0.00     0.077 C 
HETATM    4  O1  UNL     1      -3.010  19.741  20.078  1.00  0.00    -0.297 OA
HETATM    5  C7  UNL     1      -1.887  18.996  20.102  1.00  0.00     0.157 A 
HETATM    6  C16 UNL     1      -1.532  19.042  21.446  1.00  0.00     0.004 A 
HETATM    7  C17 UNL     1      -0.409  18.279  22.025  1.00  0.00     0.054 C 
ENDROOT
BRANCH   5   8
HETATM    8  N2  UNL     1      -1.383  18.416  18.935  1.00  0.00    -0.306 N 
HETATM    9  C8  UNL     1      -1.014  17.169  18.501  1.00  0.00     0.229 C 
HETATM   10  O2  UNL     1      -1.092  16.187  19.299  1.00  0.00    -0.273 OA
ATOM     11  H2  UNL     1      -1.256  19.114  18.202  1.00  0.00     0.171 HD
BRANCH   9  12
HETATM   12  C9  UNL     1      -0.511  16.794  17.157  1.00  0.00     0.095 A 
HETATM   13  C10 UNL     1      -0.713  15.539  16.465  1.00  0.00    -0.027 A 
HETATM   14  C11 UNL     1       0.554  14.927  15.792  1.00  0.00     0.016 C 
HETATM   15  C12 UNL     1      -1.724  14.492  16.689  1.00  0.00     0.016 C 
HETATM   16  C13 UNL     1      -1.240  16.841  15.899  1.00  0.00    -0.027 A 
HETATM   17  C14 UNL     1      -2.679  17.115  15.695  1.00  0.00     0.016 C 
HETATM   18  C15 UNL     1      -0.447  17.241  14.614  1.00  0.00     0.016 C 
ENDBRANCH   9  12
ENDBRANCH   5   8
BRANCH   1  19
HETATM   19  C2  UNL     1      -2.497  20.164  23.543  1.00  0.00     0.014 C 
HETATM   20  N1  UNL     1      -3.194  19.396  24.365  1.00  0.00    -0.397 N 
HETATM   21  C1  UNL     1      -3.366  19.679  25.756  1.00  0.00     0.146 C 
ATOM     22  H1  UNL     1      -3.633  18.557  23.985  1.00  0.00     0.158 HD
HETATM   23  C3  UNL     1      -1.909  21.348  24.191  1.00  0.00     0.068 C 
ENDBRANCH   1  19
TORSDOF 3
ENDMDL
MODEL 2
REMARK VINA RESULT: -7.715271052      3.012      4.329
REMARK  3 active torsions:
REMARK  status: ('A' for Active; 'I' for Inactive)
REMARK    1  A    between atoms: C2_4  and  C4_6 
REMARK    2  A    between atoms: C7_10  and  N2_11 
REMARK       I    between atoms: N2_11  and  C8_13 
REMARK    3  A    between atoms: C8_13  and  C9_15 
ROOT
HETATM    1  C4  UNL     1      -3.320  22.071  21.053  1.00  0.00     0.025 A 
HETATM    2  C5  UNL     1      -4.352  21.132  20.993  1.00  0.00     0.064 A 
HETATM    3  C6  UNL     1      -5.827  21.465  21.037  1.00  0.00     0.077 C 
HETATM    4  O1  UNL     1      -3.833  19.994  20.900  1.00  0.00    -0.297 OA
HETATM    5  C7  UNL     1      -2.485  19.981  20.881  1.00  0.00     0.157 A 
HETATM    6  C16 UNL     1      -2.177  21.333  20.986  1.00  0.00     0.004 A 
HETATM    7  C17 UNL     1      -0.802  21.853  21.120  1.00  0.00     0.054 C 
ENDROOT
BRANCH   5   8
HETATM    8  N2  UNL     1      -1.779  18.781  20.774  1.00  0.00    -0.306 N 
HETATM    9  C8  UNL     1      -1.867  17.505  21.269  1.00  0.00     0.229 C 
HETATM   10  O2  UNL     1      -2.804  17.216  22.071  1.00  0.00    -0.273 OA
ATOM     11  H2  UNL     1      -0.973  18.881  20.157  1.00  0.00     0.171 HD
BRANCH   9  12
HETATM   12  C9  UNL     1      -0.971  16.361  20.976  1.00  0.00     0.095 A 
HETATM   13  C10 UNL     1       0.139  16.332  20.047  1.00  0.00    -0.027 A 
HETATM   14  C11 UNL     1       0.213  15.080  19.119  1.00  0.00     0.016 C 
HETATM   15  C12 UNL     1       0.902  17.446  19.457  1.00  0.00     0.016 C 
HETATM   16  C13 UNL     1       0.352  16.112  21.531  1.00  0.00    -0.027 A 
HETATM   17  C14 UNL     1       1.163  17.012  22.378  1.00  0.00     0.016 C 
HETATM   18  C15 UNL     1       0.754  14.630  21.812  1.00  0.00     0.016 C 
ENDBRANCH   9  12
ENDBRANCH   5   8
BRANCH   1  19
HETATM   19  C2  UNL     1      -3.541  23.501  21.148  1.00  0.00     0.014 C 
HETATM   20  N1  UNL     1      -3.578  24.057  22.349  1.00  0.00    -0.397 N 
HETATM   21  C1  UNL     1      -3.826  25.447  22.569  1.00  0.00     0.146 C 
ATOM     22  H1  UNL     1      -3.420  23.460  23.161  1.00  0.00     0.158 HD
HETATM   23  C3  UNL     1      -3.782  24.448  20.048  1.00  0.00     0.068 C 
ENDBRANCH   1  19
TORSDOF 3
ENDMDL
MODEL 3
REMARK VINA RESULT: -7.570590625      2.730      4.808
REMARK  3 active torsions:
REMARK  status: ('A' for Active; 'I' for Inactive)
REMARK    1  A    between atoms: C2_4  and  C4_6 
REMARK    2  A    between atoms: C7_10  and  N2_11 
REMARK       I    between atoms: N2_11  and  C8_13 
REMARK    3  A    between atoms: C8_13  and  C9_15 
ROOT
HETATM    1  C4  UNL     1      -3.475  21.810  25.404  1.00  0.00     0.025 A 
HETATM    2  C5  UNL     1      -2.988  22.447  24.260  1.00  0.00     0.064 A 
HETATM    3  C6  UNL     1      -3.040  23.938  24.013  1.00  0.00     0.077 C 
HETATM    4  O1  UNL     1      -2.515  21.567  23.501  1.00  0.00    -0.297 OA
HETATM    5  C7  UNL     1      -2.596  20.305  23.969  1.00  0.00     0.157 A 
HETATM    6  C16 UNL     1      -3.225  20.487  25.196  1.00  0.00     0.004 A 
HETATM    7  C17 UNL     1      -3.650  19.378  26.073  1.00  0.00     0.054 C 
ENDROOT
BRANCH   5   8
HETATM    8  N2  UNL     1      -2.102  19.230  23.227  1.00  0.00    -0.306 N 
HETATM    9  C8  UNL     1      -2.334  18.648  22.008  1.00  0.00     0.229 C 
HETATM   10  O2  UNL     1      -3.239  19.121  21.258  1.00  0.00    -0.273 OA
ATOM     11  H2  UNL     1      -1.364  18.742  23.734  1.00  0.00     0.171 HD
BRANCH   9  12
HETATM   12  C9  UNL     1      -1.633  17.482  21.418  1.00  0.00     0.095 A 
HETATM   13  C10 UNL     1      -0.776  17.472  20.251  1.00  0.00    -0.027 A 
HETATM   14  C11 UNL     1      -1.029  16.317  19.235  1.00  0.00     0.016 C 
HETATM   15  C12 UNL     1      -0.076  18.586  19.589  1.00  0.00     0.016 C 
HETATM   16  C13 UNL     1      -0.245  17.093  21.618  1.00  0.00    -0.027 A 
HETATM   17  C14 UNL     1       0.815  17.849  22.317  1.00  0.00     0.016 C 
HETATM   18  C15 UNL     1       0.080  15.566  21.675  1.00  0.00     0.016 C 
ENDBRANCH   9  12
ENDBRANCH   5   8
BRANCH   1  19
HETATM   19  C2  UNL     1      -4.082  22.513  26.517  1.00  0.00     0.014 C 
HETATM   20  N1  UNL     1      -5.374  22.796  26.458  1.00  0.00    -0.397 N 
HETATM   21  C1  UNL     1      -6.073  23.518  27.474  1.00  0.00     0.146 C 
ATOM     22  H1  UNL     1      -5.899  22.480  25.642  1.00  0.00     0.158 HD
HETATM   23  C3  UNL     1      -3.421  23.014  27.733  1.00  0.00     0.068 C 
ENDBRANCH   1  19
TORSDOF 3
ENDMDL
MODEL 4
REMARK VINA RESULT: -7.568528496      1.391      2.155
REMARK  3 active torsions:
REMARK  status: ('A' for Active; 'I' for Inactive)
REMARK    1  A    between atoms: C2_4  and  C4_6 
REMARK    2  A    between atoms: C7_10  and  N2_11 
REMARK       I    between atoms: N2_11  and  C8_13 
REMARK    3  A    between atoms: C8_13  and  C9_15 
ROOT
HETATM    1  C4  UNL     1      -2.821  20.717  21.358  1.00  0.00     0.025 A 
HETATM    2  C5  UNL     1      -2.590  19.447  21.894  1.00  0.00     0.064 A 
HETATM    3  C6  UNL     1      -2.869  19.050  23.326  1.00  0.00     0.077 C 
HETATM    4  O1  UNL     1      -2.121  18.724  20.982  1.00  0.00    -0.297 OA
HETATM    5  C7  UNL     1      -1.973  19.334  19.789  1.00  0.00     0.157 A 
HETATM    6  C16 UNL     1      -2.426  20.621  20.058  1.00  0.00     0.004 A 
HETATM    7  C17 UNL     1      -2.369  21.731  19.087  1.00  0.00     0.054 C 
ENDROOT
BRANCH   5   8
HETATM    8  N2  UNL     1      -1.465  18.643  18.686  1.00  0.00    -0.306 N 
HETATM    9  C8  UNL     1      -1.070  17.365  18.384  1.00  0.00     0.229 C 
HETATM   10  O2  UNL     1      -1.119  16.474  19.283  1.00  0.00    -0.273 OA
ATOM     11  H2  UNL     1      -1.359  19.261  17.882  1.00  0.00     0.171 HD
BRANCH   9  12
HETATM   12  C9  UNL     1      -0.569  16.860  17.084  1.00  0.00     0.095 A 
HETATM   13  C10 UNL     1      -0.845  15.575  16.477  1.00  0.00    -0.027 A 
HETATM   14  C11 UNL     1       0.388  14.829  15.881  1.00  0.00     0.016 C 
HETATM   15  C12 UNL     1      -1.933  14.619  16.751  1.00  0.00     0.016 C 
HETATM   16  C13 UNL     1      -1.268  16.866  15.807  1.00  0.00    -0.027 A 
HETATM   17  C14 UNL     1      -2.679  17.224  15.549  1.00  0.00     0.016 C 
HETATM   18  C15 UNL     1      -0.423  17.116  14.518  1.00  0.00     0.016 C 
ENDBRANCH   9  12
ENDBRANCH   5   8
BRANCH   1  19
HETATM   19  C2  UNL     1      -3.380  21.818  22.118  1.00  0.00     0.014 C 
HETATM   20  N1  UNL     1      -2.572  22.532  22.886  1.00  0.00    -0.397 N 
HETATM   21  C1  UNL     1      -3.014  23.614  23.709  1.00  0.00     0.146 C 
ATOM     22  H1  UNL     1      -1.579  22.296  22.891  1.00  0.00     0.158 HD
HETATM   23  C3  UNL     1      -4.789  22.239  22.187  1.00  0.00     0.068 C 
ENDBRANCH   1  19
TORSDOF 3
ENDMDL
MODEL 5
REMARK VINA RESULT: -7.533318169      1.845      2.636
REMARK  3 active torsions:
REMARK  status: ('A' for Active; 'I' for Inactive)
REMARK    1  A    between atoms: C2_4  and  C4_6 
REMARK    2  A    between atoms: C7_10  and  N2_11 
REMARK       I    between atoms: N2_11  and  C8_13 
REMARK    3  A    between atoms: C8_13  and  C9_15 
ROOT
HETATM    1  C4  UNL     1      -3.142  21.099  22.576  1.00  0.00     0.025 A 
HETATM    2  C5  UNL     1      -4.082  20.755  21.601  1.00  0.00     0.064 A 
HETATM    3  C6  UNL     1      -5.442  21.398  21.448  1.00  0.00     0.077 C 
HETATM    4  O1  UNL     1      -3.592  19.837  20.900  1.00  0.00    -0.297 OA
HETATM    5  C7  UNL     1      -2.351  19.448  21.255  1.00  0.00     0.157 A 
HETATM    6  C16 UNL     1      -2.084  20.272  22.342  1.00  0.00     0.004 A 
HETATM    7  C17 UNL     1      -0.869  20.166  23.174  1.00  0.00     0.054 C 
ENDROOT
BRANCH   5   8
HETATM    8  N2  UNL     1      -1.687  18.439  20.554  1.00  0.00    -0.306 N 
HETATM    9  C8  UNL     1      -1.479  17.089  20.675  1.00  0.00     0.229 C 
HETATM   10  O2  UNL     1      -1.965  16.474  21.670  1.00  0.00    -0.273 OA
ATOM     11  H2  UNL     1      -1.229  18.809  19.721  1.00  0.00     0.171 HD
BRANCH   9  12
HETATM   12  C9  UNL     1      -0.725  16.207  19.751  1.00  0.00     0.095 A 
HETATM   13  C10 UNL     1      -0.784  16.198  18.305  1.00  0.00    -0.027 A 
HETATM   14  C11 UNL     1      -0.896  14.792  17.640  1.00  0.00     0.016 C 
HETATM   15  C12 UNL     1      -1.261  17.237  17.375  1.00  0.00     0.016 C 
HETATM   16  C13 UNL     1       0.502  16.522  19.036  1.00  0.00    -0.027 A 
HETATM   17  C14 UNL     1       1.185  17.830  18.940  1.00  0.00     0.016 C 
HETATM   18  C15 UNL     1       1.545  15.375  18.843  1.00  0.00     0.016 C 
ENDBRANCH   9  12
ENDBRANCH   5   8
BRANCH   1  19
HETATM   19  C2  UNL     1      -3.353  22.141  23.562  1.00  0.00     0.014 C 
HETATM   20  N1  UNL     1      -3.852  21.803  24.741  1.00  0.00    -0.397 N 
HETATM   21  C1  UNL     1      -4.139  22.746  25.776  1.00  0.00     0.146 C 
ATOM     22  H1  UNL     1      -4.042  20.817  24.919  1.00  0.00     0.158 HD
HETATM   23  C3  UNL     1      -3.118  23.585  23.408  1.00  0.00     0.068 C 
ENDBRANCH   1  19
TORSDOF 3
ENDMDL
