MODEL 1
REMARK VINA RESULT: -7.862071400      0.000      0.000
REMARK  13 active torsions:
REMARK  status: ('A' for Active; 'I' for Inactive)
REMARK    1  A    between atoms: C5_6  and  C6_7 
REMARK    2  A    between atoms: C6_7  and  N1_8 
REMARK    3  A    between atoms: N1_8  and  C7_11 
REMARK    4  A    between atoms: C7_11  and  C8_12 
REMARK    5  A    between atoms: C8_12  and  N2_13 
REMARK    6  A    between atoms: N2_13  and  C9_16 
REMARK    7  A    between atoms: C9_16  and  C10_17 
REMARK    8  A    between atoms: C10_17  and  C11_18 
REMARK    9  A    between atoms: C11_18  and  N3_19 
REMARK   10  A    between atoms: N3_19  and  C12_21 
REMARK   11  A    between atoms: C15_24  and  N4_25 
REMARK   12  A    between atoms: C16_30  and  C17_31 
REMARK   13  A    between atoms: C17_31  and  N6_32 
ROOT
HETATM    1  C12 UNL     1      45.399  21.942  40.477  1.00  0.00     0.101 A 
HETATM    2  C13 UNL     1      46.179  22.752  39.673  1.00  0.00     0.064 A 
HETATM    3  C14 UNL     1      45.852  23.033  38.363  1.00  0.00     0.023 A 
HETATM    4  C15 UNL     1      46.587  23.827  37.522  1.00  0.00     0.110 A 
HETATM    5  N5  UNL     1      46.188  24.056  36.231  1.00  0.00    -0.344 N 
ATOM      6  H5  UNL     1      46.758  24.652  35.632  1.00  0.00     0.167 HD
HETATM    7  C16 UNL     1      45.068  23.515  35.739  1.00  0.00     0.029 A 
HETATM    8  C22 UNL     1      44.334  22.721  36.581  1.00  0.00     0.040 A 
HETATM    9  C23 UNL     1      44.695  22.463  37.884  1.00  0.00    -0.005 A 
HETATM   10  C24 UNL     1      43.910  21.658  38.670  1.00  0.00     0.102 A 
HETATM   11  N7  UNL     1      44.265  21.413  39.931  1.00  0.00    -0.352 N 
ATOM     12  H7  UNL     1      43.672  20.813  40.505  1.00  0.00     0.166 HD
ENDROOT
BRANCH   1  13
HETATM   13  N3  UNL     1      45.673  21.660  41.702  1.00  0.00    -0.376 N 
ATOM     14  H3  UNL     1      44.996  21.893  42.428  1.00  0.00     0.161 HD
BRANCH  13  15
HETATM   15  C11 UNL     1      46.912  21.024  42.076  1.00  0.00     0.123 C 
BRANCH  15  16
HETATM   16  C10 UNL     1      47.008  19.617  41.538  1.00  0.00     0.047 C 
BRANCH  16  17
HETATM   17  C9  UNL     1      47.986  19.545  40.406  1.00  0.00     0.234 C 
BRANCH  17  18
HETATM   18  N2  UNL     1      47.306  19.287  39.145  1.00  0.00    -0.073 N 
ATOM     19  H22 UNL     1      47.936  18.940  38.422  1.00  0.00     0.277 HD
ATOM     20  H21 UNL     1      47.014  20.143  38.672  1.00  0.00     0.277 HD
BRANCH  18  21
HETATM   21  C8  UNL     1      46.207  18.391  39.404  1.00  0.00     0.259 C 
BRANCH  21  22
HETATM   22  C7  UNL     1      45.716  17.714  38.153  1.00  0.00     0.260 C 
BRANCH  22  23
HETATM   23  N1  UNL     1      46.408  18.185  36.981  1.00  0.00    -0.069 N 
ATOM     24  H12 UNL     1      47.184  18.804  37.219  1.00  0.00     0.277 HD
ATOM     25  H11 UNL     1      45.847  18.849  36.447  1.00  0.00     0.277 HD
BRANCH  23  26
HETATM   26  C6  UNL     1      46.843  17.051  36.163  1.00  0.00     0.279 C 
BRANCH  26  27
HETATM   27  C5  UNL     1      48.350  17.128  36.162  1.00  0.00     0.014 A 
HETATM   28  C2  UNL     1      49.174  17.419  35.111  1.00  0.00    -0.047 A 
HETATM   29  C1  UNL     1      48.573  17.714  33.745  1.00  0.00     0.049 C 
HETATM   30  C3  UNL     1      50.495  17.430  35.347  1.00  0.00     0.015 A 
HETATM   31  C4  UNL     1      50.908  17.147  36.625  1.00  0.00     0.051 A 
HETATM   32  S1  UNL     1      49.439  16.878  37.447  1.00  0.00    -0.104 SA
ENDBRANCH  26  27
ENDBRANCH  23  26
ENDBRANCH  22  23
ENDBRANCH  21  22
ENDBRANCH  18  21
ENDBRANCH  17  18
ENDBRANCH  16  17
ENDBRANCH  15  16
ENDBRANCH  13  15
ENDBRANCH   1  13
BRANCH   4  33
HETATM   33  N4  UNL     1      47.664  24.374  37.925  1.00  0.00    -0.385 N 
ATOM     34  H42 UNL     1      47.648  24.873  38.814  1.00  0.00     0.157 HD
ATOM     35  H41 UNL     1      48.517  24.311  37.368  1.00  0.00     0.157 HD
ENDBRANCH   4  33
BRANCH   7  36
HETATM   36  C17 UNL     1      44.595  23.724  34.355  1.00  0.00     0.179 C 
BRANCH  36  37
HETATM   37  N6  UNL     1      45.252  24.843  33.797  1.00  0.00    -0.384 N 
HETATM   38  C18 UNL     1      46.238  24.648  32.817  1.00  0.00     0.084 C 
HETATM   39  C19 UNL     1      45.724  25.113  31.471  1.00  0.00     0.212 C 
HETATM   40  O1  UNL     1      44.715  26.045  31.545  1.00  0.00    -0.385 OA
HETATM   41  C20 UNL     1      44.808  26.881  32.638  1.00  0.00     0.187 C 
HETATM   42  C21 UNL     1      44.669  26.118  33.947  1.00  0.00     0.148 C 
ENDBRANCH  36  37
ENDBRANCH   7  36
TORSDOF 13
ENDMDL
MODEL 2
REMARK VINA RESULT: -7.843069711      0.772      1.101
REMARK  13 active torsions:
REMARK  status: ('A' for Active; 'I' for Inactive)
REMARK    1  A    between atoms: C5_6  and  C6_7 
REMARK    2  A    between atoms: C6_7  and  N1_8 
REMARK    3  A    between atoms: N1_8  and  C7_11 
REMARK    4  A    between atoms: C7_11  and  C8_12 
REMARK    5  A    between atoms: C8_12  and  N2_13 
REMARK    6  A    between atoms: N2_13  and  C9_16 
REMARK    7  A    between atoms: C9_16  and  C10_17 
REMARK    8  A    between atoms: C10_17  and  C11_18 
REMARK    9  A    between atoms: C11_18  and  N3_19 
REMARK   10  A    between atoms: N3_19  and  C12_21 
REMARK   11  A    between atoms: C15_24  and  N4_25 
REMARK   12  A    between atoms: C16_30  and  C17_31 
REMARK   13  A    between atoms: C17_31  and  N6_32 
ROOT
HETATM    1  C12 UNL     1      45.391  21.871  40.462  1.00  0.00     0.101 A 
HETATM    2  C13 UNL     1      46.158  22.712  39.678  1.00  0.00     0.064 A 
HETATM    3  C14 UNL     1      45.833  23.009  38.370  1.00  0.00     0.023 A 
HETATM    4  C15 UNL     1      46.555  23.833  37.548  1.00  0.00     0.110 A 
HETATM    5  N5  UNL     1      46.160  24.075  36.259  1.00  0.00    -0.344 N 
ATOM      6  H5  UNL     1      46.721  24.694  35.674  1.00  0.00     0.167 HD
HETATM    7  C16 UNL     1      45.056  23.518  35.749  1.00  0.00     0.029 A 
HETATM    8  C22 UNL     1      44.335  22.693  36.572  1.00  0.00     0.040 A 
HETATM    9  C23 UNL     1      44.693  22.420  37.873  1.00  0.00    -0.005 A 
HETATM   10  C24 UNL     1      43.921  21.585  38.641  1.00  0.00     0.102 A 
HETATM   11  N7  UNL     1      44.273  21.326  39.900  1.00  0.00    -0.352 N 
ATOM     12  H7  UNL     1      43.690  20.703  40.459  1.00  0.00     0.166 HD
ENDROOT
BRANCH   1  13
HETATM   13  N3  UNL     1      45.664  21.575  41.684  1.00  0.00    -0.376 N 
ATOM     14  H3  UNL     1      44.963  21.747  42.405  1.00  0.00     0.161 HD
BRANCH  13  15
HETATM   15  C11 UNL     1      46.933  21.005  42.063  1.00  0.00     0.123 C 
BRANCH  15  16
HETATM   16  C10 UNL     1      47.102  19.603  41.531  1.00  0.00     0.047 C 
BRANCH  16  17
HETATM   17  C9  UNL     1      48.111  19.571  40.424  1.00  0.00     0.234 C 
BRANCH  17  18
HETATM   18  N2  UNL     1      47.467  19.336  39.140  1.00  0.00    -0.073 N 
ATOM     19  H22 UNL     1      48.134  19.127  38.397  1.00  0.00     0.277 HD
ATOM     20  H21 UNL     1      47.073  20.186  38.735  1.00  0.00     0.277 HD
BRANCH  18  21
HETATM   21  C8  UNL     1      46.485  18.295  39.315  1.00  0.00     0.259 C 
BRANCH  21  22
HETATM   22  C7  UNL     1      45.660  18.076  38.075  1.00  0.00     0.260 C 
BRANCH  22  23
HETATM   23  N1  UNL     1      46.445  18.220  36.876  1.00  0.00    -0.069 N 
ATOM     24  H12 UNL     1      47.218  18.873  37.002  1.00  0.00     0.277 HD
ATOM     25  H11 UNL     1      45.940  18.726  36.148  1.00  0.00     0.277 HD
BRANCH  23  26
HETATM   26  C6  UNL     1      46.905  16.909  36.414  1.00  0.00     0.279 C 
BRANCH  26  27
HETATM   27  C5  UNL     1      48.193  17.187  35.678  1.00  0.00     0.014 A 
HETATM   28  C2  UNL     1      49.462  17.198  36.185  1.00  0.00    -0.047 A 
HETATM   29  C1  UNL     1      49.683  16.905  37.662  1.00  0.00     0.049 C 
HETATM   30  C3  UNL     1      50.464  17.473  35.336  1.00  0.00     0.015 A 
HETATM   31  C4  UNL     1      50.130  17.719  34.028  1.00  0.00     0.051 A 
HETATM   32  S1  UNL     1      48.433  17.558  34.033  1.00  0.00    -0.104 SA
ENDBRANCH  26  27
ENDBRANCH  23  26
ENDBRANCH  22  23
ENDBRANCH  21  22
ENDBRANCH  18  21
ENDBRANCH  17  18
ENDBRANCH  16  17
ENDBRANCH  15  16
ENDBRANCH  13  15
ENDBRANCH   1  13
BRANCH   4  33
HETATM   33  N4  UNL     1      47.617  24.397  37.968  1.00  0.00    -0.385 N 
ATOM     34  H42 UNL     1      48.430  24.415  37.351  1.00  0.00     0.157 HD
ATOM     35  H41 UNL     1      47.650  24.817  38.897  1.00  0.00     0.157 HD
ENDBRANCH   4  33
BRANCH   7  36
HETATM   36  C17 UNL     1      44.588  23.739  34.366  1.00  0.00     0.179 C 
BRANCH  36  37
HETATM   37  N6  UNL     1      45.262  24.851  33.813  1.00  0.00    -0.384 N 
HETATM   38  C18 UNL     1      46.266  24.644  32.855  1.00  0.00     0.084 C 
HETATM   39  C19 UNL     1      45.782  25.102  31.495  1.00  0.00     0.212 C 
HETATM   40  O1  UNL     1      44.776  26.040  31.542  1.00  0.00    -0.385 OA
HETATM   41  C20 UNL     1      44.852  26.883  32.631  1.00  0.00     0.187 C 
HETATM   42  C21 UNL     1      44.682  26.130  33.942  1.00  0.00     0.148 C 
ENDBRANCH  36  37
ENDBRANCH   7  36
TORSDOF 13
ENDMDL
MODEL 3
REMARK VINA RESULT: -7.491160659      1.128      1.318
REMARK  13 active torsions:
REMARK  status: ('A' for Active; 'I' for Inactive)
REMARK    1  A    between atoms: C5_6  and  C6_7 
REMARK    2  A    between atoms: C6_7  and  N1_8 
REMARK    3  A    between atoms: N1_8  and  C7_11 
REMARK    4  A    between atoms: C7_11  and  C8_12 
REMARK    5  A    between atoms: C8_12  and  N2_13 
REMARK    6  A    between atoms: N2_13  and  C9_16 
REMARK    7  A    between atoms: C9_16  and  C10_17 
REMARK    8  A    between atoms: C10_17  and  C11_18 
REMARK    9  A    between atoms: C11_18  and  N3_19 
REMARK   10  A    between atoms: N3_19  and  C12_21 
REMARK   11  A    between atoms: C15_24  and  N4_25 
REMARK   12  A    between atoms: C16_30  and  C17_31 
REMARK   13  A    between atoms: C17_31  and  N6_32 
ROOT
HETATM    1  C12 UNL     1      45.368  21.942  40.493  1.00  0.00     0.101 A 
HETATM    2  C13 UNL     1      46.177  22.713  39.680  1.00  0.00     0.064 A 
HETATM    3  C14 UNL     1      45.860  22.993  38.368  1.00  0.00     0.023 A 
HETATM    4  C15 UNL     1      46.623  23.750  37.518  1.00  0.00     0.110 A 
HETATM    5  N5  UNL     1      46.232  23.979  36.225  1.00  0.00    -0.344 N 
ATOM      6  H5  UNL     1      46.824  24.548  35.619  1.00  0.00     0.167 HD
HETATM    7  C16 UNL     1      45.093  23.476  35.739  1.00  0.00     0.029 A 
HETATM    8  C22 UNL     1      44.330  22.719  36.589  1.00  0.00     0.040 A 
HETATM    9  C23 UNL     1      44.682  22.461  37.895  1.00  0.00    -0.005 A 
HETATM   10  C24 UNL     1      43.868  21.694  38.690  1.00  0.00     0.102 A 
HETATM   11  N7  UNL     1      44.215  21.450  39.953  1.00  0.00    -0.352 N 
ATOM     12  H7  UNL     1      43.600  20.878  40.534  1.00  0.00     0.166 HD
ENDROOT
BRANCH   1  13
HETATM   13  N3  UNL     1      45.633  21.663  41.720  1.00  0.00    -0.376 N 
ATOM     14  H3  UNL     1      44.987  21.967  42.449  1.00  0.00     0.161 HD
BRANCH  13  15
HETATM   15  C11 UNL     1      46.818  20.932  42.096  1.00  0.00     0.123 C 
BRANCH  15  16
HETATM   16  C10 UNL     1      46.815  19.529  41.540  1.00  0.00     0.047 C 
BRANCH  16  17
HETATM   17  C9  UNL     1      47.868  19.371  40.487  1.00  0.00     0.234 C 
BRANCH  17  18
HETATM   18  N2  UNL     1      47.269  19.236  39.167  1.00  0.00    -0.073 N 
ATOM     19  H22 UNL     1      47.920  18.867  38.474  1.00  0.00     0.277 HD
ATOM     20  H21 UNL     1      47.091  20.136  38.720  1.00  0.00     0.277 HD
BRANCH  18  21
HETATM   21  C8  UNL     1      46.078  18.434  39.296  1.00  0.00     0.259 C 
BRANCH  21  22
HETATM   22  C7  UNL     1      46.320  16.993  38.936  1.00  0.00     0.260 C 
BRANCH  22  23
HETATM   23  N1  UNL     1      45.509  16.574  37.821  1.00  0.00    -0.069 N 
ATOM     24  H12 UNL     1      44.530  16.832  37.943  1.00  0.00     0.277 HD
ATOM     25  H11 UNL     1      45.394  15.561  37.792  1.00  0.00     0.277 HD
BRANCH  23  26
HETATM   26  C6  UNL     1      46.062  17.099  36.571  1.00  0.00     0.279 C 
BRANCH  26  27
HETATM   27  C5  UNL     1      46.968  16.007  36.058  1.00  0.00     0.014 A 
HETATM   28  C2  UNL     1      48.099  16.143  35.303  1.00  0.00    -0.047 A 
HETATM   29  C1  UNL     1      48.565  17.531  34.891  1.00  0.00     0.049 C 
HETATM   30  C3  UNL     1      48.750  15.020  34.960  1.00  0.00     0.015 A 
HETATM   31  C4  UNL     1      48.225  13.831  35.396  1.00  0.00     0.051 A 
HETATM   32  S1  UNL     1      46.845  14.322  36.267  1.00  0.00    -0.104 SA
ENDBRANCH  26  27
ENDBRANCH  23  26
ENDBRANCH  22  23
ENDBRANCH  21  22
ENDBRANCH  18  21
ENDBRANCH  17  18
ENDBRANCH  16  17
ENDBRANCH  15  16
ENDBRANCH  13  15
ENDBRANCH   1  13
BRANCH   4  33
HETATM   33  N4  UNL     1      47.720  24.260  37.914  1.00  0.00    -0.385 N 
ATOM     34  H42 UNL     1      47.755  24.662  38.852  1.00  0.00     0.157 HD
ATOM     35  H41 UNL     1      48.539  24.266  37.306  1.00  0.00     0.157 HD
ENDBRANCH   4  33
BRANCH   7  36
HETATM   36  C17 UNL     1      44.627  23.687  34.353  1.00  0.00     0.179 C 
BRANCH  36  37
HETATM   37  N6  UNL     1      45.280  24.813  33.803  1.00  0.00    -0.384 N 
HETATM   38  C18 UNL     1      46.256  24.629  32.812  1.00  0.00     0.084 C 
HETATM   39  C19 UNL     1      45.731  25.112  31.477  1.00  0.00     0.212 C 
HETATM   40  O1  UNL     1      44.724  26.044  31.571  1.00  0.00    -0.385 OA
HETATM   41  C20 UNL     1      44.828  26.866  32.674  1.00  0.00     0.187 C 
HETATM   42  C21 UNL     1      44.699  26.087  33.975  1.00  0.00     0.148 C 
ENDBRANCH  36  37
ENDBRANCH   7  36
TORSDOF 13
ENDMDL
MODEL 4
REMARK VINA RESULT: -7.304680451      4.063      6.206
REMARK  13 active torsions:
REMARK  status: ('A' for Active; 'I' for Inactive)
REMARK    1  A    between atoms: C5_6  and  C6_7 
REMARK    2  A    between atoms: C6_7  and  N1_8 
REMARK    3  A    between atoms: N1_8  and  C7_11 
REMARK    4  A    between atoms: C7_11  and  C8_12 
REMARK    5  A    between atoms: C8_12  and  N2_13 
REMARK    6  A    between atoms: N2_13  and  C9_16 
REMARK    7  A    between atoms: C9_16  and  C10_17 
REMARK    8  A    between atoms: C10_17  and  C11_18 
REMARK    9  A    between atoms: C11_18  and  N3_19 
REMARK   10  A    between atoms: N3_19  and  C12_21 
REMARK   11  A    between atoms: C15_24  and  N4_25 
REMARK   12  A    between atoms: C16_30  and  C17_31 
REMARK   13  A    between atoms: C17_31  and  N6_32 
ROOT
HETATM    1  C12 UNL     1      45.400  21.850  40.520  1.00  0.00     0.101 A 
HETATM    2  C13 UNL     1      46.196  22.642  39.715  1.00  0.00     0.064 A 
HETATM    3  C14 UNL     1      45.871  22.934  38.406  1.00  0.00     0.023 A 
HETATM    4  C15 UNL     1      46.622  23.712  37.564  1.00  0.00     0.110 A 
HETATM    5  N5  UNL     1      46.223  23.952  36.275  1.00  0.00    -0.344 N 
ATOM      6  H5  UNL     1      46.806  24.536  35.675  1.00  0.00     0.167 HD
HETATM    7  C16 UNL     1      45.089  23.440  35.786  1.00  0.00     0.029 A 
HETATM    8  C22 UNL     1      44.339  22.662  36.629  1.00  0.00     0.040 A 
HETATM    9  C23 UNL     1      44.699  22.393  37.930  1.00  0.00    -0.005 A 
HETATM   10  C24 UNL     1      43.898  21.606  38.719  1.00  0.00     0.102 A 
HETATM   11  N7  UNL     1      44.251  21.350  39.978  1.00  0.00    -0.352 N 
ATOM     12  H7  UNL     1      43.646  20.763  40.553  1.00  0.00     0.166 HD
ENDROOT
BRANCH   1  13
HETATM   13  N3  UNL     1      45.672  21.559  41.743  1.00  0.00    -0.376 N 
ATOM     14  H3  UNL     1      44.986  21.768  42.468  1.00  0.00     0.161 HD
BRANCH  13  15
HETATM   15  C11 UNL     1      46.922  20.945  42.118  1.00  0.00     0.123 C 
BRANCH  15  16
HETATM   16  C10 UNL     1      46.917  19.457  41.865  1.00  0.00     0.047 C 
BRANCH  16  17
HETATM   17  C9  UNL     1      48.223  18.844  42.267  1.00  0.00     0.234 C 
BRANCH  17  18
HETATM   18  N2  UNL     1      48.035  17.868  43.331  1.00  0.00    -0.073 N 
ATOM     19  H22 UNL     1      47.647  18.281  44.179  1.00  0.00     0.277 HD
ATOM     20  H21 UNL     1      48.916  17.542  43.727  1.00  0.00     0.277 HD
BRANCH  18  21
HETATM   21  C8  UNL     1      47.225  16.793  42.814  1.00  0.00     0.259 C 
BRANCH  21  22
HETATM   22  C7  UNL     1      46.221  16.301  43.822  1.00  0.00     0.260 C 
BRANCH  22  23
HETATM   23  N1  UNL     1      46.318  17.015  45.069  1.00  0.00    -0.069 N 
ATOM     24  H12 UNL     1      45.579  17.711  45.169  1.00  0.00     0.277 HD
ATOM     25  H11 UNL     1      47.119  17.646  45.087  1.00  0.00     0.277 HD
BRANCH  23  26
HETATM   26  C6  UNL     1      46.338  16.073  46.189  1.00  0.00     0.279 C 
BRANCH  26  27
HETATM   27  C5  UNL     1      45.052  16.330  46.936  1.00  0.00     0.014 A 
HETATM   28  C2  UNL     1      43.899  15.597  46.895  1.00  0.00    -0.047 A 
HETATM   29  C1  UNL     1      43.826  14.359  46.014  1.00  0.00     0.049 C 
HETATM   30  C3  UNL     1      42.873  16.018  47.651  1.00  0.00     0.015 A 
HETATM   31  C4  UNL     1      43.068  17.150  48.401  1.00  0.00     0.051 A 
HETATM   32  S1  UNL     1      44.673  17.583  48.025  1.00  0.00    -0.104 SA
ENDBRANCH  26  27
ENDBRANCH  23  26
ENDBRANCH  22  23
ENDBRANCH  21  22
ENDBRANCH  18  21
ENDBRANCH  17  18
ENDBRANCH  16  17
ENDBRANCH  15  16
ENDBRANCH  13  15
ENDBRANCH   1  13
BRANCH   4  33
HETATM   33  N4  UNL     1      47.714  24.231  37.963  1.00  0.00    -0.385 N 
ATOM     34  H42 UNL     1      47.890  24.271  38.967  1.00  0.00     0.157 HD
ATOM     35  H41 UNL     1      48.389  24.598  37.293  1.00  0.00     0.157 HD
ENDBRANCH   4  33
BRANCH   7  36
HETATM   36  C17 UNL     1      44.616  23.663  34.405  1.00  0.00     0.179 C 
BRANCH  36  37
HETATM   37  N6  UNL     1      45.268  24.792  33.860  1.00  0.00    -0.384 N 
HETATM   38  C18 UNL     1      46.257  24.612  32.880  1.00  0.00     0.084 C 
HETATM   39  C19 UNL     1      45.743  25.089  31.538  1.00  0.00     0.212 C 
HETATM   40  O1  UNL     1      44.729  26.015  31.619  1.00  0.00    -0.385 OA
HETATM   41  C20 UNL     1      44.815  26.840  32.722  1.00  0.00     0.187 C 
HETATM   42  C21 UNL     1      44.677  26.062  34.022  1.00  0.00     0.148 C 
ENDBRANCH  36  37
ENDBRANCH   7  36
TORSDOF 13
ENDMDL
MODEL 5
REMARK VINA RESULT: -7.302117857      3.711      5.627
REMARK  13 active torsions:
REMARK  status: ('A' for Active; 'I' for Inactive)
REMARK    1  A    between atoms: C5_6  and  C6_7 
REMARK    2  A    between atoms: C6_7  and  N1_8 
REMARK    3  A    between atoms: N1_8  and  C7_11 
REMARK    4  A    between atoms: C7_11  and  C8_12 
REMARK    5  A    between atoms: C8_12  and  N2_13 
REMARK    6  A    between atoms: N2_13  and  C9_16 
REMARK    7  A    between atoms: C9_16  and  C10_17 
REMARK    8  A    between atoms: C10_17  and  C11_18 
REMARK    9  A    between atoms: C11_18  and  N3_19 
REMARK   10  A    between atoms: N3_19  and  C12_21 
REMARK   11  A    between atoms: C15_24  and  N4_25 
REMARK   12  A    between atoms: C16_30  and  C17_31 
REMARK   13  A    between atoms: C17_31  and  N6_32 
ROOT
HETATM    1  C12 UNL     1      45.415  21.937  40.536  1.00  0.00     0.101 A 
HETATM    2  C13 UNL     1      46.208  22.729  39.728  1.00  0.00     0.064 A 
HETATM    3  C14 UNL     1      45.897  22.993  38.410  1.00  0.00     0.023 A 
HETATM    4  C15 UNL     1      46.645  23.770  37.565  1.00  0.00     0.110 A 
HETATM    5  N5  UNL     1      46.260  23.981  36.267  1.00  0.00    -0.344 N 
ATOM      6  H5  UNL     1      46.841  24.565  35.664  1.00  0.00     0.167 HD
HETATM    7  C16 UNL     1      45.142  23.441  35.771  1.00  0.00     0.029 A 
HETATM    8  C22 UNL     1      44.394  22.664  36.617  1.00  0.00     0.040 A 
HETATM    9  C23 UNL     1      44.740  22.423  37.928  1.00  0.00    -0.005 A 
HETATM   10  C24 UNL     1      43.943  21.635  38.718  1.00  0.00     0.102 A 
HETATM   11  N7  UNL     1      44.283  21.407  39.986  1.00  0.00    -0.352 N 
ATOM     12  H7  UNL     1      43.680  20.819  40.563  1.00  0.00     0.166 HD
ENDROOT
BRANCH   1  13
HETATM   13  N3  UNL     1      45.675  21.672  41.767  1.00  0.00    -0.376 N 
ATOM     14  H3  UNL     1      44.940  21.784  42.465  1.00  0.00     0.161 HD
BRANCH  13  15
HETATM   15  C11 UNL     1      46.978  21.220  42.188  1.00  0.00     0.123 C 
BRANCH  15  16
HETATM   16  C10 UNL     1      47.208  19.767  41.850  1.00  0.00     0.047 C 
BRANCH  16  17
HETATM   17  C9  UNL     1      48.620  19.367  42.148  1.00  0.00     0.234 C 
BRANCH  17  18
HETATM   18  N2  UNL     1      49.220  20.263  43.125  1.00  0.00    -0.073 N 
ATOM     19  H22 UNL     1      49.146  19.911  44.080  1.00  0.00     0.277 HD
ATOM     20  H21 UNL     1      48.685  21.122  43.254  1.00  0.00     0.277 HD
BRANCH  18  21
HETATM   21  C8  UNL     1      50.584  20.511  42.728  1.00  0.00     0.259 C 
BRANCH  21  22
HETATM   22  C7  UNL     1      50.670  21.255  41.422  1.00  0.00     0.260 C 
BRANCH  22  23
HETATM   23  N1  UNL     1      50.513  22.675  41.602  1.00  0.00    -0.069 N 
ATOM     24  H12 UNL     1      50.017  22.898  42.465  1.00  0.00     0.277 HD
ATOM     25  H11 UNL     1      49.846  23.073  40.941  1.00  0.00     0.277 HD
BRANCH  23  26
HETATM   26  C6  UNL     1      51.816  23.339  41.533  1.00  0.00     0.279 C 
BRANCH  26  27
HETATM   27  C5  UNL     1      51.836  24.281  42.712  1.00  0.00     0.014 A 
HETATM   28  C2  UNL     1      52.280  25.573  42.745  1.00  0.00    -0.047 A 
HETATM   29  C1  UNL     1      52.833  26.209  41.479  1.00  0.00     0.049 C 
HETATM   30  C3  UNL     1      52.200  26.223  43.916  1.00  0.00     0.015 A 
HETATM   31  C4  UNL     1      51.680  25.535  44.983  1.00  0.00     0.051 A 
HETATM   32  S1  UNL     1      51.322  24.009  44.313  1.00  0.00    -0.104 SA
ENDBRANCH  26  27
ENDBRANCH  23  26
ENDBRANCH  22  23
ENDBRANCH  21  22
ENDBRANCH  18  21
ENDBRANCH  17  18
ENDBRANCH  16  17
ENDBRANCH  15  16
ENDBRANCH  13  15
ENDBRANCH   1  13
BRANCH   4  33
HETATM   33  N4  UNL     1      47.722  24.315  37.970  1.00  0.00    -0.385 N 
ATOM     34  H42 UNL     1      47.928  24.293  38.969  1.00  0.00     0.157 HD
ATOM     35  H41 UNL     1      48.357  24.763  37.309  1.00  0.00     0.157 HD
ENDBRANCH   4  33
BRANCH   7  36
HETATM   36  C17 UNL     1      44.685  23.631  34.380  1.00  0.00     0.179 C 
BRANCH  36  37
HETATM   37  N6  UNL     1      45.305  24.777  33.833  1.00  0.00    -0.384 N 
HETATM   38  C18 UNL     1      46.280  24.625  32.835  1.00  0.00     0.084 C 
HETATM   39  C19 UNL     1      45.735  25.101  31.506  1.00  0.00     0.212 C 
HETATM   40  O1  UNL     1      44.704  26.006  31.612  1.00  0.00    -0.385 OA
HETATM   41  C20 UNL     1      44.793  26.824  32.719  1.00  0.00     0.187 C 
HETATM   42  C21 UNL     1      44.692  26.034  34.015  1.00  0.00     0.148 C 
ENDBRANCH  36  37
ENDBRANCH   7  36
TORSDOF 13
ENDMDL
