MODEL 1
REMARK VINA RESULT: -6.098651082      0.000      0.000
REMARK  15 active torsions:
REMARK  status: ('A' for Active; 'I' for Inactive)
REMARK    1  A    between atoms: C2_2  and  C3_3 
REMARK    2  A    between atoms: C3_3  and  C5_5 
REMARK    3  A    between atoms: C5_5  and  C6_6 
REMARK    4  A    between atoms: C6_6  and  C7_7 
REMARK    5  A    between atoms: C7_7  and  O1_8 
REMARK    6  A    between atoms: C7_7  and  C8_10 
REMARK    7  A    between atoms: C10_13  and  C11_14 
REMARK    8  A    between atoms: C11_14  and  C13_16 
REMARK    9  A    between atoms: C13_16  and  C14_17 
REMARK   10  A    between atoms: C15_18  and  N1_19 
REMARK   11  A    between atoms: C16_23  and  O3_24 
REMARK   12  A    between atoms: C17_26  and  O4_27 
REMARK   13  A    between atoms: C19_31  and  O6_32 
REMARK   14  A    between atoms: C22_36  and  C23_37 
REMARK   15  A    between atoms: C23_37  and  C24_38 
ROOT
HETATM    1  C8  UNL     1      46.808  17.784  38.200  1.00  0.00     0.128 C 
HETATM    2  C9  UNL     1      46.502  16.903  36.988  1.00  0.00     0.166 C 
HETATM    3  O2  UNL     1      45.773  17.042  36.051  1.00  0.00    -0.294 OA
HETATM    4  C10 UNL     1      47.326  15.693  37.133  1.00  0.00     0.196 C 
HETATM    5  O5  UNL     1      48.145  15.899  38.174  1.00  0.00    -0.363 OA
HETATM    6  C18 UNL     1      47.500  16.857  39.044  1.00  0.00     0.104 C 
HETATM    7  C19 UNL     1      46.813  16.028  40.049  1.00  0.00     0.154 C 
HETATM    8  C20 UNL     1      47.279  16.443  41.427  1.00  0.00     0.035 C 
HETATM    9  C21 UNL     1      48.250  17.610  41.205  1.00  0.00     0.010 C 
HETATM   10  C22 UNL     1      48.713  17.346  39.821  1.00  0.00     0.024 C 
ENDROOT
BRANCH   4  11
HETATM   11  C11 UNL     1      48.094  15.451  35.834  1.00  0.00     0.018 C 
HETATM   12  C12 UNL     1      47.879  14.130  35.242  1.00  0.00     0.013 C 
BRANCH  11  13
HETATM   13  C13 UNL     1      49.450  16.017  35.802  1.00  0.00     0.016 C 
BRANCH  13  14
HETATM   14  C14 UNL     1      49.560  17.413  35.301  1.00  0.00     0.050 C 
HETATM   15  C15 UNL     1      50.874  17.507  34.454  1.00  0.00     0.221 C 
HETATM   16  C16 UNL     1      50.062  17.172  33.258  1.00  0.00     0.178 C 
HETATM   17  C17 UNL     1      48.866  17.789  34.021  1.00  0.00     0.155 C 
BRANCH  15  18
HETATM   18  N1  UNL     1      51.838  16.494  34.825  1.00  0.00    -0.072 N 
ATOM     19  H13 UNL     1      52.279  16.714  35.718  1.00  0.00     0.274 HD
ATOM     20  H12 UNL     1      51.375  15.622  35.084  1.00  0.00     0.274 HD
ATOM     21  H11 UNL     1      52.535  16.339  34.096  1.00  0.00     0.274 HD
ENDBRANCH  15  18
BRANCH  16  22
HETATM   22  O3  UNL     1      50.343  17.908  32.107  1.00  0.00    -0.391 OA
ATOM     23  H3  UNL     1      50.126  17.488  31.283  1.00  0.00     0.210 HD
ENDBRANCH  16  22
BRANCH  17  24
HETATM   24  O4  UNL     1      47.697  17.221  33.636  1.00  0.00    -0.392 OA
ATOM     25  H4  UNL     1      47.576  16.844  32.772  1.00  0.00     0.210 HD
ENDBRANCH  17  24
ENDBRANCH  13  14
ENDBRANCH  11  13
ENDBRANCH   4  11
BRANCH   1  26
HETATM   26  C7  UNL     1      45.555  18.491  38.451  1.00  0.00     0.155 C 
BRANCH  26  27
HETATM   27  C6  UNL     1      45.271  19.245  39.660  1.00  0.00     0.006 C 
BRANCH  27  28
HETATM   28  C5  UNL     1      45.300  20.651  39.908  1.00  0.00     0.001 C 
BRANCH  28  29
HETATM   29  C3  UNL     1      46.296  21.509  40.502  1.00  0.00    -0.084 C 
HETATM   30  C4  UNL     1      47.634  21.607  39.777  1.00  0.00     0.043 C 
BRANCH  29  31
HETATM   31  C2  UNL     1      46.627  21.482  41.954  1.00  0.00     0.029 C 
HETATM   32  C1  UNL     1      48.138  21.164  42.118  1.00  0.00     0.010 C 
ENDBRANCH  29  31
ENDBRANCH  28  29
ENDBRANCH  27  28
ENDBRANCH  26  27
BRANCH  26  33
HETATM   33  O1  UNL     1      45.391  19.364  37.369  1.00  0.00    -0.391 OA
ATOM     34  H1  UNL     1      45.817  20.181  37.598  1.00  0.00     0.210 HD
ENDBRANCH  26  33
ENDBRANCH   1  26
BRANCH   7  35
HETATM   35  O6  UNL     1      45.433  15.941  39.967  1.00  0.00    -0.392 OA
ATOM     36  H6  UNL     1      44.926  16.607  40.416  1.00  0.00     0.210 HD
ENDBRANCH   7  35
BRANCH  10  37
HETATM   37  C23 UNL     1      49.467  18.428  39.140  1.00  0.00     0.012 C 
BRANCH  37  38
HETATM   38  C24 UNL     1      50.968  18.316  39.283  1.00  0.00    -0.014 A 
HETATM   39  C25 UNL     1      51.839  17.829  38.183  1.00  0.00     0.005 A 
HETATM   40  C26 UNL     1      51.629  16.993  39.434  1.00  0.00     0.005 A 
ENDBRANCH  37  38
ENDBRANCH  10  37
TORSDOF 15
ENDMDL
MODEL 2
REMARK VINA RESULT: -6.005907894      1.416      2.487
REMARK  15 active torsions:
REMARK  status: ('A' for Active; 'I' for Inactive)
REMARK    1  A    between atoms: C2_2  and  C3_3 
REMARK    2  A    between atoms: C3_3  and  C5_5 
REMARK    3  A    between atoms: C5_5  and  C6_6 
REMARK    4  A    between atoms: C6_6  and  C7_7 
REMARK    5  A    between atoms: C7_7  and  O1_8 
REMARK    6  A    between atoms: C7_7  and  C8_10 
REMARK    7  A    between atoms: C10_13  and  C11_14 
REMARK    8  A    between atoms: C11_14  and  C13_16 
REMARK    9  A    between atoms: C13_16  and  C14_17 
REMARK   10  A    between atoms: C15_18  and  N1_19 
REMARK   11  A    between atoms: C16_23  and  O3_24 
REMARK   12  A    between atoms: C17_26  and  O4_27 
REMARK   13  A    between atoms: C19_31  and  O6_32 
REMARK   14  A    between atoms: C22_36  and  C23_37 
REMARK   15  A    between atoms: C23_37  and  C24_38 
ROOT
HETATM    1  C8  UNL     1      46.806  18.535  38.927  1.00  0.00     0.128 C 
HETATM    2  C9  UNL     1      47.116  17.604  37.754  1.00  0.00     0.166 C 
HETATM    3  O2  UNL     1      46.716  17.562  36.628  1.00  0.00    -0.294 OA
HETATM    4  C10 UNL     1      48.101  16.629  38.245  1.00  0.00     0.196 C 
HETATM    5  O5  UNL     1      48.472  17.027  39.470  1.00  0.00    -0.363 OA
HETATM    6  C18 UNL     1      47.380  17.803  40.016  1.00  0.00     0.104 C 
HETATM    7  C19 UNL     1      46.614  16.835  40.818  1.00  0.00     0.154 C 
HETATM    8  C20 UNL     1      46.504  17.353  42.236  1.00  0.00     0.035 C 
HETATM    9  C21 UNL     1      47.203  18.718  42.237  1.00  0.00     0.010 C 
HETATM   10  C22 UNL     1      48.133  18.571  41.092  1.00  0.00     0.024 C 
ENDROOT
BRANCH   4  11
HETATM   11  C11 UNL     1      49.281  16.577  37.274  1.00  0.00     0.018 C 
HETATM   12  C12 UNL     1      50.346  17.538  37.565  1.00  0.00     0.013 C 
BRANCH  11  13
HETATM   13  C13 UNL     1      48.917  16.343  35.870  1.00  0.00     0.016 C 
BRANCH  13  14
HETATM   14  C14 UNL     1      49.523  17.270  34.878  1.00  0.00     0.050 C 
HETATM   15  C15 UNL     1      50.184  16.396  33.759  1.00  0.00     0.221 C 
HETATM   16  C16 UNL     1      48.903  16.481  33.013  1.00  0.00     0.178 C 
HETATM   17  C17 UNL     1      48.670  17.813  33.765  1.00  0.00     0.155 C 
BRANCH  15  18
HETATM   18  N1  UNL     1      50.515  15.068  34.226  1.00  0.00    -0.072 N 
ATOM     19  H13 UNL     1      50.410  14.996  35.238  1.00  0.00     0.274 HD
ATOM     20  H12 UNL     1      49.808  14.389  33.941  1.00  0.00     0.274 HD
ATOM     21  H11 UNL     1      51.447  14.775  33.930  1.00  0.00     0.274 HD
ENDBRANCH  15  18
BRANCH  16  22
HETATM   22  O3  UNL     1      49.012  16.704  31.640  1.00  0.00    -0.391 OA
ATOM     23  H3  UNL     1      48.970  15.931  31.090  1.00  0.00     0.210 HD
ENDBRANCH  16  22
BRANCH  17  24
HETATM   24  O4  UNL     1      47.346  18.060  33.921  1.00  0.00    -0.392 OA
ATOM     25  H4  UNL     1      46.900  18.754  33.449  1.00  0.00     0.210 HD
ENDBRANCH  17  24
ENDBRANCH  13  14
ENDBRANCH  11  13
ENDBRANCH   4  11
BRANCH   1  26
HETATM   26  C7  UNL     1      45.413  18.920  38.718  1.00  0.00     0.155 C 
BRANCH  26  27
HETATM   27  C6  UNL     1      44.676  19.823  39.586  1.00  0.00     0.006 C 
BRANCH  27  28
HETATM   28  C5  UNL     1      45.045  21.087  40.141  1.00  0.00     0.001 C 
BRANCH  28  29
HETATM   29  C3  UNL     1      45.456  22.327  39.531  1.00  0.00    -0.084 C 
HETATM   30  C4  UNL     1      44.699  22.758  38.279  1.00  0.00     0.043 C 
BRANCH  29  31
HETATM   31  C2  UNL     1      46.883  22.672  39.276  1.00  0.00     0.029 C 
HETATM   32  C1  UNL     1      46.950  23.706  38.120  1.00  0.00     0.010 C 
ENDBRANCH  29  31
ENDBRANCH  28  29
ENDBRANCH  27  28
ENDBRANCH  26  27
BRANCH  26  33
HETATM   33  O1  UNL     1      45.358  19.451  37.424  1.00  0.00    -0.391 OA
ATOM     34  H1  UNL     1      46.094  19.095  36.941  1.00  0.00     0.210 HD
ENDBRANCH  26  33
ENDBRANCH   1  26
BRANCH   7  35
HETATM   35  O6  UNL     1      45.392  16.418  40.317  1.00  0.00    -0.392 OA
ATOM     36  H6  UNL     1      44.749  17.089  40.121  1.00  0.00     0.210 HD
ENDBRANCH   7  35
BRANCH  10  37
HETATM   37  C23 UNL     1      48.800  19.803  40.598  1.00  0.00     0.012 C 
BRANCH  37  38
HETATM   38  C24 UNL     1      49.414  20.650  41.689  1.00  0.00    -0.014 A 
HETATM   39  C25 UNL     1      48.712  21.818  42.281  1.00  0.00     0.005 A 
HETATM   40  C26 UNL     1      49.936  22.012  41.402  1.00  0.00     0.005 A 
ENDBRANCH  37  38
ENDBRANCH  10  37
TORSDOF 15
ENDMDL
MODEL 3
REMARK VINA RESULT: -5.936509997      1.944      2.749
REMARK  15 active torsions:
REMARK  status: ('A' for Active; 'I' for Inactive)
REMARK    1  A    between atoms: C2_2  and  C3_3 
REMARK    2  A    between atoms: C3_3  and  C5_5 
REMARK    3  A    between atoms: C5_5  and  C6_6 
REMARK    4  A    between atoms: C6_6  and  C7_7 
REMARK    5  A    between atoms: C7_7  and  O1_8 
REMARK    6  A    between atoms: C7_7  and  C8_10 
REMARK    7  A    between atoms: C10_13  and  C11_14 
REMARK    8  A    between atoms: C11_14  and  C13_16 
REMARK    9  A    between atoms: C13_16  and  C14_17 
REMARK   10  A    between atoms: C15_18  and  N1_19 
REMARK   11  A    between atoms: C16_23  and  O3_24 
REMARK   12  A    between atoms: C17_26  and  O4_27 
REMARK   13  A    between atoms: C19_31  and  O6_32 
REMARK   14  A    between atoms: C22_36  and  C23_37 
REMARK   15  A    between atoms: C23_37  and  C24_38 
ROOT
HETATM    1  C8  UNL     1      47.248  17.556  37.045  1.00  0.00     0.128 C 
HETATM    2  C9  UNL     1      47.152  17.601  35.519  1.00  0.00     0.166 C 
HETATM    3  O2  UNL     1      46.426  18.187  34.772  1.00  0.00    -0.294 OA
HETATM    4  C10 UNL     1      48.206  16.712  35.008  1.00  0.00     0.196 C 
HETATM    5  O5  UNL     1      48.947  16.336  36.060  1.00  0.00    -0.363 OA
HETATM    6  C18 UNL     1      48.103  16.422  37.231  1.00  0.00     0.104 C 
HETATM    7  C19 UNL     1      47.586  15.054  37.405  1.00  0.00     0.154 C 
HETATM    8  C20 UNL     1      47.933  14.573  38.797  1.00  0.00     0.035 C 
HETATM    9  C21 UNL     1      48.645  15.748  39.479  1.00  0.00     0.010 C 
HETATM   10  C22 UNL     1      49.175  16.488  38.308  1.00  0.00     0.024 C 
ENDROOT
BRANCH   4  11
HETATM   11  C11 UNL     1      49.029  17.461  33.960  1.00  0.00     0.018 C 
HETATM   12  C12 UNL     1      48.775  17.043  32.581  1.00  0.00     0.013 C 
BRANCH  11  13
HETATM   13  C13 UNL     1      50.413  17.755  34.356  1.00  0.00     0.016 C 
BRANCH  13  14
HETATM   14  C14 UNL     1      51.415  16.701  34.049  1.00  0.00     0.050 C 
HETATM   15  C15 UNL     1      52.636  17.398  33.357  1.00  0.00     0.221 C 
HETATM   16  C16 UNL     1      53.245  17.545  34.703  1.00  0.00     0.178 C 
HETATM   17  C17 UNL     1      52.411  16.305  35.105  1.00  0.00     0.155 C 
BRANCH  15  18
HETATM   18  N1  UNL     1      52.268  18.648  32.728  1.00  0.00    -0.072 N 
ATOM     19  H13 UNL     1      51.337  18.946  33.019  1.00  0.00     0.274 HD
ATOM     20  H12 UNL     1      52.812  19.424  33.105  1.00  0.00     0.274 HD
ATOM     21  H11 UNL     1      52.341  18.604  31.712  1.00  0.00     0.274 HD
ENDBRANCH  15  18
BRANCH  16  22
HETATM   22  O3  UNL     1      54.609  17.267  34.787  1.00  0.00    -0.391 OA
ATOM     23  H3  UNL     1      55.186  17.894  34.366  1.00  0.00     0.210 HD
ENDBRANCH  16  22
BRANCH  17  24
HETATM   24  O4  UNL     1      52.111  16.328  36.427  1.00  0.00    -0.392 OA
ATOM     25  H4  UNL     1      52.255  15.578  36.993  1.00  0.00     0.210 HD
ENDBRANCH  17  24
ENDBRANCH  13  14
ENDBRANCH  11  13
ENDBRANCH   4  11
BRANCH   1  26
HETATM   26  C7  UNL     1      45.872  17.749  37.494  1.00  0.00     0.155 C 
BRANCH  26  27
HETATM   27  C6  UNL     1      45.427  17.560  38.865  1.00  0.00     0.006 C 
BRANCH  27  28
HETATM   28  C5  UNL     1      46.021  17.965  40.099  1.00  0.00     0.001 C 
BRANCH  28  29
HETATM   29  C3  UNL     1      46.492  19.243  40.572  1.00  0.00    -0.084 C 
HETATM   30  C4  UNL     1      46.957  19.306  42.023  1.00  0.00     0.043 C 
BRANCH  29  31
HETATM   31  C2  UNL     1      45.761  20.518  40.330  1.00  0.00     0.029 C 
HETATM   32  C1  UNL     1      45.900  21.423  41.583  1.00  0.00     0.010 C 
ENDBRANCH  29  31
ENDBRANCH  28  29
ENDBRANCH  27  28
ENDBRANCH  26  27
BRANCH  26  33
HETATM   33  O1  UNL     1      45.533  19.055  37.123  1.00  0.00    -0.391 OA
ATOM     34  H1  UNL     1      46.332  19.487  36.848  1.00  0.00     0.210 HD
ENDBRANCH  26  33
ENDBRANCH   1  26
BRANCH   7  35
HETATM   35  O6  UNL     1      46.256  14.832  37.091  1.00  0.00    -0.392 OA
ATOM     36  H6  UNL     1      45.610  15.026  37.760  1.00  0.00     0.210 HD
ENDBRANCH   7  35
BRANCH  10  37
HETATM   37  C23 UNL     1      49.700  17.856  38.551  1.00  0.00     0.012 C 
BRANCH  37  38
HETATM   38  C24 UNL     1      49.990  18.154  40.005  1.00  0.00    -0.014 A 
HETATM   39  C25 UNL     1      50.334  19.517  40.486  1.00  0.00     0.005 A 
HETATM   40  C26 UNL     1      51.376  18.411  40.476  1.00  0.00     0.005 A 
ENDBRANCH  37  38
ENDBRANCH  10  37
TORSDOF 15
ENDMDL
MODEL 4
REMARK VINA RESULT: -5.887398088      1.919      2.646
REMARK  15 active torsions:
REMARK  status: ('A' for Active; 'I' for Inactive)
REMARK    1  A    between atoms: C2_2  and  C3_3 
REMARK    2  A    between atoms: C3_3  and  C5_5 
REMARK    3  A    between atoms: C5_5  and  C6_6 
REMARK    4  A    between atoms: C6_6  and  C7_7 
REMARK    5  A    between atoms: C7_7  and  O1_8 
REMARK    6  A    between atoms: C7_7  and  C8_10 
REMARK    7  A    between atoms: C10_13  and  C11_14 
REMARK    8  A    between atoms: C11_14  and  C13_16 
REMARK    9  A    between atoms: C13_16  and  C14_17 
REMARK   10  A    between atoms: C15_18  and  N1_19 
REMARK   11  A    between atoms: C16_23  and  O3_24 
REMARK   12  A    between atoms: C17_26  and  O4_27 
REMARK   13  A    between atoms: C19_31  and  O6_32 
REMARK   14  A    between atoms: C22_36  and  C23_37 
REMARK   15  A    between atoms: C23_37  and  C24_38 
ROOT
HETATM    1  C8  UNL     1      46.735  18.575  39.005  1.00  0.00     0.128 C 
HETATM    2  C9  UNL     1      46.845  17.343  38.105  1.00  0.00     0.166 C 
HETATM    3  O2  UNL     1      46.334  17.055  37.063  1.00  0.00    -0.294 OA
HETATM    4  C10 UNL     1      47.784  16.426  38.767  1.00  0.00     0.196 C 
HETATM    5  O5  UNL     1      48.308  17.085  39.811  1.00  0.00    -0.363 OA
HETATM    6  C18 UNL     1      47.348  18.092  40.206  1.00  0.00     0.104 C 
HETATM    7  C19 UNL     1      46.582  17.457  41.291  1.00  0.00     0.154 C 
HETATM    8  C20 UNL     1      46.658  18.334  42.522  1.00  0.00     0.035 C 
HETATM    9  C21 UNL     1      47.471  19.567  42.106  1.00  0.00     0.010 C 
HETATM   10  C22 UNL     1      48.268  19.025  40.979  1.00  0.00     0.024 C 
ENDROOT
BRANCH   4  11
HETATM   11  C11 UNL     1      48.853  15.993  37.764  1.00  0.00     0.018 C 
HETATM   12  C12 UNL     1      50.054  15.418  38.372  1.00  0.00     0.013 C 
BRANCH  11  13
HETATM   13  C13 UNL     1      49.016  16.887  36.609  1.00  0.00     0.016 C 
BRANCH  13  14
HETATM   14  C14 UNL     1      49.518  16.252  35.362  1.00  0.00     0.050 C 
HETATM   15  C15 UNL     1      48.837  16.982  34.155  1.00  0.00     0.221 C 
HETATM   16  C16 UNL     1      50.003  17.900  34.123  1.00  0.00     0.178 C 
HETATM   17  C17 UNL     1      50.806  16.740  34.758  1.00  0.00     0.155 C 
BRANCH  15  18
HETATM   18  N1  UNL     1      47.590  17.613  34.529  1.00  0.00    -0.072 N 
ATOM     19  H13 UNL     1      46.795  17.007  34.327  1.00  0.00     0.274 HD
ATOM     20  H12 UNL     1      47.496  17.670  35.543  1.00  0.00     0.274 HD
ATOM     21  H11 UNL     1      47.476  18.529  34.096  1.00  0.00     0.274 HD
ENDBRANCH  15  18
BRANCH  16  22
HETATM   22  O3  UNL     1      50.501  18.208  32.857  1.00  0.00    -0.391 OA
ATOM     23  H3  UNL     1      50.342  19.094  32.553  1.00  0.00     0.210 HD
ENDBRANCH  16  22
BRANCH  17  24
HETATM   24  O4  UNL     1      51.828  17.212  35.514  1.00  0.00    -0.392 OA
ATOM     25  H4  UNL     1      52.578  17.655  35.134  1.00  0.00     0.210 HD
ENDBRANCH  17  24
ENDBRANCH  13  14
ENDBRANCH  11  13
ENDBRANCH   4  11
BRANCH   1  26
HETATM   26  C7  UNL     1      45.367  19.045  38.799  1.00  0.00     0.155 C 
BRANCH  26  27
HETATM   27  C6  UNL     1      44.724  20.064  39.611  1.00  0.00     0.006 C 
BRANCH  27  28
HETATM   28  C5  UNL     1      45.216  21.317  40.091  1.00  0.00     0.001 C 
BRANCH  28  29
HETATM   29  C3  UNL     1      45.548  22.548  39.416  1.00  0.00    -0.084 C 
HETATM   30  C4  UNL     1      44.798  22.841  38.121  1.00  0.00     0.043 C 
BRANCH  29  31
HETATM   31  C2  UNL     1      46.950  22.989  39.176  1.00  0.00     0.029 C 
HETATM   32  C1  UNL     1      47.009  23.767  37.834  1.00  0.00     0.010 C 
ENDBRANCH  29  31
ENDBRANCH  28  29
ENDBRANCH  27  28
ENDBRANCH  26  27
BRANCH  26  33
HETATM   33  O1  UNL     1      45.311  19.476  37.469  1.00  0.00    -0.391 OA
ATOM     34  H1  UNL     1      45.699  18.793  36.935  1.00  0.00     0.210 HD
ENDBRANCH  26  33
ENDBRANCH   1  26
BRANCH   7  35
HETATM   35  O6  UNL     1      45.285  17.062  41.009  1.00  0.00    -0.392 OA
ATOM     36  H6  UNL     1      44.970  16.268  41.424  1.00  0.00     0.210 HD
ENDBRANCH   7  35
BRANCH  10  37
HETATM   37  C23 UNL     1      48.988  20.004  40.126  1.00  0.00     0.012 C 
BRANCH  37  38
HETATM   38  C24 UNL     1      50.071  20.771  40.849  1.00  0.00    -0.014 A 
HETATM   39  C25 UNL     1      50.004  22.240  41.060  1.00  0.00     0.005 A 
HETATM   40  C26 UNL     1      51.024  21.638  40.109  1.00  0.00     0.005 A 
ENDBRANCH  37  38
ENDBRANCH  10  37
TORSDOF 15
ENDMDL
MODEL 5
REMARK VINA RESULT: -5.863260092      1.254      1.670
REMARK  15 active torsions:
REMARK  status: ('A' for Active; 'I' for Inactive)
REMARK    1  A    between atoms: C2_2  and  C3_3 
REMARK    2  A    between atoms: C3_3  and  C5_5 
REMARK    3  A    between atoms: C5_5  and  C6_6 
REMARK    4  A    between atoms: C6_6  and  C7_7 
REMARK    5  A    between atoms: C7_7  and  O1_8 
REMARK    6  A    between atoms: C7_7  and  C8_10 
REMARK    7  A    between atoms: C10_13  and  C11_14 
REMARK    8  A    between atoms: C11_14  and  C13_16 
REMARK    9  A    between atoms: C13_16  and  C14_17 
REMARK   10  A    between atoms: C15_18  and  N1_19 
REMARK   11  A    between atoms: C16_23  and  O3_24 
REMARK   12  A    between atoms: C17_26  and  O4_27 
REMARK   13  A    between atoms: C19_31  and  O6_32 
REMARK   14  A    between atoms: C22_36  and  C23_37 
REMARK   15  A    between atoms: C23_37  and  C24_38 
ROOT
HETATM    1  C8  UNL     1      46.756  17.480  38.090  1.00  0.00     0.128 C 
HETATM    2  C9  UNL     1      46.242  16.550  36.990  1.00  0.00     0.166 C 
HETATM    3  O2  UNL     1      45.442  16.699  36.114  1.00  0.00    -0.294 OA
HETATM    4  C10 UNL     1      46.947  15.271  37.162  1.00  0.00     0.196 C 
HETATM    5  O5  UNL     1      47.882  15.462  38.104  1.00  0.00    -0.363 OA
HETATM    6  C18 UNL     1      47.428  16.547  38.944  1.00  0.00     0.104 C 
HETATM    7  C19 UNL     1      46.762  15.877  40.073  1.00  0.00     0.154 C 
HETATM    8  C20 UNL     1      47.403  16.340  41.364  1.00  0.00     0.035 C 
HETATM    9  C21 UNL     1      48.463  17.372  40.957  1.00  0.00     0.010 C 
HETATM   10  C22 UNL     1      48.756  16.956  39.564  1.00  0.00     0.024 C 
ENDROOT
BRANCH   4  11
HETATM   11  C11 UNL     1      47.554  14.849  35.824  1.00  0.00     0.018 C 
HETATM   12  C12 UNL     1      47.574  13.403  35.600  1.00  0.00     0.013 C 
BRANCH  11  13
HETATM   13  C13 UNL     1      48.717  15.639  35.396  1.00  0.00     0.016 C 
BRANCH  13  14
HETATM   14  C14 UNL     1      48.985  15.660  33.934  1.00  0.00     0.050 C 
HETATM   15  C15 UNL     1      48.703  17.115  33.425  1.00  0.00     0.221 C 
HETATM   16  C16 UNL     1      50.137  17.417  33.664  1.00  0.00     0.178 C 
HETATM   17  C17 UNL     1      50.388  15.906  33.449  1.00  0.00     0.155 C 
BRANCH  15  18
HETATM   18  N1  UNL     1      47.790  17.830  34.290  1.00  0.00    -0.072 N 
ATOM     19  H13 UNL     1      46.887  17.969  33.837  1.00  0.00     0.274 HD
ATOM     20  H12 UNL     1      47.491  17.248  35.072  1.00  0.00     0.274 HD
ATOM     21  H11 UNL     1      48.181  18.715  34.616  1.00  0.00     0.274 HD
ENDBRANCH  15  18
BRANCH  16  22
HETATM   22  O3  UNL     1      50.774  18.166  32.674  1.00  0.00    -0.391 OA
ATOM     23  H3  UNL     1      51.200  18.963  32.967  1.00  0.00     0.210 HD
ENDBRANCH  16  22
BRANCH  17  24
HETATM   24  O4  UNL     1      51.476  15.489  34.142  1.00  0.00    -0.392 OA
ATOM     25  H4  UNL     1      52.357  15.769  33.919  1.00  0.00     0.210 HD
ENDBRANCH  17  24
ENDBRANCH  13  14
ENDBRANCH  11  13
ENDBRANCH   4  11
BRANCH   1  26
HETATM   26  C7  UNL     1      45.614  18.339  38.393  1.00  0.00     0.155 C 
BRANCH  26  27
HETATM   27  C6  UNL     1      45.530  19.206  39.556  1.00  0.00     0.006 C 
BRANCH  27  28
HETATM   28  C5  UNL     1      46.101  20.493  39.799  1.00  0.00     0.001 C 
BRANCH  28  29
HETATM   29  C3  UNL     1      47.378  20.899  40.332  1.00  0.00    -0.084 C 
HETATM   30  C4  UNL     1      47.511  20.913  41.851  1.00  0.00     0.043 C 
BRANCH  29  31
HETATM   31  C2  UNL     1      48.112  22.103  39.853  1.00  0.00     0.029 C 
HETATM   32  C1  UNL     1      47.113  23.043  39.126  1.00  0.00     0.010 C 
ENDBRANCH  29  31
ENDBRANCH  28  29
ENDBRANCH  27  28
ENDBRANCH  26  27
BRANCH  26  33
HETATM   33  O1  UNL     1      45.435  19.142  37.261  1.00  0.00    -0.391 OA
ATOM     34  H1  UNL     1      45.886  18.719  36.540  1.00  0.00     0.210 HD
ENDBRANCH  26  33
ENDBRANCH   1  26
BRANCH   7  35
HETATM   35  O6  UNL     1      45.380  15.938  40.125  1.00  0.00    -0.392 OA
ATOM     36  H6  UNL     1      44.898  15.180  39.816  1.00  0.00     0.210 HD
ENDBRANCH   7  35
BRANCH  10  37
HETATM   37  C23 UNL     1      49.547  17.894  38.729  1.00  0.00     0.012 C 
BRANCH  37  38
HETATM   38  C24 UNL     1      50.980  17.465  38.510  1.00  0.00    -0.014 A 
HETATM   39  C25 UNL     1      51.583  17.356  37.156  1.00  0.00     0.005 A 
HETATM   40  C26 UNL     1      51.307  16.113  37.985  1.00  0.00     0.005 A 
ENDBRANCH  37  38
ENDBRANCH  10  37
TORSDOF 15
ENDMDL
