MODEL 1
REMARK VINA RESULT: -6.147356826      0.000      0.000
REMARK  4 active torsions:
REMARK  status: ('A' for Active; 'I' for Inactive)
REMARK    1  A    between atoms: N1_1  and  C1_4 
REMARK    2  A    between atoms: C2_9  and  N4_10 
REMARK    3  A    between atoms: C3_13  and  N5_14 
REMARK    4  A    between atoms: N5_14  and  N6_16 
ROOT
HETATM    1  C1  UNL     1      17.030  56.151  52.638  1.00  0.00     0.692 A 
HETATM    2  N2  UNL     1      16.284  56.286  51.525  1.00  0.00    -0.131 N 
ATOM      3  H2  UNL     1      16.749  56.274  50.618  1.00  0.00     0.205 HD
HETATM    4  N3  UNL     1      14.969  56.433  51.566  1.00  0.00    -0.263 N 
ATOM      5  H3  UNL     1      14.459  56.531  50.688  1.00  0.00     0.189 HD
HETATM    6  C2  UNL     1      14.281  56.458  52.723  1.00  0.00     0.234 A 
HETATM    7  C3  UNL     1      15.035  56.320  53.878  1.00  0.00     0.187 A 
HETATM    8  N7  UNL     1      16.378  56.171  53.814  1.00  0.00    -0.170 N 
ATOM      9  H7  UNL     1      16.910  56.073  54.678  1.00  0.00     0.186 HD
ENDROOT
BRANCH   7  10
HETATM   10  N5  UNL     1      14.400  56.341  55.003  1.00  0.00    -0.288 N 
ATOM     11  H5  UNL     1      13.900  55.508  55.312  1.00  0.00     0.188 HD
BRANCH  10  12
HETATM   12  N6  UNL     1      14.388  57.486  55.804  1.00  0.00    -0.344 N 
ATOM     13  H62 UNL     1      15.277  57.842  56.157  1.00  0.00     0.176 HD
ATOM     14  H61 UNL     1      13.514  57.959  56.033  1.00  0.00     0.176 HD
ENDBRANCH  10  12
ENDBRANCH   7  10
BRANCH   6  15
HETATM   15  N4  UNL     1      12.866  56.615  52.782  1.00  0.00    -0.092 N 
HETATM   16  O1  UNL     1      12.086  55.784  52.255  1.00  0.00    -0.530 OA
HETATM   17  O2  UNL     1      12.279  57.683  53.416  1.00  0.00    -0.530 OA
ENDBRANCH   6  15
BRANCH   1  18
HETATM   18  N1  UNL     1      18.326  56.008  52.577  1.00  0.00    -0.233 N 
ATOM     19  H12 UNL     1      18.915  56.678  52.083  1.00  0.00     0.174 HD
ATOM     20  H11 UNL     1      18.797  55.219  53.021  1.00  0.00     0.174 HD
ENDBRANCH   1  18
TORSDOF 4
ENDMDL
MODEL 2
REMARK VINA RESULT: -6.135973247      1.009      1.140
REMARK  4 active torsions:
REMARK  status: ('A' for Active; 'I' for Inactive)
REMARK    1  A    between atoms: N1_1  and  C1_4 
REMARK    2  A    between atoms: C2_9  and  N4_10 
REMARK    3  A    between atoms: C3_13  and  N5_14 
REMARK    4  A    between atoms: N5_14  and  N6_16 
ROOT
HETATM    1  C1  UNL     1      16.162  55.990  51.987  1.00  0.00     0.692 A 
HETATM    2  N2  UNL     1      15.128  56.177  51.147  1.00  0.00    -0.131 N 
ATOM      3  H2  UNL     1      15.307  56.192  50.143  1.00  0.00     0.205 HD
HETATM    4  N3  UNL     1      13.886  56.343  51.576  1.00  0.00    -0.263 N 
ATOM      5  H3  UNL     1      13.144  56.481  50.890  1.00  0.00     0.189 HD
HETATM    6  C2  UNL     1      13.567  56.335  52.885  1.00  0.00     0.234 A 
HETATM    7  C3  UNL     1      14.622  56.143  53.763  1.00  0.00     0.187 A 
HETATM    8  N7  UNL     1      15.884  55.977  53.303  1.00  0.00    -0.170 N 
ATOM      9  H7  UNL     1      16.642  55.839  53.970  1.00  0.00     0.186 HD
ENDROOT
BRANCH   7  10
HETATM   10  N5  UNL     1      14.345  56.132  55.025  1.00  0.00    -0.288 N 
ATOM     11  H5  UNL     1      14.054  55.261  55.467  1.00  0.00     0.188 HD
BRANCH  10  12
HETATM   12  N6  UNL     1      14.437  57.296  55.794  1.00  0.00    -0.344 N 
ATOM     13  H62 UNL     1      14.966  58.084  55.421  1.00  0.00     0.176 HD
ATOM     14  H61 UNL     1      13.989  57.360  56.708  1.00  0.00     0.176 HD
ENDBRANCH  10  12
ENDBRANCH   7  10
BRANCH   6  15
HETATM   15  N4  UNL     1      12.236  56.511  53.360  1.00  0.00    -0.092 N 
HETATM   16  O1  UNL     1      11.418  57.262  52.775  1.00  0.00    -0.530 OA
HETATM   17  O2  UNL     1      11.776  55.869  54.485  1.00  0.00    -0.530 OA
ENDBRANCH   6  15
BRANCH   1  18
HETATM   18  N1  UNL     1      17.380  55.830  51.545  1.00  0.00    -0.233 N 
ATOM     19  H12 UNL     1      18.068  56.582  51.591  1.00  0.00     0.174 HD
ATOM     20  H11 UNL     1      17.687  54.947  51.136  1.00  0.00     0.174 HD
ENDBRANCH   1  18
TORSDOF 4
ENDMDL
MODEL 3
REMARK VINA RESULT: -5.469216643      2.334      4.059
REMARK  4 active torsions:
REMARK  status: ('A' for Active; 'I' for Inactive)
REMARK    1  A    between atoms: N1_1  and  C1_4 
REMARK    2  A    between atoms: C2_9  and  N4_10 
REMARK    3  A    between atoms: C3_13  and  N5_14 
REMARK    4  A    between atoms: N5_14  and  N6_16 
ROOT
HETATM    1  C1  UNL     1      11.325  56.109  54.642  1.00  0.00     0.692 A 
HETATM    2  N2  UNL     1      11.396  55.732  53.352  1.00  0.00    -0.131 N 
ATOM      3  H2  UNL     1      10.560  55.358  52.903  1.00  0.00     0.205 HD
HETATM    4  N3  UNL     1      12.510  55.829  52.644  1.00  0.00    -0.263 N 
ATOM      5  H3  UNL     1      12.501  55.527  51.670  1.00  0.00     0.189 HD
HETATM    6  C2  UNL     1      13.655  56.313  53.163  1.00  0.00     0.234 A 
HETATM    7  C3  UNL     1      13.599  56.706  54.491  1.00  0.00     0.187 A 
HETATM    8  N7  UNL     1      12.449  56.597  55.196  1.00  0.00    -0.170 N 
ATOM      9  H7  UNL     1      12.435  56.892  56.172  1.00  0.00     0.186 HD
ENDROOT
BRANCH   7  10
HETATM   10  N5  UNL     1      14.684  57.173  55.015  1.00  0.00    -0.288 N 
ATOM     11  H5  UNL     1      15.567  57.065  54.518  1.00  0.00     0.188 HD
BRANCH  10  12
HETATM   12  N6  UNL     1      14.666  57.824  56.251  1.00  0.00    -0.344 N 
ATOM     13  H62 UNL     1      15.530  58.248  56.589  1.00  0.00     0.176 HD
ATOM     14  H61 UNL     1      13.812  57.877  56.806  1.00  0.00     0.176 HD
ENDBRANCH  10  12
ENDBRANCH   7  10
BRANCH   6  15
HETATM   15  N4  UNL     1      14.861  56.424  52.412  1.00  0.00    -0.092 N 
HETATM   16  O1  UNL     1      15.906  55.813  52.745  1.00  0.00    -0.530 OA
HETATM   17  O2  UNL     1      14.947  57.206  51.286  1.00  0.00    -0.530 OA
ENDBRANCH   6  15
BRANCH   1  18
HETATM   18  N1  UNL     1      10.217  56.004  55.324  1.00  0.00    -0.233 N 
ATOM     19  H12 UNL     1       9.664  55.147  55.316  1.00  0.00     0.174 HD
ATOM     20  H11 UNL     1       9.864  56.777  55.889  1.00  0.00     0.174 HD
ENDBRANCH   1  18
TORSDOF 4
ENDMDL
MODEL 4
REMARK VINA RESULT: -5.464728160      1.671      2.298
REMARK  4 active torsions:
REMARK  status: ('A' for Active; 'I' for Inactive)
REMARK    1  A    between atoms: N1_1  and  C1_4 
REMARK    2  A    between atoms: C2_9  and  N4_10 
REMARK    3  A    between atoms: C3_13  and  N5_14 
REMARK    4  A    between atoms: N5_14  and  N6_16 
ROOT
HETATM    1  C1  UNL     1      14.855  56.128  52.037  1.00  0.00     0.692 A 
HETATM    2  N2  UNL     1      13.565  56.076  51.656  1.00  0.00    -0.131 N 
ATOM      3  H2  UNL     1      13.350  55.970  50.664  1.00  0.00     0.205 HD
HETATM    4  N3  UNL     1      12.565  56.155  52.520  1.00  0.00    -0.263 N 
ATOM      5  H3  UNL     1      11.608  56.109  52.170  1.00  0.00     0.189 HD
HETATM    6  C2  UNL     1      12.765  56.294  53.845  1.00  0.00     0.234 A 
HETATM    7  C3  UNL     1      14.089  56.350  54.253  1.00  0.00     0.187 A 
HETATM    8  N7  UNL     1      15.095  56.268  53.353  1.00  0.00    -0.170 N 
ATOM      9  H7  UNL     1      16.060  56.312  53.679  1.00  0.00     0.186 HD
ENDROOT
BRANCH   7  10
HETATM   10  N5  UNL     1      14.310  56.484  55.519  1.00  0.00    -0.288 N 
ATOM     11  H5  UNL     1      14.301  55.660  56.120  1.00  0.00     0.188 HD
BRANCH  10  12
HETATM   12  N6  UNL     1      14.562  57.740  56.079  1.00  0.00    -0.344 N 
ATOM     13  H62 UNL     1      13.776  58.269  56.457  1.00  0.00     0.176 HD
ATOM     14  H61 UNL     1      15.507  58.122  56.112  1.00  0.00     0.176 HD
ENDBRANCH  10  12
ENDBRANCH   7  10
BRANCH   6  15
HETATM   15  N4  UNL     1      11.700  56.380  54.786  1.00  0.00    -0.092 N 
HETATM   16  O1  UNL     1      11.584  57.356  55.567  1.00  0.00    -0.530 OA
HETATM   17  O2  UNL     1      10.743  55.400  54.891  1.00  0.00    -0.530 OA
ENDBRANCH   6  15
BRANCH   1  18
HETATM   18  N1  UNL     1      15.826  56.049  51.169  1.00  0.00    -0.233 N 
ATOM     19  H12 UNL     1      15.654  55.803  50.194  1.00  0.00     0.174 HD
ATOM     20  H11 UNL     1      16.795  56.230  51.435  1.00  0.00     0.174 HD
ENDBRANCH   1  18
TORSDOF 4
ENDMDL
MODEL 5
REMARK VINA RESULT: -5.269410517      1.387      2.704
REMARK  4 active torsions:
REMARK  status: ('A' for Active; 'I' for Inactive)
REMARK    1  A    between atoms: N1_1  and  C1_4 
REMARK    2  A    between atoms: C2_9  and  N4_10 
REMARK    3  A    between atoms: C3_13  and  N5_14 
REMARK    4  A    between atoms: N5_14  and  N6_16 
ROOT
HETATM    1  C1  UNL     1      16.379  55.956  52.036  1.00  0.00     0.692 A 
HETATM    2  N2  UNL     1      16.804  56.076  53.308  1.00  0.00    -0.131 N 
ATOM      3  H2  UNL     1      17.793  55.932  53.511  1.00  0.00     0.205 HD
HETATM    4  N3  UNL     1      15.985  56.375  54.304  1.00  0.00    -0.263 N 
ATOM      5  H3  UNL     1      16.366  56.452  55.247  1.00  0.00     0.189 HD
HETATM    6  C2  UNL     1      14.667  56.580  54.119  1.00  0.00     0.234 A 
HETATM    7  C3  UNL     1      14.214  56.460  52.814  1.00  0.00     0.187 A 
HETATM    8  N7  UNL     1      15.069  56.153  51.811  1.00  0.00    -0.170 N 
ATOM      9  H7  UNL     1      14.710  56.070  50.860  1.00  0.00     0.186 HD
ENDROOT
BRANCH   7  10
HETATM   10  N5  UNL     1      12.953  56.651  52.607  1.00  0.00    -0.288 N 
ATOM     11  H5  UNL     1      12.612  57.595  52.426  1.00  0.00     0.188 HD
BRANCH  10  12
HETATM   12  N6  UNL     1      12.048  55.586  52.627  1.00  0.00    -0.344 N 
ATOM     13  H62 UNL     1      11.051  55.797  52.653  1.00  0.00     0.176 HD
ATOM     14  H61 UNL     1      12.373  54.619  52.615  1.00  0.00     0.176 HD
ENDBRANCH  10  12
ENDBRANCH   7  10
BRANCH   6  15
HETATM   15  N4  UNL     1      13.774  56.903  55.181  1.00  0.00    -0.092 N 
HETATM   16  O1  UNL     1      14.073  57.742  56.065  1.00  0.00    -0.530 OA
HETATM   17  O2  UNL     1      12.539  56.312  55.297  1.00  0.00    -0.530 OA
ENDBRANCH   6  15
BRANCH   1  18
HETATM   18  N1  UNL     1      17.203  55.660  51.068  1.00  0.00    -0.233 N 
ATOM     19  H12 UNL     1      17.526  54.705  50.914  1.00  0.00     0.174 HD
ATOM     20  H11 UNL     1      17.554  56.374  50.429  1.00  0.00     0.174 HD
ENDBRANCH   1  18
TORSDOF 4
ENDMDL
