MODEL 1
REMARK VINA RESULT: -5.830590150      0.000      0.000
REMARK  3 active torsions:
REMARK  status: ('A' for Active; 'I' for Inactive)
REMARK    1  A    between atoms: N1_2  and  C2_4 
REMARK    2  A    between atoms: C4_13  and  N6_14 
REMARK    3  A    between atoms: N6_14  and  N7_16 
ROOT
HETATM    1  N7  UNL     1      14.138  57.280  55.410  1.00  0.00    -0.235 N 
ATOM      2  H7  UNL     1      14.589  58.149  55.698  1.00  0.00     0.199 HD
HETATM    3  C5  UNL     1      12.728  57.228  55.398  1.00  0.00     0.197 C 
HETATM    4  N8  UNL     1      11.564  57.185  55.384  1.00  0.00    -0.170 NA
ENDROOT
BRANCH   1   5
HETATM    5  N6  UNL     1      14.933  56.217  55.053  1.00  0.00    -0.273 N 
ATOM      6  H6  UNL     1      14.993  55.437  55.708  1.00  0.00     0.189 HD
BRANCH   5   7
HETATM    7  C4  UNL     1      15.605  56.124  53.968  1.00  0.00     0.169 A 
HETATM    8  C2  UNL     1      15.055  55.645  52.808  1.00  0.00     0.162 A 
HETATM    9  N2  UNL     1      15.815  55.568  51.681  1.00  0.00    -0.280 N 
HETATM   10  N3  UNL     1      17.084  55.945  51.666  1.00  0.00    -0.272 N 
ATOM     11  H2  UNL     1      15.395  55.210  50.823  1.00  0.00     0.188 HD
HETATM   12  C3  UNL     1      17.626  56.419  52.811  1.00  0.00     0.208 A 
ATOM     13  H3  UNL     1      17.638  55.880  50.813  1.00  0.00     0.189 HD
HETATM   14  N4  UNL     1      19.007  56.817  52.748  1.00  0.00    -0.062 NA
HETATM   15  N5  UNL     1      16.914  56.511  53.939  1.00  0.00    -0.311 N 
ATOM     16  H5  UNL     1      17.354  56.873  54.785  1.00  0.00     0.170 HD
BRANCH   8  17
HETATM   17  N1  UNL     1      13.830  55.273  52.797  1.00  0.00    -0.377 N 
HETATM   18  C1  UNL     1      12.793  56.005  52.114  1.00  0.00     0.148 C 
ATOM     19  H1  UNL     1      13.576  54.420  53.294  1.00  0.00     0.160 HD
ENDBRANCH   8  17
ENDBRANCH   5   7
ENDBRANCH   1   5
TORSDOF 3
ENDMDL
MODEL 2
REMARK VINA RESULT: -5.369552083      1.477      4.636
REMARK  3 active torsions:
REMARK  status: ('A' for Active; 'I' for Inactive)
REMARK    1  A    between atoms: N1_2  and  C2_4 
REMARK    2  A    between atoms: C4_13  and  N6_14 
REMARK    3  A    between atoms: N6_14  and  N7_16 
ROOT
HETATM    1  N7  UNL     1      16.040  56.555  54.473  1.00  0.00    -0.235 N 
ATOM      2  H7  UNL     1      16.022  57.246  55.225  1.00  0.00     0.199 HD
HETATM    3  C5  UNL     1      17.104  56.599  53.548  1.00  0.00     0.197 C 
HETATM    4  N8  UNL     1      17.985  56.632  52.786  1.00  0.00    -0.170 NA
ENDROOT
BRANCH   1   5
HETATM    5  N6  UNL     1      15.026  55.628  54.411  1.00  0.00    -0.273 N 
ATOM      6  H6  UNL     1      15.261  54.663  54.642  1.00  0.00     0.189 HD
BRANCH   5   7
HETATM    7  C4  UNL     1      13.813  55.876  54.088  1.00  0.00     0.169 A 
HETATM    8  C2  UNL     1      13.393  55.883  52.784  1.00  0.00     0.162 A 
HETATM    9  N2  UNL     1      12.090  56.153  52.494  1.00  0.00    -0.280 N 
HETATM   10  N3  UNL     1      11.203  56.412  53.443  1.00  0.00    -0.272 N 
ATOM     11  H2  UNL     1      11.788  56.156  51.520  1.00  0.00     0.188 HD
HETATM   12  C3  UNL     1      11.618  56.405  54.730  1.00  0.00     0.208 A 
ATOM     13  H3  UNL     1      10.231  56.613  53.208  1.00  0.00     0.189 HD
HETATM   14  N4  UNL     1      10.621  56.692  55.725  1.00  0.00    -0.062 NA
HETATM   15  N5  UNL     1      12.888  56.144  55.056  1.00  0.00    -0.311 N 
ATOM     16  H5  UNL     1      13.169  56.146  56.037  1.00  0.00     0.170 HD
BRANCH   8  17
HETATM   17  N1  UNL     1      14.232  55.636  51.848  1.00  0.00    -0.377 N 
HETATM   18  C1  UNL     1      14.770  56.656  50.985  1.00  0.00     0.148 C 
ATOM     19  H1  UNL     1      14.533  54.671  51.708  1.00  0.00     0.160 HD
ENDBRANCH   8  17
ENDBRANCH   5   7
ENDBRANCH   1   5
TORSDOF 3
ENDMDL
MODEL 3
REMARK VINA RESULT: -5.213058490      1.437      2.673
REMARK  3 active torsions:
REMARK  status: ('A' for Active; 'I' for Inactive)
REMARK    1  A    between atoms: N1_2  and  C2_4 
REMARK    2  A    between atoms: C4_13  and  N6_14 
REMARK    3  A    between atoms: N6_14  and  N7_16 
ROOT
HETATM    1  N7  UNL     1      11.854  55.775  53.634  1.00  0.00    -0.235 N 
ATOM      2  H7  UNL     1      11.721  54.824  53.287  1.00  0.00     0.199 HD
HETATM    3  C5  UNL     1      11.089  56.198  54.741  1.00  0.00     0.197 C 
HETATM    4  N8  UNL     1      10.461  56.547  55.658  1.00  0.00    -0.170 NA
ENDROOT
BRANCH   1   5
HETATM    5  N6  UNL     1      12.770  56.581  52.999  1.00  0.00    -0.273 N 
ATOM      6  H6  UNL     1      12.408  57.383  52.483  1.00  0.00     0.189 HD
BRANCH   5   7
HETATM    7  C4  UNL     1      14.038  56.409  53.003  1.00  0.00     0.169 A 
HETATM    8  C2  UNL     1      14.774  56.435  54.158  1.00  0.00     0.162 A 
HETATM    9  N2  UNL     1      16.121  56.246  54.106  1.00  0.00    -0.280 N 
HETATM   10  N3  UNL     1      16.754  56.035  52.962  1.00  0.00    -0.272 N 
ATOM     11  H2  UNL     1      16.659  56.267  54.972  1.00  0.00     0.188 HD
HETATM   12  C3  UNL     1      16.026  56.009  51.821  1.00  0.00     0.208 A 
ATOM     13  H3  UNL     1      17.764  55.895  52.941  1.00  0.00     0.189 HD
HETATM   14  N4  UNL     1      16.755  55.776  50.604  1.00  0.00    -0.062 NA
HETATM   15  N5  UNL     1      14.702  56.190  51.830  1.00  0.00    -0.311 N 
ATOM     16  H5  UNL     1      14.183  56.164  50.952  1.00  0.00     0.170 HD
BRANCH   8  17
HETATM   17  N1  UNL     1      14.186  56.638  55.277  1.00  0.00    -0.377 N 
HETATM   18  C1  UNL     1      14.316  57.865  56.022  1.00  0.00     0.148 C 
ATOM     19  H1  UNL     1      13.598  55.897  55.659  1.00  0.00     0.160 HD
ENDBRANCH   8  17
ENDBRANCH   5   7
ENDBRANCH   1   5
TORSDOF 3
ENDMDL
MODEL 4
REMARK VINA RESULT: -4.972824928      1.265      2.672
REMARK  3 active torsions:
REMARK  status: ('A' for Active; 'I' for Inactive)
REMARK    1  A    between atoms: N1_2  and  C2_4 
REMARK    2  A    between atoms: C4_13  and  N6_14 
REMARK    3  A    between atoms: N6_14  and  N7_16 
ROOT
HETATM    1  N7  UNL     1      12.493  55.748  52.636  1.00  0.00    -0.235 N 
ATOM      2  H7  UNL     1      11.663  55.220  52.365  1.00  0.00     0.199 HD
HETATM    3  C5  UNL     1      12.453  57.155  52.541  1.00  0.00     0.197 C 
HETATM    4  N8  UNL     1      12.419  58.317  52.467  1.00  0.00    -0.170 NA
ENDROOT
BRANCH   1   5
HETATM    5  N6  UNL     1      13.596  55.055  53.078  1.00  0.00    -0.273 N 
ATOM      6  H6  UNL     1      13.457  54.083  53.353  1.00  0.00     0.189 HD
BRANCH   5   7
HETATM    7  C4  UNL     1      14.780  55.528  53.172  1.00  0.00     0.169 A 
HETATM    8  C2  UNL     1      15.227  56.156  54.304  1.00  0.00     0.162 A 
HETATM    9  N2  UNL     1      16.499  56.642  54.352  1.00  0.00    -0.280 N 
HETATM   10  N3  UNL     1      17.329  56.527  53.327  1.00  0.00    -0.272 N 
ATOM     11  H2  UNL     1      16.821  57.108  55.200  1.00  0.00     0.188 HD
HETATM   12  C3  UNL     1      16.888  55.906  52.209  1.00  0.00     0.208 A 
ATOM     13  H3  UNL     1      18.278  56.897  53.380  1.00  0.00     0.189 HD
HETATM   14  N4  UNL     1      17.824  55.804  51.122  1.00  0.00    -0.062 NA
HETATM   15  N5  UNL     1      15.648  55.415  52.123  1.00  0.00    -0.311 N 
ATOM     16  H5  UNL     1      15.346  54.952  51.265  1.00  0.00     0.170 HD
BRANCH   8  17
HETATM   17  N1  UNL     1      14.443  56.281  55.309  1.00  0.00    -0.377 N 
HETATM   18  C1  UNL     1      14.074  57.558  55.864  1.00  0.00     0.148 C 
ATOM     19  H1  UNL     1      14.061  55.436  55.735  1.00  0.00     0.160 HD
ENDBRANCH   8  17
ENDBRANCH   5   7
ENDBRANCH   1   5
TORSDOF 3
ENDMDL
MODEL 5
REMARK VINA RESULT: -4.931802874      1.408      1.625
REMARK  3 active torsions:
REMARK  status: ('A' for Active; 'I' for Inactive)
REMARK    1  A    between atoms: N1_2  and  C2_4 
REMARK    2  A    between atoms: C4_13  and  N6_14 
REMARK    3  A    between atoms: N6_14  and  N7_16 
ROOT
HETATM    1  N7  UNL     1      14.063  56.038  55.659  1.00  0.00    -0.235 N 
ATOM      2  H7  UNL     1      13.752  55.590  56.522  1.00  0.00     0.199 HD
HETATM    3  C5  UNL     1      14.360  57.416  55.688  1.00  0.00     0.197 C 
HETATM    4  N8  UNL     1      14.609  58.554  55.711  1.00  0.00    -0.170 NA
ENDROOT
BRANCH   1   5
HETATM    5  N6  UNL     1      14.172  55.267  54.525  1.00  0.00    -0.273 N 
ATOM      6  H6  UNL     1      13.795  54.320  54.565  1.00  0.00     0.189 HD
BRANCH   5   7
HETATM    7  C4  UNL     1      14.708  55.640  53.424  1.00  0.00     0.169 A 
HETATM    8  C2  UNL     1      13.960  55.995  52.333  1.00  0.00     0.162 A 
HETATM    9  N2  UNL     1      14.580  56.384  51.185  1.00  0.00    -0.280 N 
HETATM   10  N3  UNL     1      15.900  56.432  51.086  1.00  0.00    -0.272 N 
ATOM     11  H2  UNL     1      14.013  56.647  50.379  1.00  0.00     0.188 HD
HETATM   12  C3  UNL     1      16.638  56.081  52.164  1.00  0.00     0.208 A 
ATOM     13  H3  UNL     1      16.348  56.725  50.218  1.00  0.00     0.189 HD
HETATM   14  N4  UNL     1      18.066  56.148  52.010  1.00  0.00    -0.062 NA
HETATM   15  N5  UNL     1      16.067  55.694  53.309  1.00  0.00    -0.311 N 
ATOM     16  H5  UNL     1      16.653  55.437  54.103  1.00  0.00     0.170 HD
BRANCH   8  17
HETATM   17  N1  UNL     1      12.682  55.957  52.403  1.00  0.00    -0.377 N 
HETATM   18  C1  UNL     1      11.889  57.055  52.895  1.00  0.00     0.148 C 
ATOM     19  H1  UNL     1      12.202  55.110  52.097  1.00  0.00     0.160 HD
ENDBRANCH   8  17
ENDBRANCH   5   7
ENDBRANCH   1   5
TORSDOF 3
ENDMDL
