REMARK  9 active torsions:
REMARK  status: ('A' for Active; 'I' for Inactive)
REMARK    1  A    between atoms: O1_2  and  C2_3 
REMARK    2  A    between atoms: C5_7  and  O3_8 
REMARK    3  A    between atoms: C6_10  and  O4_11 
REMARK    4  A    between atoms: C7_13  and  O5_15 
REMARK    5  A    between atoms: C15_23  and  O6_24 
REMARK    6  A    between atoms: C20_30  and  C21_31 
REMARK    7  A    between atoms: C21_31  and  C22_33 
REMARK    8  A    between atoms: C22_33  and  C23_34 
REMARK    9  A    between atoms: C26_37  and  C27_38 
ROOT
HETATM    1  C2  UNL     1      -0.721  -2.295  -1.335  1.00  0.00     0.196 C 
HETATM    2  C3  UNL     1      -0.190  -1.137  -0.703  1.00  0.00     0.093 C 
HETATM    3  C4  UNL     1       0.645  -0.634  -1.873  1.00  0.00     0.157 C 
HETATM    4  O2  UNL     1       0.767  -1.647  -2.822  1.00  0.00    -0.343 OA
HETATM    5  C5  UNL     1       0.593  -2.784  -2.003  1.00  0.00     0.219 C 
HETATM    6  C6  UNL     1       1.830  -2.781  -1.241  1.00  0.00     0.218 C 
HETATM    7  C7  UNL     1       2.683  -1.538  -1.273  1.00  0.00     0.105 C 
HETATM    8  C8  UNL     1       3.690  -1.690  -0.165  1.00  0.00     0.050 C 
HETATM    9  C9  UNL     1       1.910  -0.201  -1.234  1.00  0.00     0.086 C 
HETATM   10  C10 UNL     1       2.550   0.667  -2.291  1.00  0.00    -0.008 C 
HETATM   11  C11 UNL     1       2.216   1.999  -2.660  1.00  0.00    -0.025 C 
HETATM   12  C12 UNL     1       0.889   2.522  -2.983  1.00  0.00     0.009 C 
HETATM   13  C13 UNL     1       1.157   3.792  -3.879  1.00  0.00     0.014 C 
HETATM   14  C14 UNL     1       0.014   3.128  -1.959  1.00  0.00     0.079 C 
HETATM   15  C15 UNL     1      -0.191   2.368  -0.632  1.00  0.00     0.187 C 
HETATM   16  C17 UNL     1       1.051   2.641   0.133  1.00  0.00     0.243 C 
HETATM   17  O7  UNL     1       2.099   1.826  -0.097  1.00  0.00    -0.349 OA
HETATM   18  C18 UNL     1       1.915   0.455   0.055  1.00  0.00     0.061 C 
HETATM   19  C19 UNL     1       1.071   0.234   1.195  1.00  0.00     0.022 C 
HETATM   20  C20 UNL     1      -0.407   0.310   1.196  1.00  0.00     0.122 C 
HETATM   21  C26 UNL     1      -0.881   0.069  -0.197  1.00  0.00     0.139 C 
HETATM   22  O10 UNL     1      -0.613   1.185  -0.918  1.00  0.00    -0.333 OA
ENDROOT
BRANCH  20  23
HETATM   23  C21 UNL     1      -0.921  -0.579   2.267  1.00  0.00     0.138 C 
HETATM   24  O8  UNL     1      -1.639  -1.535   2.162  1.00  0.00    -0.297 OA
BRANCH  23  25
HETATM   25  C22 UNL     1      -0.498  -0.256   3.672  1.00  0.00     0.083 C 
BRANCH  25  26
HETATM   26  C23 UNL     1      -1.653  -0.055   4.591  1.00  0.00    -0.016 C 
HETATM   27  C24 UNL     1      -2.546  -1.241   4.709  1.00  0.00     0.010 C 
HETATM   28  C25 UNL     1      -2.430   1.214   4.289  1.00  0.00     0.010 C 
ENDBRANCH  25  26
ENDBRANCH  23  25
ENDBRANCH  20  23
BRANCH  21  29
HETATM   29  C27 UNL     1      -2.351  -0.169  -0.238  1.00  0.00     0.271 C 
HETATM   30  O9  UNL     1      -3.089   0.625  -0.826  1.00  0.00    -0.304 OA
ENDBRANCH  21  29
BRANCH   1  31
HETATM   31  O1  UNL     1      -1.331  -3.314  -0.705  1.00  0.00    -0.385 OA
HETATM   32  C1  UNL     1      -2.474  -3.733  -1.360  1.00  0.00     0.202 C 
ENDBRANCH   1  31
BRANCH  15  33
HETATM   33  O6  UNL     1      -1.251   3.065  -0.049  1.00  0.00    -0.358 OA
HETATM   34  C16 UNL     1      -1.072   4.331   0.348  1.00  0.00     0.205 C 
ENDBRANCH  15  33
BRANCH   7  35
HETATM   35  O5  UNL     1       3.506  -1.578  -2.435  1.00  0.00    -0.386 OA
ATOM     36  H5  UNL     1       4.043  -0.795  -2.455  1.00  0.00     0.210 HD
ENDBRANCH   7  35
BRANCH   5  37
HETATM   37  O3  UNL     1       0.324  -3.895  -2.761  1.00  0.00    -0.361 OA
ATOM     38  H3  UNL     1       1.128  -4.194  -3.170  1.00  0.00     0.213 HD
ENDBRANCH   5  37
BRANCH   6  39
HETATM   39  O4  UNL     1       1.863  -3.466  -0.011  1.00  0.00    -0.387 OA
ATOM     40  H4  UNL     1       2.672  -3.464   0.487  1.00  0.00     0.210 HD
ENDBRANCH   6  39
TORSDOF 9
