REMARK  23 active torsions:
REMARK  status: ('A' for Active; 'I' for Inactive)
REMARK    1  A    between atoms: C2_2  and  C3_3 
REMARK    2  A    between atoms: C3_3  and  N1_4 
REMARK    3  A    between atoms: N1_4  and  C4_5 
REMARK       I    between atoms: N1_4  and  C8_9 
REMARK    4  A    between atoms: C4_5  and  C5_6 
REMARK    5  A    between atoms: C8_9  and  O2_11 
REMARK    6  A    between atoms: O2_11  and  C9_12 
REMARK    7  A    between atoms: C9_12  and  C10_13 
REMARK    8  A    between atoms: C9_12  and  C18_26 
REMARK    9  A    between atoms: C9_12  and  C29_37 
REMARK   10  A    between atoms: C10_13  and  N2_14 
REMARK   11  A    between atoms: N2_14  and  C11_15 
REMARK   12  A    between atoms: N2_14  and  C14_18 
REMARK   13  A    between atoms: C11_15  and  C12_16 
REMARK   14  A    between atoms: C14_18  and  O3_19 
REMARK   15  A    between atoms: C14_18  and  N3_21 
REMARK   16  A    between atoms: N3_21  and  C15_23 
REMARK   17  A    between atoms: C15_23  and  C16_24 
REMARK   18  A    between atoms: C18_26  and  C19_27 
REMARK   19  A    between atoms: C29_37  and  O4_38 
REMARK   20  A    between atoms: C29_37  and  C30_40 
REMARK   21  A    between atoms: C30_40  and  N4_41 
REMARK       I    between atoms: N4_41  and  C31_43 
REMARK   22  A    between atoms: C31_43  and  O6_45 
REMARK   23  A    between atoms: O6_45  and  C32_46 
ROOT
HETATM    1  C9  UNL     1      -0.133   0.023   0.161  1.00  0.00     0.135 C 
ENDROOT
BRANCH   1   2
HETATM    2  O2  UNL     1      -1.184   0.418  -0.743  1.00  0.00    -0.284 OA
BRANCH   2   3
HETATM    3  C8  UNL     1      -2.155   1.328  -0.558  1.00  0.00     0.364 C 
HETATM    4  N1  UNL     1      -3.165   1.646  -1.541  1.00  0.00    -0.324 N 
HETATM    5  O1  UNL     1      -2.212   1.943   0.506  1.00  0.00    -0.238 OA
BRANCH   4   6
HETATM    6  C3  UNL     1      -3.107   1.003  -2.832  1.00  0.00     0.154 C 
BRANCH   6   7
HETATM    7  C2  UNL     1      -3.878  -0.249  -2.820  1.00  0.00    -0.017 C 
HETATM    8  C1  UNL     1      -4.907  -0.451  -3.614  1.00  0.00     0.008 C 
ENDBRANCH   6   7
ENDBRANCH   4   6
BRANCH   4   9
HETATM    9  C4  UNL     1      -4.232   2.548  -1.277  1.00  0.00     0.132 C 
BRANCH   9  10
HETATM   10  C5  UNL     1      -4.004   3.985  -1.575  1.00  0.00    -0.005 C 
HETATM   11  C6  UNL     1      -3.676   4.218  -3.046  1.00  0.00     0.011 C 
HETATM   12  C7  UNL     1      -3.035   4.696  -0.691  1.00  0.00     0.011 C 
ENDBRANCH   9  10
ENDBRANCH   4   9
ENDBRANCH   2   3
ENDBRANCH   1   2
BRANCH   1  13
HETATM   13  C10 UNL     1       0.674  -0.960  -0.584  1.00  0.00     0.109 C 
BRANCH  13  14
HETATM   14  N2  UNL     1       1.959  -1.426  -0.453  1.00  0.00    -0.324 N 
BRANCH  14  15
HETATM   15  C11 UNL     1       2.919  -1.077  -1.547  1.00  0.00     0.131 C 
BRANCH  15  16
HETATM   16  C12 UNL     1       3.800   0.038  -1.430  1.00  0.00     0.016 C 
HETATM   17  C13 UNL     1       4.783   0.204  -0.354  1.00  0.00     0.006 C 
ENDBRANCH  15  16
ENDBRANCH  14  15
BRANCH  14  18
HETATM   18  C14 UNL     1       2.587  -2.295   0.424  1.00  0.00     0.218 C 
BRANCH  18  19
HETATM   19  O3  UNL     1       3.860  -2.623   0.176  1.00  0.00    -0.332 OA
ATOM     20  H3  UNL     1       4.291  -3.219   0.777  1.00  0.00     0.220 HD
ENDBRANCH  18  19
BRANCH  18  21
HETATM   21  N3  UNL     1       2.200  -2.962   1.592  1.00  0.00    -0.356 N 
ATOM     22  H3  UNL     1       1.251  -2.797   1.928  1.00  0.00     0.163 HD
BRANCH  21  23
HETATM   23  C15 UNL     1       3.034  -3.874   2.373  1.00  0.00     0.123 C 
BRANCH  23  24
HETATM   24  C16 UNL     1       3.466  -5.101   1.652  1.00  0.00     0.015 C 
HETATM   25  C17 UNL     1       4.312  -5.931   2.605  1.00  0.00     0.006 C 
ENDBRANCH  23  24
ENDBRANCH  21  23
ENDBRANCH  18  21
ENDBRANCH  14  18
ENDBRANCH  13  14
ENDBRANCH   1  13
BRANCH   1  26
HETATM   26  C18 UNL     1      -0.832  -0.699   1.323  1.00  0.00     0.057 C 
BRANCH  26  27
HETATM   27  C19 UNL     1      -1.703  -1.809   1.418  1.00  0.00    -0.036 C 
HETATM   28  C20 UNL     1      -1.516  -3.187   0.968  1.00  0.00     0.014 C 
HETATM   29  C21 UNL     1      -2.709  -4.113   1.297  1.00  0.00    -0.013 C 
HETATM   30  C22 UNL     1      -4.022  -3.561   0.903  1.00  0.00     0.009 C 
HETATM   31  C26 UNL     1      -2.655  -4.380   2.793  1.00  0.00     0.009 C 
HETATM   32  C23 UNL     1      -4.205  -2.306   1.729  1.00  0.00    -0.013 C 
HETATM   33  C24 UNL     1      -4.154  -2.521   3.195  1.00  0.00     0.009 C 
HETATM   34  C28 UNL     1      -3.166  -1.354   1.266  1.00  0.00     0.014 C 
HETATM   35  C25 UNL     1      -2.717  -3.018   3.440  1.00  0.00    -0.013 C 
HETATM   36  C27 UNL     1      -1.715  -2.065   3.004  1.00  0.00     0.014 C 
ENDBRANCH  26  27
ENDBRANCH   1  26
BRANCH   1  37
HETATM   37  C29 UNL     1       0.533   1.136   0.855  1.00  0.00     0.197 C 
BRANCH  37  38
HETATM   38  O4  UNL     1       1.461   0.469   1.773  1.00  0.00    -0.387 OA
ATOM     39  H4  UNL     1       1.891   1.188   2.221  1.00  0.00     0.210 HD
ENDBRANCH  37  38
BRANCH  37  40
HETATM   40  C30 UNL     1       1.253   2.252   0.408  1.00  0.00     0.101 C 
BRANCH  40  41
HETATM   41  N4  UNL     1       0.899   3.241  -0.532  1.00  0.00    -0.314 N 
HETATM   42  C31 UNL     1       1.760   4.334  -0.869  1.00  0.00     0.365 C 
HETATM   43  O5  UNL     1       2.893   4.500  -0.358  1.00  0.00    -0.238 OA
ATOM     44  H4  UNL     1      -0.009   3.175  -0.992  1.00  0.00     0.170 HD
BRANCH  42  45
HETATM   45  O6  UNL     1       1.330   5.249  -1.796  1.00  0.00    -0.294 OA
BRANCH  45  46
HETATM   46  C32 UNL     1       2.075   6.369  -2.217  1.00  0.00     0.061 C 
HETATM   47  C33 UNL     1       2.419   7.317  -1.115  1.00  0.00     0.046 C 
HETATM   48  C34 UNL     1       3.343   5.964  -2.940  1.00  0.00     0.046 C 
HETATM   49  C35 UNL     1       1.244   7.153  -3.238  1.00  0.00     0.046 C 
ENDBRANCH  45  46
ENDBRANCH  42  45
ENDBRANCH  40  41
ENDBRANCH  37  40
ENDBRANCH   1  37
TORSDOF 23
