REMARK  4 active torsions:
REMARK  status: ('A' for Active; 'I' for Inactive)
REMARK    1  A    between atoms: N1_2  and  C2_3 
REMARK    2  A    between atoms: N1_2  and  S2_27 
REMARK    3  A    between atoms: C7_9  and  C8_10 
REMARK       I    between atoms: C8_10  and  N2_12 
REMARK    4  A    between atoms: C10_16  and  C11_17 
ROOT
HETATM    1  C8  UNL     1      -0.442   1.075   1.766  1.00  0.00     0.260 C 
HETATM    2  O1  UNL     1       0.573   0.414   1.999  1.00  0.00    -0.267 OA
HETATM    3  N2  UNL     1      -0.333   2.311   1.095  1.00  0.00    -0.297 N 
ATOM      4  H2  UNL     1      -1.003   3.047   1.317  1.00  0.00     0.171 HD
HETATM    5  C9  UNL     1       0.595   2.556   0.196  1.00  0.00     0.194 A 
HETATM    6  O2  UNL     1       1.531   1.813  -0.247  1.00  0.00    -0.291 OA
HETATM    7  C10 UNL     1       2.355   2.205  -1.124  1.00  0.00     0.072 A 
HETATM    8  C19 UNL     1       2.205   3.491  -1.596  1.00  0.00     0.087 A 
HETATM    9  S1  UNL     1       0.845   4.013  -0.692  1.00  0.00    -0.056 SA
ENDROOT
BRANCH   1  10
HETATM   10  C7  UNL     1      -1.750   0.609   2.170  1.00  0.00     0.061 A 
HETATM   11  C2  UNL     1      -2.279  -0.534   1.645  1.00  0.00     0.077 A 
HETATM   12  C3  UNL     1      -3.563  -0.921   2.044  1.00  0.00     0.039 A 
HETATM   13 BR1  UNL     1      -4.301  -2.502   1.290  1.00  0.00    -0.049 Br
HETATM   14  C4  UNL     1      -4.278  -0.155   2.957  1.00  0.00     0.021 A 
HETATM   15  C5  UNL     1      -3.732   0.995   3.480  1.00  0.00     0.002 A 
HETATM   16  C6  UNL     1      -2.475   1.391   3.100  1.00  0.00     0.019 A 
BRANCH  11  17
HETATM   17  N1  UNL     1      -1.583  -1.345   0.741  1.00  0.00    -0.278 N 
HETATM   18  C1  UNL     1      -1.668  -1.121  -0.720  1.00  0.00     0.169 C 
BRANCH  17  19
HETATM   19  S2  UNL     1      -0.567  -2.677   1.158  1.00  0.00     0.228 S 
HETATM   20  C20 UNL     1      -1.334  -4.168   0.562  1.00  0.00     0.186 C 
HETATM   21  O3  UNL     1      -0.254  -2.762   2.607  1.00  0.00    -0.206 OA
HETATM   22  O4  UNL     1       0.740  -2.508   0.408  1.00  0.00    -0.206 OA
ENDBRANCH  17  19
ENDBRANCH  11  17
ENDBRANCH   1  10
BRANCH   7  23
HETATM   23  C11 UNL     1       3.442   1.348  -1.645  1.00  0.00     0.025 A 
HETATM   24  C12 UNL     1       4.775   1.213  -1.073  1.00  0.00     0.008 A 
HETATM   25  C13 UNL     1       5.633   0.269  -1.941  1.00  0.00     0.012 C 
HETATM   26  C15 UNL     1       3.817   0.120  -0.979  1.00  0.00     0.012 A 
HETATM   27  C14 UNL     1       4.300  -0.399  -2.278  1.00  0.00     0.001 C 
HETATM   28  C16 UNL     1       3.264   0.523  -2.911  1.00  0.00    -0.029 C 
HETATM   29  C17 UNL     1       1.934  -0.148  -2.971  1.00  0.00     0.016 C 
HETATM   30  C18 UNL     1       3.724   1.225  -4.161  1.00  0.00     0.016 C 
ENDBRANCH   7  23
TORSDOF 4
