REMARK  12 active torsions:
REMARK  status: ('A' for Active; 'I' for Inactive)
REMARK    1  A    between atoms: C5_5  and  C6_6 
REMARK    2  A    between atoms: C6_6  and  N1_7 
REMARK       I    between atoms: N1_7  and  C7_9 
REMARK    3  A    between atoms: C7_9  and  C8_11 
REMARK    4  A    between atoms: C8_11  and  N2_12 
REMARK       I    between atoms: N2_12  and  C9_14 
REMARK    5  A    between atoms: C9_14  and  C10_16 
REMARK    6  A    between atoms: C10_16  and  N3_17 
REMARK    7  A    between atoms: N3_17  and  N4_19 
REMARK    8  A    between atoms: N4_19  and  C13_22 
REMARK    9  A    between atoms: C13_22  and  C14_23 
REMARK   10  A    between atoms: C14_23  and  N5_24 
REMARK   11  A    between atoms: N5_24  and  N6_25 
REMARK   12  A    between atoms: C17_30  and  O3_31 
ROOT
HETATM    1  N1  UNL     1      -0.076   0.694   1.683  1.00  0.00    -0.359 N 
ATOM      2  H1  UNL     1      -0.377  -0.108   2.237  1.00  0.00     0.162 HD
HETATM    3  C7  UNL     1      -0.877   1.161   0.612  1.00  0.00     0.235 C 
HETATM    4  O1  UNL     1      -0.501   2.161  -0.079  1.00  0.00    -0.272 OA
ENDROOT
BRANCH   1   5
HETATM    5  C6  UNL     1       1.194   1.373   1.992  1.00  0.00     0.127 C 
BRANCH   5   6
HETATM    6  C5  UNL     1       1.883   0.718   3.167  1.00  0.00     0.005 C 
HETATM    7  C4  UNL     1       2.167  -0.692   2.850  1.00  0.00     0.015 C 
HETATM    8  C2  UNL     1       3.521  -0.964   2.214  1.00  0.00    -0.042 C 
HETATM    9  C1  UNL     1       3.773  -2.424   2.593  1.00  0.00     0.015 C 
HETATM   10  C3  UNL     1       3.409  -1.048   0.703  1.00  0.00     0.015 C 
HETATM   11  C22 UNL     1       4.610  -0.157   2.745  1.00  0.00     0.012 C 
HETATM   12  C16 UNL     1       4.277   1.242   3.199  1.00  0.00    -0.001 C 
HETATM   13  C21 UNL     1       5.598   0.543   1.893  1.00  0.00     0.030 C 
HETATM   14  C15 UNL     1       2.991   1.535   3.731  1.00  0.00     0.019 C 
HETATM   15  C17 UNL     1       5.542   1.532   4.022  1.00  0.00     0.157 C 
HETATM   16  C20 UNL     1       4.737   1.771   1.871  1.00  0.00     0.028 C 
HETATM   17  C18 UNL     1       6.565   1.081   2.962  1.00  0.00     0.155 C 
HETATM   18  O4  UNL     1       6.995   2.234   2.349  1.00  0.00    -0.382 OA
HETATM   19  C19 UNL     1       5.811   2.864   1.955  1.00  0.00     0.174 C 
BRANCH  15  20
HETATM   20  O3  UNL     1       5.656   0.659   5.086  1.00  0.00    -0.392 OA
ATOM     21  H3  UNL     1       6.438   0.838   5.595  1.00  0.00     0.210 HD
ENDBRANCH  15  20
ENDBRANCH   5   6
ENDBRANCH   1   5
BRANCH   3  22
HETATM   22  C8  UNL     1      -2.139   0.494   0.297  1.00  0.00     0.225 C 
BRANCH  22  23
HETATM   23  N2  UNL     1      -2.858   1.047  -0.796  1.00  0.00    -0.348 N 
HETATM   24  C9  UNL     1      -4.098   0.460  -1.171  1.00  0.00     0.258 C 
HETATM   25  O2  UNL     1      -4.509  -0.523  -0.524  1.00  0.00    -0.267 OA
ATOM     26  H2  UNL     1      -2.491   1.852  -1.304  1.00  0.00     0.163 HD
BRANCH  24  27
HETATM   27  C10 UNL     1      -4.882   1.004  -2.304  1.00  0.00     0.188 C 
BRANCH  27  28
HETATM   28  N3  UNL     1      -6.070   0.338  -2.602  1.00  0.00    -0.223 N 
ATOM     29  H3  UNL     1      -6.954   0.762  -2.323  1.00  0.00     0.193 HD
BRANCH  28  30
HETATM   30  N4  UNL     1      -6.093  -0.854  -3.250  1.00  0.00     0.009 N 
HETATM   31  C11 UNL     1      -7.026  -1.743  -2.547  1.00  0.00     0.302 C 
HETATM   32  C12 UNL     1      -4.854  -1.572  -3.379  1.00  0.00     0.302 C 
BRANCH  30  33
HETATM   33  C13 UNL     1      -6.721  -0.726  -4.587  1.00  0.00     0.325 C 
BRANCH  33  34
HETATM   34  C14 UNL     1      -5.798  -0.150  -5.565  1.00  0.00     0.211 C 
BRANCH  34  35
HETATM   35  N5  UNL     1      -6.263   0.657  -6.407  1.00  0.00    -0.348 NA
BRANCH  35  36
HETATM   36  N6  UNL     1      -6.753   1.380  -7.266  1.00  0.00    -0.281 N 
ATOM     37  H62 UNL     1      -7.072   0.443  -7.512  1.00  0.00     0.191 HD
ATOM     38  H61 UNL     1      -7.131   2.036  -7.950  1.00  0.00     0.191 HD
ENDBRANCH  35  36
ENDBRANCH  34  35
ENDBRANCH  33  34
ENDBRANCH  30  33
ENDBRANCH  28  30
ENDBRANCH  27  28
ENDBRANCH  24  27
ENDBRANCH  22  23
ENDBRANCH   3  22
TORSDOF 12
