REMARK  5 active torsions:
REMARK  status: ('A' for Active; 'I' for Inactive)
REMARK    1  A    between atoms: O1_2  and  C2_3 
REMARK    2  A    between atoms: C2_3  and  C3_5 
REMARK    3  A    between atoms: C17_32  and  O8_33 
REMARK    4  A    between atoms: C18_35  and  O9_36 
REMARK    5  A    between atoms: C22_46  and  O11_47 
ROOT
HETATM    1  C3  UNL     1       0.538  -1.920  -2.539  1.00  0.00     0.238 C 
HETATM    2  O3  UNL     1       1.806  -1.539  -2.727  1.00  0.00    -0.358 OA
HETATM    3  C4  UNL     1       2.817  -1.933  -1.992  1.00  0.00     0.196 C 
HETATM    4  C5  UNL     1       2.867  -3.094  -1.101  1.00  0.00     0.193 C 
HETATM    5  O4  UNL     1       3.620  -2.916   0.067  1.00  0.00    -0.387 OA
HETATM    6  C6  UNL     1       3.011  -3.392   1.224  1.00  0.00     0.195 C 
HETATM    7  C7  UNL     1       3.205  -2.628   2.461  1.00  0.00     0.258 C 
HETATM    8  N1  UNL     1       2.040  -1.820   2.853  1.00  0.00    -0.071 N 
ATOM      9  H11 UNL     1       1.278  -2.418   3.171  1.00  0.00     0.277 HD
ATOM     10  H12 UNL     1       1.599  -1.403   2.033  1.00  0.00     0.277 HD
HETATM   11  C8  UNL     1       2.334  -0.828   3.822  1.00  0.00     0.258 C 
HETATM   12  C9  UNL     1       2.155   0.583   3.470  1.00  0.00     0.195 C 
HETATM   13  O5  UNL     1       0.905   1.140   3.795  1.00  0.00    -0.387 OA
HETATM   14  C10 UNL     1       0.848   2.403   3.158  1.00  0.00     0.193 C 
HETATM   15  C11 UNL     1      -0.279   3.247   3.578  1.00  0.00     0.193 C 
HETATM   16  O6  UNL     1      -1.408   3.257   2.846  1.00  0.00    -0.387 OA
HETATM   17  C12 UNL     1      -1.490   4.172   1.815  1.00  0.00     0.193 C 
HETATM   18  C13 UNL     1      -2.620   3.944   0.876  1.00  0.00     0.193 C 
HETATM   19  O7  UNL     1      -2.244   3.427  -0.365  1.00  0.00    -0.387 OA
HETATM   20  C14 UNL     1      -3.386   3.097  -1.120  1.00  0.00     0.195 C 
HETATM   21  C15 UNL     1      -3.118   2.496  -2.420  1.00  0.00     0.261 C 
HETATM   22  N2  UNL     1      -3.202   1.081  -2.584  1.00  0.00    -0.045 N 
ATOM     23  H21 UNL     1      -3.124   0.828  -3.569  1.00  0.00     0.280 HD
ATOM     24  H22 UNL     1      -4.150   0.753  -2.397  1.00  0.00     0.280 HD
HETATM   25  C16 UNL     1      -2.208   0.319  -1.763  1.00  0.00     0.356 C 
HETATM   26  N3  UNL     1      -1.704  -0.812  -2.461  1.00  0.00    -0.361 N 
ATOM     27  H3  UNL     1      -2.271  -1.657  -2.391  1.00  0.00     0.158 HD
HETATM   28  C17 UNL     1      -0.527  -0.935  -3.240  1.00  0.00     0.267 C 
HETATM   29  C18 UNL     1      -3.054   0.027  -0.557  1.00  0.00     0.163 C 
HETATM   30  N4  UNL     1      -2.931   0.159   0.833  1.00  0.00    -0.365 N 
ATOM     31  H4  UNL     1      -3.641   0.711   1.315  1.00  0.00     0.161 HD
HETATM   32  C19 UNL     1      -1.835  -0.448   1.676  1.00  0.00     0.191 C 
HETATM   33  C20 UNL     1      -0.807  -0.782   0.561  1.00  0.00     0.129 A 
HETATM   34  O10 UNL     1       0.211   0.036   0.337  1.00  0.00    -0.237 OA
HETATM   35  N5  UNL     1       0.823  -0.396  -0.651  1.00  0.00    -0.259 N 
ATOM     36  H5  UNL     1       1.654   0.038  -1.053  1.00  0.00     0.194 HD
HETATM   37  C21 UNL     1       0.244  -1.512  -1.120  1.00  0.00     0.117 A 
HETATM   38  C22 UNL     1      -0.817  -1.796  -0.309  1.00  0.00     0.127 A 
ENDROOT
BRANCH   1  39
HETATM   39  C2  UNL     1       0.262  -3.038  -3.270  1.00  0.00     0.304 C 
HETATM   40  O2  UNL     1      -0.770  -3.755  -3.467  1.00  0.00    -0.261 OA
BRANCH  39  41
HETATM   41  O1  UNL     1       1.274  -3.644  -4.030  1.00  0.00    -0.324 OA
HETATM   42  C1  UNL     1       1.174  -4.775  -4.818  1.00  0.00     0.213 C 
ENDBRANCH  39  41
ENDBRANCH   1  39
BRANCH  28  43
HETATM   43  O8  UNL     1       0.127   0.267  -3.479  1.00  0.00    -0.373 OA
ATOM     44  H8  UNL     1      -0.501   0.848  -3.892  1.00  0.00     0.212 HD
ENDBRANCH  28  43
BRANCH  38  45
HETATM   45  O11 UNL     1      -1.738  -2.972  -0.385  1.00  0.00    -0.356 OA
ATOM     46  H11 UNL     1      -1.745  -3.693  -1.004  1.00  0.00     0.218 HD
ENDBRANCH  38  45
BRANCH  29  47
HETATM   47  O9  UNL     1      -4.210  -0.485  -0.904  1.00  0.00    -0.347 OA
ATOM     48  H9  UNL     1      -4.745  -0.670  -0.141  1.00  0.00     0.219 HD
ENDBRANCH  29  47
TORSDOF 5
