REMARK  14 active torsions:
REMARK  status: ('A' for Active; 'I' for Inactive)
REMARK    1  A    between atoms: C2_2  and  C3_3 
REMARK    2  A    between atoms: C3_3  and  C4_4 
REMARK    3  A    between atoms: C4_4  and  C5_5 
REMARK    4  A    between atoms: C5_5  and  C6_6 
REMARK    5  A    between atoms: C6_6  and  C7_7 
REMARK    6  A    between atoms: C7_7  and  C8_8 
REMARK    7  A    between atoms: C10_13  and  C11_14 
REMARK    8  A    between atoms: C11_14  and  C12_15 
REMARK    9  A    between atoms: C12_15  and  C13_16 
REMARK   10  A    between atoms: C17_24  and  C18_25 
REMARK   11  A    between atoms: C18_25  and  N3_26 
REMARK       I    between atoms: N3_26  and  C19_28 
REMARK       I    between atoms: C19_28  and  N4_30 
REMARK   12  A    between atoms: N4_30  and  C20_32 
REMARK   13  A    between atoms: C20_32  and  C21_33 
REMARK   14  A    between atoms: C21_33  and  C22_34 
ROOT
HETATM    1  C8  UNL     1      -1.285  -1.051  -0.892  1.00  0.00     0.176 C 
HETATM    2  N1  UNL     1      -1.671  -0.087  -1.902  1.00  0.00    -0.346 N 
ATOM      3  H1  UNL     1      -1.671  -0.414  -2.868  1.00  0.00     0.163 HD
HETATM    4  C9  UNL     1      -2.045   1.251  -1.692  1.00  0.00     0.241 C 
HETATM    5  O1  UNL     1      -2.017   1.988  -2.738  1.00  0.00    -0.271 OA
HETATM    6  C10 UNL     1      -2.456   1.872  -0.431  1.00  0.00     0.176 C 
HETATM    7  N2  UNL     1      -1.490   1.783   0.642  1.00  0.00    -0.346 N 
ATOM      8  H2  UNL     1      -1.789   1.283   1.479  1.00  0.00     0.163 HD
HETATM    9  C15 UNL     1      -0.184   2.308   0.663  1.00  0.00     0.242 C 
HETATM   10  O2  UNL     1       0.146   2.983   1.702  1.00  0.00    -0.271 OA
HETATM   11  C16 UNL     1       0.855   2.171  -0.373  1.00  0.00     0.273 C 
HETATM   12  O3  UNL     1       1.846   1.261  -0.026  1.00  0.00    -0.356 OA
HETATM   13  C17 UNL     1       1.418   0.029   0.355  1.00  0.00     0.241 C 
HETATM   14  N5  UNL     1       1.265  -0.882  -0.781  1.00  0.00    -0.331 N 
ATOM     15  H5  UNL     1       2.101  -1.057  -1.339  1.00  0.00     0.165 HD
HETATM   16  C24 UNL     1       0.105  -1.534  -1.181  1.00  0.00     0.242 C 
HETATM   17  O5  UNL     1       0.232  -2.623  -1.843  1.00  0.00    -0.271 OA
ENDROOT
BRANCH  13  18
HETATM   18  C18 UNL     1       2.347  -0.577   1.375  1.00  0.00     0.178 C 
BRANCH  18  19
HETATM   19  N3  UNL     1       3.681  -0.793   0.953  1.00  0.00    -0.339 N 
HETATM   20  C19 UNL     1       4.681   0.115   0.565  1.00  0.00     0.316 C 
HETATM   21  O4  UNL     1       4.449   1.349   0.586  1.00  0.00    -0.247 OA
HETATM   22  N4  UNL     1       5.975  -0.362   0.142  1.00  0.00    -0.343 N 
ATOM     23  H4  UNL     1       6.182  -1.361   0.120  1.00  0.00     0.164 HD
ATOM     24  H3  UNL     1       3.964  -1.773   0.926  1.00  0.00     0.164 HD
BRANCH  22  25
HETATM   25  C20 UNL     1       6.960   0.599  -0.245  1.00  0.00     0.124 C 
BRANCH  25  26
HETATM   26  C21 UNL     1       8.263  -0.049  -0.663  1.00  0.00     0.019 C 
BRANCH  26  27
HETATM   27  C22 UNL     1       8.811  -0.851   0.507  1.00  0.00    -0.003 C 
HETATM   28  C23 UNL     1       9.040   0.094   1.657  1.00  0.00     0.005 C 
ENDBRANCH  26  27
ENDBRANCH  25  26
ENDBRANCH  22  25
ENDBRANCH  18  19
ENDBRANCH  13  18
BRANCH   1  29
HETATM   29  C7  UNL     1      -2.254  -2.219  -1.063  1.00  0.00     0.035 C 
BRANCH  29  30
HETATM   30  C6  UNL     1      -2.018  -3.326  -0.079  1.00  0.00     0.002 C 
BRANCH  30  31
HETATM   31  C5  UNL     1      -2.990  -4.470  -0.273  1.00  0.00     0.000 C 
BRANCH  31  32
HETATM   32  C4  UNL     1      -4.422  -4.074  -0.114  1.00  0.00     0.000 C 
BRANCH  32  33
HETATM   33  C3  UNL     1      -4.722  -3.516   1.260  1.00  0.00    -0.000 C 
BRANCH  33  34
HETATM   34  C2  UNL     1      -6.188  -3.136   1.359  1.00  0.00    -0.005 C 
HETATM   35  C1  UNL     1      -6.540  -2.577   2.699  1.00  0.00     0.005 C 
ENDBRANCH  33  34
ENDBRANCH  32  33
ENDBRANCH  31  32
ENDBRANCH  30  31
ENDBRANCH  29  30
ENDBRANCH   1  29
BRANCH   6  36
HETATM   36  C11 UNL     1      -2.978   3.269  -0.532  1.00  0.00     0.035 C 
BRANCH  36  37
HETATM   37  C12 UNL     1      -2.078   4.312  -1.059  1.00  0.00     0.002 C 
BRANCH  37  38
HETATM   38  C13 UNL     1      -2.869   5.632  -1.056  1.00  0.00    -0.004 C 
HETATM   39  C14 UNL     1      -4.086   5.502  -1.925  1.00  0.00     0.005 C 
ENDBRANCH  37  38
ENDBRANCH  36  37
ENDBRANCH   6  36
TORSDOF 14
