REMARK  16 active torsions:
REMARK  status: ('A' for Active; 'I' for Inactive)
REMARK    1  A    between atoms: C2_2  and  C3_3 
REMARK    2  A    between atoms: C5_8  and  C6_9 
REMARK    3  A    between atoms: C6_9  and  C7_10 
REMARK    4  A    between atoms: C7_10  and  C8_11 
REMARK    5  A    between atoms: C8_11  and  N2_12 
REMARK       I    between atoms: N4_20  and  C10_21 
REMARK       I    between atoms: C10_21  and  N5_23 
REMARK    6  A    between atoms: N5_23  and  C11_25 
REMARK    7  A    between atoms: C11_25  and  C12_26 
REMARK    8  A    between atoms: C12_26  and  C13_27 
REMARK    9  A    between atoms: C13_27  and  C14_28 
REMARK   10  A    between atoms: C14_28  and  C15_29 
REMARK   11  A    between atoms: C15_29  and  C16_30 
REMARK   12  A    between atoms: C16_30  and  N6_31 
REMARK       I    between atoms: N6_31  and  C17_33 
REMARK   13  A    between atoms: C17_33  and  C18_35 
REMARK   14  A    between atoms: C18_35  and  C19_36 
REMARK   15  A    between atoms: C19_36  and  C20_37 
REMARK   16  A    between atoms: C20_37  and  C21_38 
ROOT
HETATM    1  C3  UNL     1      -4.720  -1.019  -0.684  1.00  0.00     0.204 C 
HETATM    2  C4  UNL     1      -5.757  -1.628   0.141  1.00  0.00     0.243 C 
HETATM    3  O1  UNL     1      -5.777  -2.910   0.027  1.00  0.00    -0.271 OA
HETATM    4  N1  UNL     1      -6.700  -1.073   1.006  1.00  0.00    -0.346 N 
ATOM      5  H1  UNL     1      -7.098  -1.700   1.705  1.00  0.00     0.163 HD
HETATM    6  C5  UNL     1      -7.180   0.305   1.022  1.00  0.00     0.178 C 
HETATM    7  C9  UNL     1      -6.025   1.218   1.216  1.00  0.00     0.259 C 
HETATM    8  O2  UNL     1      -5.970   1.970   2.203  1.00  0.00    -0.269 OA
HETATM    9  N3  UNL     1      -4.899   1.336   0.340  1.00  0.00    -0.261 N 
ATOM     10  H3  UNL     1      -4.515   2.271   0.202  1.00  0.00     0.190 HD
HETATM   11  N4  UNL     1      -4.274   0.283  -0.347  1.00  0.00    -0.226 N 
HETATM   12  C10 UNL     1      -2.940   0.594  -0.768  1.00  0.00     0.337 C 
HETATM   13  O3  UNL     1      -2.523   1.780  -0.495  1.00  0.00    -0.245 OA
HETATM   14  N5  UNL     1      -2.065  -0.270  -1.441  1.00  0.00    -0.342 N 
ATOM     15  H5  UNL     1      -2.356  -1.219  -1.675  1.00  0.00     0.164 HD
ENDROOT
BRANCH  14  16
HETATM   16  C11 UNL     1      -0.742   0.200  -1.801  1.00  0.00     0.124 C 
BRANCH  16  17
HETATM   17  C12 UNL     1       0.052  -0.871  -2.517  1.00  0.00     0.020 C 
BRANCH  17  18
HETATM   18  C13 UNL     1       1.397  -0.289  -2.844  1.00  0.00     0.002 C 
BRANCH  18  19
HETATM   19  C14 UNL     1       2.303  -1.252  -3.565  1.00  0.00     0.002 C 
BRANCH  19  20
HETATM   20  C15 UNL     1       2.574  -2.497  -2.757  1.00  0.00     0.020 C 
BRANCH  20  21
HETATM   21  C16 UNL     1       3.234  -2.197  -1.446  1.00  0.00     0.122 C 
BRANCH  21  22
HETATM   22  N6  UNL     1       4.507  -1.533  -1.613  1.00  0.00    -0.361 N 
HETATM   23  C17 UNL     1       5.267  -1.175  -0.474  1.00  0.00     0.217 C 
HETATM   24  O4  UNL     1       4.861  -1.421   0.697  1.00  0.00    -0.274 OA
ATOM     25  H6  UNL     1       4.856  -1.323  -2.548  1.00  0.00     0.162 HD
BRANCH  23  26
HETATM   26  C18 UNL     1       6.571  -0.496  -0.652  1.00  0.00     0.103 C 
BRANCH  26  27
HETATM   27  C19 UNL     1       7.209  -0.202   0.696  1.00  0.00     0.010 C 
BRANCH  27  28
HETATM   28  C20 UNL     1       8.537   0.491   0.468  1.00  0.00     0.009 C 
BRANCH  28  29
HETATM   29  C21 UNL     1       9.236   0.821   1.745  1.00  0.00    -0.051 C 
HETATM   30  C22 UNL     1       8.398   1.748   2.611  1.00  0.00     0.014 C 
HETATM   31  C23 UNL     1      10.511   1.577   1.371  1.00  0.00     0.014 C 
HETATM   32  C24 UNL     1       9.544  -0.446   2.501  1.00  0.00     0.014 C 
ENDBRANCH  28  29
ENDBRANCH  27  28
ENDBRANCH  26  27
ENDBRANCH  23  26
ENDBRANCH  21  22
ENDBRANCH  20  21
ENDBRANCH  19  20
ENDBRANCH  18  19
ENDBRANCH  17  18
ENDBRANCH  16  17
ENDBRANCH  14  16
BRANCH   1  33
HETATM   33  C2  UNL     1      -5.036  -1.069  -2.164  1.00  0.00     0.032 C 
HETATM   34  C1  UNL     1      -6.322  -0.357  -2.515  1.00  0.00     0.007 C 
ENDBRANCH   1  33
BRANCH   6  35
HETATM   35  C6  UNL     1      -8.126   0.444   2.180  1.00  0.00     0.036 C 
BRANCH  35  36
HETATM   36  C7  UNL     1      -8.775   1.762   2.360  1.00  0.00     0.030 C 
BRANCH  36  37
HETATM   37  C8  UNL     1      -9.691   1.633   3.597  1.00  0.00     0.230 C 
BRANCH  37  38
HETATM   38  N2  UNL     1     -10.360   2.875   3.839  1.00  0.00    -0.079 N 
ATOM     39  H23 UNL     1      -9.705   3.652   3.927  1.00  0.00     0.274 HD
ATOM     40  H22 UNL     1     -10.869   3.202   3.018  1.00  0.00     0.274 HD
ATOM     41  H21 UNL     1     -10.965   2.790   4.656  1.00  0.00     0.274 HD
ENDBRANCH  37  38
ENDBRANCH  36  37
ENDBRANCH  35  36
ENDBRANCH   6  35
TORSDOF 16
