REMARK  15 active torsions:
REMARK  status: ('A' for Active; 'I' for Inactive)
REMARK    1  A    between atoms: C2_2  and  O1_3 
REMARK    2  A    between atoms: C2_2  and  C3_5 
REMARK    3  A    between atoms: C2_2  and  C13_24 
REMARK    4  A    between atoms: C3_5  and  C4_6 
REMARK    5  A    between atoms: C4_6  and  C5_7 
REMARK    6  A    between atoms: C5_7  and  C6_8 
REMARK    7  A    between atoms: C6_8  and  N1_9 
REMARK       I    between atoms: N1_9  and  C7_11 
REMARK    8  A    between atoms: C7_11  and  C8_13 
REMARK    9  A    between atoms: C8_13  and  N2_14 
REMARK   10  A    between atoms: C11_17  and  N3_18 
REMARK   11  A    between atoms: C13_24  and  C14_25 
REMARK       I    between atoms: C14_25  and  N5_27 
REMARK   12  A    between atoms: N5_27  and  C15_29 
REMARK   13  A    between atoms: C15_29  and  C16_30 
REMARK   14  A    between atoms: C16_30  and  C17_31 
REMARK   15  A    between atoms: C17_31  and  C18_32 
ROOT
HETATM    1  C1  UNL     1       2.039  -2.754   1.779  1.00  0.00     0.051 C 
HETATM    2  C2  UNL     1       1.571  -1.320   2.037  1.00  0.00     0.080 C 
ENDROOT
BRANCH   2   3
HETATM    3  O1  UNL     1       1.520  -1.208   3.456  1.00  0.00    -0.386 OA
ATOM      4  H1  UNL     1       1.229  -0.318   3.616  1.00  0.00     0.211 HD
ENDBRANCH   2   3
BRANCH   2   5
HETATM    5  C3  UNL     1       2.493  -0.273   1.573  1.00  0.00     0.007 C 
BRANCH   5   6
HETATM    6  C4  UNL     1       2.848  -0.121   0.164  1.00  0.00    -0.026 C 
BRANCH   6   7
HETATM    7  C5  UNL     1       3.568  -1.154  -0.588  1.00  0.00     0.046 C 
BRANCH   7   8
HETATM    8  C6  UNL     1       4.926  -1.499  -0.090  1.00  0.00     0.126 C 
BRANCH   8   9
HETATM    9  N1  UNL     1       5.778  -0.326  -0.121  1.00  0.00    -0.359 N 
HETATM   10  C7  UNL     1       6.155   0.350  -1.301  1.00  0.00     0.235 C 
HETATM   11  O2  UNL     1       5.783  -0.024  -2.436  1.00  0.00    -0.272 OA
ATOM     12  H1  UNL     1       6.127   0.034   0.767  1.00  0.00     0.162 HD
BRANCH  10  13
HETATM   13  C8  UNL     1       7.033   1.558  -1.188  1.00  0.00     0.231 C 
BRANCH  13  14
HETATM   14  N2  UNL     1       8.417   1.215  -0.959  1.00  0.00    -0.344 N 
HETATM   15  C9  UNL     1       9.255   1.014  -1.985  1.00  0.00     0.096 A 
HETATM   16  C10 UNL     1      10.590   0.691  -1.785  1.00  0.00     0.065 A 
HETATM   17  C11 UNL     1      11.060   0.575  -0.471  1.00  0.00     0.100 A 
HETATM   18  N4  UNL     1      10.199   0.781   0.534  1.00  0.00    -0.339 N 
HETATM   19  C12 UNL     1       8.898   1.096   0.302  1.00  0.00     0.184 A 
ATOM     20  H4  UNL     1      10.528   0.699   1.496  1.00  0.00     0.168 HD
BRANCH  17  21
HETATM   21  N3  UNL     1      12.286   0.276  -0.205  1.00  0.00    -0.385 N 
ATOM     22  H32 UNL     1      12.942   0.119  -0.970  1.00  0.00     0.157 HD
ATOM     23  H31 UNL     1      12.628   0.192   0.752  1.00  0.00     0.157 HD
ENDBRANCH  17  21
ENDBRANCH  13  14
ENDBRANCH  10  13
ENDBRANCH   8   9
ENDBRANCH   7   8
ENDBRANCH   6   7
ENDBRANCH   5   6
ENDBRANCH   2   5
BRANCH   2  24
HETATM   24  C13 UNL     1       0.162  -1.287   1.574  1.00  0.00     0.144 C 
BRANCH  24  25
HETATM   25  C14 UNL     1      -0.611  -0.058   1.694  1.00  0.00     0.220 C 
HETATM   26  O3  UNL     1      -0.105   1.008   2.075  1.00  0.00    -0.274 OA
HETATM   27  N5  UNL     1      -2.001  -0.019   1.379  1.00  0.00    -0.361 N 
ATOM     28  H5  UNL     1      -2.465  -0.872   1.066  1.00  0.00     0.162 HD
BRANCH  27  29
HETATM   29  C15 UNL     1      -2.755   1.178   1.490  1.00  0.00     0.122 C 
BRANCH  29  30
HETATM   30  C16 UNL     1      -4.201   1.024   1.154  1.00  0.00     0.022 C 
BRANCH  30  31
HETATM   31  C17 UNL     1      -4.468   0.542  -0.233  1.00  0.00     0.040 C 
BRANCH  31  32
HETATM   32  C18 UNL     1      -5.961   0.417  -0.474  1.00  0.00     0.127 C 
HETATM   33  C19 UNL     1      -6.703   1.708  -0.314  1.00  0.00     0.043 C 
HETATM   34  C20 UNL     1      -8.160   1.463  -0.631  1.00  0.00    -0.010 C 
HETATM   35  C21 UNL     1      -8.375   0.946  -2.022  1.00  0.00     0.009 C 
HETATM   36  C25 UNL     1      -8.707   0.480   0.360  1.00  0.00     0.037 C 
HETATM   37  C22 UNL     1      -7.617  -0.354  -2.171  1.00  0.00    -0.010 C 
HETATM   38  C23 UNL     1      -8.133  -1.352  -1.174  1.00  0.00     0.037 C 
HETATM   39  C26 UNL     1      -6.157  -0.075  -1.888  1.00  0.00     0.043 C 
HETATM   40  C24 UNL     1      -7.900  -0.799   0.215  1.00  0.00     0.187 C 
HETATM   41  N6  UNL     1      -6.493  -0.587   0.431  1.00  0.00    -0.062 N 
ATOM     42  H62 UNL     1      -5.970  -1.460   0.368  1.00  0.00     0.278 HD
ATOM     43  H61 UNL     1      -6.296  -0.354   1.404  1.00  0.00     0.278 HD
ENDBRANCH  31  32
ENDBRANCH  30  31
ENDBRANCH  29  30
ENDBRANCH  27  29
ENDBRANCH  24  25
ENDBRANCH   2  24
TORSDOF 15
