REMARK  1 active torsions:
REMARK  status: ('A' for Active; 'I' for Inactive)
REMARK    1  A    between atoms: C1_2  and  C2_4 
ROOT
HETATM    1  C2  UNL     1      -1.693  -0.117  -0.735  1.00  0.00     0.252 C 
HETATM    2  O3  UNL     1      -2.763  -0.898  -0.310  1.00  0.00    -0.364 OA
HETATM    3  C3  UNL     1      -2.838  -0.857   1.053  1.00  0.00     0.158 C 
HETATM    4  C4  UNL     1      -3.248   0.550   1.521  1.00  0.00     0.152 C 
HETATM    5  C5  UNL     1      -2.248   0.290   2.663  1.00  0.00     0.044 C 
HETATM    6  C6  UNL     1      -1.471  -0.350   1.553  1.00  0.00     0.052 C 
HETATM    7  C7  UNL     1      -1.356   0.707   0.488  1.00  0.00     0.168 C 
HETATM    8  O4  UNL     1      -2.539   1.439   0.761  1.00  0.00    -0.374 OA
ENDROOT
BRANCH   1   9
HETATM    9  C1  UNL     1      -0.570  -1.019  -1.119  1.00  0.00     0.205 C 
HETATM   10  O1  UNL     1      -0.603  -2.144  -1.066  1.00  0.00    -0.646 OA
HETATM   11  O2  UNL     1       0.593  -0.391  -1.572  1.00  0.00    -0.646 OA
ENDBRANCH   1   9
TORSDOF 1
