REMARK  4 active torsions:
REMARK  status: ('A' for Active; 'I' for Inactive)
REMARK    1  A    between atoms: C16_20  and  N2_21 
REMARK       I    between atoms: N2_21  and  C17_23 
REMARK       I    between atoms: C17_23  and  N3_25 
REMARK    2  A    between atoms: N3_25  and  C18_27 
REMARK    3  A    between atoms: C18_27  and  C19_28 
REMARK    4  A    between atoms: C19_28  and  O2_29 
ROOT
HETATM    1  C1  UNL     1      -0.225   1.128  -2.578  1.00  0.00     0.015 C 
HETATM    2  C2  UNL     1      -0.656   1.157  -1.120  1.00  0.00    -0.037 C 
HETATM    3  C3  UNL     1       0.129   2.236  -0.446  1.00  0.00     0.015 C 
HETATM    4  C4  UNL     1      -2.141   1.635  -1.157  1.00  0.00     0.021 C 
HETATM    5  C5  UNL     1      -2.673   2.032   0.156  1.00  0.00     0.238 C 
HETATM    6  N1  UNL     1      -3.708   1.142   0.589  1.00  0.00    -0.070 N 
ATOM      7  H11 UNL     1      -4.583   1.640   0.754  1.00  0.00     0.277 HD
ATOM      8  H12 UNL     1      -3.537   0.804   1.536  1.00  0.00     0.277 HD
HETATM    9  C6  UNL     1      -3.887   0.058  -0.329  1.00  0.00     0.190 C 
HETATM   10  C7  UNL     1      -3.112   0.518  -1.511  1.00  0.00     0.040 C 
HETATM   11  C8  UNL     1      -3.417  -1.303   0.288  1.00  0.00     0.020 C 
HETATM   12  C9  UNL     1      -2.478  -1.091   1.443  1.00  0.00     0.013 C 
HETATM   13  C10 UNL     1      -1.062  -1.551   1.395  1.00  0.00     0.012 C 
HETATM   14  C11 UNL     1      -0.919  -2.795   0.571  1.00  0.00     0.050 C 
HETATM   15  C12 UNL     1      -1.395  -2.459  -0.830  1.00  0.00     0.104 C 
HETATM   16  F1  UNL     1      -1.188  -3.611  -1.585  1.00  0.00    -0.243 F 
HETATM   17  C13 UNL     1      -2.824  -2.198  -0.780  1.00  0.00     0.050 C 
HETATM   18  C14 UNL     1      -0.428  -1.424  -1.378  1.00  0.00     0.051 C 
HETATM   19  C15 UNL     1      -0.429  -0.167  -0.536  1.00  0.00     0.020 C 
HETATM   20  C16 UNL     1      -0.083  -0.444   0.900  1.00  0.00     0.095 C 
ENDROOT
BRANCH  20  21
HETATM   21  N2  UNL     1       1.262  -0.782   1.121  1.00  0.00    -0.338 N 
HETATM   22  C17 UNL     1       2.188  -0.158   1.985  1.00  0.00     0.316 C 
HETATM   23  O1  UNL     1       1.754   0.823   2.639  1.00  0.00    -0.247 OA
HETATM   24  N3  UNL     1       3.519  -0.553   2.153  1.00  0.00    -0.341 N 
ATOM     25  H3  UNL     1       3.835  -1.357   1.610  1.00  0.00     0.164 HD
ATOM     26  H2  UNL     1       1.614  -1.579   0.590  1.00  0.00     0.164 HD
BRANCH  24  27
HETATM   27  C18 UNL     1       4.480   0.066   3.016  1.00  0.00     0.150 C 
BRANCH  27  28
HETATM   28  C19 UNL     1       4.710   1.505   2.618  1.00  0.00     0.183 C 
BRANCH  28  29
HETATM   29  O2  UNL     1       5.190   1.550   1.287  1.00  0.00    -0.399 OA
ATOM     30  H2  UNL     1       5.335   2.455   1.037  1.00  0.00     0.209 HD
ENDBRANCH  28  29
ENDBRANCH  27  28
ENDBRANCH  24  27
ENDBRANCH  20  21
TORSDOF 4
