REMARK  9 active torsions:
REMARK  status: ('A' for Active; 'I' for Inactive)
REMARK    1  A    between atoms: C2_2  and  C3_3 
REMARK    2  A    between atoms: C3_3  and  C4_4 
REMARK    3  A    between atoms: C6_6  and  C7_7 
REMARK    4  A    between atoms: C7_7  and  C8_8 
REMARK    5  A    between atoms: C15_16  and  O2_17 
REMARK    6  A    between atoms: C16_19  and  O3_20 
REMARK    7  A    between atoms: C20_26  and  O5_27 
REMARK    8  A    between atoms: C22_31  and  O7_32 
REMARK    9  A    between atoms: C24_34  and  O8_35 
ROOT
HETATM    1  C7  UNL     1      -0.843   1.938  -0.767  1.00  0.00     0.080 C 
HETATM    2  C10 UNL     1      -1.622   0.807  -0.146  1.00  0.00     0.074 C 
HETATM    3  C11 UNL     1      -2.954   0.401  -0.628  1.00  0.00     0.140 C 
HETATM    4  O1  UNL     1      -3.121  -0.783  -1.238  1.00  0.00    -0.372 OA
HETATM    5  C12 UNL     1      -3.189  -1.951  -0.618  1.00  0.00     0.082 C 
HETATM    6  C13 UNL     1      -4.481  -2.623  -1.148  1.00  0.00     0.048 C 
HETATM    7  C14 UNL     1      -2.102  -2.875  -1.199  1.00  0.00     0.048 C 
HETATM    8  C15 UNL     1      -3.157  -1.999   0.863  1.00  0.00     0.181 C 
HETATM    9  C16 UNL     1      -3.456  -0.723   1.577  1.00  0.00     0.159 C 
HETATM   10  C17 UNL     1      -3.467   0.518   0.800  1.00  0.00     0.084 C 
HETATM   11  C18 UNL     1      -2.412   1.485   0.950  1.00  0.00     0.104 C 
HETATM   12  C19 UNL     1      -1.732   1.909   2.154  1.00  0.00     0.213 C 
HETATM   13  O4  UNL     1      -0.735   2.736   1.550  1.00  0.00    -0.329 OA
HETATM   14  C20 UNL     1      -1.157   2.994   0.268  1.00  0.00     0.294 C 
HETATM   15  O6  UNL     1      -2.575   2.751   0.326  1.00  0.00    -0.317 OA
ENDROOT
BRANCH   1  16
HETATM   16  C6  UNL     1       0.564   1.586  -0.945  1.00  0.00    -0.038 A 
HETATM   17  C5  UNL     1       1.468   1.387   0.079  1.00  0.00     0.018 A 
HETATM   18  C4  UNL     1       2.791   1.024  -0.090  1.00  0.00    -0.018 A 
HETATM   19  C24 UNL     1       3.275   0.839  -1.363  1.00  0.00     0.108 A 
HETATM   20  C22 UNL     1       2.421   1.022  -2.428  1.00  0.00     0.102 A 
HETATM   21  C21 UNL     1       1.110   1.383  -2.223  1.00  0.00     0.048 A 
BRANCH  18  22
HETATM   22  C3  UNL     1       3.710   0.827   1.089  1.00  0.00     0.068 C 
BRANCH  22  23
HETATM   23  C2  UNL     1       3.928  -0.623   1.344  1.00  0.00    -0.032 C 
HETATM   24  C1  UNL     1       3.583  -1.152   2.513  1.00  0.00     0.007 C 
ENDBRANCH  22  23
ENDBRANCH  18  22
BRANCH  19  25
HETATM   25  O8  UNL     1       4.606   0.475  -1.528  1.00  0.00    -0.353 OA
HETATM   26  C25 UNL     1       5.592   1.508  -1.663  1.00  0.00     0.210 C 
ENDBRANCH  19  25
BRANCH  20  27
HETATM   27  O7  UNL     1       2.933   0.830  -3.706  1.00  0.00    -0.353 OA
HETATM   28  C23 UNL     1       2.057   1.018  -4.800  1.00  0.00     0.210 C 
ENDBRANCH  20  27
ENDBRANCH   1  16
BRANCH   1  29
HETATM   29  C8  UNL     1      -1.468   2.380  -2.073  1.00  0.00     0.019 C 
HETATM   30  C9  UNL     1      -0.837   3.607  -2.674  1.00  0.00     0.006 C 
ENDBRANCH   1  29
BRANCH  14  31
HETATM   31  O5  UNL     1      -0.879   4.269  -0.088  1.00  0.00    -0.342 OA
ATOM     32  H5  UNL     1      -1.076   4.933   0.562  1.00  0.00     0.215 HD
ENDBRANCH  14  31
BRANCH   9  33
HETATM   33  O3  UNL     1      -2.673  -0.684   2.757  1.00  0.00    -0.392 OA
ATOM     34  H3  UNL     1      -2.863   0.128   3.211  1.00  0.00     0.210 HD
ENDBRANCH   9  33
BRANCH   8  35
HETATM   35  O2  UNL     1      -1.944  -2.568   1.301  1.00  0.00    -0.390 OA
ATOM     36  H2  UNL     1      -1.923  -2.599   2.250  1.00  0.00     0.210 HD
ENDBRANCH   8  35
TORSDOF 9
