REMARK  0 active torsions:
REMARK  status: ('A' for Active; 'I' for Inactive)
ROOT
HETATM    1  O1  UNL     1       1.827   1.183   0.001  1.00  0.00    -0.297 OA
HETATM    2  C1  UNL     1       0.630   0.861   0.250  1.00  0.00     0.138 C 
HETATM    3  C2  UNL     1       0.335  -0.414  -0.563  1.00  0.00     0.063 C 
HETATM    4  C3  UNL     1      -0.733  -1.170   0.173  1.00  0.00     0.013 C 
HETATM    5  C4  UNL     1      -1.837  -0.105   0.254  1.00  0.00     0.007 C 
HETATM    6  C5  UNL     1      -1.519   0.904  -0.803  1.00  0.00     0.007 C 
HETATM    7  C6  UNL     1      -0.336   1.787  -0.429  1.00  0.00     0.094 C 
HETATM    8  C7  UNL     1       0.095   1.603  -1.891  1.00  0.00     0.187 C 
HETATM    9  F1  UNL     1      -0.655   2.327  -2.760  1.00  0.00    -0.248 F 
HETATM   10  C8  UNL     1      -0.463   0.207  -1.675  1.00  0.00     0.036 C 
ENDROOT
TORSDOF 0
