REMARK  7 active torsions:
REMARK  status: ('A' for Active; 'I' for Inactive)
REMARK    1  A    between atoms: N1_1  and  S1_4 
REMARK    2  A    between atoms: S1_4  and  C1_7 
REMARK    3  A    between atoms: C6_12  and  C7_13 
REMARK       I    between atoms: C7_13  and  N2_15 
REMARK    4  A    between atoms: N2_15  and  C8_17 
REMARK    5  A    between atoms: C11_20  and  C12_21 
REMARK    6  A    between atoms: C14_23  and  C15_24 
REMARK    7  A    between atoms: C22_31  and  O4_32 
ROOT
HETATM    1  C8  UNL     1      -1.448  -1.478  -0.279  1.00  0.00     0.107 A 
HETATM    2  C9  UNL     1      -0.177  -1.868  -0.652  1.00  0.00     0.049 A 
HETATM    3  C10 UNL     1       0.925  -1.400   0.032  1.00  0.00     0.013 A 
HETATM    4  C11 UNL     1       0.788  -0.538   1.098  1.00  0.00    -0.032 A 
HETATM    5  C23 UNL     1      -0.499  -0.176   1.434  1.00  0.00     0.097 A 
HETATM    6  N3  UNL     1      -1.584  -0.630   0.769  1.00  0.00    -0.352 N 
ATOM      7  H3  UNL     1      -2.515  -0.331   1.059  1.00  0.00     0.166 HD
ENDROOT
BRANCH   1   8
HETATM    8  N2  UNL     1      -2.478  -1.927  -0.933  1.00  0.00    -0.309 N 
HETATM    9  C7  UNL     1      -3.799  -1.511  -0.529  1.00  0.00     0.258 C 
HETATM   10  O3  UNL     1      -4.354  -2.209   0.291  1.00  0.00    -0.267 OA
ATOM     11  H2  UNL     1      -2.354  -2.564  -1.720  1.00  0.00     0.170 HD
BRANCH   9  12
HETATM   12  C6  UNL     1      -4.381  -0.301  -1.116  1.00  0.00     0.055 A 
HETATM   13  C1  UNL     1      -5.626   0.161  -0.800  1.00  0.00     0.095 A 
HETATM   14  C2  UNL     1      -6.089   1.314  -1.409  1.00  0.00     0.026 A 
HETATM   15  C3  UNL     1      -5.364   2.037  -2.328  1.00  0.00     0.002 A 
HETATM   16  C4  UNL     1      -4.106   1.537  -2.622  1.00  0.00     0.001 A 
HETATM   17  C5  UNL     1      -3.622   0.413  -2.045  1.00  0.00     0.018 A 
BRANCH  13  18
HETATM   18  S1  UNL     1      -6.666  -0.634   0.341  1.00  0.00     0.257 S 
HETATM   19  O1  UNL     1      -7.027  -1.993  -0.156  1.00  0.00    -0.201 OA
HETATM   20  O2  UNL     1      -6.102  -0.709   1.706  1.00  0.00    -0.201 OA
BRANCH  18  21
HETATM   21  N1  UNL     1      -8.168   0.288   0.441  1.00  0.00    -0.324 N 
ATOM     22  H12 UNL     1      -9.098  -0.057   0.201  1.00  0.00     0.169 HD
ATOM     23  H11 UNL     1      -7.921   1.217   0.781  1.00  0.00     0.169 HD
ENDBRANCH  18  21
ENDBRANCH  13  18
ENDBRANCH   9  12
ENDBRANCH   1   8
BRANCH   4  24
HETATM   24  C12 UNL     1       1.932  -0.028   1.856  1.00  0.00     0.078 C 
HETATM   25  C13 UNL     1       3.187   0.233   1.086  1.00  0.00    -0.066 C 
HETATM   26  C14 UNL     1       3.495   0.649  -0.122  1.00  0.00     0.015 C 
HETATM   27  C21 UNL     1       3.909  -0.163   2.312  1.00  0.00     0.067 C 
HETATM   28  C22 UNL     1       2.732  -1.113   2.589  1.00  0.00     0.134 C 
BRANCH  26  29
HETATM   29  C15 UNL     1       4.848   0.810  -0.612  1.00  0.00    -0.036 A 
HETATM   30  C16 UNL     1       5.154   1.976  -1.330  1.00  0.00     0.011 A 
HETATM   31  C17 UNL     1       6.434   2.161  -1.834  1.00  0.00     0.001 A 
HETATM   32  C18 UNL     1       7.423   1.225  -1.649  1.00  0.00     0.000 A 
HETATM   33  C19 UNL     1       7.151   0.074  -0.950  1.00  0.00     0.001 A 
HETATM   34  C20 UNL     1       5.861  -0.099  -0.449  1.00  0.00     0.011 A 
ENDBRANCH  26  29
BRANCH  28  35
HETATM   35  O4  UNL     1       2.930  -2.277   1.886  1.00  0.00    -0.394 OA
ATOM     36  H4  UNL     1       3.425  -2.949   2.340  1.00  0.00     0.210 HD
ENDBRANCH  28  35
ENDBRANCH   4  24
TORSDOF 7
