REMARK  7 active torsions:
REMARK  status: ('A' for Active; 'I' for Inactive)
REMARK    1  A    between atoms: N1_2  and  C2_4 
REMARK    2  A    between atoms: C4_6  and  C5_7 
REMARK       I    between atoms: C5_7  and  N2_9 
REMARK    3  A    between atoms: N2_9  and  C6_11 
REMARK    4  A    between atoms: C7_14  and  C8_15 
REMARK    5  A    between atoms: C9_16  and  C10_17 
REMARK    6  A    between atoms: N4_25  and  C18_27 
REMARK    7  A    between atoms: C18_27  and  C19_28 
ROOT
HETATM    1  C6  UNL     1       0.619  -0.763   0.623  1.00  0.00     0.687 A 
HETATM    2  N3  UNL     1      -0.113  -1.861   0.432  1.00  0.00    -0.183 N 
ATOM      3  H3  UNL     1       0.291  -2.775   0.635  1.00  0.00     0.185 HD
HETATM    4  C7  UNL     1      -1.366  -1.783  -0.020  1.00  0.00     0.106 A 
HETATM    5  C16 UNL     1      -1.907  -0.531  -0.293  1.00  0.00     0.088 A 
HETATM    6  C17 UNL     1      -1.140   0.597  -0.092  1.00  0.00     0.119 A 
HETATM    7  N4  UNL     1      -1.610   1.782  -0.335  1.00  0.00    -0.370 N 
ATOM      8  H4  UNL     1      -2.567   1.854  -0.680  1.00  0.00     0.161 HD
HETATM    9  N6  UNL     1       0.108   0.440   0.364  1.00  0.00    -0.177 N 
ATOM     10  H6  UNL     1       0.686   1.266   0.518  1.00  0.00     0.186 HD
ENDROOT
BRANCH   1  11
HETATM   11  N2  UNL     1       1.813  -0.911   1.059  1.00  0.00    -0.155 N 
HETATM   12  C5  UNL     1       2.734   0.109   1.323  1.00  0.00     0.270 C 
HETATM   13  O1  UNL     1       2.425   0.991   2.177  1.00  0.00    -0.267 OA
ATOM     14  H2  UNL     1       2.124  -1.867   1.231  1.00  0.00     0.187 HD
BRANCH  12  15
HETATM   15  C4  UNL     1       4.031   0.231   0.680  1.00  0.00     0.037 A 
HETATM   16  C3  UNL     1       4.932   1.230   0.940  1.00  0.00     0.065 A 
HETATM   17  C2  UNL     1       6.160   1.314   0.309  1.00  0.00     0.101 A 
HETATM   18  N7  UNL     1       6.498   0.385  -0.598  1.00  0.00    -0.353 N 
HETATM   19  C25 UNL     1       5.627  -0.624  -0.884  1.00  0.00     0.090 A 
ATOM     20  H7  UNL     1       7.401   0.433  -1.070  1.00  0.00     0.166 HD
HETATM   21  C24 UNL     1       4.387  -0.716  -0.252  1.00  0.00     0.034 A 
BRANCH  17  22
HETATM   22  N1  UNL     1       6.988   2.260   0.570  1.00  0.00    -0.381 N 
HETATM   23  C1  UNL     1       6.630   3.284   1.564  1.00  0.00     0.147 C 
ATOM     24  H1  UNL     1       7.888   2.301   0.091  1.00  0.00     0.160 HD
ENDBRANCH  17  22
ENDBRANCH  12  15
ENDBRANCH   1  11
BRANCH   4  25
HETATM   25  C8  UNL     1      -2.179  -2.955  -0.234  1.00  0.00    -0.043 C 
HETATM   26  C9  UNL     1      -2.850  -3.942  -0.397  1.00  0.00    -0.060 C 
BRANCH  26  27
HETATM   27  C10 UNL     1      -3.666  -5.114  -0.592  1.00  0.00     0.018 A 
HETATM   28  C11 UNL     1      -4.872  -5.028  -1.260  1.00  0.00     0.020 A 
HETATM   29  C12 UNL     1      -5.679  -6.128  -1.466  1.00  0.00     0.001 A 
HETATM   30  C13 UNL     1      -5.256  -7.350  -0.984  1.00  0.00     0.000 A 
HETATM   31  C14 UNL     1      -4.060  -7.478  -0.313  1.00  0.00     0.001 A 
HETATM   32  C15 UNL     1      -3.276  -6.356  -0.124  1.00  0.00     0.020 A 
ENDBRANCH  26  27
ENDBRANCH   4  25
BRANCH   7  33
HETATM   33  C18 UNL     1      -0.869   2.999  -0.149  1.00  0.00     0.178 C 
BRANCH  33  34
HETATM   34  C19 UNL     1      -1.796   4.163  -0.294  1.00  0.00     0.026 A 
HETATM   35  C20 UNL     1      -2.469   4.663   0.815  1.00  0.00     0.027 A 
HETATM   36  C21 UNL     1      -3.336   5.735   0.732  1.00  0.00     0.003 A 
HETATM   37  C22 UNL     1      -3.510   6.299  -0.508  1.00  0.00     0.017 A 
HETATM   38  C23 UNL     1      -2.836   5.794  -1.600  1.00  0.00     0.088 A 
HETATM   39  N5  UNL     1      -1.990   4.735  -1.479  1.00  0.00    -0.368 N 
ATOM     40  H5  UNL     1      -1.502   4.378  -2.301  1.00  0.00     0.165 HD
ENDBRANCH  33  34
ENDBRANCH   7  33
TORSDOF 7
