REMARK  3 active torsions:
REMARK  status: ('A' for Active; 'I' for Inactive)
REMARK    1  A    between atoms: C3_5  and  C4_6 
REMARK    2  A    between atoms: C14_19  and  C15_20 
REMARK    3  A    between atoms: C15_20  and  N3_21 
REMARK       I    between atoms: N3_21  and  C16_23 
ROOT
HETATM    1  N3  UNL     1      -1.026  -3.096   2.894  1.00  0.00    -0.358 N 
ATOM      2  H3  UNL     1      -1.435  -3.997   2.647  1.00  0.00     0.162 HD
HETATM    3  C16 UNL     1      -1.790  -2.237   3.679  1.00  0.00     0.197 C 
HETATM    4  N4  UNL     1      -2.804  -1.405   3.095  1.00  0.00    -0.063 NA
HETATM    5  N5  UNL     1      -1.631  -2.166   4.977  1.00  0.00    -0.268 N 
ATOM      6  H5  UNL     1      -2.199  -1.533   5.540  1.00  0.00     0.180 HD
HETATM    7  C17 UNL     1      -0.667  -2.977   5.569  1.00  0.00     0.184 C 
HETATM    8  N6  UNL     1       0.114  -3.644   6.063  1.00  0.00    -0.172 NA
ENDROOT
BRANCH   1   9
HETATM    9  C15 UNL     1       0.288  -2.811   2.408  1.00  0.00     0.181 C 
BRANCH   9  10
HETATM   10  C14 UNL     1       0.368  -1.653   1.511  1.00  0.00     0.051 A 
HETATM   11  C2  UNL     1       0.444  -0.344   1.863  1.00  0.00     0.031 A 
HETATM   12  C1  UNL     1       0.519   0.308   3.189  1.00  0.00     0.070 C 
HETATM   13  N1  UNL     1       0.471   0.365   0.698  1.00  0.00    -0.347 N 
HETATM   14  C3  UNL     1       0.415  -0.458  -0.346  1.00  0.00     0.086 A 
ATOM     15  H1  UNL     1       0.526   1.382   0.636  1.00  0.00     0.167 HD
HETATM   16  N2  UNL     1       0.352  -1.684   0.133  1.00  0.00    -0.346 N 
ATOM     17  H2  UNL     1       0.299  -2.531  -0.433  1.00  0.00     0.167 HD
BRANCH  14  18
HETATM   18  C4  UNL     1       0.429   0.039  -1.763  1.00  0.00     0.063 C 
HETATM   19  C5  UNL     1       1.483   1.053  -1.935  1.00  0.00     0.009 C 
HETATM   20  C6  UNL     1       2.490   0.964  -3.000  1.00  0.00     0.006 C 
HETATM   21  C10 UNL     1       0.401   1.992  -2.486  1.00  0.00    -0.001 C 
HETATM   22  C7  UNL     1       2.769   2.413  -3.428  1.00  0.00     0.000 C 
HETATM   23  C8  UNL     1       2.322   3.396  -2.361  1.00  0.00     0.001 C 
HETATM   24  C9  UNL     1       0.809   3.340  -2.147  1.00  0.00     0.013 C 
HETATM   25  C11 UNL     1      -0.122   1.676  -3.829  1.00  0.00     0.179 C 
HETATM   26  C13 UNL     1      -0.590   1.185  -1.851  1.00  0.00     0.011 C 
HETATM   27  F1  UNL     1      -0.533   2.839  -4.495  1.00  0.00    -0.249 F 
HETATM   28  C12 UNL     1      -1.348   1.055  -3.147  1.00  0.00     0.044 C 
ENDBRANCH  14  18
ENDBRANCH   9  10
ENDBRANCH   1   9
TORSDOF 3
