REMARK  8 active torsions:
REMARK  status: ('A' for Active; 'I' for Inactive)
REMARK    1  A    between atoms: C2_2  and  C3_3 
REMARK    2  A    between atoms: C4_4  and  O1_5 
REMARK    3  A    between atoms: C5_7  and  O2_8 
REMARK    4  A    between atoms: C6_10  and  O3_11 
REMARK    5  A    between atoms: O3_11  and  C7_12 
REMARK    6  A    between atoms: C7_12  and  C8_13 
REMARK    7  A    between atoms: N3_31  and  C23_32 
REMARK    8  A    between atoms: C23_32  and  C24_33 
ROOT
HETATM    1  C3  UNL     1       0.062   1.045  -2.368  1.00  0.00     0.231 C 
HETATM    2  C4  UNL     1      -1.413   1.213  -2.374  1.00  0.00     0.183 C 
HETATM    3  C5  UNL     1      -1.870   0.711  -1.039  1.00  0.00     0.214 C 
HETATM    4  C6  UNL     1      -0.699  -0.014  -0.398  1.00  0.00     0.278 A 
HETATM    5  C14 UNL     1       0.058   0.757   0.603  1.00  0.00     0.132 A 
HETATM    6  C15 UNL     1       0.656   0.563   1.869  1.00  0.00     0.268 C 
HETATM    7  C16 UNL     1       1.634  -0.528   2.123  1.00  0.00     0.353 C 
HETATM    8  N1  UNL     1       2.786  -0.326   1.295  1.00  0.00     0.034 N 
HETATM    9  C17 UNL     1       3.789   0.348   2.114  1.00  0.00     0.362 C 
HETATM   10  O4  UNL     1       3.351  -1.587   1.176  1.00  0.00    -0.060 OA
HETATM   11  C18 UNL     1       2.513   0.269   0.038  1.00  0.00     0.287 C 
HETATM   12  C19 UNL     1       1.169   0.737  -0.355  1.00  0.00     0.198 A 
HETATM   13  C20 UNL     1       1.317   2.273  -0.402  1.00  0.00     0.077 C 
HETATM   14  C21 UNL     1       1.595   2.681   1.029  1.00  0.00     0.275 C 
HETATM   15  N2  UNL     1       1.430   1.808   2.088  1.00  0.00     0.091 N 
HETATM   16  C22 UNL     1       0.985   2.531   3.258  1.00  0.00     0.310 C 
HETATM   17  N3  UNL     1       0.390   0.055  -1.363  1.00  0.00     0.011 N 
ENDROOT
BRANCH   4  18
HETATM   18  O3  UNL     1      -1.145  -1.123   0.157  1.00  0.00    -0.320 OA
BRANCH  18  19
HETATM   19  C7  UNL     1      -1.877  -1.414   1.152  1.00  0.00     0.149 C 
BRANCH  19  20
HETATM   20  C8  UNL     1      -3.258  -1.089   1.476  1.00  0.00    -0.014 A 
HETATM   21  C9  UNL     1      -4.369  -1.901   1.206  1.00  0.00     0.013 A 
HETATM   22  C10 UNL     1      -5.638  -1.541   1.554  1.00  0.00     0.001 A 
HETATM   23  C11 UNL     1      -5.892  -0.353   2.191  1.00  0.00     0.000 A 
HETATM   24  C12 UNL     1      -4.840   0.474   2.477  1.00  0.00     0.001 A 
HETATM   25  C13 UNL     1      -3.573   0.096   2.120  1.00  0.00     0.013 A 
ENDBRANCH  19  20
ENDBRANCH  18  19
ENDBRANCH   4  18
BRANCH   3  26
HETATM   26  O2  UNL     1      -2.950  -0.091  -1.394  1.00  0.00    -0.388 OA
ATOM     27  H2  UNL     1      -3.240  -0.409  -0.547  1.00  0.00     0.210 HD
ENDBRANCH   3  26
BRANCH  17  28
HETATM   28  C23 UNL     1       0.795  -1.134  -1.968  1.00  0.00     0.219 C 
BRANCH  28  29
HETATM   29  C24 UNL     1       0.191  -2.458  -1.683  1.00  0.00    -0.013 A 
HETATM   30  C25 UNL     1       0.708  -3.379  -0.787  1.00  0.00     0.013 A 
HETATM   31  C26 UNL     1       0.141  -4.621  -0.546  1.00  0.00     0.001 A 
HETATM   32  C27 UNL     1      -0.982  -5.000  -1.200  1.00  0.00     0.000 A 
HETATM   33  C28 UNL     1      -1.545  -4.132  -2.103  1.00  0.00     0.001 A 
HETATM   34  C29 UNL     1      -0.955  -2.912  -2.314  1.00  0.00     0.013 A 
ENDBRANCH  28  29
ENDBRANCH  17  28
BRANCH   2  35
HETATM   35  O1  UNL     1      -1.972   0.561  -3.468  1.00  0.00    -0.391 OA
ATOM     36  H1  UNL     1      -2.916   0.669  -3.472  1.00  0.00     0.210 HD
ENDBRANCH   2  35
BRANCH   1  37
HETATM   37  C2  UNL     1       0.482   0.881  -3.791  1.00  0.00     0.032 C 
HETATM   38  C1  UNL     1       1.972   0.757  -4.023  1.00  0.00     0.007 C 
ENDBRANCH   1  37
TORSDOF 8
