REMARK  0 active torsions:
REMARK  status: ('A' for Active; 'I' for Inactive)
ROOT
HETATM    1  C1  UNL     1      -1.041   2.180  -0.051  1.00  0.00     0.016 C 
HETATM    2  C2  UNL     1       0.009   1.221  -0.549  1.00  0.00    -0.036 C 
HETATM    3  C3  UNL     1       0.402   1.738  -1.957  1.00  0.00     0.011 C 
HETATM    4  C4  UNL     1       0.906   0.458  -2.625  1.00  0.00     0.016 C 
HETATM    5  C5  UNL     1       0.441  -0.697  -1.743  1.00  0.00     0.050 C 
HETATM    6  C6  UNL     1      -0.697  -0.000  -1.017  1.00  0.00     0.025 C 
HETATM    7  S1  UNL     1       1.662  -1.277  -0.648  1.00  0.00    -0.133 SA
HETATM    8  C7  UNL     1       1.549  -0.170   0.832  1.00  0.00     0.106 A 
HETATM    9  C8  UNL     1       1.149   1.247   0.295  1.00  0.00     0.040 C 
HETATM   10  C9  UNL     1       2.749  -0.472   1.697  1.00  0.00     0.045 A 
HETATM   11  N1  UNL     1       3.189  -1.246   2.553  1.00  0.00    -0.304 N 
ATOM     12  H1  UNL     1       4.133  -1.079   2.901  1.00  0.00     0.186 HD
HETATM   13  N2  UNL     1       2.466  -2.366   3.095  1.00  0.00    -0.283 N 
ATOM     14  H2  UNL     1       2.999  -3.139   3.493  1.00  0.00     0.188 HD
HETATM   15  C10 UNL     1       1.040  -2.451   3.104  1.00  0.00     0.161 A 
HETATM   16  N3  UNL     1       0.208  -3.331   3.634  1.00  0.00    -0.335 N 
ATOM     17  H3  UNL     1       0.459  -4.161   4.171  1.00  0.00     0.168 HD
HETATM   18  C11 UNL     1      -1.051  -2.913   3.323  1.00  0.00     0.183 A 
HETATM   19  N4  UNL     1      -0.956  -1.744   2.584  1.00  0.00    -0.339 N 
ATOM     20  H4  UNL     1      -1.734  -1.201   2.211  1.00  0.00     0.167 HD
HETATM   21  C12 UNL     1       0.256  -1.479   2.459  1.00  0.00     0.146 A 
HETATM   22  N5  UNL     1       0.665  -0.343   1.760  1.00  0.00    -0.165 NA
HETATM   23  O1  UNL     1       1.325   0.063   1.064  1.00  0.00     0.000 OA
HETATM   24  C13 UNL     1       2.772   0.386   1.034  1.00  0.00     0.087 A 
ENDROOT
TORSDOF 0
