REMARK  14 active torsions:
REMARK  status: ('A' for Active; 'I' for Inactive)
REMARK    1  A    between atoms: C3_3  and  N1_4 
REMARK    2  A    between atoms: N2_8  and  C7_9 
REMARK    3  A    between atoms: C7_9  and  O1_10 
REMARK    4  A    between atoms: C7_9  and  C8_12 
REMARK    5  A    between atoms: C8_12  and  C10_14 
REMARK    6  A    between atoms: C10_14  and  C11_15 
REMARK    7  A    between atoms: C11_15  and  C12_16 
REMARK    8  A    between atoms: C14_18  and  C15_19 
REMARK    9  A    between atoms: C16_22  and  C17_23 
REMARK       I    between atoms: C17_23  and  N3_25 
REMARK   10  A    between atoms: N3_25  and  C18_27 
REMARK   11  A    between atoms: C25_34  and  O5_35 
REMARK   12  A    between atoms: N4_40  and  C29_41 
REMARK   13  A    between atoms: C29_41  and  C30_42 
REMARK   14  A    between atoms: C30_42  and  O6_43 
ROOT
HETATM    1  C1  UNL     1       9.191  -0.274   0.902  1.00  0.00     0.013 C 
HETATM    2  C2  UNL     1       8.201   0.158   1.434  1.00  0.00    -0.087 C 
HETATM    3  C3  UNL     1       7.006   0.674   2.105  1.00  0.00     0.364 C 
ENDROOT
BRANCH   3   4
HETATM    4  N1  UNL     1       6.813   2.077   1.916  1.00  0.00     0.100 N 
HETATM    5  C4  UNL     1       6.481   2.483   0.582  1.00  0.00     0.275 C 
HETATM    6  C5  UNL     1       6.297   3.973   0.566  1.00  0.00     0.050 C 
HETATM    7  C6  UNL     1       4.985   4.461   1.065  1.00  0.00     0.127 C 
HETATM    8  N2  UNL     1       4.060   3.337   1.424  1.00  0.00    -0.360 N 
HETATM    9  C34 UNL     1       4.443   2.284   2.326  1.00  0.00     0.155 C 
HETATM   10  C35 UNL     1       5.854   2.554   2.885  1.00  0.00     0.293 C 
BRANCH   8  11
HETATM   11  C7  UNL     1       2.850   3.431   0.795  1.00  0.00     0.144 C 
BRANCH  11  12
HETATM   12  O1  UNL     1       2.739   4.465  -0.012  1.00  0.00    -0.346 OA
ATOM     13  H1  UNL     1       1.898   4.530  -0.449  1.00  0.00     0.219 HD
ENDBRANCH  11  12
BRANCH  11  14
HETATM   14  C8  UNL     1       1.617   2.599   0.832  1.00  0.00    -0.011 C 
HETATM   15  C9  UNL     1       1.642   1.489   1.785  1.00  0.00     0.052 C 
BRANCH  14  16
HETATM   16  C10 UNL     1       0.633   2.977   0.079  1.00  0.00     0.009 C 
BRANCH  16  17
HETATM   17  C11 UNL     1      -0.697   2.679  -0.339  1.00  0.00     0.007 C 
BRANCH  17  18
HETATM   18  C12 UNL     1      -1.311   1.301  -0.272  1.00  0.00     0.221 C 
HETATM   19  C13 UNL     1      -0.438   0.466  -1.128  1.00  0.00     0.071 C 
HETATM   20  C14 UNL     1       0.051  -0.914  -0.768  1.00  0.00     0.114 C 
HETATM   21  C25 UNL     1      -1.380  -0.045  -2.157  1.00  0.00     0.074 C 
HETATM   22  C16 UNL     1      -1.048  -1.902  -1.114  1.00  0.00     0.065 C 
HETATM   23  C22 UNL     1      -0.888  -2.782  -2.289  1.00  0.00     0.021 C 
HETATM   24  C26 UNL     1      -2.108  -0.895  -1.188  1.00  0.00     0.015 C 
HETATM   25  C23 UNL     1      -0.862  -2.124  -3.599  1.00  0.00     0.004 C 
HETATM   26  C24 UNL     1      -0.885  -0.662  -3.374  1.00  0.00     0.039 C 
HETATM   27  C27 UNL     1      -2.305  -0.743   0.247  1.00  0.00     0.042 C 
HETATM   28  C32 UNL     1      -3.412  -0.741  -1.706  1.00  0.00     0.020 C 
HETATM   29  C28 UNL     1      -3.045   0.469   0.810  1.00  0.00     0.239 C 
HETATM   30  N4  UNL     1      -2.741   1.341  -0.370  1.00  0.00    -0.057 N 
HETATM   31  C31 UNL     1      -3.633   0.692  -1.252  1.00  0.00     0.243 C 
HETATM   32  C33 UNL     1      -4.537  -1.652  -1.306  1.00  0.00     0.012 C 
BRANCH  20  33
HETATM   33  C15 UNL     1       1.357  -1.147  -1.406  1.00  0.00     0.178 C 
HETATM   34  O2  UNL     1       1.743  -2.108  -2.092  1.00  0.00    -0.648 OA
HETATM   35  O3  UNL     1       2.409  -0.198  -1.291  1.00  0.00    -0.648 OA
ENDBRANCH  20  33
BRANCH  22  36
HETATM   36  C17 UNL     1      -1.064  -2.891   0.001  1.00  0.00     0.228 C 
HETATM   37  O4  UNL     1      -0.202  -2.834   0.914  1.00  0.00    -0.273 OA
HETATM   38  N3  UNL     1      -2.012  -3.947   0.133  1.00  0.00    -0.352 N 
ATOM     39  H3  UNL     1      -2.741  -4.053  -0.573  1.00  0.00     0.163 HD
BRANCH  38  40
HETATM   40  C18 UNL     1      -1.966  -4.867   1.237  1.00  0.00     0.022 C 
HETATM   41  C19 UNL     1      -2.096  -4.153   2.578  1.00  0.00     0.037 C 
HETATM   42  C20 UNL     1      -0.706  -5.681   1.289  1.00  0.00     0.037 C 
HETATM   43  C21 UNL     1      -3.125  -5.833   1.151  1.00  0.00     0.037 C 
ENDBRANCH  38  40
ENDBRANCH  22  36
BRANCH  30  44
HETATM   44  C29 UNL     1      -3.363   2.635  -0.270  1.00  0.00     0.264 C 
BRANCH  44  45
HETATM   45  C30 UNL     1      -4.130   2.982   0.944  1.00  0.00     0.192 C 
BRANCH  45  46
HETATM   46  O6  UNL     1      -3.487   2.993   2.158  1.00  0.00    -0.399 OA
ATOM     47  H6  UNL     1      -3.980   3.216   2.939  1.00  0.00     0.209 HD
ENDBRANCH  45  46
ENDBRANCH  44  45
ENDBRANCH  30  44
BRANCH  21  48
HETATM   48  O5  UNL     1      -1.786   1.168  -2.649  1.00  0.00    -0.389 OA
ATOM     49  H5  UNL     1      -2.388   0.841  -3.307  1.00  0.00     0.210 HD
ENDBRANCH  21  48
ENDBRANCH  17  18
ENDBRANCH  16  17
ENDBRANCH  14  16
ENDBRANCH  11  14
ENDBRANCH   8  11
ENDBRANCH   3   4
TORSDOF 14
