REMARK  1 active torsions:
REMARK  status: ('A' for Active; 'I' for Inactive)
REMARK    1  A    between atoms: N4_11  and  N5_13 
ROOT
HETATM    1  N1  UNL     1       0.130   4.028   2.579  1.00  0.00    -0.197 NA
HETATM    2  C1  UNL     1      -0.012   3.229   1.977  1.00  0.00     0.065 C 
HETATM    3  C2  UNL     1      -0.193   2.073   1.092  1.00  0.00     0.121 C 
HETATM    4  C3  UNL     1      -1.245   1.125   1.615  1.00  0.00     0.022 C 
HETATM    5  N2  UNL     1      -0.776  -0.186   1.239  1.00  0.00     0.000 N 
HETATM    6  C4  UNL     1      -0.355  -1.509   1.751  1.00  0.00     0.041 A 
HETATM    7  C5  UNL     1      -0.177  -0.911   2.268  1.00  0.00     0.265 A 
HETATM    8  N3  UNL     1       0.190  -0.156   1.061  1.00  0.00     0.154 N 
HETATM    9  C6  UNL     1       1.020   1.110   1.138  1.00  0.00     0.301 C 
HETATM   10  C7  UNL     1      -0.406  -0.474  -0.091  1.00  0.00     0.310 A 
HETATM   11  N4  UNL     1      -0.839  -0.777  -1.242  1.00  0.00    -0.281 N 
ATOM     12  H4  UNL     1      -1.845  -0.880  -1.378  1.00  0.00     0.188 HD
ENDROOT
BRANCH  11  13
HETATM   13  N5  UNL     1       0.003  -0.973  -2.320  1.00  0.00    -0.343 N 
ATOM     14  H52 UNL     1       1.006  -0.866  -2.166  1.00  0.00     0.176 HD
ATOM     15  H51 UNL     1      -0.346  -1.217  -3.247  1.00  0.00     0.176 HD
ENDBRANCH  11  13
TORSDOF 1
