REMARK  1 active torsions:
REMARK  status: ('A' for Active; 'I' for Inactive)
REMARK       I    between atoms: C2_3  and  N2_4 
REMARK    1  A    between atoms: N2_4  and  C3_6 
ROOT
HETATM    1  C1  UNL     1      -0.441   3.455  -2.679  1.00  0.00     0.175 C 
HETATM    2  N1  UNL     1      -1.087   2.472  -1.873  1.00  0.00    -0.195 N 
HETATM    3  C2  UNL     1      -2.274   2.942  -1.263  1.00  0.00     0.682 C 
HETATM    4  N2  UNL     1      -2.620   4.221  -1.801  1.00  0.00    -0.167 N 
ATOM      5  H2  UNL     1      -2.828   4.310  -2.796  1.00  0.00     0.186 HD
HETATM    6  N3  UNL     1      -3.114   2.499  -0.342  1.00  0.00    -0.225 N 
ATOM      7  H3  UNL     1      -3.873   3.160  -0.179  1.00  0.00     0.177 HD
HETATM    8  C4  UNL     1      -3.245   1.306   0.510  1.00  0.00     0.143 C 
HETATM    9  C5  UNL     1      -1.988   0.526   0.245  1.00  0.00     0.012 C 
HETATM   10  C6  UNL     1      -2.214  -0.094  -1.015  1.00  0.00    -0.003 C 
HETATM   11  C7  UNL     1      -2.030  -1.459  -0.381  1.00  0.00     0.010 C 
HETATM   12  C8  UNL     1      -1.534  -0.717   0.821  1.00  0.00    -0.008 C 
HETATM   13  C9  UNL     1      -0.145  -0.968   1.217  1.00  0.00     0.010 C 
HETATM   14  C10 UNL     1       1.108  -0.740   0.569  1.00  0.00    -0.005 C 
HETATM   15  C11 UNL     1       1.446  -1.070  -0.840  1.00  0.00     0.011 C 
HETATM   16  C12 UNL     1       1.914   0.341  -1.173  1.00  0.00     0.000 C 
HETATM   17  C13 UNL     1       1.009   1.070  -2.169  1.00  0.00     0.058 C 
HETATM   18  C14 UNL     1      -0.381   1.215  -1.863  1.00  0.00     0.007 C 
HETATM   19  C15 UNL     1      -1.373   0.167  -2.219  1.00  0.00     0.058 C 
HETATM   20  C16 UNL     1       1.844   0.511   0.279  1.00  0.00    -0.033 C 
HETATM   21  C17 UNL     1       3.360   0.369   0.718  1.00  0.00     0.010 C 
HETATM   22  C18 UNL     1       3.973   1.663   0.274  1.00  0.00     0.001 C 
HETATM   23  C19 UNL     1       2.864   2.634   0.574  1.00  0.00     0.001 C 
HETATM   24  C20 UNL     1       1.687   1.753   1.004  1.00  0.00     0.010 C 
ENDROOT
BRANCH   4  25
HETATM   25  C3  UNL     1      -2.672   5.261  -1.044  1.00  0.00     0.368 C 
HETATM   26  O1  UNL     1      -2.218   6.352  -0.629  1.00  0.00    -0.283 OA
ENDBRANCH   4  25
TORSDOF 1
