MODEL 16
REMARK VINA RESULT: -7.641167334      3.305      7.909
REMARK  14 active torsions:
REMARK  status: ('A' for Active; 'I' for Inactive)
REMARK    1  A    between atoms: N1_1  and  C1_5 
REMARK    2  A    between atoms: C1_5  and  C2_6 
REMARK    3  A    between atoms: C1_5  and  C23_36 
REMARK    4  A    between atoms: C2_6  and  C3_7 
REMARK    5  A    between atoms: C3_7  and  C4_8 
REMARK       I    between atoms: C4_8  and  N2_10 
REMARK    6  A    between atoms: N2_10  and  C5_12 
REMARK    7  A    between atoms: C5_12  and  C6_13 
REMARK    8  A    between atoms: C5_12  and  C14_22 
REMARK    9  A    between atoms: C6_13  and  S1_14 
REMARK   10  A    between atoms: S1_14  and  C7_15 
REMARK   11  A    between atoms: C7_15  and  C8_16 
REMARK       I    between atoms: C14_22  and  N3_24 
REMARK   12  A    between atoms: N3_24  and  C15_26 
REMARK   13  A    between atoms: C15_26  and  C16_27 
REMARK   14  A    between atoms: C15_26  and  C17_30 
ROOT
HETATM    1  C5  UNL     1      10.767   7.108  27.198  1.00  0.00     0.185 C 
ENDROOT
BRANCH   1   2
HETATM    2  N2  UNL     1      11.985   7.895  27.149  1.00  0.00    -0.347 N 
HETATM    3  C4  UNL     1      12.603   8.067  25.877  1.00  0.00     0.218 C 
HETATM    4  O1  UNL     1      12.087   7.556  24.872  1.00  0.00    -0.274 OA
ATOM      5  H2  UNL     1      12.382   8.309  27.991  1.00  0.00     0.163 HD
BRANCH   3   6
HETATM    6  C3  UNL     1      13.851   8.849  25.748  1.00  0.00     0.105 C 
BRANCH   6   7
HETATM    7  C2  UNL     1      14.177   9.437  27.091  1.00  0.00     0.053 C 
BRANCH   7   8
HETATM    8  C1  UNL     1      15.572  10.010  27.124  1.00  0.00     0.283 C 
BRANCH   8   9
HETATM    9  N1  UNL     1      16.202   9.363  28.292  1.00  0.00    -0.065 N 
ATOM     10  H13 UNL     1      16.138   9.903  29.155  1.00  0.00     0.275 HD
ATOM     11  H12 UNL     1      15.702   8.543  28.636  1.00  0.00     0.275 HD
ATOM     12  H11 UNL     1      17.157   9.172  27.988  1.00  0.00     0.275 HD
ENDBRANCH   8   9
BRANCH   8  13
HETATM   13  C23 UNL     1      15.465  11.462  27.402  1.00  0.00     0.204 C 
HETATM   14  O5  UNL     1      16.237  11.972  28.241  1.00  0.00    -0.646 OA
HETATM   15  O6  UNL     1      14.545  12.252  26.760  1.00  0.00    -0.646 OA
ENDBRANCH   8  13
ENDBRANCH   7   8
ENDBRANCH   6   7
ENDBRANCH   3   6
ENDBRANCH   1   2
BRANCH   1  16
HETATM   16  C6  UNL     1      11.080   5.624  27.191  1.00  0.00     0.109 C 
BRANCH  16  17
HETATM   17  S1  UNL     1       9.553   4.799  26.664  1.00  0.00    -0.162 SA
BRANCH  17  18
HETATM   18  C7  UNL     1       9.680   3.040  27.055  1.00  0.00     0.112 C 
BRANCH  18  19
HETATM   19  C8  UNL     1       8.875   2.768  28.262  1.00  0.00    -0.049 A 
HETATM   20  C9  UNL     1       8.171   3.748  28.900  1.00  0.00     0.008 A 
HETATM   21  C10 UNL     1       7.414   3.483  30.040  1.00  0.00     0.001 A 
HETATM   22  C11 UNL     1       7.372   2.213  30.537  1.00  0.00     0.000 A 
HETATM   23  C12 UNL     1       8.076   1.200  29.910  1.00  0.00     0.001 A 
HETATM   24  C13 UNL     1       8.817   1.473  28.791  1.00  0.00     0.008 A 
ENDBRANCH  18  19
ENDBRANCH  17  18
ENDBRANCH  16  17
ENDBRANCH   1  16
BRANCH   1  25
HETATM   25  C14 UNL     1      10.092   7.464  28.474  1.00  0.00     0.242 C 
HETATM   26  O2  UNL     1      10.745   7.530  29.548  1.00  0.00    -0.271 OA
HETATM   27  N3  UNL     1       8.701   7.728  28.442  1.00  0.00    -0.341 N 
ATOM     28  H3  UNL     1       8.175   7.674  27.569  1.00  0.00     0.163 HD
BRANCH  27  29
HETATM   29  C15 UNL     1       8.038   8.081  29.704  1.00  0.00     0.219 C 
BRANCH  29  30
HETATM   30  C16 UNL     1       7.581   9.519  29.593  1.00  0.00     0.201 C 
HETATM   31  O3  UNL     1       7.057   9.959  28.557  1.00  0.00    -0.646 OA
HETATM   32  O4  UNL     1       7.756  10.347  30.674  1.00  0.00    -0.646 OA
ENDBRANCH  29  30
BRANCH  29  33
HETATM   33  C17 UNL     1       6.825   7.261  29.790  1.00  0.00    -0.025 A 
HETATM   34  C18 UNL     1       6.275   6.963  31.010  1.00  0.00     0.010 A 
HETATM   35  C19 UNL     1       5.118   6.195  31.115  1.00  0.00     0.001 A 
HETATM   36  C20 UNL     1       4.554   5.750  29.937  1.00  0.00     0.000 A 
HETATM   37  C21 UNL     1       5.079   6.031  28.701  1.00  0.00     0.001 A 
HETATM   38  C22 UNL     1       6.231   6.798  28.641  1.00  0.00     0.010 A 
ENDBRANCH  29  33
ENDBRANCH  27  29
ENDBRANCH   1  25
TORSDOF 14
ENDMDL
