MODEL 5
REMARK VINA RESULT: -7.815532474      2.347      3.545
REMARK  14 active torsions:
REMARK  status: ('A' for Active; 'I' for Inactive)
REMARK    1  A    between atoms: N1_1  and  C1_5 
REMARK    2  A    between atoms: C1_5  and  C2_6 
REMARK    3  A    between atoms: C1_5  and  C23_36 
REMARK    4  A    between atoms: C2_6  and  C3_7 
REMARK    5  A    between atoms: C3_7  and  C4_8 
REMARK       I    between atoms: C4_8  and  N2_10 
REMARK    6  A    between atoms: N2_10  and  C5_12 
REMARK    7  A    between atoms: C5_12  and  C6_13 
REMARK    8  A    between atoms: C5_12  and  C14_22 
REMARK    9  A    between atoms: C6_13  and  S1_14 
REMARK   10  A    between atoms: S1_14  and  C7_15 
REMARK   11  A    between atoms: C7_15  and  C8_16 
REMARK       I    between atoms: C14_22  and  N3_24 
REMARK   12  A    between atoms: N3_24  and  C15_26 
REMARK   13  A    between atoms: C15_26  and  C16_27 
REMARK   14  A    between atoms: C15_26  and  C17_30 
ROOT
HETATM    1  C5  UNL     1      11.203   7.270  26.232  1.00  0.00     0.185 C 
ENDROOT
BRANCH   1   2
HETATM    2  N2  UNL     1      10.855   5.986  25.655  1.00  0.00    -0.347 N 
HETATM    3  C4  UNL     1      10.756   5.910  24.236  1.00  0.00     0.218 C 
HETATM    4  O1  UNL     1      10.976   6.922  23.552  1.00  0.00    -0.274 OA
ATOM      5  H2  UNL     1      10.687   5.170  26.241  1.00  0.00     0.163 HD
BRANCH   3   6
HETATM    6  C3  UNL     1      10.397   4.638  23.575  1.00  0.00     0.105 C 
BRANCH   6   7
HETATM    7  C2  UNL     1       9.695   3.769  24.579  1.00  0.00     0.053 C 
BRANCH   7   8
HETATM    8  C1  UNL     1      10.614   2.712  25.138  1.00  0.00     0.283 C 
BRANCH   8   9
HETATM    9  N1  UNL     1      10.269   1.493  24.381  1.00  0.00    -0.065 N 
ATOM     10  H13 UNL     1       9.281   1.417  24.138  1.00  0.00     0.275 HD
ATOM     11  H12 UNL     1      10.620   1.482  23.423  1.00  0.00     0.275 HD
ATOM     12  H11 UNL     1      10.617   0.730  24.961  1.00  0.00     0.275 HD
ENDBRANCH   8   9
BRANCH   8  13
HETATM   13  C23 UNL     1      10.249   2.492  26.558  1.00  0.00     0.204 C 
HETATM   14  O5  UNL     1      10.614   3.330  27.410  1.00  0.00    -0.646 OA
HETATM   15  O6  UNL     1       9.522   1.398  26.954  1.00  0.00    -0.646 OA
ENDBRANCH   8  13
ENDBRANCH   7   8
ENDBRANCH   6   7
ENDBRANCH   3   6
ENDBRANCH   1   2
BRANCH   1  16
HETATM   16  C6  UNL     1      10.639   7.405  27.634  1.00  0.00     0.109 C 
BRANCH  16  17
HETATM   17  S1  UNL     1       9.064   6.506  27.621  1.00  0.00    -0.162 SA
BRANCH  17  18
HETATM   18  C7  UNL     1       7.765   7.621  27.047  1.00  0.00     0.112 C 
BRANCH  18  19
HETATM   19  C8  UNL     1       7.465   7.307  25.637  1.00  0.00    -0.049 A 
HETATM   20  C9  UNL     1       7.786   8.160  24.621  1.00  0.00     0.008 A 
HETATM   21  C10 UNL     1       7.498   7.857  23.291  1.00  0.00     0.001 A 
HETATM   22  C11 UNL     1       6.880   6.678  22.990  1.00  0.00     0.000 A 
HETATM   23  C12 UNL     1       6.544   5.794  24.000  1.00  0.00     0.001 A 
HETATM   24  C13 UNL     1       6.832   6.104  25.303  1.00  0.00     0.008 A 
ENDBRANCH  18  19
ENDBRANCH  17  18
ENDBRANCH  16  17
ENDBRANCH   1  16
BRANCH   1  25
HETATM   25  C14 UNL     1      12.688   7.311  26.291  1.00  0.00     0.242 C 
HETATM   26  O2  UNL     1      13.354   6.254  26.445  1.00  0.00    -0.271 OA
HETATM   27  N3  UNL     1      13.326   8.570  26.167  1.00  0.00    -0.341 N 
ATOM     28  H3  UNL     1      12.784   9.426  26.043  1.00  0.00     0.163 HD
BRANCH  27  29
HETATM   29  C15 UNL     1      14.794   8.606  26.225  1.00  0.00     0.219 C 
BRANCH  29  30
HETATM   30  C16 UNL     1      15.299   8.869  24.823  1.00  0.00     0.201 C 
HETATM   31  O3  UNL     1      14.523   9.112  23.884  1.00  0.00    -0.646 OA
HETATM   32  O4  UNL     1      16.653   8.837  24.598  1.00  0.00    -0.646 OA
ENDBRANCH  29  30
BRANCH  29  33
HETATM   33  C17 UNL     1      15.158   9.777  27.029  1.00  0.00    -0.025 A 
HETATM   34  C18 UNL     1      14.762  11.032  26.643  1.00  0.00     0.010 A 
HETATM   35  C19 UNL     1      15.088  12.158  27.396  1.00  0.00     0.001 A 
HETATM   36  C20 UNL     1      15.824  11.951  28.543  1.00  0.00     0.000 A 
HETATM   37  C21 UNL     1      16.235  10.709  28.958  1.00  0.00     0.001 A 
HETATM   38  C22 UNL     1      15.890   9.616  28.180  1.00  0.00     0.010 A 
ENDBRANCH  29  33
ENDBRANCH  27  29
ENDBRANCH   1  25
TORSDOF 14
ENDMDL
