MODEL 2
REMARK VINA RESULT: -7.011182230      0.032      1.489
REMARK  2 active torsions:
REMARK  status: ('A' for Active; 'I' for Inactive)
REMARK    1  A    between atoms: C2_2  and  C4_4 
REMARK    2  A    between atoms: C4_4  and  C5_5 
ROOT
HETATM    1  C5  UNL     1      27.253   6.884   3.842  1.00  0.00    -0.058 A 
HETATM    2  C6  UNL     1      26.658   5.727   3.400  1.00  0.00     0.007 A 
HETATM    3  C7  UNL     1      25.840   5.019   4.248  1.00  0.00     0.001 A 
HETATM    4  C8  UNL     1      25.580   5.412   5.542  1.00  0.00     0.000 A 
HETATM    5  C9  UNL     1      26.185   6.574   5.969  1.00  0.00     0.001 A 
HETATM    6  C10 UNL     1      27.005   7.293   5.132  1.00  0.00     0.007 A 
ENDROOT
BRANCH   1   7
HETATM    7  C4  UNL     1      28.143   7.680   2.963  1.00  0.00     0.042 C 
BRANCH   7   8
HETATM    8  C2  UNL     1      27.427   8.310   1.809  1.00  0.00    -0.019 C 
HETATM    9  C1  UNL     1      28.243   8.456   0.572  1.00  0.00     0.010 C 
HETATM   10  C3  UNL     1      26.856   9.670   2.199  1.00  0.00     0.010 C 
ENDBRANCH   7   8
ENDBRANCH   1   7
TORSDOF 2
ENDMDL
