MODEL 6
REMARK VINA RESULT: -6.647520329      0.681      1.920
REMARK  2 active torsions:
REMARK  status: ('A' for Active; 'I' for Inactive)
REMARK    1  A    between atoms: C2_2  and  C4_4 
REMARK    2  A    between atoms: C4_4  and  C5_5 
ROOT
HETATM    1  C5  UNL     1      27.234   7.031   3.887  1.00  0.00    -0.058 A 
HETATM    2  C6  UNL     1      26.513   5.915   3.540  1.00  0.00     0.007 A 
HETATM    3  C7  UNL     1      25.774   5.260   4.496  1.00  0.00     0.001 A 
HETATM    4  C8  UNL     1      25.718   5.668   5.811  1.00  0.00     0.000 A 
HETATM    5  C9  UNL     1      26.447   6.790   6.142  1.00  0.00     0.001 A 
HETATM    6  C10 UNL     1      27.190   7.455   5.196  1.00  0.00     0.007 A 
ENDROOT
BRANCH   1   7
HETATM    7  C4  UNL     1      28.045   7.769   2.889  1.00  0.00     0.042 C 
BRANCH   7   8
HETATM    8  C2  UNL     1      27.546   9.158   2.631  1.00  0.00    -0.019 C 
HETATM    9  C1  UNL     1      26.114   9.379   2.967  1.00  0.00     0.010 C 
HETATM   10  C3  UNL     1      27.793   9.563   1.181  1.00  0.00     0.010 C 
ENDBRANCH   7   8
ENDBRANCH   1   7
TORSDOF 2
ENDMDL
