MODEL 3
REMARK VINA RESULT: -6.449565801      1.038      1.490
REMARK  0 active torsions:
REMARK  status: ('A' for Active; 'I' for Inactive)
ROOT
HETATM    1  C1  UNL     1      25.529   4.988   4.877  1.00  0.00     0.001 A 
HETATM    2  C2  UNL     1      25.594   5.617   6.100  1.00  0.00     0.002 A 
HETATM    3  C3  UNL     1      26.539   6.611   6.254  1.00  0.00     0.030 A 
HETATM    4  C4  UNL     1      27.402   6.976   5.223  1.00  0.00     0.042 A 
HETATM    5  N1  UNL     1      28.387   7.887   5.110  1.00  0.00    -0.365 N 
ATOM      6  H1  UNL     1      28.682   8.520   5.854  1.00  0.00     0.165 HD
HETATM    7  C5  UNL     1      28.930   7.846   3.877  1.00  0.00     0.089 A 
HETATM    8  C6  UNL     1      28.287   6.888   3.159  1.00  0.00     0.030 A 
HETATM    9  C7  UNL     1      27.330   6.343   4.001  1.00  0.00    -0.008 A 
HETATM   10  C8  UNL     1      26.378   5.341   3.848  1.00  0.00     0.014 A 
ENDROOT
TORSDOF 0
ENDMDL
