MODEL 2
REMARK VINA RESULT: -6.819826875      0.847      1.888
REMARK  0 active torsions:
REMARK  status: ('A' for Active; 'I' for Inactive)
ROOT
HETATM    1  C1  UNL     1      26.307   6.612   6.539  1.00  0.00     0.001 A 
HETATM    2  C2  UNL     1      25.710   5.424   6.180  1.00  0.00     0.002 A 
HETATM    3  C3  UNL     1      25.986   4.929   4.922  1.00  0.00     0.030 A 
HETATM    4  C4  UNL     1      26.834   5.591   4.037  1.00  0.00     0.042 A 
HETATM    5  N1  UNL     1      27.261   5.333   2.786  1.00  0.00    -0.365 N 
ATOM      6  H1  UNL     1      26.994   4.516   2.237  1.00  0.00     0.165 HD
HETATM    7  C5  UNL     1      28.091   6.307   2.360  1.00  0.00     0.089 A 
HETATM    8  C6  UNL     1      28.215   7.227   3.353  1.00  0.00     0.030 A 
HETATM    9  C7  UNL     1      27.428   6.779   4.403  1.00  0.00    -0.008 A 
HETATM   10  C8  UNL     1      27.148   7.277   5.671  1.00  0.00     0.014 A 
ENDROOT
TORSDOF 0
ENDMDL
