MODEL 9
REMARK VINA RESULT: -5.124598513      1.098      1.641
REMARK  0 active torsions:
REMARK  status: ('A' for Active; 'I' for Inactive)
ROOT
HETATM    1  C1  UNL     1      27.039   7.224   6.020  1.00  0.00     0.001 A 
HETATM    2  C2  UNL     1      27.981   8.053   5.452  1.00  0.00     0.002 A 
HETATM    3  C3  UNL     1      28.423   7.738   4.184  1.00  0.00     0.030 A 
HETATM    4  C4  UNL     1      27.945   6.629   3.489  1.00  0.00     0.042 A 
HETATM    5  N1  UNL     1      28.200   6.109   2.273  1.00  0.00    -0.365 N 
ATOM      6  H1  UNL     1      28.860   6.499   1.601  1.00  0.00     0.165 HD
HETATM    7  C5  UNL     1      27.459   5.001   2.068  1.00  0.00     0.089 A 
HETATM    8  C6  UNL     1      26.698   4.785   3.173  1.00  0.00     0.030 A 
HETATM    9  C7  UNL     1      27.001   5.804   4.063  1.00  0.00    -0.008 A 
HETATM   10  C8  UNL     1      26.558   6.123   5.342  1.00  0.00     0.014 A 
ENDROOT
TORSDOF 0
ENDMDL
