MODEL 10
REMARK VINA RESULT: -4.810667802      1.061      1.881
REMARK  0 active torsions:
REMARK  status: ('A' for Active; 'I' for Inactive)
ROOT
HETATM    1  C1  UNL     1      26.436   4.164   3.845  1.00  0.00     0.001 A 
HETATM    2  C2  UNL     1      26.007   4.900   4.927  1.00  0.00     0.002 A 
HETATM    3  C3  UNL     1      26.436   6.208   5.016  1.00  0.00     0.030 A 
HETATM    4  C4  UNL     1      27.270   6.780   4.057  1.00  0.00     0.042 A 
HETATM    5  N1  UNL     1      27.820   8.000   3.908  1.00  0.00    -0.365 N 
ATOM      6  H1  UNL     1      27.690   8.779   4.553  1.00  0.00     0.165 HD
HETATM    7  C5  UNL     1      28.566   8.048   2.786  1.00  0.00     0.089 A 
HETATM    8  C6  UNL     1      28.506   6.832   2.181  1.00  0.00     0.030 A 
HETATM    9  C7  UNL     1      27.695   6.038   2.976  1.00  0.00    -0.008 A 
HETATM   10  C8  UNL     1      27.262   4.719   2.889  1.00  0.00     0.014 A 
ENDROOT
TORSDOF 0
ENDMDL
