MODEL 1
REMARK VINA RESULT: -6.903067146      0.000      0.000
REMARK  0 active torsions:
REMARK  status: ('A' for Active; 'I' for Inactive)
ROOT
HETATM    1  C1  UNL     1      25.685   5.436   6.138  1.00  0.00     0.001 A 
HETATM    2  C2  UNL     1      26.251   6.618   6.563  1.00  0.00     0.002 A 
HETATM    3  C3  UNL     1      27.113   7.257   5.695  1.00  0.00     0.030 A 
HETATM    4  C4  UNL     1      27.411   6.742   4.435  1.00  0.00     0.042 A 
HETATM    5  N1  UNL     1      28.196   7.153   3.421  1.00  0.00    -0.365 N 
ATOM      6  H1  UNL     1      28.755   8.006   3.428  1.00  0.00     0.165 HD
HETATM    7  C5  UNL     1      28.138   6.280   2.395  1.00  0.00     0.089 A 
HETATM    8  C6  UNL     1      27.296   5.270   2.741  1.00  0.00     0.030 A 
HETATM    9  C7  UNL     1      26.840   5.559   4.017  1.00  0.00    -0.008 A 
HETATM   10  C8  UNL     1      25.972   4.916   4.894  1.00  0.00     0.014 A 
ENDROOT
TORSDOF 0
ENDMDL
