MODEL 2
REMARK VINA RESULT: -7.226697952      0.602      1.745
REMARK  3 active torsions:
REMARK  status: ('A' for Active; 'I' for Inactive)
REMARK    1  A    between atoms: C2_2  and  C3_3 
REMARK    2  A    between atoms: C3_3  and  C4_4 
REMARK    3  A    between atoms: C4_4  and  C5_5 
ROOT
HETATM    1  C5  UNL     1      27.186   6.818   3.852  1.00  0.00    -0.058 A 
HETATM    2  C6  UNL     1      27.097   7.399   5.104  1.00  0.00     0.007 A 
HETATM    3  C7  UNL     1      26.407   6.792   6.137  1.00  0.00     0.001 A 
HETATM    4  C8  UNL     1      25.772   5.579   5.971  1.00  0.00     0.000 A 
HETATM    5  C9  UNL     1      25.860   5.000   4.724  1.00  0.00     0.001 A 
HETATM    6  C10 UNL     1      26.547   5.601   3.692  1.00  0.00     0.007 A 
ENDROOT
BRANCH   1   7
HETATM    7  C4  UNL     1      27.929   7.476   2.747  1.00  0.00     0.038 C 
BRANCH   7   8
HETATM    8  C3  UNL     1      27.934   8.993   2.932  1.00  0.00     0.004 C 
BRANCH   8   9
HETATM    9  C2  UNL     1      27.193   9.673   1.804  1.00  0.00    -0.004 C 
HETATM   10  C1  UNL     1      27.611   9.030   0.500  1.00  0.00     0.005 C 
ENDBRANCH   8   9
ENDBRANCH   7   8
ENDBRANCH   1   7
TORSDOF 3
ENDMDL
