MODEL 5
REMARK VINA RESULT: -6.607272204      0.944      1.413
REMARK  3 active torsions:
REMARK  status: ('A' for Active; 'I' for Inactive)
REMARK    1  A    between atoms: C2_2  and  C3_3 
REMARK    2  A    between atoms: C3_3  and  C4_4 
REMARK    3  A    between atoms: C4_4  and  C5_5 
ROOT
HETATM    1  C5  UNL     1      27.232   6.969   4.233  1.00  0.00    -0.058 A 
HETATM    2  C6  UNL     1      27.545   6.137   3.174  1.00  0.00     0.007 A 
HETATM    3  C7  UNL     1      26.919   4.917   3.002  1.00  0.00     0.001 A 
HETATM    4  C8  UNL     1      25.951   4.468   3.877  1.00  0.00     0.000 A 
HETATM    5  C9  UNL     1      25.638   5.297   4.932  1.00  0.00     0.001 A 
HETATM    6  C10 UNL     1      26.260   6.513   5.108  1.00  0.00     0.007 A 
ENDROOT
BRANCH   1   7
HETATM    7  C4  UNL     1      27.909   8.279   4.413  1.00  0.00     0.038 C 
BRANCH   7   8
HETATM    8  C3  UNL     1      28.410   8.812   3.070  1.00  0.00     0.004 C 
BRANCH   8   9
HETATM    9  C2  UNL     1      27.314   9.560   2.347  1.00  0.00    -0.004 C 
HETATM   10  C1  UNL     1      27.411   9.244   0.871  1.00  0.00     0.005 C 
ENDBRANCH   8   9
ENDBRANCH   7   8
ENDBRANCH   1   7
TORSDOF 3
ENDMDL
