MODEL 8
REMARK VINA RESULT: -6.435844900      0.832      1.137
REMARK  3 active torsions:
REMARK  status: ('A' for Active; 'I' for Inactive)
REMARK    1  A    between atoms: C2_2  and  C3_3 
REMARK    2  A    between atoms: C3_3  and  C4_4 
REMARK    3  A    between atoms: C4_4  and  C5_5 
ROOT
HETATM    1  C5  UNL     1      27.485   7.653   4.111  1.00  0.00    -0.058 A 
HETATM    2  C6  UNL     1      26.879   6.518   3.604  1.00  0.00     0.007 A 
HETATM    3  C7  UNL     1      26.231   5.614   4.425  1.00  0.00     0.001 A 
HETATM    4  C8  UNL     1      26.155   5.798   5.790  1.00  0.00     0.000 A 
HETATM    5  C9  UNL     1      26.758   6.929   6.296  1.00  0.00     0.001 A 
HETATM    6  C10 UNL     1      27.405   7.832   5.482  1.00  0.00     0.007 A 
ENDROOT
BRANCH   1   7
HETATM    7  C4  UNL     1      28.180   8.619   3.223  1.00  0.00     0.038 C 
BRANCH   7   8
HETATM    8  C3  UNL     1      27.166   9.450   2.436  1.00  0.00     0.004 C 
BRANCH   8   9
HETATM    9  C2  UNL     1      27.345   9.247   0.950  1.00  0.00    -0.004 C 
HETATM   10  C1  UNL     1      28.660   8.535   0.719  1.00  0.00     0.005 C 
ENDBRANCH   8   9
ENDBRANCH   7   8
ENDBRANCH   1   7
TORSDOF 3
ENDMDL
