MODEL 1
REMARK VINA RESULT: -7.247457568      0.000      0.000
REMARK  3 active torsions:
REMARK  status: ('A' for Active; 'I' for Inactive)
REMARK    1  A    between atoms: C2_2  and  C3_3 
REMARK    2  A    between atoms: C3_3  and  C4_4 
REMARK    3  A    between atoms: C4_4  and  C5_5 
ROOT
HETATM    1  C5  UNL     1      27.267   7.091   4.197  1.00  0.00    -0.058 A 
HETATM    2  C6  UNL     1      26.791   5.921   3.634  1.00  0.00     0.007 A 
HETATM    3  C7  UNL     1      26.013   5.034   4.356  1.00  0.00     0.001 A 
HETATM    4  C8  UNL     1      25.674   5.272   5.672  1.00  0.00     0.000 A 
HETATM    5  C9  UNL     1      26.148   6.437   6.233  1.00  0.00     0.001 A 
HETATM    6  C10 UNL     1      26.924   7.323   5.518  1.00  0.00     0.007 A 
ENDROOT
BRANCH   1   7
HETATM    7  C4  UNL     1      28.103   8.038   3.416  1.00  0.00     0.038 C 
BRANCH   7   8
HETATM    8  C3  UNL     1      28.184   7.602   1.953  1.00  0.00     0.004 C 
BRANCH   8   9
HETATM    9  C2  UNL     1      27.763   8.725   1.034  1.00  0.00    -0.004 C 
HETATM   10  C1  UNL     1      27.532   9.965   1.869  1.00  0.00     0.005 C 
ENDBRANCH   8   9
ENDBRANCH   7   8
ENDBRANCH   1   7
TORSDOF 3
ENDMDL
