MODEL 9
REMARK VINA RESULT: -6.340888798      0.689      1.736
REMARK  3 active torsions:
REMARK  status: ('A' for Active; 'I' for Inactive)
REMARK    1  A    between atoms: C2_2  and  C3_3 
REMARK    2  A    between atoms: C3_3  and  C4_4 
REMARK    3  A    between atoms: C4_4  and  C5_5 
ROOT
HETATM    1  C5  UNL     1      26.539   7.198   4.450  1.00  0.00    -0.058 A 
HETATM    2  C6  UNL     1      26.649   7.082   5.823  1.00  0.00     0.007 A 
HETATM    3  C7  UNL     1      26.195   5.962   6.495  1.00  0.00     0.001 A 
HETATM    4  C8  UNL     1      25.610   4.905   5.829  1.00  0.00     0.000 A 
HETATM    5  C9  UNL     1      25.500   5.019   4.461  1.00  0.00     0.001 A 
HETATM    6  C10 UNL     1      25.951   6.134   3.788  1.00  0.00     0.007 A 
ENDROOT
BRANCH   1   7
HETATM    7  C4  UNL     1      27.028   8.404   3.735  1.00  0.00     0.038 C 
BRANCH   7   8
HETATM    8  C3  UNL     1      28.420   8.155   3.153  1.00  0.00     0.004 C 
BRANCH   8   9
HETATM    9  C2  UNL     1      28.331   7.782   1.692  1.00  0.00    -0.004 C 
HETATM   10  C1  UNL     1      27.911   9.006   0.909  1.00  0.00     0.005 C 
ENDBRANCH   8   9
ENDBRANCH   7   8
ENDBRANCH   1   7
TORSDOF 3
ENDMDL
