MODEL 3
REMARK VINA RESULT: -6.231752997      0.061      3.376
REMARK  0 active torsions:
REMARK  status: ('A' for Active; 'I' for Inactive)
ROOT
HETATM    1  C1  UNL     1      25.594   5.315   6.193  1.00  0.00     0.048 C 
HETATM    2  C2  UNL     1      26.329   5.917   5.037  1.00  0.00    -0.062 A 
HETATM    3  C3  UNL     1      26.507   5.248   3.844  1.00  0.00     0.007 A 
HETATM    4  C4  UNL     1      27.183   5.796   2.774  1.00  0.00     0.007 A 
HETATM    5  C5  UNL     1      27.720   7.066   2.856  1.00  0.00    -0.062 A 
HETATM    6  C6  UNL     1      28.451   7.669   1.712  1.00  0.00     0.048 C 
HETATM    7  C7  UNL     1      27.549   7.746   4.045  1.00  0.00     0.007 A 
HETATM    8  C8  UNL     1      26.869   7.184   5.109  1.00  0.00     0.007 A 
ENDROOT
TORSDOF 0
ENDMDL
