MODEL 5
REMARK VINA RESULT: -5.971538967      0.895      3.862
REMARK  0 active torsions:
REMARK  status: ('A' for Active; 'I' for Inactive)
ROOT
HETATM    1  C1  UNL     1      26.442   6.525   6.187  1.00  0.00     0.048 C 
HETATM    2  C2  UNL     1      27.026   6.896   4.859  1.00  0.00    -0.062 A 
HETATM    3  C3  UNL     1      27.696   8.084   4.653  1.00  0.00     0.007 A 
HETATM    4  C4  UNL     1      28.237   8.434   3.433  1.00  0.00     0.007 A 
HETATM    5  C5  UNL     1      28.127   7.589   2.346  1.00  0.00    -0.062 A 
HETATM    6  C6  UNL     1      28.704   7.952   1.027  1.00  0.00     0.048 C 
HETATM    7  C7  UNL     1      27.458   6.397   2.540  1.00  0.00     0.007 A 
HETATM    8  C8  UNL     1      26.921   6.060   3.768  1.00  0.00     0.007 A 
ENDROOT
TORSDOF 0
ENDMDL
