MODEL 2
REMARK VINA RESULT: -6.234112942      0.013      1.661
REMARK  0 active torsions:
REMARK  status: ('A' for Active; 'I' for Inactive)
ROOT
HETATM    1  C1  UNL     1      28.450   7.682   1.669  1.00  0.00     0.048 C 
HETATM    2  C2  UNL     1      27.728   7.097   2.842  1.00  0.00    -0.062 A 
HETATM    3  C3  UNL     1      27.594   7.770   4.038  1.00  0.00     0.007 A 
HETATM    4  C4  UNL     1      26.930   7.237   5.124  1.00  0.00     0.007 A 
HETATM    5  C5  UNL     1      26.361   5.982   5.054  1.00  0.00    -0.062 A 
HETATM    6  C6  UNL     1      25.644   5.396   6.215  1.00  0.00     0.048 C 
HETATM    7  C7  UNL     1      26.488   5.297   3.862  1.00  0.00     0.007 A 
HETATM    8  C8  UNL     1      27.156   5.844   2.783  1.00  0.00     0.007 A 
ENDROOT
TORSDOF 0
ENDMDL
