MODEL 1
REMARK VINA RESULT: -6.245622371      0.000      0.000
REMARK  0 active torsions:
REMARK  status: ('A' for Active; 'I' for Inactive)
ROOT
HETATM    1  C1  UNL     1      28.445   7.684   1.669  1.00  0.00     0.048 C 
HETATM    2  C2  UNL     1      27.725   7.088   2.838  1.00  0.00    -0.062 A 
HETATM    3  C3  UNL     1      27.152   5.834   2.793  1.00  0.00     0.007 A 
HETATM    4  C4  UNL     1      26.487   5.278   3.866  1.00  0.00     0.007 A 
HETATM    5  C5  UNL     1      26.365   5.970   5.054  1.00  0.00    -0.062 A 
HETATM    6  C6  UNL     1      25.651   5.385   6.217  1.00  0.00     0.048 C 
HETATM    7  C7  UNL     1      26.934   7.227   5.112  1.00  0.00     0.007 A 
HETATM    8  C8  UNL     1      27.598   7.771   4.029  1.00  0.00     0.007 A 
ENDROOT
TORSDOF 0
ENDMDL
