MODEL 4
REMARK VINA RESULT: -6.224340794      0.043      3.763
REMARK  0 active torsions:
REMARK  status: ('A' for Active; 'I' for Inactive)
ROOT
HETATM    1  C1  UNL     1      25.657   5.391   6.200  1.00  0.00     0.048 C 
HETATM    2  C2  UNL     1      26.375   5.984   5.028  1.00  0.00    -0.062 A 
HETATM    3  C3  UNL     1      26.917   7.252   5.059  1.00  0.00     0.007 A 
HETATM    4  C4  UNL     1      27.581   7.806   3.983  1.00  0.00     0.007 A 
HETATM    5  C5  UNL     1      27.730   7.098   2.808  1.00  0.00    -0.062 A 
HETATM    6  C6  UNL     1      28.441   7.682   1.642  1.00  0.00     0.048 C 
HETATM    7  C7  UNL     1      27.191   5.827   2.764  1.00  0.00     0.007 A 
HETATM    8  C8  UNL     1      26.530   5.286   3.850  1.00  0.00     0.007 A 
ENDROOT
TORSDOF 0
ENDMDL
