MODEL 1
REMARK VINA RESULT: -6.597645959      0.000      0.000
REMARK  0 active torsions:
REMARK  status: ('A' for Active; 'I' for Inactive)
ROOT
HETATM    1  C1  UNL     1      27.920   8.525   4.869  1.00  0.00     0.049 C 
HETATM    2  C2  UNL     1      27.134   7.263   4.896  1.00  0.00    -0.056 A 
HETATM    3  C3  UNL     1      26.444   6.876   6.026  1.00  0.00     0.007 A 
HETATM    4  C4  UNL     1      25.728   5.695   6.006  1.00  0.00     0.001 A 
HETATM    5  C5  UNL     1      25.714   4.927   4.860  1.00  0.00     0.001 A 
HETATM    6  C6  UNL     1      26.413   5.323   3.719  1.00  0.00     0.007 A 
HETATM    7  C7  UNL     1      27.132   6.506   3.736  1.00  0.00    -0.056 A 
HETATM    8  C8  UNL     1      27.891   6.964   2.542  1.00  0.00     0.049 C 
ENDROOT
TORSDOF 0
ENDMDL
