MODEL 9
REMARK VINA RESULT: -6.174097123      0.809      2.457
REMARK  0 active torsions:
REMARK  status: ('A' for Active; 'I' for Inactive)
ROOT
HETATM    1  C1  UNL     1      27.996   8.298   4.238  1.00  0.00     0.049 C 
HETATM    2  C2  UNL     1      27.407   6.952   4.006  1.00  0.00    -0.056 A 
HETATM    3  C3  UNL     1      27.675   6.247   2.850  1.00  0.00     0.007 A 
HETATM    4  C4  UNL     1      27.106   5.000   2.676  1.00  0.00     0.001 A 
HETATM    5  C5  UNL     1      26.285   4.484   3.657  1.00  0.00     0.001 A 
HETATM    6  C6  UNL     1      26.018   5.201   4.825  1.00  0.00     0.007 A 
HETATM    7  C7  UNL     1      26.586   6.450   5.003  1.00  0.00    -0.056 A 
HETATM    8  C8  UNL     1      26.328   7.247   6.231  1.00  0.00     0.049 C 
ENDROOT
TORSDOF 0
ENDMDL
