MODEL 3
REMARK VINA RESULT: -6.578806764      0.820      1.261
REMARK  0 active torsions:
REMARK  status: ('A' for Active; 'I' for Inactive)
ROOT
HETATM    1  C1  UNL     1      28.186   7.565   3.216  1.00  0.00     0.049 C 
HETATM    2  C2  UNL     1      27.268   6.788   4.090  1.00  0.00    -0.056 A 
HETATM    3  C3  UNL     1      26.933   7.238   5.351  1.00  0.00     0.007 A 
HETATM    4  C4  UNL     1      26.076   6.484   6.129  1.00  0.00     0.001 A 
HETATM    5  C5  UNL     1      25.571   5.300   5.633  1.00  0.00     0.001 A 
HETATM    6  C6  UNL     1      25.912   4.849   4.357  1.00  0.00     0.007 A 
HETATM    7  C7  UNL     1      26.770   5.602   3.575  1.00  0.00    -0.056 A 
HETATM    8  C8  UNL     1      27.160   5.158   2.210  1.00  0.00     0.049 C 
ENDROOT
TORSDOF 0
ENDMDL
