MODEL 2
REMARK VINA RESULT: -6.586782423      0.125      2.203
REMARK  0 active torsions:
REMARK  status: ('A' for Active; 'I' for Inactive)
ROOT
HETATM    1  C1  UNL     1      27.859   6.803   2.568  1.00  0.00     0.049 C 
HETATM    2  C2  UNL     1      27.100   6.423   3.789  1.00  0.00    -0.056 A 
HETATM    3  C3  UNL     1      26.346   5.269   3.829  1.00  0.00     0.007 A 
HETATM    4  C4  UNL     1      25.657   4.955   4.985  1.00  0.00     0.001 A 
HETATM    5  C5  UNL     1      25.735   5.798   6.074  1.00  0.00     0.001 A 
HETATM    6  C6  UNL     1      26.499   6.965   6.029  1.00  0.00     0.007 A 
HETATM    7  C7  UNL     1      27.191   7.282   4.873  1.00  0.00    -0.056 A 
HETATM    8  C8  UNL     1      28.017   8.515   4.782  1.00  0.00     0.049 C 
ENDROOT
TORSDOF 0
ENDMDL
