MODEL 4
REMARK VINA RESULT: -6.569733716      0.793      2.306
REMARK  0 active torsions:
REMARK  status: ('A' for Active; 'I' for Inactive)
ROOT
HETATM    1  C1  UNL     1      27.132   5.163   2.242  1.00  0.00     0.049 C 
HETATM    2  C2  UNL     1      26.755   5.609   3.610  1.00  0.00    -0.056 A 
HETATM    3  C3  UNL     1      25.909   4.855   4.397  1.00  0.00     0.007 A 
HETATM    4  C4  UNL     1      25.585   5.307   5.662  1.00  0.00     0.001 A 
HETATM    5  C5  UNL     1      26.114   6.499   6.114  1.00  0.00     0.001 A 
HETATM    6  C6  UNL     1      26.970   7.257   5.314  1.00  0.00     0.007 A 
HETATM    7  C7  UNL     1      27.296   6.807   4.047  1.00  0.00    -0.056 A 
HETATM    8  C8  UNL     1      28.205   7.584   3.163  1.00  0.00     0.049 C 
ENDROOT
TORSDOF 0
ENDMDL
