MODEL 4
REMARK VINA RESULT: -7.786456574      1.231      2.064
REMARK  10 active torsions:
REMARK  status: ('A' for Active; 'I' for Inactive)
REMARK    1  A    between atoms: C2_2  and  C3_3 
REMARK    2  A    between atoms: C3_3  and  C4_4 
REMARK    3  A    between atoms: C4_4  and  C5_5 
REMARK    4  A    between atoms: C5_5  and  N1_6 
REMARK    5  A    between atoms: C5_5  and  P1_15 
REMARK       I    between atoms: N1_6  and  C6_8 
REMARK    6  A    between atoms: C6_8  and  C7_10 
REMARK    7  A    between atoms: C7_10  and  C8_11 
REMARK    8  A    between atoms: C8_11  and  C9_12 
REMARK    9  A    between atoms: P1_15  and  O6_18 
REMARK   10  A    between atoms: O6_18  and  C10_19 
ROOT
HETATM    1  C5  UNL     1      13.708  20.527  58.945  1.00  0.00     0.205 C 
ENDROOT
BRANCH   1   2
HETATM    2  C4  UNL     1      13.414  19.032  58.837  1.00  0.00     0.038 C 
BRANCH   2   3
HETATM    3  C3  UNL     1      12.176  18.672  59.633  1.00  0.00     0.002 C 
BRANCH   3   4
HETATM    4  C2  UNL     1      11.334  17.777  58.721  1.00  0.00    -0.004 C 
HETATM    5  C1  UNL     1      12.070  17.493  57.433  1.00  0.00     0.005 C 
ENDBRANCH   3   4
ENDBRANCH   2   3
ENDBRANCH   1   2
BRANCH   1   6
HETATM    6  N1  UNL     1      12.886  21.025  60.053  1.00  0.00    -0.345 N 
HETATM    7  C6  UNL     1      13.235  22.209  60.758  1.00  0.00     0.218 C 
HETATM    8  O1  UNL     1      14.285  22.852  60.422  1.00  0.00    -0.274 OA
ATOM      9  H1  UNL     1      12.048  20.511  60.324  1.00  0.00     0.163 HD
BRANCH   7  10
HETATM   10  C7  UNL     1      12.369  22.672  61.873  1.00  0.00     0.113 C 
BRANCH  10  11
HETATM   11  C8  UNL     1      12.159  21.584  62.901  1.00  0.00     0.122 C 
BRANCH  11  12
HETATM   12  C9  UNL     1      13.449  20.967  63.296  1.00  0.00     0.172 C 
HETATM   13  O2  UNL     1      14.297  21.568  63.983  1.00  0.00    -0.648 OA
HETATM   14  O3  UNL     1      13.712  19.666  62.879  1.00  0.00    -0.648 OA
ENDBRANCH  11  12
ENDBRANCH  10  11
ENDBRANCH   7  10
ENDBRANCH   1   6
BRANCH   1  15
HETATM   15  P1  UNL     1      13.192  21.279  57.379  1.00  0.00     0.278 P 
HETATM   16  O4  UNL     1      11.692  21.111  57.152  1.00  0.00    -0.645 OA
HETATM   17  O5  UNL     1      13.516  22.932  57.337  1.00  0.00    -0.645 OA
BRANCH  15  18
HETATM   18  O6  UNL     1      13.976  20.463  56.089  1.00  0.00    -0.268 OA
BRANCH  18  19
HETATM   19  C10 UNL     1      15.107  21.038  55.511  1.00  0.00     0.079 A 
HETATM   20  C11 UNL     1      16.145  21.541  56.257  1.00  0.00     0.037 A 
HETATM   21  C12 UNL     1      17.225  22.092  55.630  1.00  0.00     0.003 A 
HETATM   22  C13 UNL     1      17.284  22.149  54.233  1.00  0.00     0.000 A 
HETATM   23  C14 UNL     1      16.237  21.641  53.512  1.00  0.00     0.003 A 
HETATM   24  C15 UNL     1      15.139  21.081  54.130  1.00  0.00     0.037 A 
ENDBRANCH  18  19
ENDBRANCH  15  18
ENDBRANCH   1  15
TORSDOF 10
ENDMDL
