MODEL 13
REMARK VINA RESULT: -6.845863741      2.008      6.161
REMARK  10 active torsions:
REMARK  status: ('A' for Active; 'I' for Inactive)
REMARK    1  A    between atoms: C2_2  and  C3_3 
REMARK    2  A    between atoms: C3_3  and  C4_4 
REMARK    3  A    between atoms: C4_4  and  C5_5 
REMARK    4  A    between atoms: C5_5  and  N1_6 
REMARK    5  A    between atoms: C5_5  and  P1_15 
REMARK       I    between atoms: N1_6  and  C6_8 
REMARK    6  A    between atoms: C6_8  and  C7_10 
REMARK    7  A    between atoms: C7_10  and  C8_11 
REMARK    8  A    between atoms: C8_11  and  C9_12 
REMARK    9  A    between atoms: P1_15  and  O6_18 
REMARK   10  A    between atoms: O6_18  and  C10_19 
ROOT
HETATM    1  C5  UNL     1      14.297  20.653  57.248  1.00  0.00     0.205 C 
ENDROOT
BRANCH   1   2
HETATM    2  C4  UNL     1      14.870  21.144  55.921  1.00  0.00     0.038 C 
BRANCH   2   3
HETATM    3  C3  UNL     1      16.320  21.554  56.083  1.00  0.00     0.002 C 
BRANCH   3   4
HETATM    4  C2  UNL     1      17.048  21.031  54.843  1.00  0.00    -0.004 C 
HETATM    5  C1  UNL     1      17.349  22.165  53.891  1.00  0.00     0.005 C 
ENDBRANCH   3   4
ENDBRANCH   2   3
ENDBRANCH   1   2
BRANCH   1   6
HETATM    6  N1  UNL     1      13.044  19.964  56.921  1.00  0.00    -0.345 N 
HETATM    7  C6  UNL     1      12.755  18.670  57.433  1.00  0.00     0.218 C 
HETATM    8  O1  UNL     1      13.604  18.093  58.193  1.00  0.00    -0.274 OA
ATOM      9  H1  UNL     1      12.366  20.423  56.313  1.00  0.00     0.163 HD
BRANCH   7  10
HETATM   10  C7  UNL     1      11.471  18.016  57.072  1.00  0.00     0.113 C 
BRANCH  10  11
HETATM   11  C8  UNL     1      11.000  17.080  58.162  1.00  0.00     0.122 C 
BRANCH  11  12
HETATM   12  C9  UNL     1      10.225  17.812  59.194  1.00  0.00     0.172 C 
HETATM   13  O2  UNL     1      10.276  17.519  60.405  1.00  0.00    -0.648 OA
HETATM   14  O3  UNL     1       9.412  18.864  58.785  1.00  0.00    -0.648 OA
ENDBRANCH  11  12
ENDBRANCH  10  11
ENDBRANCH   7  10
ENDBRANCH   1   6
BRANCH   1  15
HETATM   15  P1  UNL     1      13.973  22.122  58.258  1.00  0.00     0.278 P 
HETATM   16  O4  UNL     1      15.117  22.386  59.234  1.00  0.00    -0.645 OA
HETATM   17  O5  UNL     1      13.796  23.508  57.317  1.00  0.00    -0.645 OA
BRANCH  15  18
HETATM   18  O6  UNL     1      12.574  21.840  59.211  1.00  0.00    -0.268 OA
BRANCH  18  19
HETATM   19  C10 UNL     1      12.727  21.405  60.527  1.00  0.00     0.079 A 
HETATM   20  C11 UNL     1      12.845  20.077  60.859  1.00  0.00     0.037 A 
HETATM   21  C12 UNL     1      12.992  19.717  62.167  1.00  0.00     0.003 A 
HETATM   22  C13 UNL     1      13.024  20.688  63.174  1.00  0.00     0.000 A 
HETATM   23  C14 UNL     1      12.904  22.004  62.817  1.00  0.00     0.003 A 
HETATM   24  C15 UNL     1      12.755  22.385  61.500  1.00  0.00     0.037 A 
ENDBRANCH  18  19
ENDBRANCH  15  18
ENDBRANCH   1  15
TORSDOF 10
ENDMDL
