MODEL 8
REMARK VINA RESULT: -7.651020895      1.685      2.488
REMARK  10 active torsions:
REMARK  status: ('A' for Active; 'I' for Inactive)
REMARK    1  A    between atoms: C2_2  and  C3_3 
REMARK    2  A    between atoms: C3_3  and  C4_4 
REMARK    3  A    between atoms: C4_4  and  C5_5 
REMARK    4  A    between atoms: C5_5  and  N1_6 
REMARK    5  A    between atoms: C5_5  and  P1_15 
REMARK       I    between atoms: N1_6  and  C6_8 
REMARK    6  A    between atoms: C6_8  and  C7_10 
REMARK    7  A    between atoms: C7_10  and  C8_11 
REMARK    8  A    between atoms: C8_11  and  C9_12 
REMARK    9  A    between atoms: P1_15  and  O6_18 
REMARK   10  A    between atoms: O6_18  and  C10_19 
ROOT
HETATM    1  C5  UNL     1      13.608  19.874  58.934  1.00  0.00     0.205 C 
ENDROOT
BRANCH   1   2
HETATM    2  C4  UNL     1      13.207  18.678  58.074  1.00  0.00     0.038 C 
BRANCH   2   3
HETATM    3  C3  UNL     1      11.706  18.638  57.878  1.00  0.00     0.002 C 
BRANCH   3   4
HETATM    4  C2  UNL     1      11.338  17.160  57.730  1.00  0.00    -0.004 C 
HETATM    5  C1  UNL     1      12.125  16.530  56.604  1.00  0.00     0.005 C 
ENDBRANCH   3   4
ENDBRANCH   2   3
ENDBRANCH   1   2
BRANCH   1   6
HETATM    6  N1  UNL     1      12.478  20.124  59.836  1.00  0.00    -0.345 N 
HETATM    7  C6  UNL     1      12.610  19.988  61.244  1.00  0.00     0.218 C 
HETATM    8  O1  UNL     1      13.736  19.640  61.736  1.00  0.00    -0.274 OA
ATOM      9  H1  UNL     1      11.578  20.401  59.443  1.00  0.00     0.163 HD
BRANCH   7  10
HETATM   10  C7  UNL     1      11.436  20.254  62.114  1.00  0.00     0.113 C 
BRANCH  10  11
HETATM   11  C8  UNL     1      10.939  18.989  62.777  1.00  0.00     0.122 C 
BRANCH  11  12
HETATM   12  C9  UNL     1      10.107  18.189  61.844  1.00  0.00     0.172 C 
HETATM   13  O2  UNL     1       9.682  18.645  60.765  1.00  0.00    -0.648 OA
HETATM   14  O3  UNL     1       9.796  16.880  62.196  1.00  0.00    -0.648 OA
ENDBRANCH  11  12
ENDBRANCH  10  11
ENDBRANCH   7  10
ENDBRANCH   1   6
BRANCH   1  15
HETATM   15  P1  UNL     1      13.850  21.274  57.810  1.00  0.00     0.278 P 
HETATM   16  O4  UNL     1      12.620  22.177  57.778  1.00  0.00    -0.645 OA
HETATM   17  O5  UNL     1      15.156  22.234  58.270  1.00  0.00    -0.645 OA
BRANCH  15  18
HETATM   18  O6  UNL     1      14.057  20.673  56.216  1.00  0.00    -0.268 OA
BRANCH  18  19
HETATM   19  C10 UNL     1      15.146  21.110  55.463  1.00  0.00     0.079 A 
HETATM   20  C11 UNL     1      15.150  21.096  54.089  1.00  0.00     0.037 A 
HETATM   21  C12 UNL     1      16.248  21.538  53.411  1.00  0.00     0.003 A 
HETATM   22  C13 UNL     1      17.372  22.005  54.102  1.00  0.00     0.000 A 
HETATM   23  C14 UNL     1      17.343  22.009  55.471  1.00  0.00     0.003 A 
HETATM   24  C15 UNL     1      16.241  21.567  56.171  1.00  0.00     0.037 A 
ENDBRANCH  18  19
ENDBRANCH  15  18
ENDBRANCH   1  15
TORSDOF 10
ENDMDL
