MODEL 7
REMARK VINA RESULT: -7.678074244      1.543      2.418
REMARK  10 active torsions:
REMARK  status: ('A' for Active; 'I' for Inactive)
REMARK    1  A    between atoms: C2_2  and  C3_3 
REMARK    2  A    between atoms: C3_3  and  C4_4 
REMARK    3  A    between atoms: C4_4  and  C5_5 
REMARK    4  A    between atoms: C5_5  and  N1_6 
REMARK    5  A    between atoms: C5_5  and  P1_15 
REMARK       I    between atoms: N1_6  and  C6_8 
REMARK    6  A    between atoms: C6_8  and  C7_10 
REMARK    7  A    between atoms: C7_10  and  C8_11 
REMARK    8  A    between atoms: C8_11  and  C9_12 
REMARK    9  A    between atoms: P1_15  and  O6_18 
REMARK   10  A    between atoms: O6_18  and  C10_19 
ROOT
HETATM    1  C5  UNL     1      13.450  19.653  59.185  1.00  0.00     0.205 C 
ENDROOT
BRANCH   1   2
HETATM    2  C4  UNL     1      12.980  18.435  58.395  1.00  0.00     0.038 C 
BRANCH   2   3
HETATM    3  C3  UNL     1      11.606  17.994  58.858  1.00  0.00     0.002 C 
BRANCH   3   4
HETATM    4  C2  UNL     1      11.061  17.084  57.754  1.00  0.00    -0.004 C 
HETATM    5  C1  UNL     1      12.095  16.889  56.671  1.00  0.00     0.005 C 
ENDBRANCH   3   4
ENDBRANCH   2   3
ENDBRANCH   1   2
BRANCH   1   6
HETATM    6  N1  UNL     1      12.346  20.006  60.085  1.00  0.00    -0.345 N 
HETATM    7  C6  UNL     1      12.489  19.930  61.497  1.00  0.00     0.218 C 
HETATM    8  O1  UNL     1      13.601  19.546  61.993  1.00  0.00    -0.274 OA
ATOM      9  H1  UNL     1      11.458  20.313  59.689  1.00  0.00     0.163 HD
BRANCH   7  10
HETATM   10  C7  UNL     1      11.342  20.300  62.364  1.00  0.00     0.113 C 
BRANCH  10  11
HETATM   11  C8  UNL     1      10.123  19.459  62.059  1.00  0.00     0.122 C 
BRANCH  11  12
HETATM   12  C9  UNL     1      10.275  18.085  62.596  1.00  0.00     0.172 C 
HETATM   13  O2  UNL     1       9.879  17.076  61.979  1.00  0.00    -0.648 OA
HETATM   14  O3  UNL     1      10.885  17.925  63.836  1.00  0.00    -0.648 OA
ENDBRANCH  11  12
ENDBRANCH  10  11
ENDBRANCH   7  10
ENDBRANCH   1   6
BRANCH   1  15
HETATM   15  P1  UNL     1      13.744  20.978  57.984  1.00  0.00     0.278 P 
HETATM   16  O4  UNL     1      12.870  20.805  56.745  1.00  0.00    -0.645 OA
HETATM   17  O5  UNL     1      13.398  22.498  58.625  1.00  0.00    -0.645 OA
BRANCH  15  18
HETATM   18  O6  UNL     1      15.372  20.889  57.451  1.00  0.00    -0.268 OA
BRANCH  18  19
HETATM   19  C10 UNL     1      15.670  21.214  56.128  1.00  0.00     0.079 A 
HETATM   20  C11 UNL     1      14.987  20.679  55.062  1.00  0.00     0.037 A 
HETATM   21  C12 UNL     1      15.328  21.038  53.791  1.00  0.00     0.003 A 
HETATM   22  C13 UNL     1      16.367  21.946  53.562  1.00  0.00     0.000 A 
HETATM   23  C14 UNL     1      17.032  22.465  54.640  1.00  0.00     0.003 A 
HETATM   24  C15 UNL     1      16.700  22.113  55.931  1.00  0.00     0.037 A 
ENDBRANCH  18  19
ENDBRANCH  15  18
ENDBRANCH   1  15
TORSDOF 10
ENDMDL
