MODEL 12
REMARK VINA RESULT: -6.873213717      2.380      6.944
REMARK  10 active torsions:
REMARK  status: ('A' for Active; 'I' for Inactive)
REMARK    1  A    between atoms: C2_2  and  C3_3 
REMARK    2  A    between atoms: C3_3  and  C4_4 
REMARK    3  A    between atoms: C4_4  and  C5_5 
REMARK    4  A    between atoms: C5_5  and  N1_6 
REMARK    5  A    between atoms: C5_5  and  P1_15 
REMARK       I    between atoms: N1_6  and  C6_8 
REMARK    6  A    between atoms: C6_8  and  C7_10 
REMARK    7  A    between atoms: C7_10  and  C8_11 
REMARK    8  A    between atoms: C8_11  and  C9_12 
REMARK    9  A    between atoms: P1_15  and  O6_18 
REMARK   10  A    between atoms: O6_18  and  C10_19 
ROOT
HETATM    1  C5  UNL     1      12.348  20.366  58.215  1.00  0.00     0.205 C 
ENDROOT
BRANCH   1   2
HETATM    2  C4  UNL     1      11.744  19.131  57.552  1.00  0.00     0.038 C 
BRANCH   2   3
HETATM    3  C3  UNL     1      12.830  18.161  57.134  1.00  0.00     0.002 C 
BRANCH   3   4
HETATM    4  C2  UNL     1      12.110  16.888  56.682  1.00  0.00    -0.004 C 
HETATM    5  C1  UNL     1      10.940  16.592  57.592  1.00  0.00     0.005 C 
ENDBRANCH   3   4
ENDBRANCH   2   3
ENDBRANCH   1   2
BRANCH   1   6
HETATM    6  N1  UNL     1      13.559  20.687  57.451  1.00  0.00    -0.345 N 
HETATM    7  C6  UNL     1      14.130  21.988  57.482  1.00  0.00     0.218 C 
HETATM    8  O1  UNL     1      13.579  22.897  58.188  1.00  0.00    -0.274 OA
ATOM      9  H1  UNL     1      14.000  19.961  56.886  1.00  0.00     0.163 HD
BRANCH   7  10
HETATM   10  C7  UNL     1      15.358  22.262  56.691  1.00  0.00     0.113 C 
BRANCH  10  11
HETATM   11  C8  UNL     1      15.809  21.038  55.927  1.00  0.00     0.122 C 
BRANCH  11  12
HETATM   12  C9  UNL     1      15.807  21.292  54.465  1.00  0.00     0.172 C 
HETATM   13  O2  UNL     1      16.797  21.753  53.863  1.00  0.00    -0.648 OA
HETATM   14  O3  UNL     1      14.652  21.001  53.747  1.00  0.00    -0.648 OA
ENDBRANCH  11  12
ENDBRANCH  10  11
ENDBRANCH   7  10
ENDBRANCH   1   6
BRANCH   1  15
HETATM   15  P1  UNL     1      12.770  19.898  59.913  1.00  0.00     0.278 P 
HETATM   16  O4  UNL     1      14.241  19.505  60.030  1.00  0.00    -0.645 OA
HETATM   17  O5  UNL     1      12.508  21.161  60.999  1.00  0.00    -0.645 OA
BRANCH  15  18
HETATM   18  O6  UNL     1      11.858  18.511  60.348  1.00  0.00    -0.268 OA
BRANCH  18  19
HETATM   19  C10 UNL     1      10.681  18.675  61.077  1.00  0.00     0.079 A 
HETATM   20  C11 UNL     1      10.676  19.032  62.404  1.00  0.00     0.037 A 
HETATM   21  C12 UNL     1       9.489  19.177  63.062  1.00  0.00     0.003 A 
HETATM   22  C13 UNL     1       8.277  18.965  62.397  1.00  0.00     0.000 A 
HETATM   23  C14 UNL     1       8.308  18.611  61.075  1.00  0.00     0.003 A 
HETATM   24  C15 UNL     1       9.499  18.461  60.396  1.00  0.00     0.037 A 
ENDBRANCH  18  19
ENDBRANCH  15  18
ENDBRANCH   1  15
TORSDOF 10
ENDMDL
