MODEL 6
REMARK VINA RESULT: -7.690904336      1.543      2.436
REMARK  10 active torsions:
REMARK  status: ('A' for Active; 'I' for Inactive)
REMARK    1  A    between atoms: C2_2  and  C3_3 
REMARK    2  A    between atoms: C3_3  and  C4_4 
REMARK    3  A    between atoms: C4_4  and  C5_5 
REMARK    4  A    between atoms: C5_5  and  N1_6 
REMARK    5  A    between atoms: C5_5  and  P1_15 
REMARK       I    between atoms: N1_6  and  C6_8 
REMARK    6  A    between atoms: C6_8  and  C7_10 
REMARK    7  A    between atoms: C7_10  and  C8_11 
REMARK    8  A    between atoms: C8_11  and  C9_12 
REMARK    9  A    between atoms: P1_15  and  O6_18 
REMARK   10  A    between atoms: O6_18  and  C10_19 
ROOT
HETATM    1  C5  UNL     1      13.496  19.602  59.142  1.00  0.00     0.205 C 
ENDROOT
BRANCH   1   2
HETATM    2  C4  UNL     1      12.859  18.595  58.188  1.00  0.00     0.038 C 
BRANCH   2   3
HETATM    3  C3  UNL     1      11.460  18.236  58.645  1.00  0.00     0.002 C 
BRANCH   3   4
HETATM    4  C2  UNL     1      11.046  17.015  57.820  1.00  0.00    -0.004 C 
HETATM    5  C1  UNL     1      12.067  16.736  56.742  1.00  0.00     0.005 C 
ENDBRANCH   3   4
ENDBRANCH   2   3
ENDBRANCH   1   2
BRANCH   1   6
HETATM    6  N1  UNL     1      12.413  20.092  60.002  1.00  0.00    -0.345 N 
HETATM    7  C6  UNL     1      12.551  20.131  61.416  1.00  0.00     0.218 C 
HETATM    8  O1  UNL     1      13.639  19.731  61.950  1.00  0.00    -0.274 OA
ATOM      9  H1  UNL     1      11.543  20.410  59.576  1.00  0.00     0.163 HD
BRANCH   7  10
HETATM   10  C7  UNL     1      11.425  20.637  62.241  1.00  0.00     0.113 C 
BRANCH  10  11
HETATM   11  C8  UNL     1      10.745  19.518  62.997  1.00  0.00     0.122 C 
BRANCH  11  12
HETATM   12  C9  UNL     1       9.767  18.810  62.135  1.00  0.00     0.172 C 
HETATM   13  O2  UNL     1       8.737  19.359  61.698  1.00  0.00    -0.648 OA
HETATM   14  O3  UNL     1      10.018  17.482  61.807  1.00  0.00    -0.648 OA
ENDBRANCH  11  12
ENDBRANCH  10  11
ENDBRANCH   7  10
ENDBRANCH   1   6
BRANCH   1  15
HETATM   15  P1  UNL     1      14.161  20.945  58.124  1.00  0.00     0.278 P 
HETATM   16  O4  UNL     1      13.109  21.476  57.153  1.00  0.00    -0.645 OA
HETATM   17  O5  UNL     1      14.675  22.250  59.058  1.00  0.00    -0.645 OA
BRANCH  15  18
HETATM   18  O6  UNL     1      15.444  20.329  57.165  1.00  0.00    -0.268 OA
BRANCH  18  19
HETATM   19  C10 UNL     1      15.782  20.986  55.983  1.00  0.00     0.079 A 
HETATM   20  C11 UNL     1      16.711  21.997  55.937  1.00  0.00     0.037 A 
HETATM   21  C12 UNL     1      16.997  22.600  54.747  1.00  0.00     0.003 A 
HETATM   22  C13 UNL     1      16.354  22.198  53.572  1.00  0.00     0.000 A 
HETATM   23  C14 UNL     1      15.433  21.187  53.643  1.00  0.00     0.003 A 
HETATM   24  C15 UNL     1      15.132  20.567  54.838  1.00  0.00     0.037 A 
ENDBRANCH  18  19
ENDBRANCH  15  18
ENDBRANCH   1  15
TORSDOF 10
ENDMDL
