MODEL 3
REMARK VINA RESULT: -7.827179501      1.774      2.697
REMARK  10 active torsions:
REMARK  status: ('A' for Active; 'I' for Inactive)
REMARK    1  A    between atoms: C2_2  and  C3_3 
REMARK    2  A    between atoms: C3_3  and  C4_4 
REMARK    3  A    between atoms: C4_4  and  C5_5 
REMARK    4  A    between atoms: C5_5  and  N1_6 
REMARK    5  A    between atoms: C5_5  and  P1_15 
REMARK       I    between atoms: N1_6  and  C6_8 
REMARK    6  A    between atoms: C6_8  and  C7_10 
REMARK    7  A    between atoms: C7_10  and  C8_11 
REMARK    8  A    between atoms: C8_11  and  C9_12 
REMARK    9  A    between atoms: P1_15  and  O6_18 
REMARK   10  A    between atoms: O6_18  and  C10_19 
ROOT
HETATM    1  C5  UNL     1      13.459  19.635  58.797  1.00  0.00     0.205 C 
ENDROOT
BRANCH   1   2
HETATM    2  C4  UNL     1      12.956  18.576  57.818  1.00  0.00     0.038 C 
BRANCH   2   3
HETATM    3  C3  UNL     1      11.454  18.412  57.932  1.00  0.00     0.002 C 
BRANCH   3   4
HETATM    4  C2  UNL     1      11.158  16.960  57.549  1.00  0.00    -0.004 C 
HETATM    5  C1  UNL     1      12.194  16.449  56.576  1.00  0.00     0.005 C 
ENDBRANCH   3   4
ENDBRANCH   2   3
ENDBRANCH   1   2
BRANCH   1   6
HETATM    6  N1  UNL     1      12.364  19.868  59.744  1.00  0.00    -0.345 N 
HETATM    7  C6  UNL     1      12.585  19.863  61.147  1.00  0.00     0.218 C 
HETATM    8  O1  UNL     1      13.761  19.649  61.595  1.00  0.00    -0.274 OA
ATOM      9  H1  UNL     1      11.424  20.038  59.387  1.00  0.00     0.163 HD
BRANCH   7  10
HETATM   10  C7  UNL     1      11.442  20.106  62.064  1.00  0.00     0.113 C 
BRANCH  10  11
HETATM   11  C8  UNL     1      10.827  18.809  62.539  1.00  0.00     0.122 C 
BRANCH  11  12
HETATM   12  C9  UNL     1       9.811  18.316  61.576  1.00  0.00     0.172 C 
HETATM   13  O2  UNL     1       9.931  17.233  60.971  1.00  0.00    -0.648 OA
HETATM   14  O3  UNL     1       8.686  19.100  61.347  1.00  0.00    -0.648 OA
ENDBRANCH  11  12
ENDBRANCH  10  11
ENDBRANCH   7  10
ENDBRANCH   1   6
BRANCH   1  15
HETATM   15  P1  UNL     1      13.797  21.129  57.829  1.00  0.00     0.278 P 
HETATM   16  O4  UNL     1      12.605  22.082  57.849  1.00  0.00    -0.645 OA
HETATM   17  O5  UNL     1      15.122  21.981  58.426  1.00  0.00    -0.645 OA
BRANCH  15  18
HETATM   18  O6  UNL     1      14.038  20.683  56.190  1.00  0.00    -0.268 OA
BRANCH  18  19
HETATM   19  C10 UNL     1      15.172  21.144  55.521  1.00  0.00     0.079 A 
HETATM   20  C11 UNL     1      16.279  21.619  56.183  1.00  0.00     0.037 A 
HETATM   21  C12 UNL     1      17.357  22.056  55.470  1.00  0.00     0.003 A 
HETATM   22  C13 UNL     1      17.345  22.026  54.071  1.00  0.00     0.000 A 
HETATM   23  C14 UNL     1      16.231  21.549  53.436  1.00  0.00     0.003 A 
HETATM   24  C15 UNL     1      15.133  21.102  54.141  1.00  0.00     0.037 A 
ENDBRANCH  18  19
ENDBRANCH  15  18
ENDBRANCH   1  15
TORSDOF 10
ENDMDL
