MODEL 5
REMARK VINA RESULT: -9.234403358      1.236      6.682
REMARK  1 active torsions:
REMARK  status: ('A' for Active; 'I' for Inactive)
REMARK    1  A    between atoms: C2_2  and  C3_4 
ROOT
HETATM    1  C3  UNL     1      22.026   9.618  63.232  1.00  0.00     0.063 C 
HETATM    2  C4  UNL     1      23.305  10.275  63.741  1.00  0.00     0.013 C 
HETATM    3  C5  UNL     1      23.936  10.958  62.543  1.00  0.00     0.006 C 
HETATM    4  C6  UNL     1      22.962  10.724  61.464  1.00  0.00    -0.001 C 
HETATM    5  C7  UNL     1      23.449  10.828  60.072  1.00  0.00    -0.004 C 
HETATM    6  C8  UNL     1      23.836  12.293  59.837  1.00  0.00     0.010 C 
HETATM    7  C9  UNL     1      24.209  12.541  58.411  1.00  0.00     0.035 C 
HETATM    8  C10 UNL     1      23.038  12.134  57.560  1.00  0.00    -0.068 C 
HETATM    9  C11 UNL     1      22.544  13.037  56.738  1.00  0.00     0.053 C 
HETATM   10  C12 UNL     1      21.409  12.669  55.902  1.00  0.00     0.149 C 
HETATM   11  O2  UNL     1      20.612  13.526  55.440  1.00  0.00    -0.293 OA
HETATM   12  C13 UNL     1      21.247  11.201  55.625  1.00  0.00     0.084 C 
HETATM   13  C14 UNL     1      21.236  10.547  56.994  1.00  0.00     0.022 C 
HETATM   14  C15 UNL     1      22.546  10.754  57.721  1.00  0.00    -0.016 C 
HETATM   15  C16 UNL     1      23.601   9.821  57.180  1.00  0.00     0.020 C 
HETATM   16  C17 UNL     1      22.265  10.522  59.178  1.00  0.00     0.002 C 
HETATM   17  C18 UNL     1      21.722   9.158  59.461  1.00  0.00     0.007 C 
HETATM   18  C19 UNL     1      21.238   9.091  60.900  1.00  0.00     0.011 C 
HETATM   19  C20 UNL     1      22.394   9.357  61.808  1.00  0.00    -0.030 C 
HETATM   20  C21 UNL     1      23.432   8.275  61.703  1.00  0.00     0.016 C 
ENDROOT
BRANCH   1  21
HETATM   21  C2  UNL     1      21.637   8.443  63.994  1.00  0.00     0.128 C 
HETATM   22  C1  UNL     1      22.677   7.621  64.662  1.00  0.00     0.091 C 
HETATM   23  O1  UNL     1      20.481   8.082  64.120  1.00  0.00    -0.298 OA
ENDBRANCH   1  21
TORSDOF 1
ENDMDL
