MODEL 3
REMARK VINA RESULT: -9.848347846      0.922      1.043
REMARK  1 active torsions:
REMARK  status: ('A' for Active; 'I' for Inactive)
REMARK    1  A    between atoms: C2_2  and  C3_4 
ROOT
HETATM    1  C3  UNL     1      23.161  10.242  57.113  1.00  0.00     0.063 C 
HETATM    2  C4  UNL     1      24.662   9.987  57.006  1.00  0.00     0.013 C 
HETATM    3  C5  UNL     1      25.134   9.646  58.407  1.00  0.00     0.006 C 
HETATM    4  C6  UNL     1      23.892   9.648  59.197  1.00  0.00    -0.001 C 
HETATM    5  C7  UNL     1      24.014   9.823  60.659  1.00  0.00    -0.004 C 
HETATM    6  C8  UNL     1      24.735   8.585  61.205  1.00  0.00     0.010 C 
HETATM    7  C9  UNL     1      24.785   8.592  62.698  1.00  0.00     0.035 C 
HETATM    8  C10 UNL     1      23.370   8.674  63.198  1.00  0.00    -0.068 C 
HETATM    9  C11 UNL     1      22.964   7.734  64.027  1.00  0.00     0.053 C 
HETATM   10  C12 UNL     1      21.596   7.790  64.526  1.00  0.00     0.149 C 
HETATM   11  O2  UNL     1      20.991   6.766  64.936  1.00  0.00    -0.293 OA
HETATM   12  C13 UNL     1      20.952   9.147  64.522  1.00  0.00     0.084 C 
HETATM   13  C14 UNL     1      21.103   9.644  63.097  1.00  0.00     0.022 C 
HETATM   14  C15 UNL     1      22.557   9.806  62.715  1.00  0.00    -0.016 C 
HETATM   15  C16 UNL     1      23.122  11.069  63.315  1.00  0.00     0.020 C 
HETATM   16  C17 UNL     1      22.605   9.811  61.214  1.00  0.00     0.002 C 
HETATM   17  C18 UNL     1      21.782  10.900  60.604  1.00  0.00     0.007 C 
HETATM   18  C19 UNL     1      21.684  10.686  59.103  1.00  0.00     0.011 C 
HETATM   19  C20 UNL     1      23.060  10.728  58.522  1.00  0.00    -0.030 C 
HETATM   20  C21 UNL     1      23.678  12.089  58.676  1.00  0.00     0.016 C 
ENDROOT
BRANCH   1  21
HETATM   21  C2  UNL     1      22.658  11.162  56.107  1.00  0.00     0.128 C 
HETATM   22  C1  UNL     1      23.578  12.147  55.484  1.00  0.00     0.091 C 
HETATM   23  O1  UNL     1      21.499  11.174  55.734  1.00  0.00    -0.298 OA
ENDBRANCH   1  21
TORSDOF 1
ENDMDL
