MODEL 2
REMARK VINA RESULT: -10.256409830      0.933      1.019
REMARK  1 active torsions:
REMARK  status: ('A' for Active; 'I' for Inactive)
REMARK    1  A    between atoms: C2_2  and  C3_4 
ROOT
HETATM    1  C3  UNL     1      22.062  10.943  56.662  1.00  0.00     0.063 C 
HETATM    2  C4  UNL     1      23.275  10.179  56.142  1.00  0.00     0.013 C 
HETATM    3  C5  UNL     1      23.931   9.548  57.355  1.00  0.00     0.006 C 
HETATM    4  C6  UNL     1      23.029   9.914  58.460  1.00  0.00    -0.001 C 
HETATM    5  C7  UNL     1      23.582   9.881  59.831  1.00  0.00    -0.004 C 
HETATM    6  C8  UNL     1      23.902   8.418  60.155  1.00  0.00     0.010 C 
HETATM    7  C9  UNL     1      24.336   8.251  61.575  1.00  0.00     0.035 C 
HETATM    8  C10 UNL     1      23.235   8.784  62.449  1.00  0.00    -0.068 C 
HETATM    9  C11 UNL     1      22.737   7.972  63.358  1.00  0.00     0.053 C 
HETATM   10  C12 UNL     1      21.668   8.463  64.219  1.00  0.00     0.149 C 
HETATM   11  O2  UNL     1      20.852   7.688  64.782  1.00  0.00    -0.293 OA
HETATM   12  C13 UNL     1      21.600   9.953  64.394  1.00  0.00     0.084 C 
HETATM   13  C14 UNL     1      21.552  10.508  62.982  1.00  0.00     0.022 C 
HETATM   14  C15 UNL     1      22.808  10.175  62.210  1.00  0.00    -0.016 C 
HETATM   15  C16 UNL     1      23.940  11.082  62.629  1.00  0.00     0.020 C 
HETATM   16  C17 UNL     1      22.465  10.318  60.755  1.00  0.00     0.002 C 
HETATM   17  C18 UNL     1      21.981  11.687  60.398  1.00  0.00     0.007 C 
HETATM   18  C19 UNL     1      21.426  11.679  58.984  1.00  0.00     0.011 C 
HETATM   19  C20 UNL     1      22.517  11.283  58.043  1.00  0.00    -0.030 C 
HETATM   20  C21 UNL     1      23.616  12.309  58.017  1.00  0.00     0.016 C 
ENDROOT
BRANCH   1  21
HETATM   21  C2  UNL     1      21.696  12.080  55.835  1.00  0.00     0.128 C 
HETATM   22  C1  UNL     1      20.307  12.604  55.875  1.00  0.00     0.091 C 
HETATM   23  O1  UNL     1      22.479  12.644  55.092  1.00  0.00    -0.298 OA
ENDBRANCH   1  21
TORSDOF 1
ENDMDL
