MODEL 4
REMARK VINA RESULT: -9.677021782      1.376      6.585
REMARK  1 active torsions:
REMARK  status: ('A' for Active; 'I' for Inactive)
REMARK    1  A    between atoms: C2_2  and  C3_4 
ROOT
HETATM    1  C3  UNL     1      23.420   9.722  62.853  1.00  0.00     0.063 C 
HETATM    2  C4  UNL     1      24.667   8.853  62.716  1.00  0.00     0.013 C 
HETATM    3  C5  UNL     1      25.004   8.827  61.238  1.00  0.00     0.006 C 
HETATM    4  C6  UNL     1      24.003   9.726  60.642  1.00  0.00    -0.001 C 
HETATM    5  C7  UNL     1      23.726   9.578  59.197  1.00  0.00    -0.004 C 
HETATM    6  C8  UNL     1      25.001   9.984  58.449  1.00  0.00     0.010 C 
HETATM    7  C9  UNL     1      24.787  10.008  56.970  1.00  0.00     0.035 C 
HETATM    8  C10 UNL     1      23.655  10.958  56.693  1.00  0.00    -0.068 C 
HETATM    9  C11 UNL     1      23.887  11.949  55.857  1.00  0.00     0.053 C 
HETATM   10  C12 UNL     1      22.807  12.885  55.570  1.00  0.00     0.149 C 
HETATM   11  O2  UNL     1      23.026  14.057  55.169  1.00  0.00    -0.293 OA
HETATM   12  C13 UNL     1      21.414  12.364  55.784  1.00  0.00     0.084 C 
HETATM   13  C14 UNL     1      21.410  11.842  57.209  1.00  0.00     0.022 C 
HETATM   14  C15 UNL     1      22.379  10.695  57.385  1.00  0.00    -0.016 C 
HETATM   15  C16 UNL     1      21.800   9.423  56.817  1.00  0.00     0.020 C 
HETATM   16  C17 UNL     1      22.656  10.594  58.857  1.00  0.00     0.002 C 
HETATM   17  C18 UNL     1      21.423  10.363  59.671  1.00  0.00     0.007 C 
HETATM   18  C19 UNL     1      21.750  10.520  61.147  1.00  0.00     0.011 C 
HETATM   19  C20 UNL     1      22.781   9.506  61.520  1.00  0.00    -0.030 C 
HETATM   20  C21 UNL     1      22.245   8.108  61.393  1.00  0.00     0.016 C 
ENDROOT
BRANCH   1  21
HETATM   21  C2  UNL     1      22.595   9.373  63.997  1.00  0.00     0.128 C 
HETATM   22  C1  UNL     1      22.697   8.016  64.591  1.00  0.00     0.091 C 
HETATM   23  O1  UNL     1      21.805  10.144  64.510  1.00  0.00    -0.298 OA
ENDBRANCH   1  21
TORSDOF 1
ENDMDL
