MODEL 1
REMARK VINA RESULT: -10.909009427      0.000      0.000
REMARK  1 active torsions:
REMARK  status: ('A' for Active; 'I' for Inactive)
REMARK    1  A    between atoms: C2_2  and  C3_4 
ROOT
HETATM    1  C3  UNL     1      22.235  10.731  56.848  1.00  0.00     0.063 C 
HETATM    2  C4  UNL     1      23.602  10.374  56.274  1.00  0.00     0.013 C 
HETATM    3  C5  UNL     1      24.428   9.856  57.436  1.00  0.00     0.006 C 
HETATM    4  C6  UNL     1      23.481   9.873  58.562  1.00  0.00    -0.001 C 
HETATM    5  C7  UNL     1      24.045   9.888  59.928  1.00  0.00    -0.004 C 
HETATM    6  C8  UNL     1      24.763   8.549  60.136  1.00  0.00     0.010 C 
HETATM    7  C9  UNL     1      25.251   8.399  61.541  1.00  0.00     0.035 C 
HETATM    8  C10 UNL     1      24.062   8.539  62.450  1.00  0.00    -0.068 C 
HETATM    9  C11 UNL     1      23.823   7.553  63.290  1.00  0.00     0.053 C 
HETATM   10  C12 UNL     1      22.676   7.662  64.183  1.00  0.00     0.149 C 
HETATM   11  O2  UNL     1      22.116   6.651  64.680  1.00  0.00    -0.293 OA
HETATM   12  C13 UNL     1      22.203   9.058  64.475  1.00  0.00     0.084 C 
HETATM   13  C14 UNL     1      21.979   9.685  63.112  1.00  0.00     0.022 C 
HETATM   14  C15 UNL     1      23.265   9.772  62.321  1.00  0.00    -0.016 C 
HETATM   15  C16 UNL     1      24.110  10.921  62.814  1.00  0.00     0.020 C 
HETATM   16  C17 UNL     1      22.869   9.927  60.880  1.00  0.00     0.002 C 
HETATM   17  C18 UNL     1      22.021  11.133  60.631  1.00  0.00     0.007 C 
HETATM   18  C19 UNL     1      21.463  11.081  59.218  1.00  0.00     0.011 C 
HETATM   19  C20 UNL     1      22.604  11.076  58.254  1.00  0.00    -0.030 C 
HETATM   20  C21 UNL     1      23.377  12.363  58.313  1.00  0.00     0.016 C 
ENDROOT
BRANCH   1  21
HETATM   21  C2  UNL     1      21.555  11.784  56.112  1.00  0.00     0.128 C 
HETATM   22  C1  UNL     1      22.259  12.480  55.005  1.00  0.00     0.091 C 
HETATM   23  O1  UNL     1      20.416  12.139  56.354  1.00  0.00    -0.298 OA
ENDBRANCH   1  21
TORSDOF 1
ENDMDL
