MODEL 8
REMARK VINA RESULT: -8.224018092      1.745      2.122
REMARK  1 active torsions:
REMARK  status: ('A' for Active; 'I' for Inactive)
REMARK    1  A    between atoms: C2_2  and  C3_4 
ROOT
HETATM    1  C3  UNL     1      22.341  11.628  56.167  1.00  0.00     0.063 C 
HETATM    2  C4  UNL     1      22.441  10.232  55.561  1.00  0.00     0.013 C 
HETATM    3  C5  UNL     1      22.570   9.272  56.727  1.00  0.00     0.006 C 
HETATM    4  C6  UNL     1      22.458  10.148  57.905  1.00  0.00    -0.001 C 
HETATM    5  C7  UNL     1      23.002   9.645  59.184  1.00  0.00    -0.004 C 
HETATM    6  C8  UNL     1      22.144   8.444  59.599  1.00  0.00     0.010 C 
HETATM    7  C9  UNL     1      22.519   7.943  60.957  1.00  0.00     0.035 C 
HETATM    8  C10 UNL     1      22.372   9.090  61.918  1.00  0.00    -0.068 C 
HETATM    9  C11 UNL     1      21.587   8.908  62.960  1.00  0.00     0.053 C 
HETATM   10  C12 UNL     1      21.426  10.003  63.908  1.00  0.00     0.149 C 
HETATM   11  O2  UNL     1      20.413  10.103  64.649  1.00  0.00    -0.293 OA
HETATM   12  C13 UNL     1      22.543  11.006  63.948  1.00  0.00     0.084 C 
HETATM   13  C14 UNL     1      22.706  11.461  62.509  1.00  0.00     0.022 C 
HETATM   14  C15 UNL     1      23.121  10.321  61.608  1.00  0.00    -0.016 C 
HETATM   15  C16 UNL     1      24.591  10.021  61.780  1.00  0.00     0.020 C 
HETATM   16  C17 UNL     1      22.779  10.739  60.207  1.00  0.00     0.002 C 
HETATM   17  C18 UNL     1      23.457  12.005  59.790  1.00  0.00     0.007 C 
HETATM   18  C19 UNL     1      22.874  12.486  58.472  1.00  0.00     0.011 C 
HETATM   19  C20 UNL     1      23.109  11.438  57.433  1.00  0.00    -0.030 C 
HETATM   20  C21 UNL     1      24.576  11.259  57.160  1.00  0.00     0.016 C 
ENDROOT
BRANCH   1  21
HETATM   21  C2  UNL     1      22.842  12.675  55.292  1.00  0.00     0.128 C 
HETATM   22  C1  UNL     1      22.627  14.100  55.652  1.00  0.00     0.091 C 
HETATM   23  O1  UNL     1      23.442  12.451  54.257  1.00  0.00    -0.298 OA
ENDBRANCH   1  21
TORSDOF 1
ENDMDL
