MODEL 6
REMARK VINA RESULT: -9.056012944      1.603      6.661
REMARK  1 active torsions:
REMARK  status: ('A' for Active; 'I' for Inactive)
REMARK    1  A    between atoms: C2_2  and  C3_4 
ROOT
HETATM    1  C3  UNL     1      23.149   9.479  62.494  1.00  0.00     0.063 C 
HETATM    2  C4  UNL     1      23.570   8.048  62.179  1.00  0.00     0.013 C 
HETATM    3  C5  UNL     1      23.468   7.898  60.673  1.00  0.00     0.006 C 
HETATM    4  C6  UNL     1      23.081   9.244  60.221  1.00  0.00    -0.001 C 
HETATM    5  C7  UNL     1      22.439   9.361  58.894  1.00  0.00    -0.004 C 
HETATM    6  C8  UNL     1      23.488   8.964  57.849  1.00  0.00     0.010 C 
HETATM    7  C9  UNL     1      22.988   9.183  56.458  1.00  0.00     0.035 C 
HETATM    8  C10 UNL     1      22.605  10.632  56.338  1.00  0.00    -0.068 C 
HETATM    9  C11 UNL     1      23.170  11.330  55.374  1.00  0.00     0.053 C 
HETATM   10  C12 UNL     1      22.817  12.737  55.235  1.00  0.00     0.149 C 
HETATM   11  O2  UNL     1      23.581  13.567  54.678  1.00  0.00    -0.293 OA
HETATM   12  C13 UNL     1      21.484  13.137  55.800  1.00  0.00     0.084 C 
HETATM   13  C14 UNL     1      21.509  12.652  57.237  1.00  0.00     0.022 C 
HETATM   14  C15 UNL     1      21.627  11.146  57.314  1.00  0.00    -0.016 C 
HETATM   15  C16 UNL     1      20.297  10.498  57.019  1.00  0.00     0.020 C 
HETATM   16  C17 UNL     1      22.129  10.829  58.694  1.00  0.00     0.002 C 
HETATM   17  C18 UNL     1      21.231  11.337  59.776  1.00  0.00     0.007 C 
HETATM   18  C19 UNL     1      21.924  11.197  61.121  1.00  0.00     0.011 C 
HETATM   19  C20 UNL     1      22.213   9.751  61.362  1.00  0.00    -0.030 C 
HETATM   20  C21 UNL     1      20.946   8.955  61.499  1.00  0.00     0.016 C 
ENDROOT
BRANCH   1  21
HETATM   21  C2  UNL     1      22.575   9.635  63.820  1.00  0.00     0.128 C 
HETATM   22  C1  UNL     1      22.378   8.441  64.681  1.00  0.00     0.091 C 
HETATM   23  O1  UNL     1      22.237  10.710  64.279  1.00  0.00    -0.298 OA
ENDBRANCH   1  21
TORSDOF 1
ENDMDL
