MODEL 17
REMARK VINA RESULT: -8.182217392      1.701      2.193
REMARK  6 active torsions:
REMARK  status: ('A' for Active; 'I' for Inactive)
REMARK       I    between atoms: C2_2  and  N1_4 
REMARK    1  A    between atoms: N1_4  and  C3_6 
REMARK    2  A    between atoms: C6_9  and  N2_10 
REMARK    3  A    between atoms: C12_17  and  N3_18 
REMARK       I    between atoms: N3_18  and  C13_20 
REMARK    4  A    between atoms: C13_20  and  O4_22 
REMARK    5  A    between atoms: O4_22  and  C14_23 
REMARK    6  A    between atoms: C14_23  and  C15_24 
ROOT
HETATM    1  N2  UNL     1      20.467   8.590   1.856  1.00  0.00    -0.252 N 
HETATM    2  C7  UNL     1      19.962   9.425   2.916  1.00  0.00     0.236 C 
HETATM    3  O2  UNL     1      18.767   9.620   3.210  1.00  0.00    -0.272 OA
HETATM    4  C8  UNL     1      21.127   9.997   3.583  1.00  0.00     0.098 C 
HETATM    5  C9  UNL     1      21.087  11.459   3.873  1.00  0.00    -0.000 C 
HETATM    6  C10 UNL     1      22.347  11.725   4.716  1.00  0.00     0.008 C 
HETATM    7  C11 UNL     1      23.611  11.362   3.940  1.00  0.00     0.032 C 
HETATM    8  C12 UNL     1      23.201  10.956   2.529  1.00  0.00     0.048 C 
HETATM    9  C16 UNL     1      22.486  12.149   1.933  1.00  0.00     0.032 C 
HETATM   10  C17 UNL     1      21.133  12.237   2.590  1.00  0.00     0.008 C 
HETATM   11  C18 UNL     1      22.325   9.756   2.699  1.00  0.00     0.120 C 
HETATM   12  C19 UNL     1      21.712   9.216   1.477  1.00  0.00     0.238 C 
HETATM   13  O7  UNL     1      22.102   9.232   0.273  1.00  0.00    -0.272 OA
ENDROOT
BRANCH   1  14
HETATM   14  C6  UNL     1      19.874   7.400   1.333  1.00  0.00     0.045 A 
HETATM   15  C5  UNL     1      18.495   7.256   1.255  1.00  0.00     0.032 A 
HETATM   16  C4  UNL     1      17.849   6.174   0.761  1.00  0.00     0.032 A 
HETATM   17  C3  UNL     1      18.596   5.097   0.282  1.00  0.00     0.034 A 
HETATM   18  C21 UNL     1      19.954   5.196   0.339  1.00  0.00     0.032 A 
HETATM   19  C20 UNL     1      20.595   6.335   0.860  1.00  0.00     0.032 A 
BRANCH  17  20
HETATM   20  N1  UNL     1      17.866   4.001  -0.234  1.00  0.00    -0.328 N 
HETATM   21  C2  UNL     1      17.729   3.635  -1.590  1.00  0.00     0.218 C 
HETATM   22  C1  UNL     1      16.899   2.421  -1.957  1.00  0.00     0.117 C 
HETATM   23  O1  UNL     1      18.285   4.305  -2.484  1.00  0.00    -0.274 OA
ATOM     24  H1  UNL     1      17.387   3.413   0.448  1.00  0.00     0.169 HD
ENDBRANCH  17  20
ENDBRANCH   1  14
BRANCH   8  25
HETATM   25  N3  UNL     1      24.312  10.586   1.711  1.00  0.00    -0.327 N 
HETATM   26  C13 UNL     1      25.487   9.927   2.175  1.00  0.00     0.361 C 
HETATM   27  O3  UNL     1      25.546   9.641   3.397  1.00  0.00    -0.238 OA
ATOM     28  H3  UNL     1      24.261  10.811   0.718  1.00  0.00     0.165 HD
BRANCH  26  29
HETATM   29  O4  UNL     1      26.519   9.622   1.283  1.00  0.00    -0.293 OA
BRANCH  29  30
HETATM   30  C14 UNL     1      26.193   8.705   0.239  1.00  0.00     0.293 C 
BRANCH  30  31
HETATM   31  C15 UNL     1      25.704   7.421   0.766  1.00  0.00     0.198 C 
HETATM   32  O5  UNL     1      24.473   7.181   0.723  1.00  0.00    -0.646 OA
HETATM   33  O6  UNL     1      26.608   6.515   1.291  1.00  0.00    -0.646 OA
ENDBRANCH  30  31
ENDBRANCH  29  30
ENDBRANCH  26  29
ENDBRANCH   8  25
TORSDOF 6
ENDMDL
