MODEL 15
REMARK VINA RESULT: -8.365303362      2.865      8.436
REMARK  6 active torsions:
REMARK  status: ('A' for Active; 'I' for Inactive)
REMARK       I    between atoms: C2_2  and  N1_4 
REMARK    1  A    between atoms: N1_4  and  C3_6 
REMARK    2  A    between atoms: C6_9  and  N2_10 
REMARK    3  A    between atoms: C12_17  and  N3_18 
REMARK       I    between atoms: N3_18  and  C13_20 
REMARK    4  A    between atoms: C13_20  and  O4_22 
REMARK    5  A    between atoms: O4_22  and  C14_23 
REMARK    6  A    between atoms: C14_23  and  C15_24 
ROOT
HETATM    1  N2  UNL     1      19.317   6.877   1.097  1.00  0.00    -0.252 N 
HETATM    2  C7  UNL     1      17.941   7.021   0.696  1.00  0.00     0.236 C 
HETATM    3  O2  UNL     1      17.103   7.812   1.171  1.00  0.00    -0.272 OA
HETATM    4  C8  UNL     1      17.720   6.061  -0.380  1.00  0.00     0.098 C 
HETATM    5  C9  UNL     1      16.484   5.231  -0.299  1.00  0.00    -0.000 C 
HETATM    6  C10 UNL     1      16.442   4.461  -1.631  1.00  0.00     0.008 C 
HETATM    7  C11 UNL     1      17.678   3.578  -1.790  1.00  0.00     0.032 C 
HETATM    8  C12 UNL     1      18.497   3.671  -0.508  1.00  0.00     0.048 C 
HETATM    9  C16 UNL     1      17.595   3.197   0.610  1.00  0.00     0.032 C 
HETATM   10  C17 UNL     1      16.580   4.282   0.860  1.00  0.00     0.008 C 
HETATM   11  C18 UNL     1      18.891   5.109  -0.392  1.00  0.00     0.120 C 
HETATM   12  C19 UNL     1      19.619   5.491   0.826  1.00  0.00     0.238 C 
HETATM   13  O7  UNL     1      20.392   4.825   1.576  1.00  0.00    -0.272 OA
ENDROOT
BRANCH   1  14
HETATM   14  C6  UNL     1      20.181   7.891   1.613  1.00  0.00     0.045 A 
HETATM   15  C5  UNL     1      19.802   8.681   2.690  1.00  0.00     0.032 A 
HETATM   16  C4  UNL     1      20.560   9.652   3.253  1.00  0.00     0.032 A 
HETATM   17  C3  UNL     1      21.831   9.906   2.736  1.00  0.00     0.034 A 
HETATM   18  C21 UNL     1      22.244   9.153   1.678  1.00  0.00     0.032 A 
HETATM   19  C20 UNL     1      21.431   8.152   1.116  1.00  0.00     0.032 A 
BRANCH  17  20
HETATM   20  N1  UNL     1      22.580  10.922   3.373  1.00  0.00    -0.328 N 
HETATM   21  C2  UNL     1      22.614  12.292   3.034  1.00  0.00     0.218 C 
HETATM   22  C1  UNL     1      23.484  13.240   3.835  1.00  0.00     0.117 C 
HETATM   23  O1  UNL     1      21.933  12.723   2.080  1.00  0.00    -0.274 OA
ATOM     24  H1  UNL     1      23.159  10.634   4.162  1.00  0.00     0.169 HD
ENDBRANCH  17  20
ENDBRANCH   1  14
BRANCH   8  25
HETATM   25  N3  UNL     1      19.689   2.884  -0.550  1.00  0.00    -0.327 N 
HETATM   26  C13 UNL     1      19.750   1.511  -0.925  1.00  0.00     0.361 C 
HETATM   27  O3  UNL     1      18.674   0.951  -1.251  1.00  0.00    -0.238 OA
ATOM     28  H3  UNL     1      20.563   3.341  -0.292  1.00  0.00     0.165 HD
BRANCH  26  29
HETATM   29  O4  UNL     1      20.974   0.837  -0.919  1.00  0.00    -0.293 OA
BRANCH  29  30
HETATM   30  C14 UNL     1      21.750   0.957   0.272  1.00  0.00     0.293 C 
BRANCH  30  31
HETATM   31  C15 UNL     1      22.935   1.806   0.075  1.00  0.00     0.198 C 
HETATM   32  O5  UNL     1      24.071   1.274   0.110  1.00  0.00    -0.646 OA
HETATM   33  O6  UNL     1      22.770   3.162  -0.146  1.00  0.00    -0.646 OA
ENDBRANCH  30  31
ENDBRANCH  29  30
ENDBRANCH  26  29
ENDBRANCH   8  25
TORSDOF 6
ENDMDL
