MODEL 18
REMARK VINA RESULT: -8.169514624      3.131      8.392
REMARK  6 active torsions:
REMARK  status: ('A' for Active; 'I' for Inactive)
REMARK       I    between atoms: C2_2  and  N1_4 
REMARK    1  A    between atoms: N1_4  and  C3_6 
REMARK    2  A    between atoms: C6_9  and  N2_10 
REMARK    3  A    between atoms: C12_17  and  N3_18 
REMARK       I    between atoms: N3_18  and  C13_20 
REMARK    4  A    between atoms: C13_20  and  O4_22 
REMARK    5  A    between atoms: O4_22  and  C14_23 
REMARK    6  A    between atoms: C14_23  and  C15_24 
ROOT
HETATM    1  N2  UNL     1      24.628  11.879   2.275  1.00  0.00    -0.252 N 
HETATM    2  C7  UNL     1      23.970  13.057   2.778  1.00  0.00     0.236 C 
HETATM    3  O2  UNL     1      24.466  13.937   3.509  1.00  0.00    -0.272 OA
HETATM    4  C8  UNL     1      22.606  13.022   2.262  1.00  0.00     0.098 C 
HETATM    5  C9  UNL     1      21.510  13.311   3.231  1.00  0.00    -0.000 C 
HETATM    6  C10 UNL     1      20.235  13.371   2.372  1.00  0.00     0.008 C 
HETATM    7  C11 UNL     1      19.991  12.043   1.660  1.00  0.00     0.032 C 
HETATM    8  C12 UNL     1      21.048  11.051   2.131  1.00  0.00     0.048 C 
HETATM    9  C16 UNL     1      20.884  10.934   3.631  1.00  0.00     0.032 C 
HETATM   10  C17 UNL     1      21.418  12.205   4.241  1.00  0.00     0.008 C 
HETATM   11  C18 UNL     1      22.359  11.638   1.714  1.00  0.00     0.120 C 
HETATM   12  C19 UNL     1      23.564  10.912   2.139  1.00  0.00     0.238 C 
HETATM   13  O7  UNL     1      23.757   9.682   2.369  1.00  0.00    -0.272 OA
ENDROOT
BRANCH   1  14
HETATM   14  C6  UNL     1      26.013  11.728   1.958  1.00  0.00     0.045 A 
HETATM   15  C5  UNL     1      26.980  11.694   2.954  1.00  0.00     0.032 A 
HETATM   16  C4  UNL     1      28.310  11.539   2.748  1.00  0.00     0.032 A 
HETATM   17  C3  UNL     1      28.782  11.398   1.442  1.00  0.00     0.034 A 
HETATM   18  C21 UNL     1      27.867  11.426   0.433  1.00  0.00     0.032 A 
HETATM   19  C20 UNL     1      26.492  11.589   0.681  1.00  0.00     0.032 A 
BRANCH  17  20
HETATM   20  N1  UNL     1      30.178  11.227   1.291  1.00  0.00    -0.328 N 
HETATM   21  C2  UNL     1      31.146  12.242   1.134  1.00  0.00     0.218 C 
HETATM   22  C1  UNL     1      32.606  11.867   0.982  1.00  0.00     0.117 C 
HETATM   23  O1  UNL     1      30.804  13.443   1.118  1.00  0.00    -0.274 OA
ATOM     24  H1  UNL     1      30.522  10.267   1.295  1.00  0.00     0.169 HD
ENDBRANCH  17  20
ENDBRANCH   1  14
BRANCH   8  25
HETATM   25  N3  UNL     1      20.919   9.767   1.517  1.00  0.00    -0.327 N 
HETATM   26  C13 UNL     1      19.814   8.884   1.691  1.00  0.00     0.361 C 
HETATM   27  O3  UNL     1      18.877   9.268   2.433  1.00  0.00    -0.238 OA
ATOM     28  H3  UNL     1      21.677   9.458   0.909  1.00  0.00     0.165 HD
BRANCH  26  29
HETATM   29  O4  UNL     1      19.800   7.644   1.047  1.00  0.00    -0.293 OA
BRANCH  29  30
HETATM   30  C14 UNL     1      19.039   6.617   1.681  1.00  0.00     0.293 C 
BRANCH  30  31
HETATM   31  C15 UNL     1      17.782   6.343   0.968  1.00  0.00     0.198 C 
HETATM   32  O5  UNL     1      17.417   5.151   0.826  1.00  0.00    -0.646 OA
HETATM   33  O6  UNL     1      17.036   7.400   0.477  1.00  0.00    -0.646 OA
ENDBRANCH  30  31
ENDBRANCH  29  30
ENDBRANCH  26  29
ENDBRANCH   8  25
TORSDOF 6
ENDMDL
