MODEL 13
REMARK VINA RESULT: -8.875819471      2.452      6.959
REMARK  6 active torsions:
REMARK  status: ('A' for Active; 'I' for Inactive)
REMARK       I    between atoms: C2_2  and  N1_4 
REMARK    1  A    between atoms: N1_4  and  C3_6 
REMARK    2  A    between atoms: C6_9  and  N2_10 
REMARK    3  A    between atoms: C12_17  and  N3_18 
REMARK       I    between atoms: N3_18  and  C13_20 
REMARK    4  A    between atoms: C13_20  and  O4_22 
REMARK    5  A    between atoms: O4_22  and  C14_23 
REMARK    6  A    between atoms: C14_23  and  C15_24 
ROOT
HETATM    1  N2  UNL     1      23.467  11.045   0.478  1.00  0.00    -0.252 N 
HETATM    2  C7  UNL     1      23.633  12.363   1.036  1.00  0.00     0.236 C 
HETATM    3  O2  UNL     1      24.621  13.111   0.907  1.00  0.00    -0.272 OA
HETATM    4  C8  UNL     1      22.414  12.653   1.783  1.00  0.00     0.098 C 
HETATM    5  C9  UNL     1      22.581  13.229   3.148  1.00  0.00    -0.000 C 
HETATM    6  C10 UNL     1      21.153  13.581   3.602  1.00  0.00     0.008 C 
HETATM    7  C11 UNL     1      20.270  12.336   3.644  1.00  0.00     0.032 C 
HETATM    8  C12 UNL     1      21.140  11.126   3.325  1.00  0.00     0.048 C 
HETATM    9  C16 UNL     1      22.227  11.094   4.378  1.00  0.00     0.032 C 
HETATM   10  C17 UNL     1      23.191  12.208   4.064  1.00  0.00     0.008 C 
HETATM   11  C18 UNL     1      21.654  11.359   1.940  1.00  0.00     0.120 C 
HETATM   12  C19 UNL     1      22.608  10.369   1.422  1.00  0.00     0.238 C 
HETATM   13  O7  UNL     1      22.747   9.136   1.675  1.00  0.00    -0.272 OA
ENDROOT
BRANCH   1  14
HETATM   14  C6  UNL     1      24.009  10.548  -0.746  1.00  0.00     0.045 A 
HETATM   15  C5  UNL     1      23.316  10.671  -1.944  1.00  0.00     0.032 A 
HETATM   16  C4  UNL     1      23.759  10.244  -3.150  1.00  0.00     0.032 A 
HETATM   17  C3  UNL     1      25.007   9.626  -3.236  1.00  0.00     0.034 A 
HETATM   18  C21 UNL     1      25.721   9.484  -2.084  1.00  0.00     0.032 A 
HETATM   19  C20 UNL     1      25.233   9.938  -0.846  1.00  0.00     0.032 A 
BRANCH  17  20
HETATM   20  N1  UNL     1      25.420   9.214  -4.524  1.00  0.00    -0.328 N 
HETATM   21  C2  UNL     1      26.031  10.011  -5.516  1.00  0.00     0.218 C 
HETATM   22  C1  UNL     1      26.405   9.392  -6.847  1.00  0.00     0.117 C 
HETATM   23  O1  UNL     1      26.260  11.219  -5.301  1.00  0.00    -0.274 OA
ATOM     24  H1  UNL     1      25.259   8.235  -4.761  1.00  0.00     0.169 HD
ENDBRANCH  17  20
ENDBRANCH   1  14
BRANCH   8  25
HETATM   25  N3  UNL     1      20.410   9.898   3.330  1.00  0.00    -0.327 N 
HETATM   26  C13 UNL     1      19.357   9.568   2.428  1.00  0.00     0.361 C 
HETATM   27  O3  UNL     1      19.054  10.419   1.556  1.00  0.00    -0.238 OA
ATOM     28  H3  UNL     1      20.661   9.204   4.033  1.00  0.00     0.165 HD
BRANCH  26  29
HETATM   29  O4  UNL     1      18.705   8.337   2.533  1.00  0.00    -0.293 OA
BRANCH  29  30
HETATM   30  C14 UNL     1      18.847   7.455   1.419  1.00  0.00     0.293 C 
BRANCH  30  31
HETATM   31  C15 UNL     1      17.563   6.855   1.025  1.00  0.00     0.198 C 
HETATM   32  O5  UNL     1      17.309   5.682   1.389  1.00  0.00    -0.646 OA
HETATM   33  O6  UNL     1      16.672   7.594   0.268  1.00  0.00    -0.646 OA
ENDBRANCH  30  31
ENDBRANCH  29  30
ENDBRANCH  26  29
ENDBRANCH   8  25
TORSDOF 6
ENDMDL
