MODEL 4
REMARK VINA RESULT: -7.623682725      4.772      9.528
REMARK  9 active torsions:
REMARK  status: ('A' for Active; 'I' for Inactive)
REMARK    1  A    between atoms: N4_10  and  C5_11 
REMARK    2  A    between atoms: C6_13  and  C7_14 
REMARK    3  A    between atoms: C7_14  and  O2_15 
REMARK    4  A    between atoms: O2_15  and  P1_16 
REMARK    5  A    between atoms: P1_16  and  O5_19 
REMARK    6  A    between atoms: O5_19  and  P2_20 
REMARK    7  A    between atoms: P2_20  and  N5_21 
REMARK    8  A    between atoms: C8_26  and  O8_27 
REMARK    9  A    between atoms: C9_29  and  O9_30 
ROOT
HETATM    1  C5  UNL     1     102.959  25.455  -0.822  1.00  0.00     0.262 C 
HETATM    2  O1  UNL     1     104.247  25.696  -0.353  1.00  0.00    -0.353 OA
HETATM    3  C6  UNL     1     104.593  26.945  -0.868  1.00  0.00     0.180 C 
HETATM    4  C8  UNL     1     103.312  27.736  -1.001  1.00  0.00     0.182 C 
HETATM    5  C9  UNL     1     102.283  26.770  -0.450  1.00  0.00     0.198 C 
ENDROOT
BRANCH   1   6
HETATM    6  N4  UNL     1     102.370  24.332  -0.137  1.00  0.00    -0.297 N 
HETATM    7  C2  UNL     1     101.644  23.389  -0.762  1.00  0.00     0.146 A 
HETATM    8  N2  UNL     1     101.271  23.195  -2.038  1.00  0.00    -0.314 N 
HETATM    9  C3  UNL     1     101.216  22.446   0.168  1.00  0.00     0.146 A 
HETATM   10  C1  UNL     1     100.521  22.153  -2.450  1.00  0.00     0.196 A 
ATOM     11  H2  UNL     1     101.573  23.876  -2.736  1.00  0.00     0.170 HD
HETATM   12  N1  UNL     1     100.197  22.060  -3.821  1.00  0.00    -0.063 NA
HETATM   13  N6  UNL     1     100.123  21.254  -1.522  1.00  0.00    -0.295 N 
HETATM   14  C10 UNL     1     100.453  21.377  -0.230  1.00  0.00     0.278 A 
ATOM     15  H6  UNL     1      99.555  20.458  -1.815  1.00  0.00     0.171 HD
HETATM   16  O10 UNL     1     100.066  20.529   0.588  1.00  0.00    -0.265 OA
HETATM   17  N3  UNL     1     101.718  22.873   1.346  1.00  0.00    -0.345 N 
HETATM   18  C4  UNL     1     102.411  24.008   1.149  1.00  0.00     0.188 A 
ATOM     19  H3  UNL     1     101.593  22.407   2.245  1.00  0.00     0.167 HD
ENDBRANCH   1   6
BRANCH   5  20
HETATM   20  O9  UNL     1     101.048  26.902  -1.031  1.00  0.00    -0.388 OA
ATOM     21  H9  UNL     1     100.580  27.666  -0.712  1.00  0.00     0.210 HD
ENDBRANCH   5  20
BRANCH   3  22
HETATM   22  C7  UNL     1     105.479  27.668   0.100  1.00  0.00     0.216 C 
BRANCH  22  23
HETATM   23  O2  UNL     1     105.263  29.021   0.122  1.00  0.00    -0.287 OA
BRANCH  23  24
HETATM   24  P1  UNL     1     106.431  29.958  -0.180  1.00  0.00     0.417 P 
HETATM   25  O3  UNL     1     107.297  28.870  -1.053  1.00  0.00    -0.624 OA
HETATM   26  O4  UNL     1     106.713  30.031   1.472  1.00  0.00    -0.624 OA
BRANCH  24  27
HETATM   27  O5  UNL     1     105.446  31.061  -0.853  1.00  0.00    -0.186 OA
BRANCH  27  28
HETATM   28  P2  UNL     1     105.616  31.392  -2.317  1.00  0.00     0.366 P 
HETATM   29  O6  UNL     1     104.444  32.510  -2.237  1.00  0.00    -0.630 OA
HETATM   30  O7  UNL     1     107.208  31.891  -1.928  1.00  0.00    -0.630 OA
BRANCH  28  31
HETATM   31  N5  UNL     1     105.395  29.869  -2.948  1.00  0.00    -0.334 N 
ATOM     32  H52 UNL     1     105.293  28.971  -2.473  1.00  0.00     0.162 HD
ATOM     33  H51 UNL     1     105.395  30.110  -3.939  1.00  0.00     0.162 HD
ENDBRANCH  28  31
ENDBRANCH  27  28
ENDBRANCH  24  27
ENDBRANCH  23  24
ENDBRANCH  22  23
ENDBRANCH   3  22
BRANCH   4  34
HETATM   34  O8  UNL     1     102.974  27.953  -2.344  1.00  0.00    -0.390 OA
ATOM     35  H8  UNL     1     102.166  27.511  -2.579  1.00  0.00     0.210 HD
ENDBRANCH   4  34
TORSDOF 9
ENDMDL
