MODEL 5
REMARK VINA RESULT: -7.590505726      7.334     11.443
REMARK  9 active torsions:
REMARK  status: ('A' for Active; 'I' for Inactive)
REMARK    1  A    between atoms: N4_10  and  C5_11 
REMARK    2  A    between atoms: C6_13  and  C7_14 
REMARK    3  A    between atoms: C7_14  and  O2_15 
REMARK    4  A    between atoms: O2_15  and  P1_16 
REMARK    5  A    between atoms: P1_16  and  O5_19 
REMARK    6  A    between atoms: O5_19  and  P2_20 
REMARK    7  A    between atoms: P2_20  and  N5_21 
REMARK    8  A    between atoms: C8_26  and  O8_27 
REMARK    9  A    between atoms: C9_29  and  O9_30 
ROOT
HETATM    1  C5  UNL     1     101.088  20.914  -1.167  1.00  0.00     0.262 C 
HETATM    2  O1  UNL     1     101.337  21.734  -2.263  1.00  0.00    -0.353 OA
HETATM    3  C6  UNL     1     100.484  22.825  -2.102  1.00  0.00     0.180 C 
HETATM    4  C8  UNL     1     100.290  23.017  -0.615  1.00  0.00     0.182 C 
HETATM    5  C9  UNL     1     101.179  21.934  -0.038  1.00  0.00     0.198 C 
ENDROOT
BRANCH   1   6
HETATM    6  N4  UNL     1     102.098  19.893  -1.056  1.00  0.00    -0.297 N 
HETATM    7  C2  UNL     1     103.414  20.147  -1.159  1.00  0.00     0.146 A 
HETATM    8  N2  UNL     1     104.133  21.263  -1.370  1.00  0.00    -0.314 N 
HETATM    9  C3  UNL     1     104.126  18.960  -1.008  1.00  0.00     0.146 A 
HETATM   10  C1  UNL     1     105.480  21.286  -1.439  1.00  0.00     0.196 A 
ATOM     11  H2  UNL     1     103.630  22.143  -1.484  1.00  0.00     0.170 HD
HETATM   12  N1  UNL     1     106.119  22.523  -1.664  1.00  0.00    -0.063 NA
HETATM   13  N6  UNL     1     106.141  20.116  -1.287  1.00  0.00    -0.295 N 
HETATM   14  C10 UNL     1     105.497  18.961  -1.074  1.00  0.00     0.278 A 
ATOM     15  H6  UNL     1     107.160  20.113  -1.336  1.00  0.00     0.171 HD
HETATM   16  O10 UNL     1     106.143  17.912  -0.941  1.00  0.00    -0.265 OA
HETATM   17  N3  UNL     1     103.181  18.015  -0.814  1.00  0.00    -0.345 N 
HETATM   18  C4  UNL     1     101.966  18.589  -0.844  1.00  0.00     0.188 A 
ATOM     19  H3  UNL     1     103.361  17.022  -0.667  1.00  0.00     0.167 HD
ENDBRANCH   1   6
BRANCH   5  20
HETATM   20  O9  UNL     1     100.721  21.433   1.154  1.00  0.00    -0.388 OA
ATOM     21  H9  UNL     1     100.754  22.076   1.852  1.00  0.00     0.210 HD
ENDBRANCH   5  20
BRANCH   3  22
HETATM   22  C7  UNL     1     101.131  24.064  -2.642  1.00  0.00     0.216 C 
BRANCH  22  23
HETATM   23  O2  UNL     1     100.889  25.176  -1.879  1.00  0.00    -0.287 OA
BRANCH  23  24
HETATM   24  P1  UNL     1     101.633  26.469  -2.206  1.00  0.00     0.417 P 
HETATM   25  O3  UNL     1     101.082  27.311  -0.909  1.00  0.00    -0.624 OA
HETATM   26  O4  UNL     1     100.736  26.549  -3.621  1.00  0.00    -0.624 OA
BRANCH  24  27
HETATM   27  O5  UNL     1     103.066  25.706  -2.231  1.00  0.00    -0.186 OA
BRANCH  27  28
HETATM   28  P2  UNL     1     104.214  26.286  -1.438  1.00  0.00     0.366 P 
HETATM   29  O6  UNL     1     103.751  25.478  -0.110  1.00  0.00    -0.630 OA
HETATM   30  O7  UNL     1     105.259  25.476  -2.527  1.00  0.00    -0.630 OA
BRANCH  28  31
HETATM   31  N5  UNL     1     103.905  27.901  -1.689  1.00  0.00    -0.334 N 
ATOM     32  H52 UNL     1     103.382  28.564  -1.118  1.00  0.00     0.162 HD
ATOM     33  H51 UNL     1     104.393  28.016  -2.577  1.00  0.00     0.162 HD
ENDBRANCH  28  31
ENDBRANCH  27  28
ENDBRANCH  24  27
ENDBRANCH  23  24
ENDBRANCH  22  23
ENDBRANCH   3  22
BRANCH   4  34
HETATM   34  O8  UNL     1      98.981  22.708  -0.219  1.00  0.00    -0.390 OA
ATOM     35  H8  UNL     1      98.839  22.896   0.702  1.00  0.00     0.210 HD
ENDBRANCH   4  34
TORSDOF 9
ENDMDL
