MODEL 2
REMARK VINA RESULT: -8.084097597      0.935      1.156
REMARK  9 active torsions:
REMARK  status: ('A' for Active; 'I' for Inactive)
REMARK    1  A    between atoms: N4_10  and  C5_11 
REMARK    2  A    between atoms: C6_13  and  C7_14 
REMARK    3  A    between atoms: C7_14  and  O2_15 
REMARK    4  A    between atoms: O2_15  and  P1_16 
REMARK    5  A    between atoms: P1_16  and  O5_19 
REMARK    6  A    between atoms: O5_19  and  P2_20 
REMARK    7  A    between atoms: P2_20  and  N5_21 
REMARK    8  A    between atoms: C8_26  and  O8_27 
REMARK    9  A    between atoms: C9_29  and  O9_30 
ROOT
HETATM    1  C5  UNL     1     104.875  31.982  -1.770  1.00  0.00     0.262 C 
HETATM    2  O1  UNL     1     104.406  30.801  -2.336  1.00  0.00    -0.353 OA
HETATM    3  C6  UNL     1     105.382  29.847  -2.048  1.00  0.00     0.180 C 
HETATM    4  C8  UNL     1     106.022  30.254  -0.740  1.00  0.00     0.182 C 
HETATM    5  C9  UNL     1     105.229  31.492  -0.371  1.00  0.00     0.198 C 
ENDROOT
BRANCH   1   6
HETATM    6  N4  UNL     1     103.838  32.982  -1.746  1.00  0.00    -0.297 N 
HETATM    7  C2  UNL     1     104.080  34.296  -1.890  1.00  0.00     0.146 A 
HETATM    8  N2  UNL     1     105.196  35.022  -2.074  1.00  0.00    -0.314 N 
HETATM    9  C3  UNL     1     102.879  34.997  -1.821  1.00  0.00     0.146 A 
HETATM   10  C1  UNL     1     105.206  36.365  -2.194  1.00  0.00     0.196 A 
ATOM     11  H2  UNL     1     106.087  34.528  -2.126  1.00  0.00     0.170 HD
HETATM   12  N1  UNL     1     106.445  37.013  -2.386  1.00  0.00    -0.063 NA
HETATM   13  N6  UNL     1     104.022  37.015  -2.123  1.00  0.00    -0.295 N 
HETATM   14  C10 UNL     1     102.866  36.364  -1.941  1.00  0.00     0.278 A 
ATOM     15  H6  UNL     1     104.009  38.032  -2.212  1.00  0.00     0.171 HD
HETATM   16  O10 UNL     1     101.804  37.000  -1.882  1.00  0.00    -0.265 OA
HETATM   17  N3  UNL     1     101.938  34.047  -1.634  1.00  0.00    -0.345 N 
HETATM   18  C4  UNL     1     102.527  32.839  -1.592  1.00  0.00     0.188 A 
ATOM     19  H3  UNL     1     100.937  34.218  -1.541  1.00  0.00     0.167 HD
ENDBRANCH   1   6
BRANCH   5  20
HETATM   20  O9  UNL     1     105.959  32.414   0.335  1.00  0.00    -0.388 OA
ATOM     21  H9  UNL     1     105.521  32.684   1.134  1.00  0.00     0.210 HD
ENDBRANCH   5  20
BRANCH   3  22
HETATM   22  C7  UNL     1     104.742  28.508  -1.847  1.00  0.00     0.216 C 
BRANCH  22  23
HETATM   23  O2  UNL     1     103.383  28.577  -1.688  1.00  0.00    -0.287 OA
BRANCH  23  24
HETATM   24  P1  UNL     1     102.657  27.402  -1.037  1.00  0.00     0.417 P 
HETATM   25  O3  UNL     1     101.496  28.305  -0.309  1.00  0.00    -0.624 OA
HETATM   26  O4  UNL     1     104.062  27.098  -0.173  1.00  0.00    -0.624 OA
BRANCH  24  27
HETATM   27  O5  UNL     1     102.446  26.664  -2.469  1.00  0.00    -0.186 OA
BRANCH  27  28
HETATM   28  P2  UNL     1     101.311  25.679  -2.621  1.00  0.00     0.366 P 
HETATM   29  O6  UNL     1     100.682  26.539  -3.844  1.00  0.00    -0.630 OA
HETATM   30  O7  UNL     1     102.498  24.507  -3.012  1.00  0.00    -0.630 OA
BRANCH  28  31
HETATM   31  N5  UNL     1     100.726  25.726  -1.065  1.00  0.00    -0.334 N 
ATOM     32  H52 UNL     1     100.777  25.026  -0.324  1.00  0.00     0.162 HD
ATOM     33  H51 UNL     1     100.308  26.656  -1.084  1.00  0.00     0.162 HD
ENDBRANCH  28  31
ENDBRANCH  27  28
ENDBRANCH  24  27
ENDBRANCH  23  24
ENDBRANCH  22  23
ENDBRANCH   3  22
BRANCH   4  34
HETATM   34  O8  UNL     1     107.348  30.671  -0.919  1.00  0.00    -0.390 OA
ATOM     35  H8  UNL     1     107.402  31.448  -1.464  1.00  0.00     0.210 HD
ENDBRANCH   4  34
TORSDOF 9
ENDMDL
