MODEL 3
REMARK VINA RESULT: -7.910818874      7.614     11.104
REMARK  9 active torsions:
REMARK  status: ('A' for Active; 'I' for Inactive)
REMARK    1  A    between atoms: N4_10  and  C5_11 
REMARK    2  A    between atoms: C6_13  and  C7_14 
REMARK    3  A    between atoms: C7_14  and  O2_15 
REMARK    4  A    between atoms: O2_15  and  P1_16 
REMARK    5  A    between atoms: P1_16  and  O5_19 
REMARK    6  A    between atoms: O5_19  and  P2_20 
REMARK    7  A    between atoms: P2_20  and  N5_21 
REMARK    8  A    between atoms: C8_26  and  O8_27 
REMARK    9  A    between atoms: C9_29  and  O9_30 
ROOT
HETATM    1  C5  UNL     1     101.299  21.033  -0.580  1.00  0.00     0.262 C 
HETATM    2  O1  UNL     1     101.396  21.554  -1.867  1.00  0.00    -0.353 OA
HETATM    3  C6  UNL     1     100.360  22.483  -1.961  1.00  0.00     0.180 C 
HETATM    4  C8  UNL     1     100.137  23.036  -0.572  1.00  0.00     0.182 C 
HETATM    5  C9  UNL     1     101.207  22.322   0.229  1.00  0.00     0.198 C 
ENDROOT
BRANCH   1   6
HETATM    6  N4  UNL     1     102.477  20.271  -0.250  1.00  0.00    -0.297 N 
HETATM    7  C2  UNL     1     103.723  20.676  -0.551  1.00  0.00     0.146 A 
HETATM    8  N2  UNL     1     104.225  21.759  -1.168  1.00  0.00    -0.314 N 
HETATM    9  C3  UNL     1     104.638  19.727  -0.104  1.00  0.00     0.146 A 
HETATM   10  C1  UNL     1     105.543  21.965  -1.367  1.00  0.00     0.196 A 
ATOM     11  H2  UNL     1     103.572  22.467  -1.505  1.00  0.00     0.170 HD
HETATM   12  N1  UNL     1     105.946  23.145  -2.028  1.00  0.00    -0.063 NA
HETATM   13  N6  UNL     1     106.405  21.024  -0.919  1.00  0.00    -0.295 N 
HETATM   14  C10 UNL     1     105.983  19.916  -0.295  1.00  0.00     0.278 A 
ATOM     15  H6  UNL     1     107.406  21.162  -1.060  1.00  0.00     0.171 HD
HETATM   16  O10 UNL     1     106.808  19.080   0.099  1.00  0.00    -0.265 OA
HETATM   17  N3  UNL     1     103.881  18.763   0.465  1.00  0.00    -0.345 N 
HETATM   18  C4  UNL     1     102.584  19.103   0.371  1.00  0.00     0.188 A 
ATOM     19  H3  UNL     1     104.238  17.912   0.898  1.00  0.00     0.167 HD
ENDBRANCH   1   6
BRANCH   5  20
HETATM   20  O9  UNL     1     100.848  22.093   1.533  1.00  0.00    -0.388 OA
ATOM     21  H9  UNL     1     100.919  22.875   2.068  1.00  0.00     0.210 HD
ENDBRANCH   5  20
BRANCH   3  22
HETATM   22  C7  UNL     1     100.774  23.620  -2.845  1.00  0.00     0.216 C 
BRANCH  22  23
HETATM   23  O2  UNL     1     100.524  24.849  -2.295  1.00  0.00    -0.287 OA
BRANCH  23  24
HETATM   24  P1  UNL     1     101.503  25.990  -2.565  1.00  0.00     0.417 P 
HETATM   25  O3  UNL     1     100.707  26.588  -3.869  1.00  0.00    -0.624 OA
HETATM   26  O4  UNL     1     102.680  24.827  -2.839  1.00  0.00    -0.624 OA
BRANCH  24  27
HETATM   27  O5  UNL     1     101.323  26.578  -1.062  1.00  0.00    -0.186 OA
BRANCH  27  28
HETATM   28  P2  UNL     1     102.492  27.277  -0.408  1.00  0.00     0.366 P 
HETATM   29  O6  UNL     1     101.565  28.554  -0.034  1.00  0.00    -0.630 OA
HETATM   30  O7  UNL     1     102.528  25.978   0.709  1.00  0.00    -0.630 OA
BRANCH  28  31
HETATM   31  N5  UNL     1     103.551  27.250  -1.689  1.00  0.00    -0.334 N 
ATOM     32  H52 UNL     1     103.367  27.274  -2.693  1.00  0.00     0.162 HD
ATOM     33  H51 UNL     1     104.426  27.202  -1.167  1.00  0.00     0.162 HD
ENDBRANCH  28  31
ENDBRANCH  27  28
ENDBRANCH  24  27
ENDBRANCH  23  24
ENDBRANCH  22  23
ENDBRANCH   3  22
BRANCH   4  34
HETATM   34  O8  UNL     1      98.905  22.626  -0.042  1.00  0.00    -0.390 OA
ATOM     35  H8  UNL     1      98.179  22.892  -0.594  1.00  0.00     0.210 HD
ENDBRANCH   4  34
TORSDOF 9
ENDMDL
