MODEL 1
REMARK VINA RESULT: -8.332672168      0.000      0.000
REMARK  9 active torsions:
REMARK  status: ('A' for Active; 'I' for Inactive)
REMARK    1  A    between atoms: N4_10  and  C5_11 
REMARK    2  A    between atoms: C6_13  and  C7_14 
REMARK    3  A    between atoms: C7_14  and  O2_15 
REMARK    4  A    between atoms: O2_15  and  P1_16 
REMARK    5  A    between atoms: P1_16  and  O5_19 
REMARK    6  A    between atoms: O5_19  and  P2_20 
REMARK    7  A    between atoms: P2_20  and  N5_21 
REMARK    8  A    between atoms: C8_26  and  O8_27 
REMARK    9  A    between atoms: C9_29  and  O9_30 
ROOT
HETATM    1  C5  UNL     1     105.313  32.064  -1.843  1.00  0.00     0.262 C 
HETATM    2  O1  UNL     1     105.036  30.974  -2.662  1.00  0.00    -0.353 OA
HETATM    3  C6  UNL     1     106.061  30.062  -2.412  1.00  0.00     0.180 C 
HETATM    4  C8  UNL     1     106.496  30.270  -0.980  1.00  0.00     0.182 C 
HETATM    5  C9  UNL     1     105.545  31.353  -0.514  1.00  0.00     0.198 C 
ENDROOT
BRANCH   1   6
HETATM    6  N4  UNL     1     104.184  32.958  -1.787  1.00  0.00    -0.297 N 
HETATM    7  C2  UNL     1     104.299  34.294  -1.890  1.00  0.00     0.146 A 
HETATM    8  N2  UNL     1     105.340  35.128  -2.052  1.00  0.00    -0.314 N 
HETATM    9  C3  UNL     1     103.037  34.874  -1.799  1.00  0.00     0.146 A 
HETATM   10  C1  UNL     1     105.221  36.469  -2.130  1.00  0.00     0.196 A 
ATOM     11  H2  UNL     1     106.274  34.724  -2.119  1.00  0.00     0.170 HD
HETATM   12  N1  UNL     1     106.391  37.238  -2.302  1.00  0.00    -0.063 NA
HETATM   13  N6  UNL     1     103.981  37.001  -2.039  1.00  0.00    -0.295 N 
HETATM   14  C10 UNL     1     102.893  36.236  -1.876  1.00  0.00     0.278 A 
ATOM     15  H6  UNL     1     103.870  38.013  -2.096  1.00  0.00     0.171 HD
HETATM   16  O10 UNL     1     101.775  36.765  -1.798  1.00  0.00    -0.265 OA
HETATM   17  N3  UNL     1     102.191  33.832  -1.642  1.00  0.00    -0.345 N 
HETATM   18  C4  UNL     1     102.894  32.686  -1.637  1.00  0.00     0.188 A 
ATOM     19  H3  UNL     1     101.179  33.904  -1.543  1.00  0.00     0.167 HD
ENDBRANCH   1   6
BRANCH   5  20
HETATM   20  O9  UNL     1     106.088  32.185   0.433  1.00  0.00    -0.388 OA
ATOM     21  H9  UNL     1     106.652  31.719   1.040  1.00  0.00     0.210 HD
ENDBRANCH   5  20
BRANCH   3  22
HETATM   22  C7  UNL     1     105.540  28.663  -2.533  1.00  0.00     0.216 C 
BRANCH  22  23
HETATM   23  O2  UNL     1     104.196  28.564  -2.287  1.00  0.00    -0.287 OA
BRANCH  23  24
HETATM   24  P1  UNL     1     103.670  27.333  -1.552  1.00  0.00     0.417 P 
HETATM   25  O3  UNL     1     103.619  28.034  -0.068  1.00  0.00    -0.624 OA
HETATM   26  O4  UNL     1     105.085  26.548  -1.992  1.00  0.00    -0.624 OA
BRANCH  24  27
HETATM   27  O5  UNL     1     102.381  27.226  -2.533  1.00  0.00    -0.186 OA
BRANCH  27  28
HETATM   28  P2  UNL     1     101.421  26.074  -2.352  1.00  0.00     0.366 P 
HETATM   29  O6  UNL     1     100.786  26.764  -1.029  1.00  0.00    -0.630 OA
HETATM   30  O7  UNL     1     100.750  26.511  -3.867  1.00  0.00    -0.630 OA
BRANCH  28  31
HETATM   31  N5  UNL     1     102.525  24.831  -2.304  1.00  0.00    -0.334 N 
ATOM     32  H52 UNL     1     103.540  24.852  -2.406  1.00  0.00     0.162 HD
ATOM     33  H51 UNL     1     101.880  24.057  -2.146  1.00  0.00     0.162 HD
ENDBRANCH  28  31
ENDBRANCH  27  28
ENDBRANCH  24  27
ENDBRANCH  23  24
ENDBRANCH  22  23
ENDBRANCH   3  22
BRANCH   4  34
HETATM   34  O8  UNL     1     107.786  30.815  -0.903  1.00  0.00    -0.390 OA
ATOM     35  H8  UNL     1     108.086  30.882  -0.004  1.00  0.00     0.210 HD
ENDBRANCH   4  34
TORSDOF 9
ENDMDL
