MODEL 3
REMARK VINA RESULT: -8.434838136      2.626      6.456
REMARK  13 active torsions:
REMARK  status: ('A' for Active; 'I' for Inactive)
REMARK    1  A    between atoms: N1_2  and  C3_4 
REMARK    2  A    between atoms: C8_9  and  S1_10 
REMARK    3  A    between atoms: S1_10  and  N2_13 
REMARK    4  A    between atoms: N2_13  and  C9_15 
REMARK    5  A    between atoms: C9_15  and  C10_16 
REMARK    6  A    between atoms: C9_15  and  C14_24 
REMARK    7  A    between atoms: C10_16  and  C11_17 
REMARK    8  A    between atoms: C11_17  and  C12_18 
REMARK    9  A    between atoms: C12_18  and  N3_19 
REMARK       I    between atoms: C14_24  and  N6_26 
REMARK   10  A    between atoms: C19_31  and  C20_32 
REMARK   11  A    between atoms: C20_32  and  C21_33 
REMARK   12  A    between atoms: C21_33  and  C22_34 
REMARK   13  A    between atoms: C22_34  and  C23_36 
ROOT
HETATM    1  C9  UNL     1      18.111 -14.117  21.060  1.00  0.00     0.185 C 
ENDROOT
BRANCH   1   2
HETATM    2  N2  UNL     1      18.487 -15.560  20.872  1.00  0.00    -0.302 N 
ATOM      3  H2  UNL     1      19.241 -15.888  20.269  1.00  0.00     0.173 HD
BRANCH   2   4
HETATM    4  S1  UNL     1      17.471 -16.582  21.811  1.00  0.00     0.260 S 
HETATM    5  O1  UNL     1      17.496 -17.973  21.248  1.00  0.00    -0.200 OA
HETATM    6  O2  UNL     1      16.047 -16.115  21.802  1.00  0.00    -0.200 OA
BRANCH   4   7
HETATM    7  C8  UNL     1      18.140 -16.620  23.435  1.00  0.00     0.090 A 
HETATM    8  C7  UNL     1      19.311 -17.293  23.746  1.00  0.00    -0.000 A 
HETATM    9  C6  UNL     1      19.954 -17.942  22.736  1.00  0.00     0.014 A 
HETATM   10  C29 UNL     1      19.829 -17.313  25.046  1.00  0.00     0.002 A 
HETATM   11  C5  UNL     1      21.123 -18.621  23.008  1.00  0.00     0.003 A 
HETATM   12  C4  UNL     1      21.632 -18.640  24.286  1.00  0.00     0.030 A 
HETATM   13  C3  UNL     1      20.999 -17.989  25.338  1.00  0.00     0.040 A 
HETATM   14  C28 UNL     1      19.172 -16.652  26.051  1.00  0.00     0.014 A 
HETATM   15  C27 UNL     1      18.013 -15.979  25.772  1.00  0.00     0.003 A 
HETATM   16  C26 UNL     1      17.512 -15.966  24.493  1.00  0.00     0.026 A 
BRANCH  13  17
HETATM   17  N1  UNL     1      21.550 -18.041  26.654  1.00  0.00    -0.389 N 
HETATM   18  C1  UNL     1      22.501 -17.082  27.170  1.00  0.00     0.149 C 
HETATM   19  C2  UNL     1      21.135 -19.111  27.524  1.00  0.00     0.149 C 
ENDBRANCH  13  17
ENDBRANCH   4   7
ENDBRANCH   2   4
ENDBRANCH   1   2
BRANCH   1  20
HETATM   20  C10 UNL     1      19.167 -13.533  21.934  1.00  0.00     0.037 C 
BRANCH  20  21
HETATM   21  C11 UNL     1      20.486 -14.197  22.061  1.00  0.00     0.022 C 
BRANCH  21  22
HETATM   22  C12 UNL     1      21.090 -14.237  23.426  1.00  0.00     0.122 C 
BRANCH  22  23
HETATM   23  N3  UNL     1      22.258 -15.070  23.574  1.00  0.00    -0.367 N 
HETATM   24  C13 UNL     1      23.304 -14.873  24.245  1.00  0.00     0.196 C 
HETATM   25  N4  UNL     1      24.336 -15.902  24.208  1.00  0.00    -0.067 NA
HETATM   26  N5  UNL     1      23.585 -13.752  25.034  1.00  0.00    -0.067 NA
ATOM     27  H3  UNL     1      22.233 -15.949  23.058  1.00  0.00     0.161 HD
ENDBRANCH  22  23
ENDBRANCH  21  22
ENDBRANCH  20  21
ENDBRANCH   1  20
BRANCH   1  28
HETATM   28  C14 UNL     1      17.975 -13.602  19.711  1.00  0.00     0.247 C 
HETATM   29  O3  UNL     1      19.091 -13.433  19.080  1.00  0.00    -0.271 OA
HETATM   30  N6  UNL     1      16.813 -13.264  18.969  1.00  0.00    -0.324 N 
HETATM   31  C15 UNL     1      16.969 -12.694  17.628  1.00  0.00     0.131 C 
HETATM   32  C19 UNL     1      15.495 -13.497  19.455  1.00  0.00    -0.008 C 
HETATM   33  C16 UNL     1      16.286 -13.577  16.643  1.00  0.00     0.021 C 
HETATM   34  C17 UNL     1      15.405 -14.612  17.223  1.00  0.00     0.007 C 
HETATM   35  C18 UNL     1      14.625 -14.196  18.419  1.00  0.00     0.053 C 
BRANCH  32  36
HETATM   36  C20 UNL     1      14.815 -12.430  20.209  1.00  0.00     0.060 C 
BRANCH  36  37
HETATM   37  C21 UNL     1      13.385 -12.148  20.012  1.00  0.00     0.091 C 
BRANCH  37  38
HETATM   38  C22 UNL     1      12.424 -12.716  20.949  1.00  0.00     0.183 C 
HETATM   39  O4  UNL     1      11.846 -13.813  20.748  1.00  0.00    -0.290 OA
BRANCH  38  40
HETATM   40  C23 UNL     1      12.074 -12.010  22.212  1.00  0.00     0.120 A 
HETATM   41  N7  UNL     1      11.209 -12.452  23.110  1.00  0.00    -0.357 N 
HETATM   42  C24 UNL     1      10.985 -11.752  24.180  1.00  0.00     0.096 A 
ATOM     43  H7  UNL     1      10.722 -13.336  22.962  1.00  0.00     0.166 HD
HETATM   44  C25 UNL     1      11.669 -10.572  24.324  1.00  0.00     0.069 A 
HETATM   45  S2  UNL     1      12.603 -10.548  22.890  1.00  0.00    -0.079 SA
ENDBRANCH  38  40
ENDBRANCH  37  38
ENDBRANCH  36  37
ENDBRANCH  32  36
ENDBRANCH   1  28
TORSDOF 13
ENDMDL
