MODEL 5
REMARK VINA RESULT: -8.332047641      3.174      6.248
REMARK  13 active torsions:
REMARK  status: ('A' for Active; 'I' for Inactive)
REMARK    1  A    between atoms: N1_2  and  C3_4 
REMARK    2  A    between atoms: C8_9  and  S1_10 
REMARK    3  A    between atoms: S1_10  and  N2_13 
REMARK    4  A    between atoms: N2_13  and  C9_15 
REMARK    5  A    between atoms: C9_15  and  C10_16 
REMARK    6  A    between atoms: C9_15  and  C14_24 
REMARK    7  A    between atoms: C10_16  and  C11_17 
REMARK    8  A    between atoms: C11_17  and  C12_18 
REMARK    9  A    between atoms: C12_18  and  N3_19 
REMARK       I    between atoms: C14_24  and  N6_26 
REMARK   10  A    between atoms: C19_31  and  C20_32 
REMARK   11  A    between atoms: C20_32  and  C21_33 
REMARK   12  A    between atoms: C21_33  and  C22_34 
REMARK   13  A    between atoms: C22_34  and  C23_36 
ROOT
HETATM    1  C9  UNL     1      20.040 -15.025  22.544  1.00  0.00     0.185 C 
ENDROOT
BRANCH   1   2
HETATM    2  N2  UNL     1      21.383 -15.086  23.215  1.00  0.00    -0.302 N 
ATOM      3  H2  UNL     1      22.256 -15.322  22.744  1.00  0.00     0.173 HD
BRANCH   2   4
HETATM    4  S1  UNL     1      21.247 -14.705  24.887  1.00  0.00     0.260 S 
HETATM    5  O1  UNL     1      20.899 -13.255  25.047  1.00  0.00    -0.200 OA
HETATM    6  O2  UNL     1      22.532 -14.946  25.621  1.00  0.00    -0.200 OA
BRANCH   4   7
HETATM    7  C8  UNL     1      19.931 -15.674  25.530  1.00  0.00     0.090 A 
HETATM    8  C7  UNL     1      20.097 -16.991  25.929  1.00  0.00    -0.000 A 
HETATM    9  C6  UNL     1      21.340 -17.535  25.810  1.00  0.00     0.014 A 
HETATM   10  C29 UNL     1      19.037 -17.749  26.439  1.00  0.00     0.002 A 
HETATM   11  C5  UNL     1      21.544 -18.842  26.198  1.00  0.00     0.003 A 
HETATM   12  C4  UNL     1      20.501 -19.587  26.699  1.00  0.00     0.030 A 
HETATM   13  C3  UNL     1      19.221 -19.062  26.832  1.00  0.00     0.040 A 
HETATM   14  C28 UNL     1      17.793 -17.186  26.556  1.00  0.00     0.014 A 
HETATM   15  C27 UNL     1      17.600 -15.887  26.170  1.00  0.00     0.003 A 
HETATM   16  C26 UNL     1      18.646 -15.153  25.670  1.00  0.00     0.026 A 
BRANCH  13  17
HETATM   17  N1  UNL     1      18.161 -19.868  27.345  1.00  0.00    -0.389 N 
HETATM   18  C1  UNL     1      17.203 -20.565  26.516  1.00  0.00     0.149 C 
HETATM   19  C2  UNL     1      18.034 -19.997  28.774  1.00  0.00     0.149 C 
ENDBRANCH  13  17
ENDBRANCH   4   7
ENDBRANCH   2   4
ENDBRANCH   1   2
BRANCH   1  20
HETATM   20  C10 UNL     1      20.165 -13.990  21.479  1.00  0.00     0.037 C 
BRANCH  20  21
HETATM   21  C11 UNL     1      19.866 -14.328  20.067  1.00  0.00     0.022 C 
BRANCH  21  22
HETATM   22  C12 UNL     1      19.516 -13.192  19.162  1.00  0.00     0.122 C 
BRANCH  22  23
HETATM   23  N3  UNL     1      18.112 -12.881  19.057  1.00  0.00    -0.367 N 
HETATM   24  C13 UNL     1      17.411 -12.675  18.032  1.00  0.00     0.196 C 
HETATM   25  N4  UNL     1      15.997 -12.377  18.229  1.00  0.00    -0.067 NA
HETATM   26  N5  UNL     1      17.853 -12.700  16.706  1.00  0.00    -0.067 NA
ATOM     27  H3  UNL     1      17.613 -12.819  19.944  1.00  0.00     0.161 HD
ENDBRANCH  22  23
ENDBRANCH  21  22
ENDBRANCH  20  21
ENDBRANCH   1  20
BRANCH   1  28
HETATM   28  C14 UNL     1      19.776 -16.394  22.142  1.00  0.00     0.247 C 
HETATM   29  O3  UNL     1      20.830 -17.124  21.981  1.00  0.00    -0.271 OA
HETATM   30  N6  UNL     1      18.546 -17.061  21.907  1.00  0.00    -0.324 N 
HETATM   31  C15 UNL     1      18.571 -18.449  21.439  1.00  0.00     0.131 C 
HETATM   32  C19 UNL     1      17.282 -16.453  22.149  1.00  0.00    -0.008 C 
HETATM   33  C16 UNL     1      17.851 -19.305  22.422  1.00  0.00     0.021 C 
HETATM   34  C17 UNL     1      17.064 -18.579  23.440  1.00  0.00     0.007 C 
HETATM   35  C18 UNL     1      16.363 -17.357  22.961  1.00  0.00     0.053 C 
BRANCH  32  36
HETATM   36  C20 UNL     1      16.617 -15.728  21.052  1.00  0.00     0.060 C 
BRANCH  36  37
HETATM   37  C21 UNL     1      15.422 -14.906  21.294  1.00  0.00     0.091 C 
BRANCH  37  38
HETATM   38  C22 UNL     1      15.590 -13.474  21.512  1.00  0.00     0.183 C 
HETATM   39  O4  UNL     1      16.710 -12.943  21.712  1.00  0.00    -0.290 OA
BRANCH  38  40
HETATM   40  C23 UNL     1      14.418 -12.556  21.509  1.00  0.00     0.120 A 
HETATM   41  N7  UNL     1      14.381 -11.381  20.903  1.00  0.00    -0.357 N 
HETATM   42  C24 UNL     1      13.301 -10.663  20.963  1.00  0.00     0.096 A 
ATOM     43  H7  UNL     1      15.196 -11.041  20.391  1.00  0.00     0.166 HD
HETATM   44  C25 UNL     1      12.238 -11.172  21.664  1.00  0.00     0.069 A 
HETATM   45  S2  UNL     1      12.872 -12.669  22.197  1.00  0.00    -0.079 SA
ENDBRANCH  38  40
ENDBRANCH  37  38
ENDBRANCH  36  37
ENDBRANCH  32  36
ENDBRANCH   1  28
TORSDOF 13
ENDMDL
