MODEL 1
REMARK VINA RESULT: -8.795131129      0.000      0.000
REMARK  13 active torsions:
REMARK  status: ('A' for Active; 'I' for Inactive)
REMARK    1  A    between atoms: N1_2  and  C3_4 
REMARK    2  A    between atoms: C8_9  and  S1_10 
REMARK    3  A    between atoms: S1_10  and  N2_13 
REMARK    4  A    between atoms: N2_13  and  C9_15 
REMARK    5  A    between atoms: C9_15  and  C10_16 
REMARK    6  A    between atoms: C9_15  and  C14_24 
REMARK    7  A    between atoms: C10_16  and  C11_17 
REMARK    8  A    between atoms: C11_17  and  C12_18 
REMARK    9  A    between atoms: C12_18  and  N3_19 
REMARK       I    between atoms: C14_24  and  N6_26 
REMARK   10  A    between atoms: C19_31  and  C20_32 
REMARK   11  A    between atoms: C20_32  and  C21_33 
REMARK   12  A    between atoms: C21_33  and  C22_34 
REMARK   13  A    between atoms: C22_34  and  C23_36 
ROOT
HETATM    1  C9  UNL     1      15.404 -15.629  20.957  1.00  0.00     0.185 C 
ENDROOT
BRANCH   1   2
HETATM    2  N2  UNL     1      15.205 -16.220  22.324  1.00  0.00    -0.302 N 
ATOM      3  H2  UNL     1      14.581 -15.838  23.035  1.00  0.00     0.173 HD
BRANCH   2   4
HETATM    4  S1  UNL     1      16.172 -17.627  22.527  1.00  0.00     0.260 S 
HETATM    5  O1  UNL     1      16.077 -18.486  21.300  1.00  0.00    -0.200 OA
HETATM    6  O2  UNL     1      15.720 -18.453  23.693  1.00  0.00    -0.200 OA
BRANCH   4   7
HETATM    7  C8  UNL     1      17.834 -17.088  22.708  1.00  0.00     0.090 A 
HETATM    8  C7  UNL     1      18.330 -16.578  23.898  1.00  0.00    -0.000 A 
HETATM    9  C6  UNL     1      17.476 -16.503  24.956  1.00  0.00     0.014 A 
HETATM   10  C29 UNL     1      19.657 -16.153  24.024  1.00  0.00     0.002 A 
HETATM   11  C5  UNL     1      17.935 -16.002  26.156  1.00  0.00     0.003 A 
HETATM   12  C4  UNL     1      19.239 -15.584  26.280  1.00  0.00     0.030 A 
HETATM   13  C3  UNL     1      20.134 -15.647  25.219  1.00  0.00     0.040 A 
HETATM   14  C28 UNL     1      20.504 -16.238  22.949  1.00  0.00     0.014 A 
HETATM   15  C27 UNL     1      20.042 -16.739  21.762  1.00  0.00     0.003 A 
HETATM   16  C26 UNL     1      18.737 -17.152  21.648  1.00  0.00     0.026 A 
BRANCH  13  17
HETATM   17  N1  UNL     1      21.478 -15.193  25.380  1.00  0.00    -0.389 N 
HETATM   18  C1  UNL     1      22.599 -16.066  25.646  1.00  0.00     0.149 C 
HETATM   19  C2  UNL     1      21.737 -13.780  25.271  1.00  0.00     0.149 C 
ENDBRANCH  13  17
ENDBRANCH   4   7
ENDBRANCH   2   4
ENDBRANCH   1   2
BRANCH   1  20
HETATM   20  C10 UNL     1      14.042 -15.510  20.364  1.00  0.00     0.037 C 
BRANCH  20  21
HETATM   21  C11 UNL     1      12.870 -15.235  21.229  1.00  0.00     0.022 C 
BRANCH  21  22
HETATM   22  C12 UNL     1      12.157 -13.941  21.007  1.00  0.00     0.122 C 
BRANCH  22  23
HETATM   23  N3  UNL     1      11.769 -13.224  22.196  1.00  0.00    -0.367 N 
HETATM   24  C13 UNL     1      12.341 -12.266  22.778  1.00  0.00     0.196 C 
HETATM   25  N4  UNL     1      11.712 -11.731  23.979  1.00  0.00    -0.067 NA
HETATM   26  N5  UNL     1      13.536 -11.654  22.387  1.00  0.00    -0.067 NA
ATOM     27  H3  UNL     1      10.902 -13.540  22.631  1.00  0.00     0.161 HD
ENDBRANCH  22  23
ENDBRANCH  21  22
ENDBRANCH  20  21
ENDBRANCH   1  20
BRANCH   1  28
HETATM   28  C14 UNL     1      16.156 -14.412  21.196  1.00  0.00     0.247 C 
HETATM   29  O3  UNL     1      16.064 -13.946  22.398  1.00  0.00    -0.271 OA
HETATM   30  N6  UNL     1      16.985 -13.659  20.325  1.00  0.00    -0.324 N 
HETATM   31  C15 UNL     1      17.581 -12.413  20.816  1.00  0.00     0.131 C 
HETATM   32  C19 UNL     1      17.299 -14.082  19.003  1.00  0.00    -0.008 C 
HETATM   33  C16 UNL     1      19.064 -12.519  20.728  1.00  0.00     0.021 C 
HETATM   34  C17 UNL     1      19.574 -13.662  19.943  1.00  0.00     0.007 C 
HETATM   35  C18 UNL     1      18.794 -14.003  18.723  1.00  0.00     0.053 C 
BRANCH  32  36
HETATM   36  C20 UNL     1      16.441 -13.641  17.889  1.00  0.00     0.060 C 
BRANCH  36  37
HETATM   37  C21 UNL     1      16.598 -12.310  17.286  1.00  0.00     0.091 C 
BRANCH  37  38
HETATM   38  C22 UNL     1      15.759 -11.954  16.148  1.00  0.00     0.183 C 
HETATM   39  O4  UNL     1      14.645 -11.390  16.276  1.00  0.00    -0.290 OA
BRANCH  38  40
HETATM   40  C23 UNL     1      16.192 -12.246  14.754  1.00  0.00     0.120 A 
HETATM   41  N7  UNL     1      16.126 -11.391  13.748  1.00  0.00    -0.357 N 
HETATM   42  C24 UNL     1      16.537 -11.755  12.571  1.00  0.00     0.096 A 
ATOM     43  H7  UNL     1      15.755 -10.452  13.895  1.00  0.00     0.166 HD
HETATM   44  C25 UNL     1      17.026 -13.029  12.434  1.00  0.00     0.069 A 
HETATM   45  S2  UNL     1      16.859 -13.627  14.028  1.00  0.00    -0.079 SA
ENDBRANCH  38  40
ENDBRANCH  37  38
ENDBRANCH  36  37
ENDBRANCH  32  36
ENDBRANCH   1  28
TORSDOF 13
ENDMDL
