MODEL 4
REMARK VINA RESULT: -8.398709314      2.571      5.806
REMARK  13 active torsions:
REMARK  status: ('A' for Active; 'I' for Inactive)
REMARK    1  A    between atoms: N1_2  and  C3_4 
REMARK    2  A    between atoms: C8_9  and  S1_10 
REMARK    3  A    between atoms: S1_10  and  N2_13 
REMARK    4  A    between atoms: N2_13  and  C9_15 
REMARK    5  A    between atoms: C9_15  and  C10_16 
REMARK    6  A    between atoms: C9_15  and  C14_24 
REMARK    7  A    between atoms: C10_16  and  C11_17 
REMARK    8  A    between atoms: C11_17  and  C12_18 
REMARK    9  A    between atoms: C12_18  and  N3_19 
REMARK       I    between atoms: C14_24  and  N6_26 
REMARK   10  A    between atoms: C19_31  and  C20_32 
REMARK   11  A    between atoms: C20_32  and  C21_33 
REMARK   12  A    between atoms: C21_33  and  C22_34 
REMARK   13  A    between atoms: C22_34  and  C23_36 
ROOT
HETATM    1  C9  UNL     1      17.831 -14.146  21.317  1.00  0.00     0.185 C 
ENDROOT
BRANCH   1   2
HETATM    2  N2  UNL     1      18.295 -15.451  20.735  1.00  0.00    -0.302 N 
ATOM      3  H2  UNL     1      18.940 -15.538  19.950  1.00  0.00     0.173 HD
BRANCH   2   4
HETATM    4  S1  UNL     1      17.591 -16.778  21.572  1.00  0.00     0.260 S 
HETATM    5  O1  UNL     1      17.169 -17.829  20.589  1.00  0.00    -0.200 OA
HETATM    6  O2  UNL     1      16.373 -16.367  22.345  1.00  0.00    -0.200 OA
BRANCH   4   7
HETATM    7  C8  UNL     1      18.835 -17.449  22.614  1.00  0.00     0.090 A 
HETATM    8  C7  UNL     1      18.958 -17.103  23.951  1.00  0.00    -0.000 A 
HETATM    9  C6  UNL     1      18.066 -16.206  24.456  1.00  0.00     0.014 A 
HETATM   10  C29 UNL     1      19.956 -17.647  24.767  1.00  0.00     0.002 A 
HETATM   11  C5  UNL     1      18.157 -15.839  25.782  1.00  0.00     0.003 A 
HETATM   12  C4  UNL     1      19.138 -16.374  26.583  1.00  0.00     0.030 A 
HETATM   13  C3  UNL     1      20.064 -17.290  26.099  1.00  0.00     0.040 A 
HETATM   14  C28 UNL     1      20.845 -18.551  24.245  1.00  0.00     0.014 A 
HETATM   15  C27 UNL     1      20.746 -18.911  22.928  1.00  0.00     0.003 A 
HETATM   16  C26 UNL     1      19.764 -18.370  22.135  1.00  0.00     0.026 A 
BRANCH  13  17
HETATM   17  N1  UNL     1      21.077 -17.815  26.957  1.00  0.00    -0.389 N 
HETATM   18  C1  UNL     1      20.943 -19.046  27.705  1.00  0.00     0.149 C 
HETATM   19  C2  UNL     1      22.308 -17.080  27.088  1.00  0.00     0.149 C 
ENDBRANCH  13  17
ENDBRANCH   4   7
ENDBRANCH   2   4
ENDBRANCH   1   2
BRANCH   1  20
HETATM   20  C10 UNL     1      18.978 -13.626  22.114  1.00  0.00     0.037 C 
BRANCH  20  21
HETATM   21  C11 UNL     1      20.365 -14.035  21.786  1.00  0.00     0.022 C 
BRANCH  21  22
HETATM   22  C12 UNL     1      21.195 -14.563  22.910  1.00  0.00     0.122 C 
BRANCH  22  23
HETATM   23  N3  UNL     1      20.876 -14.055  24.221  1.00  0.00    -0.367 N 
HETATM   24  C13 UNL     1      21.638 -13.810  25.193  1.00  0.00     0.196 C 
HETATM   25  N4  UNL     1      21.031 -13.296  26.414  1.00  0.00    -0.067 NA
HETATM   26  N5  UNL     1      23.025 -13.984  25.224  1.00  0.00    -0.067 NA
ATOM     27  H3  UNL     1      19.888 -13.866  24.386  1.00  0.00     0.161 HD
ENDBRANCH  22  23
ENDBRANCH  21  22
ENDBRANCH  20  21
ENDBRANCH   1  20
BRANCH   1  28
HETATM   28  C14 UNL     1      17.389 -13.376  20.170  1.00  0.00     0.247 C 
HETATM   29  O3  UNL     1      18.237 -12.498  19.748  1.00  0.00    -0.271 OA
HETATM   30  N6  UNL     1      16.179 -13.442  19.432  1.00  0.00    -0.324 N 
HETATM   31  C15 UNL     1      15.961 -12.487  18.342  1.00  0.00     0.131 C 
HETATM   32  C19 UNL     1      15.180 -14.426  19.676  1.00  0.00    -0.008 C 
HETATM   33  C16 UNL     1      15.763 -13.238  17.072  1.00  0.00     0.021 C 
HETATM   34  C17 UNL     1      15.549 -14.692  17.221  1.00  0.00     0.007 C 
HETATM   35  C18 UNL     1      14.726 -15.104  18.390  1.00  0.00     0.053 C 
BRANCH  32  36
HETATM   36  C20 UNL     1      14.095 -14.122  20.626  1.00  0.00     0.060 C 
BRANCH  36  37
HETATM   37  C21 UNL     1      12.954 -13.281  20.238  1.00  0.00     0.091 C 
BRANCH  37  38
HETATM   38  C22 UNL     1      12.979 -11.864  20.580  1.00  0.00     0.183 C 
HETATM   39  O4  UNL     1      13.344 -10.976  19.771  1.00  0.00    -0.290 OA
BRANCH  38  40
HETATM   40  C23 UNL     1      12.566 -11.394  21.930  1.00  0.00     0.120 A 
HETATM   41  N7  UNL     1      12.978 -10.273  22.499  1.00  0.00    -0.357 N 
HETATM   42  C24 UNL     1      12.547  -9.960  23.683  1.00  0.00     0.096 A 
ATOM     43  H7  UNL     1      13.630  -9.659  22.010  1.00  0.00     0.166 HD
HETATM   44  C25 UNL     1      11.671 -10.824  24.290  1.00  0.00     0.069 A 
HETATM   45  S2  UNL     1      11.525 -12.045  23.101  1.00  0.00    -0.079 SA
ENDBRANCH  38  40
ENDBRANCH  37  38
ENDBRANCH  36  37
ENDBRANCH  32  36
ENDBRANCH   1  28
TORSDOF 13
ENDMDL
