MODEL 7
REMARK VINA RESULT: -7.213310439      5.471      9.401
REMARK  5 active torsions:
REMARK  status: ('A' for Active; 'I' for Inactive)
REMARK    1  A    between atoms: C4_9  and  C5_10 
REMARK    2  A    between atoms: C6_12  and  C7_13 
REMARK    3  A    between atoms: C7_13  and  O3_14 
REMARK    4  A    between atoms: C8_16  and  O4_17 
REMARK    5  A    between atoms: C9_19  and  O5_20 
ROOT
HETATM    1  O1  UNL     1     -17.232  73.559  65.653  1.00  0.00    -0.266 OA
HETATM    2  C1  UNL     1     -18.248  72.907  65.334  1.00  0.00     0.276 A 
HETATM    3  N1  UNL     1     -18.391  71.616  65.669  1.00  0.00    -0.318 N 
ATOM      4  H1  UNL     1     -17.656  71.148  66.201  1.00  0.00     0.169 HD
HETATM    5  C2  UNL     1     -19.506  70.924  65.308  1.00  0.00     0.184 A 
HETATM    6  N2  UNL     1     -20.480  71.525  64.612  1.00  0.00    -0.349 N 
ATOM      7  H2  UNL     1     -21.309  70.996  64.342  1.00  0.00     0.167 HD
HETATM    8  C3  UNL     1     -20.372  72.828  64.264  1.00  0.00     0.094 A 
HETATM    9  C4  UNL     1     -21.293  73.680  63.640  1.00  0.00     0.086 A 
HETATM   10  N3  UNL     1     -20.707  74.877  63.630  1.00  0.00    -0.299 N 
ATOM     11  H3  UNL     1     -21.116  75.729  63.244  1.00  0.00     0.186 HD
HETATM   12  N4  UNL     1     -19.478  74.792  64.216  1.00  0.00    -0.293 N 
ATOM     13  H4  UNL     1     -18.828  75.569  64.333  1.00  0.00     0.187 HD
HETATM   14  C10 UNL     1     -19.258  73.547  64.611  1.00  0.00     0.145 A 
ENDROOT
BRANCH   9  15
HETATM   15  C5  UNL     1     -22.499  73.247  63.001  1.00  0.00     0.207 C 
HETATM   16  O2  UNL     1     -22.928  74.288  62.076  1.00  0.00    -0.367 OA
HETATM   17  C6  UNL     1     -24.283  74.318  62.032  1.00  0.00     0.177 C 
HETATM   18  C8  UNL     1     -24.780  73.134  62.867  1.00  0.00     0.180 C 
HETATM   19  C9  UNL     1     -23.709  73.310  63.955  1.00  0.00     0.184 C 
BRANCH  17  20
HETATM   20  C7  UNL     1     -24.844  75.547  62.688  1.00  0.00     0.198 C 
BRANCH  20  21
HETATM   21  O3  UNL     1     -26.038  75.908  62.015  1.00  0.00    -0.398 OA
ATOM     22  H3  UNL     1     -25.979  76.824  61.773  1.00  0.00     0.209 HD
ENDBRANCH  20  21
ENDBRANCH  17  20
BRANCH  18  23
HETATM   23  O4  UNL     1     -24.440  71.999  62.139  1.00  0.00    -0.390 OA
ATOM     24  H4  UNL     1     -23.531  71.824  62.353  1.00  0.00     0.210 HD
ENDBRANCH  18  23
BRANCH  19  25
HETATM   25  O5  UNL     1     -23.667  72.176  64.789  1.00  0.00    -0.390 OA
ATOM     26  H5  UNL     1     -24.021  71.440  64.304  1.00  0.00     0.210 HD
ENDBRANCH  19  25
ENDBRANCH   9  15
TORSDOF 5
ENDMDL
