MODEL 10
REMARK VINA RESULT: -7.001940207      6.382      9.527
REMARK  5 active torsions:
REMARK  status: ('A' for Active; 'I' for Inactive)
REMARK    1  A    between atoms: C4_9  and  C5_10 
REMARK    2  A    between atoms: C6_12  and  C7_13 
REMARK    3  A    between atoms: C7_13  and  O3_14 
REMARK    4  A    between atoms: C8_16  and  O4_17 
REMARK    5  A    between atoms: C9_19  and  O5_20 
ROOT
HETATM    1  O1  UNL     1     -17.813  74.664  64.626  1.00  0.00    -0.266 OA
HETATM    2  C1  UNL     1     -18.722  73.817  64.506  1.00  0.00     0.276 A 
HETATM    3  N1  UNL     1     -18.526  72.525  64.807  1.00  0.00    -0.318 N 
ATOM      4  H1  UNL     1     -17.614  72.218  65.145  1.00  0.00     0.169 HD
HETATM    5  C2  UNL     1     -19.532  71.619  64.666  1.00  0.00     0.184 A 
HETATM    6  N2  UNL     1     -20.736  72.006  64.225  1.00  0.00    -0.349 N 
ATOM      7  H2  UNL     1     -21.482  71.319  64.118  1.00  0.00     0.167 HD
HETATM    8  C3  UNL     1     -20.970  73.304  63.920  1.00  0.00     0.094 A 
HETATM    9  C4  UNL     1     -22.159  73.948  63.550  1.00  0.00     0.086 A 
HETATM   10  N3  UNL     1     -21.841  75.240  63.466  1.00  0.00    -0.299 N 
ATOM     11  H3  UNL     1     -22.487  75.990  63.215  1.00  0.00     0.186 HD
HETATM   12  N4  UNL     1     -20.521  75.409  63.767  1.00  0.00    -0.293 N 
ATOM     13  H4  UNL     1     -20.029  76.303  63.774  1.00  0.00     0.187 HD
HETATM   14  C10 UNL     1     -19.974  74.236  64.049  1.00  0.00     0.145 A 
ENDROOT
BRANCH   9  15
HETATM   15  C5  UNL     1     -23.364  73.277  63.169  1.00  0.00     0.207 C 
HETATM   16  O2  UNL     1     -24.203  74.219  62.438  1.00  0.00    -0.367 OA
HETATM   17  C6  UNL     1     -25.507  73.955  62.701  1.00  0.00     0.177 C 
HETATM   18  C8  UNL     1     -25.540  72.675  63.543  1.00  0.00     0.180 C 
HETATM   19  C9  UNL     1     -24.304  73.058  64.372  1.00  0.00     0.184 C 
BRANCH  17  20
HETATM   20  C7  UNL     1     -26.140  75.020  63.551  1.00  0.00     0.198 C 
BRANCH  20  21
HETATM   21  O3  UNL     1     -25.420  76.227  63.365  1.00  0.00    -0.398 OA
ATOM     22  H3  UNL     1     -25.288  76.630  64.214  1.00  0.00     0.209 HD
ENDBRANCH  20  21
ENDBRANCH  17  20
BRANCH  18  23
HETATM   23  O4  UNL     1     -25.153  71.656  62.680  1.00  0.00    -0.390 OA
ATOM     24  H4  UNL     1     -25.595  70.876  62.995  1.00  0.00     0.210 HD
ENDBRANCH  18  23
BRANCH  19  25
HETATM   25  O5  UNL     1     -23.835  71.944  65.095  1.00  0.00    -0.390 OA
ATOM     26  H5  UNL     1     -24.432  71.789  65.817  1.00  0.00     0.210 HD
ENDBRANCH  19  25
ENDBRANCH   9  15
TORSDOF 5
ENDMDL
