MODEL 8
REMARK VINA RESULT: -7.196594736      1.605      2.770
REMARK  5 active torsions:
REMARK  status: ('A' for Active; 'I' for Inactive)
REMARK    1  A    between atoms: C4_9  and  C5_10 
REMARK    2  A    between atoms: C6_12  and  C7_13 
REMARK    3  A    between atoms: C7_13  and  O3_14 
REMARK    4  A    between atoms: C8_16  and  O4_17 
REMARK    5  A    between atoms: C9_19  and  O5_20 
ROOT
HETATM    1  O1  UNL     1     -19.887  71.941  63.718  1.00  0.00    -0.266 OA
HETATM    2  C1  UNL     1     -19.188  71.859  64.749  1.00  0.00     0.276 A 
HETATM    3  N1  UNL     1     -18.193  72.724  64.997  1.00  0.00    -0.318 N 
ATOM      4  H1  UNL     1     -17.997  73.472  64.332  1.00  0.00     0.169 HD
HETATM    5  C2  UNL     1     -17.441  72.612  66.126  1.00  0.00     0.184 A 
HETATM    6  N2  UNL     1     -17.687  71.637  67.011  1.00  0.00    -0.349 N 
ATOM      7  H2  UNL     1     -17.116  71.559  67.851  1.00  0.00     0.167 HD
HETATM    8  C3  UNL     1     -18.689  70.753  66.796  1.00  0.00     0.094 A 
HETATM    9  C4  UNL     1     -19.190  69.733  67.616  1.00  0.00     0.086 A 
HETATM   10  N3  UNL     1     -20.238  69.240  66.956  1.00  0.00    -0.299 N 
ATOM     11  H3  UNL     1     -20.833  68.478  67.282  1.00  0.00     0.186 HD
HETATM   12  N4  UNL     1     -20.395  69.910  65.778  1.00  0.00    -0.293 N 
ATOM     13  H4  UNL     1     -21.123  69.723  65.088  1.00  0.00     0.187 HD
HETATM   14  C10 UNL     1     -19.459  70.839  65.665  1.00  0.00     0.145 A 
ENDROOT
BRANCH   9  15
HETATM   15  C5  UNL     1     -18.548  69.251  68.801  1.00  0.00     0.207 C 
HETATM   16  O2  UNL     1     -19.311  69.707  69.955  1.00  0.00    -0.367 OA
HETATM   17  C6  UNL     1     -18.463  69.948  70.986  1.00  0.00     0.177 C 
HETATM   18  C8  UNL     1     -17.073  69.491  70.533  1.00  0.00     0.180 C 
HETATM   19  C9  UNL     1     -17.245  70.019  69.101  1.00  0.00     0.184 C 
BRANCH  17  20
HETATM   20  C7  UNL     1     -18.335  71.416  71.282  1.00  0.00     0.198 C 
BRANCH  20  21
HETATM   21  O3  UNL     1     -19.516  72.065  70.843  1.00  0.00    -0.398 OA
ATOM     22  H3  UNL     1     -19.282  72.683  70.162  1.00  0.00     0.209 HD
ENDBRANCH  20  21
ENDBRANCH  17  20
BRANCH  18  23
HETATM   23  O4  UNL     1     -17.143  68.103  70.468  1.00  0.00    -0.390 OA
ATOM     24  H4  UNL     1     -16.283  67.794  70.725  1.00  0.00     0.210 HD
ENDBRANCH  18  23
BRANCH  19  25
HETATM   25  O5  UNL     1     -16.233  69.507  68.265  1.00  0.00    -0.390 OA
ATOM     26  H5  UNL     1     -16.528  69.581  67.365  1.00  0.00     0.210 HD
ENDBRANCH  19  25
ENDBRANCH   9  15
TORSDOF 5
ENDMDL
