MODEL 5
REMARK VINA RESULT: -7.572843144      2.488      6.033
REMARK  5 active torsions:
REMARK  status: ('A' for Active; 'I' for Inactive)
REMARK    1  A    between atoms: C4_9  and  C5_10 
REMARK    2  A    between atoms: C6_12  and  C7_13 
REMARK    3  A    between atoms: C7_13  and  O3_14 
REMARK    4  A    between atoms: C8_16  and  O4_17 
REMARK    5  A    between atoms: C9_19  and  O5_20 
ROOT
HETATM    1  O1  UNL     1     -15.547  70.260  73.806  1.00  0.00    -0.266 OA
HETATM    2  C1  UNL     1     -16.180  69.529  73.017  1.00  0.00     0.276 A 
HETATM    3  N1  UNL     1     -16.353  68.220  73.254  1.00  0.00    -0.318 N 
ATOM      4  H1  UNL     1     -15.963  67.804  74.100  1.00  0.00     0.169 HD
HETATM    5  C2  UNL     1     -17.044  67.441  72.378  1.00  0.00     0.184 A 
HETATM    6  N2  UNL     1     -17.565  67.972  71.264  1.00  0.00    -0.349 N 
ATOM      7  H2  UNL     1     -18.077  67.379  70.611  1.00  0.00     0.167 HD
HETATM    8  C3  UNL     1     -17.416  69.291  70.998  1.00  0.00     0.094 A 
HETATM    9  C4  UNL     1     -17.954  70.074  69.968  1.00  0.00     0.086 A 
HETATM   10  N3  UNL     1     -17.566  71.320  70.241  1.00  0.00    -0.299 N 
ATOM     11  H3  UNL     1     -17.792  72.143  69.681  1.00  0.00     0.186 HD
HETATM   12  N4  UNL     1     -16.821  71.328  71.384  1.00  0.00    -0.293 N 
ATOM     13  H4  UNL     1     -16.404  72.157  71.808  1.00  0.00     0.187 HD
HETATM   14  C10 UNL     1     -16.721  70.097  71.861  1.00  0.00     0.145 A 
ENDROOT
BRANCH   9  15
HETATM   15  C5  UNL     1     -18.603  69.554  68.803  1.00  0.00     0.207 C 
HETATM   16  O2  UNL     1     -17.789  69.881  67.639  1.00  0.00    -0.367 OA
HETATM   17  C6  UNL     1     -18.599  70.105  66.575  1.00  0.00     0.177 C 
HETATM   18  C8  UNL     1     -20.024  69.767  67.023  1.00  0.00     0.180 C 
HETATM   19  C9  UNL     1     -19.847  70.380  68.421  1.00  0.00     0.184 C 
BRANCH  17  20
HETATM   20  C7  UNL     1     -18.626  71.554  66.178  1.00  0.00     0.198 C 
BRANCH  20  21
HETATM   21  O3  UNL     1     -17.382  72.136  66.528  1.00  0.00    -0.398 OA
ATOM     22  H3  UNL     1     -17.418  73.063  66.324  1.00  0.00     0.209 HD
ENDBRANCH  20  21
ENDBRANCH  17  20
BRANCH  18  23
HETATM   23  O4  UNL     1     -20.044  68.386  67.182  1.00  0.00    -0.390 OA
ATOM     24  H4  UNL     1     -20.200  68.240  68.107  1.00  0.00     0.210 HD
ENDBRANCH  18  23
BRANCH  19  25
HETATM   25  O5  UNL     1     -20.906  69.991  69.263  1.00  0.00    -0.390 OA
ATOM     26  H5  UNL     1     -21.699  70.414  68.956  1.00  0.00     0.210 HD
ENDBRANCH  19  25
ENDBRANCH   9  15
TORSDOF 5
ENDMDL
