MODEL 2
REMARK VINA RESULT: -8.069611099      1.125      2.351
REMARK  5 active torsions:
REMARK  status: ('A' for Active; 'I' for Inactive)
REMARK    1  A    between atoms: C4_9  and  C5_10 
REMARK    2  A    between atoms: C6_12  and  C7_13 
REMARK    3  A    between atoms: C7_13  and  O3_14 
REMARK    4  A    between atoms: C8_16  and  O4_17 
REMARK    5  A    between atoms: C9_19  and  O5_20 
ROOT
HETATM    1  O1  UNL     1     -19.681  70.729  64.668  1.00  0.00    -0.266 OA
HETATM    2  C1  UNL     1     -19.065  70.960  65.730  1.00  0.00     0.276 A 
HETATM    3  N1  UNL     1     -18.145  71.932  65.814  1.00  0.00    -0.318 N 
ATOM      4  H1  UNL     1     -17.939  72.505  64.995  1.00  0.00     0.169 HD
HETATM    5  C2  UNL     1     -17.484  72.163  66.981  1.00  0.00     0.184 A 
HETATM    6  N2  UNL     1     -17.745  71.421  68.066  1.00  0.00    -0.349 N 
ATOM      7  H2  UNL     1     -17.241  71.599  68.934  1.00  0.00     0.167 HD
HETATM    8  C3  UNL     1     -18.673  70.438  68.018  1.00  0.00     0.094 A 
HETATM    9  C4  UNL     1     -19.181  69.619  69.036  1.00  0.00     0.086 A 
HETATM   10  N3  UNL     1     -20.140  68.898  68.455  1.00  0.00    -0.299 N 
ATOM     11  H3  UNL     1     -20.715  68.198  68.924  1.00  0.00     0.186 HD
HETATM   12  N4  UNL     1     -20.238  69.241  67.138  1.00  0.00    -0.293 N 
ATOM     13  H4  UNL     1     -20.895  68.834  66.472  1.00  0.00     0.187 HD
HETATM   14  C10 UNL     1     -19.351  70.181  66.854  1.00  0.00     0.145 A 
ENDROOT
BRANCH   9  15
HETATM   15  C5  UNL     1     -18.610  69.497  70.343  1.00  0.00     0.207 C 
HETATM   16  O2  UNL     1     -18.740  70.780  71.022  1.00  0.00    -0.367 OA
HETATM   17  C6  UNL     1     -17.671  70.966  71.835  1.00  0.00     0.177 C 
HETATM   18  C8  UNL     1     -16.856  69.670  71.800  1.00  0.00     0.180 C 
HETATM   19  C9  UNL     1     -17.071  69.446  70.295  1.00  0.00     0.184 C 
BRANCH  17  20
HETATM   20  C7  UNL     1     -16.753  72.041  71.325  1.00  0.00     0.198 C 
BRANCH  20  21
HETATM   21  O3  UNL     1     -15.644  72.135  72.202  1.00  0.00    -0.398 OA
ATOM     22  H3  UNL     1     -15.884  72.697  72.929  1.00  0.00     0.209 HD
ENDBRANCH  20  21
ENDBRANCH  17  20
BRANCH  18  23
HETATM   23  O4  UNL     1     -17.631  68.728  72.469  1.00  0.00    -0.390 OA
ATOM     24  H4  UNL     1     -17.457  67.903  72.033  1.00  0.00     0.210 HD
ENDBRANCH  18  23
BRANCH  19  25
HETATM   25  O5  UNL     1     -16.687  68.139  69.936  1.00  0.00    -0.390 OA
ATOM     26  H5  UNL     1     -16.602  68.106  68.990  1.00  0.00     0.210 HD
ENDBRANCH  19  25
ENDBRANCH   9  15
TORSDOF 5
ENDMDL
