MODEL 7
REMARK VINA RESULT: -4.347305094      1.048      3.551
REMARK  5 active torsions:
REMARK  status: ('A' for Active; 'I' for Inactive)
REMARK    1  A    between atoms: N1_1  and  C1_5 
REMARK    2  A    between atoms: C1_5  and  C2_6 
REMARK    3  A    between atoms: C2_6  and  C3_7 
REMARK    4  A    between atoms: C3_7  and  C4_8 
REMARK    5  A    between atoms: C4_8  and  N2_9 
ROOT
HETATM    1  C2  UNL     1     183.411   8.344  63.382  1.00  0.00     0.029 C 
ENDROOT
BRANCH   1   2
HETATM    2  C1  UNL     1     184.515   7.560  64.033  1.00  0.00     0.229 C 
BRANCH   2   3
HETATM    3  N1  UNL     1     183.933   6.515  64.854  1.00  0.00    -0.079 N 
ATOM      4  H13 UNL     1     183.943   6.750  65.847  1.00  0.00     0.274 HD
ATOM      5  H12 UNL     1     182.922   6.444  64.734  1.00  0.00     0.274 HD
ATOM      6  H11 UNL     1     184.409   5.634  64.660  1.00  0.00     0.274 HD
ENDBRANCH   2   3
ENDBRANCH   1   2
BRANCH   1   7
HETATM    7  C3  UNL     1     182.957   7.633  62.152  1.00  0.00     0.029 C 
BRANCH   7   8
HETATM    8  C4  UNL     1     184.067   7.232  61.233  1.00  0.00     0.229 C 
BRANCH   8   9
HETATM    9  N2  UNL     1     183.525   6.577  60.034  1.00  0.00    -0.079 N 
ATOM     10  H23 UNL     1     182.856   5.844  60.270  1.00  0.00     0.274 HD
ATOM     11  H22 UNL     1     182.898   7.192  59.514  1.00  0.00     0.274 HD
ATOM     12  H21 UNL     1     184.283   6.225  59.449  1.00  0.00     0.274 HD
ENDBRANCH   8   9
ENDBRANCH   7   8
ENDBRANCH   1   7
TORSDOF 5
ENDMDL
