MODEL 14
REMARK VINA RESULT: -3.206620022      7.696      8.858
REMARK  5 active torsions:
REMARK  status: ('A' for Active; 'I' for Inactive)
REMARK    1  A    between atoms: N1_1  and  C1_5 
REMARK    2  A    between atoms: C1_5  and  C2_6 
REMARK    3  A    between atoms: C2_6  and  C3_7 
REMARK    4  A    between atoms: C3_7  and  C4_8 
REMARK    5  A    between atoms: C4_8  and  N2_9 
ROOT
HETATM    1  C2  UNL     1     191.303   7.908  64.838  1.00  0.00     0.029 C 
ENDROOT
BRANCH   1   2
HETATM    2  C1  UNL     1     192.708   7.733  65.344  1.00  0.00     0.229 C 
BRANCH   2   3
HETATM    3  N1  UNL     1     192.669   7.487  66.774  1.00  0.00    -0.079 N 
ATOM      4  H13 UNL     1     193.481   6.961  67.099  1.00  0.00     0.274 HD
ATOM      5  H12 UNL     1     192.820   8.336  67.318  1.00  0.00     0.274 HD
ATOM      6  H11 UNL     1     191.790   7.026  67.009  1.00  0.00     0.274 HD
ENDBRANCH   2   3
ENDBRANCH   1   2
BRANCH   1   7
HETATM    7  C3  UNL     1     191.220   7.425  63.430  1.00  0.00     0.029 C 
BRANCH   7   8
HETATM    8  C4  UNL     1     192.549   7.248  62.765  1.00  0.00     0.229 C 
BRANCH   8   9
HETATM    9  N2  UNL     1     192.385   6.575  61.468  1.00  0.00    -0.079 N 
ATOM     10  H23 UNL     1     193.187   5.987  61.241  1.00  0.00     0.274 HD
ATOM     11  H22 UNL     1     191.670   5.848  61.505  1.00  0.00     0.274 HD
ATOM     12  H21 UNL     1     192.195   7.259  60.736  1.00  0.00     0.274 HD
ENDBRANCH   8   9
ENDBRANCH   7   8
ENDBRANCH   1   7
TORSDOF 5
ENDMDL
