MODEL 5
REMARK VINA RESULT: -8.623788979      3.591     10.585
REMARK  20 active torsions:
REMARK  status: ('A' for Active; 'I' for Inactive)
REMARK       I    between atoms: C2_2  and  N1_4 
REMARK    1  A    between atoms: N1_4  and  C3_6 
REMARK    2  A    between atoms: C3_6  and  C4_7 
REMARK    3  A    between atoms: C3_6  and  C11_14 
REMARK    4  A    between atoms: C4_7  and  C5_8 
REMARK    5  A    between atoms: C11_14  and  O2_15 
REMARK    6  A    between atoms: C11_14  and  C12_17 
REMARK    7  A    between atoms: C12_17  and  C13_18 
REMARK    8  A    between atoms: C13_18  and  C14_19 
REMARK    9  A    between atoms: C13_18  and  C26_45 
REMARK       I    between atoms: C14_19  and  N2_21 
REMARK   10  A    between atoms: N2_21  and  C15_23 
REMARK   11  A    between atoms: C15_23  and  C16_24 
REMARK   12  A    between atoms: C15_23  and  C19_29 
REMARK   13  A    between atoms: C16_24  and  C17_25 
REMARK   14  A    between atoms: C17_25  and  C18_26 
REMARK       I    between atoms: C19_29  and  N4_31 
REMARK   15  A    between atoms: N4_31  and  C20_33 
REMARK   16  A    between atoms: C20_33  and  C21_34 
REMARK   17  A    between atoms: C20_33  and  C25_42 
REMARK   18  A    between atoms: C21_34  and  C22_35 
REMARK   19  A    between atoms: C22_35  and  C23_36 
REMARK   20  A    between atoms: C23_36  and  N5_37 
ROOT
HETATM    1  C14 UNL     1      41.718  20.967  65.297  1.00  0.00     0.248 C 
HETATM    2  O3  UNL     1      41.452  21.431  64.113  1.00  0.00    -0.268 OA
HETATM    3  N2  UNL     1      42.918  21.415  65.877  1.00  0.00    -0.344 N 
ATOM      4  H2  UNL     1      43.149  21.099  66.819  1.00  0.00     0.163 HD
ENDROOT
BRANCH   3   5
HETATM    5  C15 UNL     1      43.834  22.294  65.207  1.00  0.00     0.177 C 
BRANCH   5   6
HETATM    6  C16 UNL     1      44.508  23.289  66.039  1.00  0.00     0.043 C 
BRANCH   6   7
HETATM    7  C17 UNL     1      45.843  22.993  66.612  1.00  0.00     0.102 C 
BRANCH   7   8
HETATM    8  C18 UNL     1      46.688  24.142  66.892  1.00  0.00     0.231 C 
HETATM    9  N3  UNL     1      46.186  25.456  66.948  1.00  0.00    -0.062 NA
HETATM   10  O4  UNL     1      47.905  23.937  67.093  1.00  0.00    -0.277 OA
ENDBRANCH   7   8
ENDBRANCH   6   7
ENDBRANCH   5   6
BRANCH   5  11
HETATM   11  C19 UNL     1      44.786  21.496  64.372  1.00  0.00     0.241 C 
HETATM   12  O5  UNL     1      44.992  20.285  64.636  1.00  0.00    -0.271 OA
HETATM   13  N4  UNL     1      45.477  22.061  63.275  1.00  0.00    -0.346 N 
ATOM     14  H4  UNL     1      45.323  23.042  63.039  1.00  0.00     0.163 HD
BRANCH  13  15
HETATM   15  C20 UNL     1      46.417  21.260  62.463  1.00  0.00     0.173 C 
BRANCH  15  16
HETATM   16  C21 UNL     1      46.289  21.641  61.023  1.00  0.00     0.036 C 
BRANCH  16  17
HETATM   17  C22 UNL     1      46.077  23.087  60.746  1.00  0.00     0.022 C 
BRANCH  17  18
HETATM   18  C23 UNL     1      47.380  23.768  60.314  1.00  0.00     0.122 C 
BRANCH  18  19
HETATM   19  N5  UNL     1      47.881  24.609  61.382  1.00  0.00    -0.367 N 
HETATM   20  C24 UNL     1      49.127  24.848  61.515  1.00  0.00     0.196 C 
HETATM   21  N6  UNL     1      49.536  25.689  62.599  1.00  0.00    -0.067 NA
HETATM   22  N7  UNL     1      50.105  24.328  60.653  1.00  0.00    -0.067 NA
ATOM     23  H5  UNL     1      47.222  25.018  62.043  1.00  0.00     0.161 HD
ENDBRANCH  18  19
ENDBRANCH  17  18
ENDBRANCH  16  17
ENDBRANCH  15  16
BRANCH  15  24
HETATM   24  C25 UNL     1      47.767  21.646  62.990  1.00  0.00     0.254 C 
HETATM   25  N8  UNL     1      48.921  20.967  62.490  1.00  0.00    -0.060 NA
HETATM   26  O6  UNL     1      47.942  22.533  63.853  1.00  0.00    -0.275 OA
ENDBRANCH  15  24
ENDBRANCH  13  15
ENDBRANCH   5  11
ENDBRANCH   3   5
BRANCH   1  27
HETATM   27  C13 UNL     1      40.786  20.031  65.920  1.00  0.00     0.014 C 
BRANCH  27  28
HETATM   28  C12 UNL     1      41.140  18.648  65.512  1.00  0.00     0.078 C 
BRANCH  28  29
HETATM   29  C11 UNL     1      40.375  17.937  64.494  1.00  0.00     0.145 C 
BRANCH  29  30
HETATM   30  C3  UNL     1      39.148  17.181  64.919  1.00  0.00     0.113 C 
BRANCH  30  31
HETATM   31  N1  UNL     1      38.200  18.027  65.619  1.00  0.00    -0.354 N 
HETATM   32  C2  UNL     1      37.594  17.591  66.829  1.00  0.00     0.214 C 
HETATM   33  C1  UNL     1      36.614  18.430  67.577  1.00  0.00     0.117 C 
HETATM   34  O1  UNL     1      37.910  16.456  67.266  1.00  0.00    -0.274 OA
ATOM     35  H1  UNL     1      37.966  18.945  65.239  1.00  0.00     0.162 HD
ENDBRANCH  30  31
BRANCH  30  36
HETATM   36  C4  UNL     1      38.597  16.433  63.762  1.00  0.00     0.032 C 
BRANCH  36  37
HETATM   37  C5  UNL     1      39.359  15.275  63.240  1.00  0.00    -0.013 C 
HETATM   38  C6  UNL     1      40.245  15.517  62.073  1.00  0.00     0.005 C 
HETATM   39  C7  UNL     1      40.248  14.247  61.210  1.00  0.00     0.000 C 
HETATM   40  C8  UNL     1      38.945  14.158  60.482  1.00  0.00     0.000 C 
HETATM   41  C9  UNL     1      37.823  14.493  61.428  1.00  0.00     0.000 C 
HETATM   42  C10 UNL     1      38.307  14.228  62.823  1.00  0.00     0.005 C 
ENDBRANCH  36  37
ENDBRANCH  30  36
ENDBRANCH  29  30
BRANCH  29  43
HETATM   43  O2  UNL     1      40.044  18.835  63.451  1.00  0.00    -0.393 OA
ATOM     44  H2  UNL     1      40.167  18.409  62.611  1.00  0.00     0.210 HD
ENDBRANCH  29  43
ENDBRANCH  28  29
ENDBRANCH  27  28
BRANCH  27  45
HETATM   45  C26 UNL     1      40.432  20.292  67.322  1.00  0.00    -0.076 C 
HETATM   46  C27 UNL     1      40.497  19.180  68.308  1.00  0.00     0.044 C 
HETATM   47  C28 UNL     1      39.271  21.220  67.592  1.00  0.00     0.044 C 
ENDBRANCH  27  45
ENDBRANCH   1  27
TORSDOF 20
ENDMDL
