MODEL 9
REMARK VINA RESULT: -8.488362489      2.028      4.416
REMARK  20 active torsions:
REMARK  status: ('A' for Active; 'I' for Inactive)
REMARK       I    between atoms: C2_2  and  N1_4 
REMARK    1  A    between atoms: N1_4  and  C3_6 
REMARK    2  A    between atoms: C3_6  and  C4_7 
REMARK    3  A    between atoms: C3_6  and  C11_14 
REMARK    4  A    between atoms: C4_7  and  C5_8 
REMARK    5  A    between atoms: C11_14  and  O2_15 
REMARK    6  A    between atoms: C11_14  and  C12_17 
REMARK    7  A    between atoms: C12_17  and  C13_18 
REMARK    8  A    between atoms: C13_18  and  C14_19 
REMARK    9  A    between atoms: C13_18  and  C26_45 
REMARK       I    between atoms: C14_19  and  N2_21 
REMARK   10  A    between atoms: N2_21  and  C15_23 
REMARK   11  A    between atoms: C15_23  and  C16_24 
REMARK   12  A    between atoms: C15_23  and  C19_29 
REMARK   13  A    between atoms: C16_24  and  C17_25 
REMARK   14  A    between atoms: C17_25  and  C18_26 
REMARK       I    between atoms: C19_29  and  N4_31 
REMARK   15  A    between atoms: N4_31  and  C20_33 
REMARK   16  A    between atoms: C20_33  and  C21_34 
REMARK   17  A    between atoms: C20_33  and  C25_42 
REMARK   18  A    between atoms: C21_34  and  C22_35 
REMARK   19  A    between atoms: C22_35  and  C23_36 
REMARK   20  A    between atoms: C23_36  and  N5_37 
ROOT
HETATM    1  C14 UNL     1      40.971  18.820  65.195  1.00  0.00     0.248 C 
HETATM    2  O3  UNL     1      40.854  19.443  64.062  1.00  0.00    -0.268 OA
HETATM    3  N2  UNL     1      40.384  17.544  65.258  1.00  0.00    -0.344 N 
ATOM      4  H2  UNL     1      40.480  17.008  66.121  1.00  0.00     0.163 HD
ENDROOT
BRANCH   3   5
HETATM    5  C15 UNL     1      39.655  16.959  64.168  1.00  0.00     0.177 C 
BRANCH   5   6
HETATM    6  C16 UNL     1      40.444  16.239  63.169  1.00  0.00     0.043 C 
BRANCH   6   7
HETATM    7  C17 UNL     1      39.860  15.939  61.841  1.00  0.00     0.102 C 
BRANCH   7   8
HETATM    8  C18 UNL     1      39.486  14.554  61.604  1.00  0.00     0.231 C 
HETATM    9  N3  UNL     1      38.912  14.121  60.394  1.00  0.00    -0.062 NA
HETATM   10  O4  UNL     1      39.693  13.728  62.520  1.00  0.00    -0.277 OA
ENDBRANCH   7   8
ENDBRANCH   6   7
ENDBRANCH   5   6
BRANCH   5  11
HETATM   11  C19 UNL     1      38.511  16.152  64.697  1.00  0.00     0.241 C 
HETATM   12  O5  UNL     1      38.727  15.187  65.472  1.00  0.00    -0.271 OA
HETATM   13  N4  UNL     1      37.170  16.436  64.351  1.00  0.00    -0.346 N 
ATOM     14  H4  UNL     1      36.969  17.217  63.726  1.00  0.00     0.163 HD
BRANCH  13  15
HETATM   15  C20 UNL     1      36.051  15.626  64.878  1.00  0.00     0.173 C 
BRANCH  15  16
HETATM   16  C21 UNL     1      35.438  16.318  66.052  1.00  0.00     0.036 C 
BRANCH  16  17
HETATM   17  C22 UNL     1      35.872  17.721  66.284  1.00  0.00     0.022 C 
BRANCH  17  18
HETATM   18  C23 UNL     1      36.415  17.910  67.705  1.00  0.00     0.122 C 
BRANCH  18  19
HETATM   19  N5  UNL     1      37.521  17.006  67.941  1.00  0.00    -0.367 N 
HETATM   20  C24 UNL     1      37.598  16.309  69.005  1.00  0.00     0.196 C 
HETATM   21  N6  UNL     1      38.727  15.440  69.158  1.00  0.00    -0.067 NA
HETATM   22  N7  UNL     1      36.635  16.354  70.025  1.00  0.00    -0.067 NA
ATOM     23  H5  UNL     1      38.256  16.925  67.238  1.00  0.00     0.161 HD
ENDBRANCH  18  19
ENDBRANCH  17  18
ENDBRANCH  16  17
ENDBRANCH  15  16
BRANCH  15  24
HETATM   24  C25 UNL     1      35.081  15.567  63.737  1.00  0.00     0.254 C 
HETATM   25  N8  UNL     1      34.791  14.299  63.145  1.00  0.00    -0.060 NA
HETATM   26  O6  UNL     1      34.508  16.574  63.266  1.00  0.00    -0.275 OA
ENDBRANCH  15  24
ENDBRANCH  13  15
ENDBRANCH   5  11
ENDBRANCH   3   5
BRANCH   1  27
HETATM   27  C13 UNL     1      41.672  19.473  66.297  1.00  0.00     0.014 C 
BRANCH  27  28
HETATM   28  C12 UNL     1      42.371  20.678  65.783  1.00  0.00     0.078 C 
BRANCH  28  29
HETATM   29  C11 UNL     1      43.826  20.759  65.755  1.00  0.00     0.145 C 
BRANCH  29  30
HETATM   30  C3  UNL     1      44.463  21.995  65.186  1.00  0.00     0.113 C 
BRANCH  30  31
HETATM   31  N1  UNL     1      45.669  22.367  65.900  1.00  0.00    -0.354 N 
HETATM   32  C2  UNL     1      45.836  23.685  66.407  1.00  0.00     0.214 C 
HETATM   33  C1  UNL     1      47.062  24.107  67.144  1.00  0.00     0.117 C 
HETATM   34  O1  UNL     1      44.905  24.508  66.216  1.00  0.00    -0.274 OA
ATOM     35  H1  UNL     1      46.407  21.675  66.041  1.00  0.00     0.162 HD
ENDBRANCH  30  31
BRANCH  30  36
HETATM   36  C4  UNL     1      44.616  21.847  63.718  1.00  0.00     0.032 C 
BRANCH  36  37
HETATM   37  C5  UNL     1      45.177  20.582  63.189  1.00  0.00    -0.013 C 
HETATM   38  C6  UNL     1      46.606  20.588  62.785  1.00  0.00     0.005 C 
HETATM   39  C7  UNL     1      46.764  19.638  61.589  1.00  0.00     0.000 C 
HETATM   40  C8  UNL     1      46.191  20.295  60.375  1.00  0.00     0.000 C 
HETATM   41  C9  UNL     1      44.877  20.938  60.732  1.00  0.00     0.000 C 
HETATM   42  C10 UNL     1      44.337  20.235  61.942  1.00  0.00     0.005 C 
ENDBRANCH  36  37
ENDBRANCH  30  36
ENDBRANCH  29  30
BRANCH  29  43
HETATM   43  O2  UNL     1      44.328  20.520  67.057  1.00  0.00    -0.393 OA
ATOM     44  H2  UNL     1      43.665  20.739  67.701  1.00  0.00     0.210 HD
ENDBRANCH  29  43
ENDBRANCH  28  29
ENDBRANCH  27  28
BRANCH  27  45
HETATM   45  C26 UNL     1      40.952  19.559  67.575  1.00  0.00    -0.076 C 
HETATM   46  C27 UNL     1      41.034  18.425  68.535  1.00  0.00     0.044 C 
HETATM   47  C28 UNL     1      39.581  20.193  67.566  1.00  0.00     0.044 C 
ENDBRANCH  27  45
ENDBRANCH   1  27
TORSDOF 20
ENDMDL
