MODEL 4
REMARK VINA RESULT: -8.636165305      2.608      9.762
REMARK  20 active torsions:
REMARK  status: ('A' for Active; 'I' for Inactive)
REMARK       I    between atoms: C2_2  and  N1_4 
REMARK    1  A    between atoms: N1_4  and  C3_6 
REMARK    2  A    between atoms: C3_6  and  C4_7 
REMARK    3  A    between atoms: C3_6  and  C11_14 
REMARK    4  A    between atoms: C4_7  and  C5_8 
REMARK    5  A    between atoms: C11_14  and  O2_15 
REMARK    6  A    between atoms: C11_14  and  C12_17 
REMARK    7  A    between atoms: C12_17  and  C13_18 
REMARK    8  A    between atoms: C13_18  and  C14_19 
REMARK    9  A    between atoms: C13_18  and  C26_45 
REMARK       I    between atoms: C14_19  and  N2_21 
REMARK   10  A    between atoms: N2_21  and  C15_23 
REMARK   11  A    between atoms: C15_23  and  C16_24 
REMARK   12  A    between atoms: C15_23  and  C19_29 
REMARK   13  A    between atoms: C16_24  and  C17_25 
REMARK   14  A    between atoms: C17_25  and  C18_26 
REMARK       I    between atoms: C19_29  and  N4_31 
REMARK   15  A    between atoms: N4_31  and  C20_33 
REMARK   16  A    between atoms: C20_33  and  C21_34 
REMARK   17  A    between atoms: C20_33  and  C25_42 
REMARK   18  A    between atoms: C21_34  and  C22_35 
REMARK   19  A    between atoms: C22_35  and  C23_36 
REMARK   20  A    between atoms: C23_36  and  N5_37 
ROOT
HETATM    1  C14 UNL     1      42.092  21.303  66.195  1.00  0.00     0.248 C 
HETATM    2  O3  UNL     1      41.854  22.277  65.369  1.00  0.00    -0.268 OA
HETATM    3  N2  UNL     1      43.349  21.326  66.824  1.00  0.00    -0.344 N 
ATOM      4  H2  UNL     1      43.564  20.596  67.505  1.00  0.00     0.163 HD
ENDROOT
BRANCH   3   5
HETATM    5  C15 UNL     1      44.345  22.325  66.556  1.00  0.00     0.177 C 
BRANCH   5   6
HETATM    6  C16 UNL     1      45.073  22.846  67.711  1.00  0.00     0.043 C 
BRANCH   6   7
HETATM    7  C17 UNL     1      45.378  24.294  67.802  1.00  0.00     0.102 C 
BRANCH   7   8
HETATM    8  C18 UNL     1      46.714  24.693  67.391  1.00  0.00     0.231 C 
HETATM    9  N3  UNL     1      47.846  24.498  68.203  1.00  0.00    -0.062 NA
HETATM   10  O4  UNL     1      46.845  25.225  66.266  1.00  0.00    -0.277 OA
ENDBRANCH   7   8
ENDBRANCH   6   7
ENDBRANCH   5   6
BRANCH   5  11
HETATM   11  C19 UNL     1      45.252  21.856  65.461  1.00  0.00     0.241 C 
HETATM   12  O5  UNL     1      45.607  20.651  65.410  1.00  0.00    -0.271 OA
HETATM   13  N4  UNL     1      45.738  22.732  64.463  1.00  0.00    -0.346 N 
ATOM     14  H4  UNL     1      45.462  23.714  64.482  1.00  0.00     0.163 HD
BRANCH  13  15
HETATM   15  C20 UNL     1      46.638  22.255  63.392  1.00  0.00     0.173 C 
BRANCH  15  16
HETATM   16  C21 UNL     1      46.065  22.610  62.058  1.00  0.00     0.036 C 
BRANCH  16  17
HETATM   17  C22 UNL     1      46.210  21.584  60.990  1.00  0.00     0.022 C 
BRANCH  17  18
HETATM   18  C23 UNL     1      44.872  20.900  60.689  1.00  0.00     0.122 C 
BRANCH  18  19
HETATM   19  N5  UNL     1      44.715  19.724  61.519  1.00  0.00    -0.367 N 
HETATM   20  C24 UNL     1      43.902  19.704  62.501  1.00  0.00     0.196 C 
HETATM   21  N6  UNL     1      43.809  18.499  63.270  1.00  0.00    -0.067 NA
HETATM   22  N7  UNL     1      43.100  20.799  62.858  1.00  0.00    -0.067 NA
ATOM     23  H5  UNL     1      45.268  18.892  61.313  1.00  0.00     0.161 HD
ENDBRANCH  18  19
ENDBRANCH  17  18
ENDBRANCH  16  17
ENDBRANCH  15  16
BRANCH  15  24
HETATM   24  C25 UNL     1      47.914  23.004  63.633  1.00  0.00     0.254 C 
HETATM   25  N8  UNL     1      48.569  22.859  64.894  1.00  0.00    -0.060 NA
HETATM   26  O6  UNL     1      48.440  23.758  62.786  1.00  0.00    -0.275 OA
ENDBRANCH  15  24
ENDBRANCH  13  15
ENDBRANCH   5  11
ENDBRANCH   3   5
BRANCH   1  27
HETATM   27  C13 UNL     1      41.073  20.276  66.398  1.00  0.00     0.014 C 
BRANCH  27  28
HETATM   28  C12 UNL     1      41.629  18.956  66.007  1.00  0.00     0.078 C 
BRANCH  28  29
HETATM   29  C11 UNL     1      41.044  18.177  64.922  1.00  0.00     0.145 C 
BRANCH  29  30
HETATM   30  C3  UNL     1      39.908  17.248  65.240  1.00  0.00     0.113 C 
BRANCH  30  31
HETATM   31  N1  UNL     1      38.655  17.956  65.417  1.00  0.00    -0.354 N 
HETATM   32  C2  UNL     1      37.782  17.630  66.491  1.00  0.00     0.214 C 
HETATM   33  C1  UNL     1      36.484  18.334  66.705  1.00  0.00     0.117 C 
HETATM   34  O1  UNL     1      38.134  16.715  67.275  1.00  0.00    -0.274 OA
ATOM     35  H1  UNL     1      38.398  18.697  64.764  1.00  0.00     0.162 HD
ENDBRANCH  30  31
BRANCH  30  36
HETATM   36  C4  UNL     1      39.876  16.141  64.252  1.00  0.00     0.032 C 
BRANCH  36  37
HETATM   37  C5  UNL     1      38.699  16.022  63.361  1.00  0.00    -0.013 C 
HETATM   38  C6  UNL     1      38.044  14.692  63.275  1.00  0.00     0.005 C 
HETATM   39  C7  UNL     1      37.509  14.519  61.845  1.00  0.00     0.000 C 
HETATM   40  C8  UNL     1      38.662  14.255  60.931  1.00  0.00     0.000 C 
HETATM   41  C9  UNL     1      39.789  15.195  61.268  1.00  0.00     0.000 C 
HETATM   42  C10 UNL     1      39.197  16.393  61.949  1.00  0.00     0.005 C 
ENDBRANCH  36  37
ENDBRANCH  30  36
ENDBRANCH  29  30
BRANCH  29  43
HETATM   43  O2  UNL     1      40.666  19.052  63.875  1.00  0.00    -0.393 OA
ATOM     44  H2  UNL     1      40.968  19.931  64.068  1.00  0.00     0.210 HD
ENDBRANCH  29  43
ENDBRANCH  28  29
ENDBRANCH  27  28
BRANCH  27  45
HETATM   45  C26 UNL     1      40.275  20.378  67.627  1.00  0.00    -0.076 C 
HETATM   46  C27 UNL     1      40.224  19.220  68.560  1.00  0.00     0.044 C 
HETATM   47  C28 UNL     1      38.948  21.096  67.544  1.00  0.00     0.044 C 
ENDBRANCH  27  45
ENDBRANCH   1  27
TORSDOF 20
ENDMDL
