MODEL 3
REMARK VINA RESULT: -8.706977842      1.905      3.317
REMARK  20 active torsions:
REMARK  status: ('A' for Active; 'I' for Inactive)
REMARK       I    between atoms: C2_2  and  N1_4 
REMARK    1  A    between atoms: N1_4  and  C3_6 
REMARK    2  A    between atoms: C3_6  and  C4_7 
REMARK    3  A    between atoms: C3_6  and  C11_14 
REMARK    4  A    between atoms: C4_7  and  C5_8 
REMARK    5  A    between atoms: C11_14  and  O2_15 
REMARK    6  A    between atoms: C11_14  and  C12_17 
REMARK    7  A    between atoms: C12_17  and  C13_18 
REMARK    8  A    between atoms: C13_18  and  C14_19 
REMARK    9  A    between atoms: C13_18  and  C26_45 
REMARK       I    between atoms: C14_19  and  N2_21 
REMARK   10  A    between atoms: N2_21  and  C15_23 
REMARK   11  A    between atoms: C15_23  and  C16_24 
REMARK   12  A    between atoms: C15_23  and  C19_29 
REMARK   13  A    between atoms: C16_24  and  C17_25 
REMARK   14  A    between atoms: C17_25  and  C18_26 
REMARK       I    between atoms: C19_29  and  N4_31 
REMARK   15  A    between atoms: N4_31  and  C20_33 
REMARK   16  A    between atoms: C20_33  and  C21_34 
REMARK   17  A    between atoms: C20_33  and  C25_42 
REMARK   18  A    between atoms: C21_34  and  C22_35 
REMARK   19  A    between atoms: C22_35  and  C23_36 
REMARK   20  A    between atoms: C23_36  and  N5_37 
ROOT
HETATM    1  C14 UNL     1      42.364  19.831  63.298  1.00  0.00     0.248 C 
HETATM    2  O3  UNL     1      41.426  20.721  63.427  1.00  0.00    -0.268 OA
HETATM    3  N2  UNL     1      41.933  18.498  63.177  1.00  0.00    -0.344 N 
ATOM      4  H2  UNL     1      42.636  17.772  63.042  1.00  0.00     0.163 HD
ENDROOT
BRANCH   3   5
HETATM    5  C15 UNL     1      40.552  18.111  63.234  1.00  0.00     0.177 C 
BRANCH   5   6
HETATM    6  C16 UNL     1      40.075  17.238  62.162  1.00  0.00     0.043 C 
BRANCH   6   7
HETATM    7  C17 UNL     1      40.659  15.886  61.994  1.00  0.00     0.102 C 
BRANCH   7   8
HETATM    8  C18 UNL     1      39.719  14.778  61.995  1.00  0.00     0.231 C 
HETATM    9  N3  UNL     1      39.183  14.239  60.810  1.00  0.00    -0.062 NA
HETATM   10  O4  UNL     1      39.387  14.294  63.099  1.00  0.00    -0.277 OA
ENDBRANCH   7   8
ENDBRANCH   6   7
ENDBRANCH   5   6
BRANCH   5  11
HETATM   11  C19 UNL     1      40.228  17.585  64.598  1.00  0.00     0.241 C 
HETATM   12  O5  UNL     1      41.104  17.586  65.498  1.00  0.00    -0.271 OA
HETATM   13  N4  UNL     1      38.949  17.074  64.920  1.00  0.00    -0.346 N 
ATOM     14  H4  UNL     1      38.220  17.065  64.207  1.00  0.00     0.163 HD
BRANCH  13  15
HETATM   15  C20 UNL     1      38.646  16.553  66.270  1.00  0.00     0.173 C 
BRANCH  15  16
HETATM   16  C21 UNL     1      38.402  17.693  67.206  1.00  0.00     0.036 C 
BRANCH  16  17
HETATM   17  C22 UNL     1      39.210  17.697  68.455  1.00  0.00     0.022 C 
BRANCH  17  18
HETATM   18  C23 UNL     1      39.646  19.118  68.832  1.00  0.00     0.122 C 
BRANCH  18  19
HETATM   19  N5  UNL     1      40.478  19.678  67.788  1.00  0.00    -0.367 N 
HETATM   20  C24 UNL     1      40.200  20.795  67.240  1.00  0.00     0.196 C 
HETATM   21  N6  UNL     1      41.077  21.276  66.215  1.00  0.00    -0.067 NA
HETATM   22  N7  UNL     1      39.083  21.568  67.595  1.00  0.00    -0.067 NA
ATOM     23  H5  UNL     1      41.306  19.167  67.484  1.00  0.00     0.161 HD
ENDBRANCH  18  19
ENDBRANCH  17  18
ENDBRANCH  16  17
ENDBRANCH  15  16
BRANCH  15  24
HETATM   24  C25 UNL     1      37.392  15.755  66.075  1.00  0.00     0.254 C 
HETATM   25  N8  UNL     1      36.646  15.355  67.226  1.00  0.00    -0.060 NA
HETATM   26  O6  UNL     1      36.961  15.413  64.953  1.00  0.00    -0.275 OA
ENDBRANCH  15  24
ENDBRANCH  13  15
ENDBRANCH   5  11
ENDBRANCH   3   5
BRANCH   1  27
HETATM   27  C13 UNL     1      43.759  20.262  63.301  1.00  0.00     0.014 C 
BRANCH  27  28
HETATM   28  C12 UNL     1      44.268  20.255  64.696  1.00  0.00     0.078 C 
BRANCH  28  29
HETATM   29  C11 UNL     1      44.689  21.484  65.358  1.00  0.00     0.145 C 
BRANCH  29  30
HETATM   30  C3  UNL     1      46.057  22.026  65.056  1.00  0.00     0.113 C 
BRANCH  30  31
HETATM   31  N1  UNL     1      46.118  22.665  63.756  1.00  0.00    -0.354 N 
HETATM   32  C2  UNL     1      47.245  22.478  62.908  1.00  0.00     0.214 C 
HETATM   33  C1  UNL     1      47.346  23.119  61.565  1.00  0.00     0.117 C 
HETATM   34  O1  UNL     1      48.176  21.744  63.324  1.00  0.00    -0.274 OA
ATOM     35  H1  UNL     1      45.345  23.254  63.445  1.00  0.00     0.162 HD
ENDBRANCH  30  31
BRANCH  30  36
HETATM   36  C4  UNL     1      46.526  22.857  66.193  1.00  0.00     0.032 C 
BRANCH  36  37
HETATM   37  C5  UNL     1      46.954  24.250  65.922  1.00  0.00    -0.013 C 
HETATM   38  C6  UNL     1      48.330  24.629  66.331  1.00  0.00     0.005 C 
HETATM   39  C7  UNL     1      48.306  26.102  66.764  1.00  0.00     0.000 C 
HETATM   40  C8  UNL     1      47.645  26.199  68.102  1.00  0.00     0.000 C 
HETATM   41  C9  UNL     1      46.416  25.330  68.112  1.00  0.00     0.000 C 
HETATM   42  C10 UNL     1      45.969  25.153  66.691  1.00  0.00     0.005 C 
ENDBRANCH  36  37
ENDBRANCH  30  36
ENDBRANCH  29  30
BRANCH  29  43
HETATM   43  O2  UNL     1      43.717  22.489  65.130  1.00  0.00    -0.393 OA
ATOM     44  H2  UNL     1      43.863  23.215  65.725  1.00  0.00     0.210 HD
ENDBRANCH  29  43
ENDBRANCH  28  29
ENDBRANCH  27  28
BRANCH  27  45
HETATM   45  C26 UNL     1      44.612  19.732  62.228  1.00  0.00    -0.076 C 
HETATM   46  C27 UNL     1      45.916  19.106  62.577  1.00  0.00     0.044 C 
HETATM   47  C28 UNL     1      44.689  20.518  60.940  1.00  0.00     0.044 C 
ENDBRANCH  27  45
ENDBRANCH   1  27
TORSDOF 20
ENDMDL
