MODEL 1
REMARK VINA RESULT: -6.005241180      0.000      0.000
REMARK  0 active torsions:
REMARK  status: ('A' for Active; 'I' for Inactive)
ROOT
HETATM    1  O1  UNL     1      26.781  92.529  73.969  1.00  0.00    -0.266 OA
HETATM    2  C1  UNL     1      25.903  91.694  73.642  1.00  0.00     0.277 A 
HETATM    3  N1  UNL     1      26.282  90.516  73.173  1.00  0.00    -0.318 N 
ATOM      4  H1  UNL     1      27.272  90.288  73.078  1.00  0.00     0.169 HD
HETATM    5  C2  UNL     1      25.338  89.625  72.823  1.00  0.00     0.185 A 
HETATM    6  N2  UNL     1      24.018  89.908  72.942  1.00  0.00    -0.336 N 
ATOM      7  H2  UNL     1      23.333  89.205  72.666  1.00  0.00     0.168 HD
HETATM    8  C3  UNL     1      23.586  91.091  73.414  1.00  0.00     0.140 A 
HETATM    9  N3  UNL     1      22.372  91.648  73.640  1.00  0.00    -0.337 N 
ATOM     10  H3  UNL     1      21.470  91.205  73.468  1.00  0.00     0.168 HD
HETATM   11  C4  UNL     1      22.561  92.889  74.132  1.00  0.00     0.182 A 
HETATM   12  N4  UNL     1      23.887  93.094  74.207  1.00  0.00    -0.345 N 
ATOM     13  H4  UNL     1      24.324  93.951  74.544  1.00  0.00     0.167 HD
HETATM   14  C5  UNL     1      24.560  92.004  73.772  1.00  0.00     0.146 A 
ENDROOT
TORSDOF 0
ENDMDL
