MODEL 10
REMARK VINA RESULT: -5.257193624      4.854      6.356
REMARK  0 active torsions:
REMARK  status: ('A' for Active; 'I' for Inactive)
ROOT
HETATM    1  O1  UNL     1      18.974  88.782  71.963  1.00  0.00    -0.266 OA
HETATM    2  C1  UNL     1      18.765  89.506  72.967  1.00  0.00     0.277 A 
HETATM    3  N1  UNL     1      17.558  90.018  73.149  1.00  0.00    -0.318 N 
ATOM      4  H1  UNL     1      16.807  89.827  72.485  1.00  0.00     0.169 HD
HETATM    5  C2  UNL     1      17.340  90.794  74.225  1.00  0.00     0.185 A 
HETATM    6  N2  UNL     1      18.325  91.059  75.118  1.00  0.00    -0.336 N 
ATOM      7  H2  UNL     1      18.119  91.652  75.922  1.00  0.00     0.168 HD
HETATM    8  C3  UNL     1      19.565  90.561  74.974  1.00  0.00     0.140 A 
HETATM    9  N3  UNL     1      20.721  90.646  75.678  1.00  0.00    -0.337 N 
ATOM     10  H3  UNL     1      20.856  91.168  76.543  1.00  0.00     0.168 HD
HETATM   11  C4  UNL     1      21.660  89.921  75.038  1.00  0.00     0.182 A 
HETATM   12  N4  UNL     1      21.084  89.393  73.944  1.00  0.00    -0.345 N 
ATOM     13  H4  UNL     1      21.560  88.796  73.268  1.00  0.00     0.167 HD
HETATM   14  C5  UNL     1      19.785  89.764  73.867  1.00  0.00     0.146 A 
ENDROOT
TORSDOF 0
ENDMDL
