MODEL 4
REMARK VINA RESULT: -5.507012300      5.627      6.833
REMARK  0 active torsions:
REMARK  status: ('A' for Active; 'I' for Inactive)
ROOT
HETATM    1  O1  UNL     1      18.828  88.798  71.950  1.00  0.00    -0.266 OA
HETATM    2  C1  UNL     1      18.939  89.564  72.938  1.00  0.00     0.277 A 
HETATM    3  N1  UNL     1      20.149  89.902  73.354  1.00  0.00    -0.318 N 
ATOM      4  H1  UNL     1      20.980  89.547  72.880  1.00  0.00     0.169 HD
HETATM    5  C2  UNL     1      20.263  90.722  74.414  1.00  0.00     0.185 A 
HETATM    6  N2  UNL     1      19.171  91.204  75.057  1.00  0.00    -0.336 N 
ATOM      7  H2  UNL     1      19.300  91.824  75.856  1.00  0.00     0.168 HD
HETATM    8  C3  UNL     1      17.923  90.888  74.669  1.00  0.00     0.140 A 
HETATM    9  N3  UNL     1      16.677  91.203  75.099  1.00  0.00    -0.337 N 
ATOM     10  H3  UNL     1      16.452  91.809  75.887  1.00  0.00     0.168 HD
HETATM   11  C4  UNL     1      15.785  90.577  74.305  1.00  0.00     0.182 A 
HETATM   12  N4  UNL     1      16.481  89.880  73.390  1.00  0.00    -0.345 N 
ATOM     13  H4  UNL     1      16.065  89.306  72.657  1.00  0.00     0.167 HD
HETATM   14  C5  UNL     1      17.811  90.045  73.580  1.00  0.00     0.146 A 
ENDROOT
TORSDOF 0
ENDMDL
