MODEL 12
REMARK VINA RESULT: -5.212003692      4.658      5.749
REMARK  0 active torsions:
REMARK  status: ('A' for Active; 'I' for Inactive)
ROOT
HETATM    1  O1  UNL     1      18.899  89.186  71.960  1.00  0.00    -0.266 OA
HETATM    2  C1  UNL     1      19.241  89.013  73.155  1.00  0.00     0.277 A 
HETATM    3  N1  UNL     1      18.527  88.197  73.914  1.00  0.00    -0.318 N 
ATOM      4  H1  UNL     1      17.711  87.715  73.535  1.00  0.00     0.169 HD
HETATM    5  C2  UNL     1      18.896  88.016  75.194  1.00  0.00     0.185 A 
HETATM    6  N2  UNL     1      19.976  88.646  75.716  1.00  0.00    -0.336 N 
ATOM      7  H2  UNL     1      20.223  88.481  76.692  1.00  0.00     0.168 HD
HETATM    8  C3  UNL     1      20.731  89.483  74.983  1.00  0.00     0.140 A 
HETATM    9  N3  UNL     1      21.834  90.235  75.218  1.00  0.00    -0.337 N 
ATOM     10  H3  UNL     1      22.337  90.297  76.103  1.00  0.00     0.168 HD
HETATM   11  C4  UNL     1      22.152  90.886  74.081  1.00  0.00     0.182 A 
HETATM   12  N4  UNL     1      21.247  90.536  73.151  1.00  0.00    -0.345 N 
ATOM     13  H4  UNL     1      21.239  90.878  72.190  1.00  0.00     0.167 HD
HETATM   14  C5  UNL     1      20.348  89.667  73.668  1.00  0.00     0.146 A 
ENDROOT
TORSDOF 0
ENDMDL
