MODEL 2
REMARK VINA RESULT: -8.663374994      1.975      2.787
REMARK  19 active torsions:
REMARK  status: ('A' for Active; 'I' for Inactive)
REMARK    1  A    between atoms: O1_2  and  C2_3 
REMARK    2  A    between atoms: C2_3  and  C3_5 
REMARK    3  A    between atoms: C3_5  and  N1_6 
REMARK    4  A    between atoms: C3_5  and  C27_47 
REMARK       I    between atoms: N1_6  and  C4_8 
REMARK    5  A    between atoms: C4_8  and  C5_10 
REMARK    6  A    between atoms: C5_10  and  N2_11 
REMARK    7  A    between atoms: C5_10  and  C24_44 
REMARK       I    between atoms: N2_11  and  C6_13 
REMARK    8  A    between atoms: C6_13  and  C7_15 
REMARK    9  A    between atoms: C7_15  and  C8_16 
REMARK   10  A    between atoms: C8_16  and  C9_17 
REMARK   11  A    between atoms: C9_17  and  O5_18 
REMARK   12  A    between atoms: C9_17  and  C10_20 
REMARK   13  A    between atoms: C10_20  and  C11_21 
REMARK   14  A    between atoms: C10_20  and  N3_28 
REMARK   15  A    between atoms: C11_21  and  C12_22 
REMARK       I    between atoms: N3_28  and  C18_30 
REMARK   16  A    between atoms: C18_30  and  C19_32 
REMARK   17  A    between atoms: C19_32  and  N4_34 
REMARK       I    between atoms: N4_34  and  C21_36 
REMARK   18  A    between atoms: C21_36  and  C22_38 
REMARK   19  A    between atoms: C22_38  and  N5_40 
ROOT
HETATM    1  C9  UNL     1     -11.612  15.806   0.916  1.00  0.00     0.063 C 
ENDROOT
BRANCH   1   2
HETATM    2  C8  UNL     1     -10.597  15.546  -0.110  1.00  0.00     0.017 C 
BRANCH   2   3
HETATM    3  C7  UNL     1     -10.639  16.145  -1.437  1.00  0.00     0.132 C 
BRANCH   3   4
HETATM    4  C6  UNL     1      -9.415  16.215  -2.229  1.00  0.00     0.221 C 
HETATM    5  N2  UNL     1      -9.176  17.283  -3.135  1.00  0.00    -0.347 N 
ATOM      6  H2  UNL     1      -9.870  18.022  -3.248  1.00  0.00     0.163 HD
HETATM    7  O4  UNL     1      -8.542  15.344  -2.127  1.00  0.00    -0.273 OA
BRANCH   5   8
HETATM    8  C5  UNL     1      -7.910  17.322  -3.918  1.00  0.00     0.180 C 
BRANCH   8   9
HETATM    9  C4  UNL     1      -6.912  18.085  -3.078  1.00  0.00     0.241 C 
HETATM   10  N1  UNL     1      -6.204  17.514  -1.995  1.00  0.00    -0.345 N 
ATOM     11  H1  UNL     1      -6.334  16.532  -1.750  1.00  0.00     0.163 HD
HETATM   12  O3  UNL     1      -6.702  19.319  -3.362  1.00  0.00    -0.271 OA
BRANCH  10  13
HETATM   13  C3  UNL     1      -5.285  18.349  -1.235  1.00  0.00     0.187 C 
BRANCH  13  14
HETATM   14  C2  UNL     1      -3.897  17.857  -1.479  1.00  0.00     0.281 C 
HETATM   15  O2  UNL     1      -3.600  16.711  -1.862  1.00  0.00    -0.263 OA
BRANCH  14  16
HETATM   16  O1  UNL     1      -2.894  18.795  -1.247  1.00  0.00    -0.325 OA
HETATM   17  C1  UNL     1      -2.466  19.761  -2.165  1.00  0.00     0.213 C 
ENDBRANCH  14  16
ENDBRANCH  13  14
BRANCH  13  18
HETATM   18  C27 UNL     1      -5.560  18.300   0.229  1.00  0.00     0.010 C 
HETATM   19  C28 UNL     1      -6.412  17.113   0.625  1.00  0.00     0.012 C 
HETATM   20  C29 UNL     1      -6.364  19.536   0.659  1.00  0.00     0.012 C 
ENDBRANCH  13  18
ENDBRANCH  10  13
ENDBRANCH   8   9
BRANCH   8  21
HETATM   21  C24 UNL     1      -8.141  17.862  -5.263  1.00  0.00     0.009 C 
HETATM   22  C25 UNL     1      -7.050  17.720  -6.274  1.00  0.00     0.012 C 
HETATM   23  C26 UNL     1      -9.399  17.269  -5.921  1.00  0.00     0.012 C 
ENDBRANCH   8  21
ENDBRANCH   5   8
ENDBRANCH   3   4
ENDBRANCH   2   3
ENDBRANCH   1   2
BRANCH   1  24
HETATM   24  O5  UNL     1     -12.732  16.512   0.594  1.00  0.00    -0.363 OA
ATOM     25  H5  UNL     1     -12.691  17.177  -0.084  1.00  0.00     0.217 HD
ENDBRANCH   1  24
BRANCH   1  26
HETATM   26  C10 UNL     1     -11.145  16.105   2.299  1.00  0.00     0.145 C 
BRANCH  26  27
HETATM   27  C11 UNL     1      -9.759  15.675   2.622  1.00  0.00     0.070 C 
BRANCH  27  28
HETATM   28  C12 UNL     1      -9.258  16.069   3.952  1.00  0.00    -0.056 A 
HETATM   29  C13 UNL     1      -8.928  15.100   4.880  1.00  0.00     0.007 A 
HETATM   30  C14 UNL     1      -8.445  15.430   6.136  1.00  0.00     0.001 A 
HETATM   31  C15 UNL     1      -8.274  16.746   6.506  1.00  0.00     0.000 A 
HETATM   32  C16 UNL     1      -8.603  17.721   5.573  1.00  0.00     0.001 A 
HETATM   33  C17 UNL     1      -9.078  17.380   4.342  1.00  0.00     0.007 A 
ENDBRANCH  27  28
ENDBRANCH  26  27
BRANCH  26  34
HETATM   34  N3  UNL     1     -12.066  15.616   3.312  1.00  0.00    -0.348 N 
HETATM   35  C18 UNL     1     -12.505  14.259   3.406  1.00  0.00     0.240 C 
HETATM   36  O6  UNL     1     -12.059  13.456   2.562  1.00  0.00    -0.271 OA
ATOM     37  H3  UNL     1     -12.421  16.283   3.997  1.00  0.00     0.163 HD
BRANCH  35  38
HETATM   38  C19 UNL     1     -13.456  13.844   4.488  1.00  0.00     0.172 C 
HETATM   39  C20 UNL     1     -14.761  14.574   4.417  1.00  0.00     0.042 C 
BRANCH  38  40
HETATM   40  N4  UNL     1     -12.848  13.774   5.776  1.00  0.00    -0.346 N 
HETATM   41  C21 UNL     1     -12.478  14.823   6.627  1.00  0.00     0.248 C 
HETATM   42  O7  UNL     1     -12.705  16.012   6.241  1.00  0.00    -0.271 OA
ATOM     43  H4  UNL     1     -12.657  12.834   6.124  1.00  0.00     0.163 HD
BRANCH  41  44
HETATM   44  C22 UNL     1     -11.831  14.640   7.962  1.00  0.00     0.270 C 
HETATM   45  C23 UNL     1     -12.447  13.388   8.553  1.00  0.00     0.050 C 
BRANCH  44  46
HETATM   46  N5  UNL     1     -12.171  15.742   8.848  1.00  0.00    -0.067 N 
ATOM     47  H53 UNL     1     -11.339  16.225   9.188  1.00  0.00     0.275 HD
ATOM     48  H52 UNL     1     -12.601  16.516   8.343  1.00  0.00     0.275 HD
ATOM     49  H51 UNL     1     -12.760  15.415   9.615  1.00  0.00     0.275 HD
ENDBRANCH  44  46
ENDBRANCH  41  44
ENDBRANCH  38  40
ENDBRANCH  35  38
ENDBRANCH  26  34
ENDBRANCH   1  26
TORSDOF 19
ENDMDL
