MODEL 7
REMARK VINA RESULT: -8.579961601      2.357     10.578
REMARK  19 active torsions:
REMARK  status: ('A' for Active; 'I' for Inactive)
REMARK    1  A    between atoms: O1_2  and  C2_3 
REMARK    2  A    between atoms: C2_3  and  C3_5 
REMARK    3  A    between atoms: C3_5  and  N1_6 
REMARK    4  A    between atoms: C3_5  and  C27_47 
REMARK       I    between atoms: N1_6  and  C4_8 
REMARK    5  A    between atoms: C4_8  and  C5_10 
REMARK    6  A    between atoms: C5_10  and  N2_11 
REMARK    7  A    between atoms: C5_10  and  C24_44 
REMARK       I    between atoms: N2_11  and  C6_13 
REMARK    8  A    between atoms: C6_13  and  C7_15 
REMARK    9  A    between atoms: C7_15  and  C8_16 
REMARK   10  A    between atoms: C8_16  and  C9_17 
REMARK   11  A    between atoms: C9_17  and  O5_18 
REMARK   12  A    between atoms: C9_17  and  C10_20 
REMARK   13  A    between atoms: C10_20  and  C11_21 
REMARK   14  A    between atoms: C10_20  and  N3_28 
REMARK   15  A    between atoms: C11_21  and  C12_22 
REMARK       I    between atoms: N3_28  and  C18_30 
REMARK   16  A    between atoms: C18_30  and  C19_32 
REMARK   17  A    between atoms: C19_32  and  N4_34 
REMARK       I    between atoms: N4_34  and  C21_36 
REMARK   18  A    between atoms: C21_36  and  C22_38 
REMARK   19  A    between atoms: C22_38  and  N5_40 
ROOT
HETATM    1  C9  UNL     1      -9.489  18.423   0.918  1.00  0.00     0.063 C 
ENDROOT
BRANCH   1   2
HETATM    2  C8  UNL     1     -10.020  17.323   1.729  1.00  0.00     0.017 C 
BRANCH   2   3
HETATM    3  C7  UNL     1      -9.189  16.239   2.237  1.00  0.00     0.132 C 
BRANCH   3   4
HETATM    4  C6  UNL     1      -9.422  15.733   3.586  1.00  0.00     0.221 C 
HETATM    5  N2  UNL     1     -10.217  16.448   4.521  1.00  0.00    -0.347 N 
ATOM      6  H2  UNL     1     -10.637  17.340   4.258  1.00  0.00     0.163 HD
HETATM    7  O4  UNL     1      -8.936  14.656   3.953  1.00  0.00    -0.273 OA
BRANCH   5   8
HETATM    8  C5  UNL     1     -10.437  15.893   5.886  1.00  0.00     0.180 C 
BRANCH   8   9
HETATM    9  C4  UNL     1     -11.880  15.447   5.937  1.00  0.00     0.241 C 
HETATM   10  N1  UNL     1     -12.381  14.339   5.215  1.00  0.00    -0.345 N 
ATOM     11  H1  UNL     1     -11.761  13.777   4.633  1.00  0.00     0.163 HD
HETATM   12  O3  UNL     1     -12.693  16.115   6.673  1.00  0.00    -0.271 OA
BRANCH  10  13
HETATM   13  C3  UNL     1     -13.796  14.014   5.316  1.00  0.00     0.187 C 
BRANCH  13  14
HETATM   14  C2  UNL     1     -13.925  12.713   6.037  1.00  0.00     0.281 C 
HETATM   15  O2  UNL     1     -13.450  11.630   5.651  1.00  0.00    -0.263 OA
BRANCH  14  16
HETATM   16  O1  UNL     1     -14.641  12.773   7.230  1.00  0.00    -0.325 OA
HETATM   17  C1  UNL     1     -14.137  12.432   8.490  1.00  0.00     0.213 C 
ENDBRANCH  14  16
ENDBRANCH  13  14
BRANCH  13  18
HETATM   18  C27 UNL     1     -14.442  13.887   3.979  1.00  0.00     0.010 C 
HETATM   19  C28 UNL     1     -13.470  14.099   2.838  1.00  0.00     0.012 C 
HETATM   20  C29 UNL     1     -15.516  14.971   3.803  1.00  0.00     0.012 C 
ENDBRANCH  13  18
ENDBRANCH  10  13
ENDBRANCH   8   9
BRANCH   8  21
HETATM   21  C24 UNL     1     -10.042  16.861   6.916  1.00  0.00     0.009 C 
HETATM   22  C25 UNL     1      -9.863  16.364   8.314  1.00  0.00     0.012 C 
HETATM   23  C26 UNL     1      -8.734  17.588   6.562  1.00  0.00     0.012 C 
ENDBRANCH   8  21
ENDBRANCH   5   8
ENDBRANCH   3   4
ENDBRANCH   2   3
ENDBRANCH   1   2
BRANCH   1  24
HETATM   24  O5  UNL     1     -10.345  19.238   0.240  1.00  0.00    -0.363 OA
ATOM     25  H5  UNL     1     -10.517  19.079  -0.681  1.00  0.00     0.217 HD
ENDBRANCH   1  24
BRANCH   1  26
HETATM   26  C10 UNL     1      -8.231  18.183   0.157  1.00  0.00     0.145 C 
BRANCH  26  27
HETATM   27  C11 UNL     1      -7.094  19.084   0.482  1.00  0.00     0.070 C 
BRANCH  27  28
HETATM   28  C12 UNL     1      -5.863  18.874  -0.303  1.00  0.00    -0.056 A 
HETATM   29  C13 UNL     1      -5.298  19.928  -0.996  1.00  0.00     0.007 A 
HETATM   30  C14 UNL     1      -4.137  19.773  -1.736  1.00  0.00     0.001 A 
HETATM   31  C15 UNL     1      -3.499  18.553  -1.806  1.00  0.00     0.000 A 
HETATM   32  C16 UNL     1      -4.066  17.494  -1.109  1.00  0.00     0.001 A 
HETATM   33  C17 UNL     1      -5.209  17.663  -0.386  1.00  0.00     0.007 A 
ENDBRANCH  27  28
ENDBRANCH  26  27
BRANCH  26  34
HETATM   34  N3  UNL     1      -8.450  18.157  -1.280  1.00  0.00    -0.348 N 
HETATM   35  C18 UNL     1      -8.743  16.971  -2.023  1.00  0.00     0.240 C 
HETATM   36  O6  UNL     1      -8.815  15.902  -1.384  1.00  0.00    -0.271 OA
ATOM     37  H3  UNL     1      -8.391  19.038  -1.790  1.00  0.00     0.163 HD
BRANCH  35  38
HETATM   38  C19 UNL     1      -8.958  17.040  -3.504  1.00  0.00     0.172 C 
HETATM   39  C20 UNL     1     -10.033  16.108  -3.973  1.00  0.00     0.042 C 
BRANCH  38  40
HETATM   40  N4  UNL     1      -7.745  17.021  -4.252  1.00  0.00    -0.346 N 
HETATM   41  C21 UNL     1      -7.433  17.711  -5.430  1.00  0.00     0.248 C 
HETATM   42  O7  UNL     1      -8.319  18.474  -5.927  1.00  0.00    -0.271 OA
ATOM     43  H4  UNL     1      -7.005  16.425  -3.880  1.00  0.00     0.163 HD
BRANCH  41  44
HETATM   44  C22 UNL     1      -6.125  17.611  -6.148  1.00  0.00     0.270 C 
HETATM   45  C23 UNL     1      -5.083  18.138  -5.184  1.00  0.00     0.050 C 
BRANCH  44  46
HETATM   46  N5  UNL     1      -6.113  18.486  -7.309  1.00  0.00    -0.067 N 
ATOM     47  H53 UNL     1      -7.013  18.491  -7.789  1.00  0.00     0.275 HD
ATOM     48  H52 UNL     1      -6.077  19.469  -7.043  1.00  0.00     0.275 HD
ATOM     49  H51 UNL     1      -5.350  18.235  -7.938  1.00  0.00     0.275 HD
ENDBRANCH  44  46
ENDBRANCH  41  44
ENDBRANCH  38  40
ENDBRANCH  35  38
ENDBRANCH  26  34
ENDBRANCH   1  26
TORSDOF 19
ENDMDL
