MODEL 1
REMARK VINA RESULT: -8.717306587      0.000      0.000
REMARK  19 active torsions:
REMARK  status: ('A' for Active; 'I' for Inactive)
REMARK    1  A    between atoms: O1_2  and  C2_3 
REMARK    2  A    between atoms: C2_3  and  C3_5 
REMARK    3  A    between atoms: C3_5  and  N1_6 
REMARK    4  A    between atoms: C3_5  and  C27_47 
REMARK       I    between atoms: N1_6  and  C4_8 
REMARK    5  A    between atoms: C4_8  and  C5_10 
REMARK    6  A    between atoms: C5_10  and  N2_11 
REMARK    7  A    between atoms: C5_10  and  C24_44 
REMARK       I    between atoms: N2_11  and  C6_13 
REMARK    8  A    between atoms: C6_13  and  C7_15 
REMARK    9  A    between atoms: C7_15  and  C8_16 
REMARK   10  A    between atoms: C8_16  and  C9_17 
REMARK   11  A    between atoms: C9_17  and  O5_18 
REMARK   12  A    between atoms: C9_17  and  C10_20 
REMARK   13  A    between atoms: C10_20  and  C11_21 
REMARK   14  A    between atoms: C10_20  and  N3_28 
REMARK   15  A    between atoms: C11_21  and  C12_22 
REMARK       I    between atoms: N3_28  and  C18_30 
REMARK   16  A    between atoms: C18_30  and  C19_32 
REMARK   17  A    between atoms: C19_32  and  N4_34 
REMARK       I    between atoms: N4_34  and  C21_36 
REMARK   18  A    between atoms: C21_36  and  C22_38 
REMARK   19  A    between atoms: C22_38  and  N5_40 
ROOT
HETATM    1  C9  UNL     1     -12.768  14.745   2.541  1.00  0.00     0.063 C 
ENDROOT
BRANCH   1   2
HETATM    2  C8  UNL     1     -12.097  14.608   1.243  1.00  0.00     0.017 C 
BRANCH   2   3
HETATM    3  C7  UNL     1     -11.573  15.745   0.499  1.00  0.00     0.132 C 
BRANCH   3   4
HETATM    4  C6  UNL     1     -10.408  15.561  -0.361  1.00  0.00     0.221 C 
HETATM    5  N2  UNL     1     -10.381  16.054  -1.692  1.00  0.00    -0.347 N 
ATOM      6  H2  UNL     1     -11.190  16.547  -2.071  1.00  0.00     0.163 HD
HETATM    7  O4  UNL     1      -9.401  14.971   0.052  1.00  0.00    -0.273 OA
BRANCH   5   8
HETATM    8  C5  UNL     1      -9.169  15.852  -2.535  1.00  0.00     0.180 C 
BRANCH   8   9
HETATM    9  C4  UNL     1      -8.225  16.984  -2.202  1.00  0.00     0.241 C 
HETATM   10  N1  UNL     1      -7.298  16.940  -1.135  1.00  0.00    -0.345 N 
ATOM     11  H1  UNL     1      -7.221  16.109  -0.549  1.00  0.00     0.163 HD
HETATM   12  O3  UNL     1      -8.273  18.043  -2.926  1.00  0.00    -0.271 OA
BRANCH  10  13
HETATM   13  C3  UNL     1      -6.454  18.100  -0.887  1.00  0.00     0.187 C 
BRANCH  13  14
HETATM   14  C2  UNL     1      -5.115  17.840  -1.495  1.00  0.00     0.281 C 
HETATM   15  O2  UNL     1      -4.201  17.184  -0.964  1.00  0.00    -0.263 OA
BRANCH  14  16
HETATM   16  O1  UNL     1      -4.928  18.399  -2.757  1.00  0.00    -0.325 OA
HETATM   17  C1  UNL     1      -5.115  19.748  -3.077  1.00  0.00     0.213 C 
ENDBRANCH  14  16
ENDBRANCH  13  14
BRANCH  13  18
HETATM   18  C27 UNL     1      -6.275  18.365   0.569  1.00  0.00     0.010 C 
HETATM   19  C28 UNL     1      -7.215  17.549   1.431  1.00  0.00     0.012 C 
HETATM   20  C29 UNL     1      -6.604  19.831   0.886  1.00  0.00     0.012 C 
ENDBRANCH  13  18
ENDBRANCH  10  13
ENDBRANCH   8   9
BRANCH   8  21
HETATM   21  C24 UNL     1      -9.530  15.731  -3.953  1.00  0.00     0.009 C 
HETATM   22  C25 UNL     1      -9.320  14.410  -4.619  1.00  0.00     0.012 C 
HETATM   23  C26 UNL     1     -11.000  16.101  -4.214  1.00  0.00     0.012 C 
ENDBRANCH   8  21
ENDBRANCH   5   8
ENDBRANCH   3   4
ENDBRANCH   2   3
ENDBRANCH   1   2
BRANCH   1  24
HETATM   24  O5  UNL     1     -13.953  15.411   2.622  1.00  0.00    -0.363 OA
ATOM     25  H5  UNL     1     -14.010  16.310   2.318  1.00  0.00     0.217 HD
ENDBRANCH   1  24
BRANCH   1  26
HETATM   26  C10 UNL     1     -11.918  14.972   3.743  1.00  0.00     0.145 C 
BRANCH  26  27
HETATM   27  C11 UNL     1     -10.450  14.907   3.522  1.00  0.00     0.070 C 
BRANCH  27  28
HETATM   28  C12 UNL     1      -9.626  15.728   4.429  1.00  0.00    -0.056 A 
HETATM   29  C13 UNL     1      -8.867  15.121   5.411  1.00  0.00     0.007 A 
HETATM   30  C14 UNL     1      -8.073  15.857   6.276  1.00  0.00     0.001 A 
HETATM   31  C15 UNL     1      -8.011  17.230   6.185  1.00  0.00     0.000 A 
HETATM   32  C16 UNL     1      -8.772  17.841   5.197  1.00  0.00     0.001 A 
HETATM   33  C17 UNL     1      -9.549  17.103   4.355  1.00  0.00     0.007 A 
ENDBRANCH  27  28
ENDBRANCH  26  27
BRANCH  26  34
HETATM   34  N3  UNL     1     -12.292  14.114   4.856  1.00  0.00    -0.348 N 
HETATM   35  C18 UNL     1     -12.739  14.598   6.125  1.00  0.00     0.240 C 
HETATM   36  O6  UNL     1     -12.808  15.835   6.269  1.00  0.00    -0.271 OA
ATOM     37  H3  UNL     1     -12.233  13.105   4.722  1.00  0.00     0.163 HD
BRANCH  35  38
HETATM   38  C19 UNL     1     -13.108  13.638   7.214  1.00  0.00     0.172 C 
HETATM   39  C20 UNL     1     -12.417  13.943   8.507  1.00  0.00     0.042 C 
BRANCH  38  40
HETATM   40  N4  UNL     1     -13.081  12.275   6.797  1.00  0.00    -0.346 N 
HETATM   41  C21 UNL     1     -14.137  11.482   6.331  1.00  0.00     0.248 C 
HETATM   42  O7  UNL     1     -15.288  12.014   6.243  1.00  0.00    -0.271 OA
ATOM     43  H4  UNL     1     -12.171  11.815   6.845  1.00  0.00     0.163 HD
BRANCH  41  44
HETATM   44  C22 UNL     1     -14.005  10.048   5.928  1.00  0.00     0.270 C 
HETATM   45  C23 UNL     1     -13.435   9.332   7.135  1.00  0.00     0.050 C 
BRANCH  44  46
HETATM   46  N5  UNL     1     -13.036   9.909   4.853  1.00  0.00    -0.067 N 
ATOM     47  H53 UNL     1     -13.439   9.446   4.038  1.00  0.00     0.275 HD
ATOM     48  H52 UNL     1     -12.814  10.807   4.423  1.00  0.00     0.275 HD
ATOM     49  H51 UNL     1     -12.199   9.430   5.185  1.00  0.00     0.275 HD
ENDBRANCH  44  46
ENDBRANCH  41  44
ENDBRANCH  38  40
ENDBRANCH  35  38
ENDBRANCH  26  34
ENDBRANCH   1  26
TORSDOF 19
ENDMDL
