MODEL 4
REMARK VINA RESULT: -8.647648853      2.368     10.767
REMARK  19 active torsions:
REMARK  status: ('A' for Active; 'I' for Inactive)
REMARK    1  A    between atoms: O1_2  and  C2_3 
REMARK    2  A    between atoms: C2_3  and  C3_5 
REMARK    3  A    between atoms: C3_5  and  N1_6 
REMARK    4  A    between atoms: C3_5  and  C27_47 
REMARK       I    between atoms: N1_6  and  C4_8 
REMARK    5  A    between atoms: C4_8  and  C5_10 
REMARK    6  A    between atoms: C5_10  and  N2_11 
REMARK    7  A    between atoms: C5_10  and  C24_44 
REMARK       I    between atoms: N2_11  and  C6_13 
REMARK    8  A    between atoms: C6_13  and  C7_15 
REMARK    9  A    between atoms: C7_15  and  C8_16 
REMARK   10  A    between atoms: C8_16  and  C9_17 
REMARK   11  A    between atoms: C9_17  and  O5_18 
REMARK   12  A    between atoms: C9_17  and  C10_20 
REMARK   13  A    between atoms: C10_20  and  C11_21 
REMARK   14  A    between atoms: C10_20  and  N3_28 
REMARK   15  A    between atoms: C11_21  and  C12_22 
REMARK       I    between atoms: N3_28  and  C18_30 
REMARK   16  A    between atoms: C18_30  and  C19_32 
REMARK   17  A    between atoms: C19_32  and  N4_34 
REMARK       I    between atoms: N4_34  and  C21_36 
REMARK   18  A    between atoms: C21_36  and  C22_38 
REMARK   19  A    between atoms: C22_38  and  N5_40 
ROOT
HETATM    1  C9  UNL     1      -9.888  17.906   0.568  1.00  0.00     0.063 C 
ENDROOT
BRANCH   1   2
HETATM    2  C8  UNL     1     -10.776  16.740   0.508  1.00  0.00     0.017 C 
BRANCH   2   3
HETATM    3  C7  UNL     1     -11.815  16.483   1.497  1.00  0.00     0.132 C 
BRANCH   3   4
HETATM    4  C6  UNL     1     -11.473  15.766   2.721  1.00  0.00     0.221 C 
HETATM    5  N2  UNL     1     -11.152  16.456   3.921  1.00  0.00    -0.347 N 
ATOM      6  H2  UNL     1     -11.151  17.476   3.940  1.00  0.00     0.163 HD
HETATM    7  O4  UNL     1     -11.460  14.529   2.751  1.00  0.00    -0.273 OA
BRANCH   5   8
HETATM    8  C5  UNL     1     -10.817  15.687   5.152  1.00  0.00     0.180 C 
BRANCH   8   9
HETATM    9  C4  UNL     1     -12.132  15.250   5.754  1.00  0.00     0.241 C 
HETATM   10  N1  UNL     1     -12.657  13.943   5.618  1.00  0.00    -0.345 N 
ATOM     11  H1  UNL     1     -12.139  13.227   5.111  1.00  0.00     0.163 HD
HETATM   12  O3  UNL     1     -12.810  16.115   6.417  1.00  0.00    -0.271 OA
BRANCH  10  13
HETATM   13  C3  UNL     1     -13.948  13.638   6.216  1.00  0.00     0.187 C 
BRANCH  13  14
HETATM   14  C2  UNL     1     -13.712  12.829   7.449  1.00  0.00     0.281 C 
HETATM   15  O2  UNL     1     -12.595  12.561   7.927  1.00  0.00    -0.263 OA
BRANCH  14  16
HETATM   16  O1  UNL     1     -14.867  12.365   8.074  1.00  0.00    -0.325 OA
HETATM   17  C1  UNL     1     -15.072  11.053   8.517  1.00  0.00     0.213 C 
ENDBRANCH  14  16
ENDBRANCH  13  14
BRANCH  13  18
HETATM   18  C27 UNL     1     -14.825  12.861   5.295  1.00  0.00     0.010 C 
HETATM   19  C28 UNL     1     -14.123  11.665   4.689  1.00  0.00     0.012 C 
HETATM   20  C29 UNL     1     -15.245  13.732   4.101  1.00  0.00     0.012 C 
ENDBRANCH  13  18
ENDBRANCH  10  13
ENDBRANCH   8   9
BRANCH   8  21
HETATM   21  C24 UNL     1      -9.950  16.471   6.040  1.00  0.00     0.009 C 
HETATM   22  C25 UNL     1      -9.202  15.744   7.111  1.00  0.00     0.012 C 
HETATM   23  C26 UNL     1      -8.891  17.272   5.264  1.00  0.00     0.012 C 
ENDBRANCH   8  21
ENDBRANCH   5   8
ENDBRANCH   3   4
ENDBRANCH   2   3
ENDBRANCH   1   2
BRANCH   1  24
HETATM   24  O5  UNL     1     -10.415  19.161   0.492  1.00  0.00    -0.363 OA
ATOM     25  H5  UNL     1     -11.097  19.422   1.100  1.00  0.00     0.217 HD
ENDBRANCH   1  24
BRANCH   1  26
HETATM   26  C10 UNL     1      -8.570  17.814  -0.120  1.00  0.00     0.145 C 
BRANCH  26  27
HETATM   27  C11 UNL     1      -7.506  18.718   0.392  1.00  0.00     0.070 C 
BRANCH  27  28
HETATM   28  C12 UNL     1      -6.212  18.648  -0.310  1.00  0.00    -0.056 A 
HETATM   29  C13 UNL     1      -5.680  19.784  -0.892  1.00  0.00     0.007 A 
HETATM   30  C14 UNL     1      -4.462  19.761  -1.551  1.00  0.00     0.001 A 
HETATM   31  C15 UNL     1      -3.731  18.597  -1.650  1.00  0.00     0.000 A 
HETATM   32  C16 UNL     1      -4.264  17.455  -1.065  1.00  0.00     0.001 A 
HETATM   33  C17 UNL     1      -5.464  17.495  -0.421  1.00  0.00     0.007 A 
ENDBRANCH  27  28
ENDBRANCH  26  27
BRANCH  26  34
HETATM   34  N3  UNL     1      -8.688  17.952  -1.563  1.00  0.00    -0.348 N 
HETATM   35  C18 UNL     1      -8.655  16.853  -2.477  1.00  0.00     0.240 C 
HETATM   36  O6  UNL     1      -8.519  15.712  -1.990  1.00  0.00    -0.271 OA
ATOM     37  H3  UNL     1      -8.801  18.890  -1.946  1.00  0.00     0.163 HD
BRANCH  35  38
HETATM   38  C19 UNL     1      -8.788  17.089  -3.950  1.00  0.00     0.172 C 
HETATM   39  C20 UNL     1      -9.899  16.293  -4.562  1.00  0.00     0.042 C 
BRANCH  38  40
HETATM   40  N4  UNL     1      -7.542  17.058  -4.641  1.00  0.00    -0.346 N 
HETATM   41  C21 UNL     1      -7.158  17.769  -5.785  1.00  0.00     0.248 C 
HETATM   42  O7  UNL     1      -8.000  18.568  -6.301  1.00  0.00    -0.271 OA
ATOM     43  H4  UNL     1      -6.835  16.433  -4.252  1.00  0.00     0.163 HD
BRANCH  41  44
HETATM   44  C22 UNL     1      -5.820  17.653  -6.444  1.00  0.00     0.270 C 
HETATM   45  C23 UNL     1      -4.812  18.134  -5.421  1.00  0.00     0.050 C 
BRANCH  44  46
HETATM   46  N5  UNL     1      -5.735  18.552  -7.584  1.00  0.00    -0.067 N 
ATOM     47  H53 UNL     1      -6.608  18.582  -8.109  1.00  0.00     0.275 HD
ATOM     48  H52 UNL     1      -5.697  19.529  -7.294  1.00  0.00     0.275 HD
ATOM     49  H51 UNL     1      -4.944  18.302  -8.177  1.00  0.00     0.275 HD
ENDBRANCH  44  46
ENDBRANCH  41  44
ENDBRANCH  38  40
ENDBRANCH  35  38
ENDBRANCH  26  34
ENDBRANCH   1  26
TORSDOF 19
ENDMDL
