MODEL 2
REMARK VINA RESULT: -6.828864470      3.593      5.447
REMARK  5 active torsions:
REMARK  status: ('A' for Active; 'I' for Inactive)
REMARK    1  A    between atoms: N4_12  and  C7_13 
REMARK    2  A    between atoms: C8_15  and  C9_16 
REMARK    3  A    between atoms: C9_16  and  O2_17 
REMARK    4  A    between atoms: C10_19  and  O3_20 
REMARK    5  A    between atoms: C11_22  and  O4_23 
ROOT
HETATM    1  N1  UNL     1       0.908  20.936  36.865  1.00  0.00    -0.100 NA
HETATM    2  C1  UNL     1       1.841  20.391  37.801  1.00  0.00     0.078 A 
HETATM    3  C2  UNL     1       1.615  20.398  39.158  1.00  0.00     0.046 A 
HETATM    4  C3  UNL     1       2.532  19.866  40.039  1.00  0.00     0.091 A 
HETATM    5  N2  UNL     1       3.655  19.338  39.524  1.00  0.00    -0.350 N 
ATOM      6  H2  UNL     1       4.346  18.939  40.160  1.00  0.00     0.166 HD
HETATM    7  C4  UNL     1       3.906  19.315  38.187  1.00  0.00     0.139 A 
HETATM    8  C5  UNL     1       3.000  19.845  37.291  1.00  0.00     0.102 A 
HETATM    9  N3  UNL     1       3.507  19.685  36.050  1.00  0.00    -0.348 N 
ATOM     10  H3  UNL     1       3.054  19.980  35.185  1.00  0.00     0.167 HD
HETATM   11  C6  UNL     1       4.703  19.075  36.130  1.00  0.00     0.188 A 
HETATM   12  N4  UNL     1       4.929  18.858  37.438  1.00  0.00    -0.297 N 
ENDROOT
BRANCH  12  13
HETATM   13  C7  UNL     1       6.097  18.222  38.016  1.00  0.00     0.262 C 
HETATM   14  O1  UNL     1       7.026  19.159  38.355  1.00  0.00    -0.353 OA
HETATM   15  C8  UNL     1       8.186  18.940  37.667  1.00  0.00     0.179 C 
HETATM   16  C10 UNL     1       8.191  17.473  37.253  1.00  0.00     0.182 C 
HETATM   17  C11 UNL     1       6.711  17.217  37.100  1.00  0.00     0.198 C 
BRANCH  15  18
HETATM   18  C9  UNL     1       8.339  19.841  36.461  1.00  0.00     0.198 C 
BRANCH  18  19
HETATM   19  O2  UNL     1       9.670  19.921  36.098  1.00  0.00    -0.398 OA
ATOM     20  H2  UNL     1       9.940  20.831  36.061  1.00  0.00     0.209 HD
ENDBRANCH  18  19
ENDBRANCH  15  18
BRANCH  16  21
HETATM   21  O3  UNL     1       8.751  16.691  38.246  1.00  0.00    -0.390 OA
ATOM     22  H3  UNL     1       8.082  16.172  38.678  1.00  0.00     0.210 HD
ENDBRANCH  16  21
BRANCH  17  23
HETATM   23  O4  UNL     1       6.447  15.906  37.452  1.00  0.00    -0.388 OA
ATOM     24  H4  UNL     1       5.522  15.691  37.459  1.00  0.00     0.210 HD
ENDBRANCH  17  23
ENDBRANCH  12  13
TORSDOF 5
ENDMDL
