MODEL 3
REMARK VINA RESULT: -6.798464217      1.135      1.135
REMARK  5 active torsions:
REMARK  status: ('A' for Active; 'I' for Inactive)
REMARK    1  A    between atoms: N4_12  and  C7_13 
REMARK    2  A    between atoms: C8_15  and  C9_16 
REMARK    3  A    between atoms: C9_16  and  O2_17 
REMARK    4  A    between atoms: C10_19  and  O3_20 
REMARK    5  A    between atoms: C11_22  and  O4_23 
ROOT
HETATM    1  N1  UNL     1       5.325  11.939  40.226  1.00  0.00    -0.100 NA
HETATM    2  C1  UNL     1       5.868  13.224  40.537  1.00  0.00     0.078 A 
HETATM    3  C2  UNL     1       6.071  13.646  41.831  1.00  0.00     0.046 A 
HETATM    4  C3  UNL     1       6.597  14.891  42.103  1.00  0.00     0.091 A 
HETATM    5  N2  UNL     1       6.905  15.678  41.059  1.00  0.00    -0.350 N 
ATOM      6  H2  UNL     1       7.295  16.603  41.240  1.00  0.00     0.166 HD
HETATM    7  C4  UNL     1       6.717  15.288  39.769  1.00  0.00     0.139 A 
HETATM    8  C5  UNL     1       6.191  14.046  39.478  1.00  0.00     0.102 A 
HETATM    9  N3  UNL     1       6.118  13.934  38.134  1.00  0.00    -0.348 N 
ATOM     10  H3  UNL     1       5.769  13.120  37.628  1.00  0.00     0.167 HD
HETATM   11  C6  UNL     1       6.577  15.063  37.566  1.00  0.00     0.188 A 
HETATM   12  N4  UNL     1       6.937  15.875  38.576  1.00  0.00    -0.297 N 
ENDROOT
BRANCH  12  13
HETATM   13  C7  UNL     1       7.493  17.209  38.452  1.00  0.00     0.262 C 
HETATM   14  O1  UNL     1       6.840  18.071  39.280  1.00  0.00    -0.353 OA
HETATM   15  C8  UNL     1       6.255  19.069  38.553  1.00  0.00     0.179 C 
HETATM   16  C10 UNL     1       7.006  19.158  37.230  1.00  0.00     0.182 C 
HETATM   17  C11 UNL     1       7.437  17.722  37.052  1.00  0.00     0.198 C 
BRANCH  15  18
HETATM   18  C9  UNL     1       4.776  18.844  38.320  1.00  0.00     0.198 C 
BRANCH  18  19
HETATM   19  O2  UNL     1       4.049  19.373  39.368  1.00  0.00    -0.398 OA
ATOM     20  H2  UNL     1       4.569  19.355  40.163  1.00  0.00     0.209 HD
ENDBRANCH  18  19
ENDBRANCH  15  18
BRANCH  16  21
HETATM   21  O3  UNL     1       8.088  20.012  37.343  1.00  0.00    -0.390 OA
ATOM     22  H3  UNL     1       8.580  20.034  36.531  1.00  0.00     0.210 HD
ENDBRANCH  16  21
BRANCH  17  23
HETATM   23  O4  UNL     1       8.656  17.700  36.401  1.00  0.00    -0.388 OA
ATOM     24  H4  UNL     1       9.170  16.919  36.574  1.00  0.00     0.210 HD
ENDBRANCH  17  23
ENDBRANCH  12  13
TORSDOF 5
ENDMDL
