MODEL 1
REMARK VINA RESULT: -7.067321768      0.000      0.000
REMARK  5 active torsions:
REMARK  status: ('A' for Active; 'I' for Inactive)
REMARK    1  A    between atoms: N4_12  and  C7_13 
REMARK    2  A    between atoms: C8_15  and  C9_16 
REMARK    3  A    between atoms: C9_16  and  O2_17 
REMARK    4  A    between atoms: C10_19  and  O3_20 
REMARK    5  A    between atoms: C11_22  and  O4_23 
ROOT
HETATM    1  N1  UNL     1       6.097  11.904  39.490  1.00  0.00    -0.100 NA
HETATM    2  C1  UNL     1       6.315  13.249  39.922  1.00  0.00     0.078 A 
HETATM    3  C2  UNL     1       6.158  13.639  41.232  1.00  0.00     0.046 A 
HETATM    4  C3  UNL     1       6.376  14.944  41.621  1.00  0.00     0.091 A 
HETATM    5  N2  UNL     1       6.747  15.821  40.674  1.00  0.00    -0.350 N 
ATOM      6  H2  UNL     1       6.912  16.792  40.942  1.00  0.00     0.166 HD
HETATM    7  C4  UNL     1       6.910  15.466  39.371  1.00  0.00     0.139 A 
HETATM    8  C5  UNL     1       6.696  14.165  38.963  1.00  0.00     0.102 A 
HETATM    9  N3  UNL     1       6.931  14.106  37.635  1.00  0.00    -0.348 N 
ATOM     10  H3  UNL     1       6.853  13.267  37.059  1.00  0.00     0.167 HD
HETATM   11  C6  UNL     1       7.283  15.324  37.188  1.00  0.00     0.188 A 
HETATM   12  N4  UNL     1       7.266  16.138  38.259  1.00  0.00    -0.297 N 
ENDROOT
BRANCH  12  13
HETATM   13  C7  UNL     1       7.579  17.554  38.268  1.00  0.00     0.262 C 
HETATM   14  O1  UNL     1       6.494  18.275  38.668  1.00  0.00    -0.353 OA
HETATM   15  C8  UNL     1       6.114  19.140  37.680  1.00  0.00     0.179 C 
HETATM   16  C10 UNL     1       7.333  19.371  36.795  1.00  0.00     0.182 C 
HETATM   17  C11 UNL     1       8.042  18.045  36.938  1.00  0.00     0.198 C 
BRANCH  15  18
HETATM   18  C9  UNL     1       4.944  18.633  36.866  1.00  0.00     0.198 C 
BRANCH  18  19
HETATM   19  O2  UNL     1       4.753  19.442  35.763  1.00  0.00    -0.398 OA
ATOM     20  H2  UNL     1       3.923  19.898  35.837  1.00  0.00     0.209 HD
ENDBRANCH  18  19
ENDBRANCH  15  18
BRANCH  16  21
HETATM   21  O3  UNL     1       8.094  20.418  37.281  1.00  0.00    -0.390 OA
ATOM     22  H3  UNL     1       8.779  20.093  37.854  1.00  0.00     0.210 HD
ENDBRANCH  16  21
BRANCH  17  23
HETATM   23  O4  UNL     1       9.406  18.258  36.865  1.00  0.00    -0.388 OA
ATOM     24  H4  UNL     1       9.672  19.131  37.132  1.00  0.00     0.210 HD
ENDBRANCH  17  23
ENDBRANCH  12  13
TORSDOF 5
ENDMDL
