MODEL 4
REMARK VINA RESULT: -6.663612894      1.179      1.341
REMARK  5 active torsions:
REMARK  status: ('A' for Active; 'I' for Inactive)
REMARK    1  A    between atoms: N4_12  and  C7_13 
REMARK    2  A    between atoms: C8_15  and  C9_16 
REMARK    3  A    between atoms: C9_16  and  O2_17 
REMARK    4  A    between atoms: C10_19  and  O3_20 
REMARK    5  A    between atoms: C11_22  and  O4_23 
ROOT
HETATM    1  N1  UNL     1       5.006  12.287  41.270  1.00  0.00    -0.100 NA
HETATM    2  C1  UNL     1       5.821  13.461  41.233  1.00  0.00     0.078 A 
HETATM    3  C2  UNL     1       6.293  14.068  42.374  1.00  0.00     0.046 A 
HETATM    4  C3  UNL     1       7.078  15.200  42.310  1.00  0.00     0.091 A 
HETATM    5  N2  UNL     1       7.366  15.688  41.093  1.00  0.00    -0.350 N 
ATOM      6  H2  UNL     1       7.945  16.525  41.024  1.00  0.00     0.166 HD
HETATM    7  C4  UNL     1       6.915  15.110  39.947  1.00  0.00     0.139 A 
HETATM    8  C5  UNL     1       6.128  13.977  39.992  1.00  0.00     0.102 A 
HETATM    9  N3  UNL     1       5.833  13.629  38.721  1.00  0.00    -0.348 N 
ATOM     10  H3  UNL     1       5.265  12.828  38.445  1.00  0.00     0.167 HD
HETATM   11  C6  UNL     1       6.405  14.504  37.874  1.00  0.00     0.188 A 
HETATM   12  N4  UNL     1       7.059  15.397  38.638  1.00  0.00    -0.297 N 
ENDROOT
BRANCH  12  13
HETATM   13  C7  UNL     1       7.829  16.532  38.167  1.00  0.00     0.262 C 
HETATM   14  O1  UNL     1       7.404  17.675  38.773  1.00  0.00    -0.353 OA
HETATM   15  C8  UNL     1       6.950  18.562  37.837  1.00  0.00     0.179 C 
HETATM   16  C10 UNL     1       7.601  18.186  36.512  1.00  0.00     0.182 C 
HETATM   17  C11 UNL     1       7.758  16.695  36.686  1.00  0.00     0.198 C 
BRANCH  15  18
HETATM   18  C9  UNL     1       5.441  18.572  37.713  1.00  0.00     0.198 C 
BRANCH  18  19
HETATM   19  O2  UNL     1       5.070  19.209  36.545  1.00  0.00    -0.398 OA
ATOM     20  H2  UNL     1       4.307  19.753  36.703  1.00  0.00     0.209 HD
ENDBRANCH  18  19
ENDBRANCH  15  18
BRANCH  16  21
HETATM   21  O3  UNL     1       8.822  18.821  36.375  1.00  0.00    -0.390 OA
ATOM     22  H3  UNL     1       9.529  18.187  36.378  1.00  0.00     0.210 HD
ENDBRANCH  16  21
BRANCH  17  23
HETATM   23  O4  UNL     1       8.901  16.286  36.024  1.00  0.00    -0.388 OA
ATOM     24  H4  UNL     1       9.122  16.824  35.273  1.00  0.00     0.210 HD
ENDBRANCH  17  23
ENDBRANCH  12  13
TORSDOF 5
ENDMDL
