MODEL 5
REMARK VINA RESULT: -5.856080424      3.180      7.142
REMARK  14 active torsions:
REMARK  status: ('A' for Active; 'I' for Inactive)
REMARK    1  A    between atoms: C2_2  and  C3_3 
REMARK    2  A    between atoms: C3_3  and  C4_4 
REMARK    3  A    between atoms: C4_4  and  C5_5 
REMARK    4  A    between atoms: C5_5  and  C6_6 
REMARK    5  A    between atoms: C7_7  and  C8_8 
REMARK    6  A    between atoms: C8_8  and  C9_9 
REMARK    7  A    between atoms: C10_10  and  C11_11 
REMARK    8  A    between atoms: C11_11  and  C12_12 
REMARK    9  A    between atoms: C13_13  and  C14_14 
REMARK   10  A    between atoms: C14_14  and  C15_15 
REMARK   11  A    between atoms: C16_16  and  C17_17 
REMARK   12  A    between atoms: C17_17  and  C18_18 
REMARK   13  A    between atoms: C18_18  and  C19_19 
REMARK   14  A    between atoms: C19_19  and  C20_20 
ROOT
HETATM    1  C11 UNL     1     -49.060  68.858  -8.875  1.00  0.00     0.053 C 
ENDROOT
BRANCH   1   2
HETATM    2  C10 UNL     1     -49.274  70.311  -9.197  1.00  0.00    -0.027 C 
HETATM    3  C9  UNL     1     -50.449  70.834  -8.962  1.00  0.00    -0.027 C 
BRANCH   3   4
HETATM    4  C8  UNL     1     -50.682  72.285  -9.278  1.00  0.00     0.053 C 
BRANCH   4   5
HETATM    5  C7  UNL     1     -51.247  72.930  -8.081  1.00  0.00    -0.027 C 
HETATM    6  C6  UNL     1     -50.505  73.338  -7.091  1.00  0.00    -0.030 C 
BRANCH   6   7
HETATM    7  C5  UNL     1     -49.045  73.264  -6.934  1.00  0.00     0.027 C 
BRANCH   7   8
HETATM    8  C4  UNL     1     -48.776  72.150  -5.907  1.00  0.00     0.004 C 
BRANCH   8   9
HETATM    9  C3  UNL     1     -47.451  71.547  -6.280  1.00  0.00    -0.000 C 
BRANCH   9  10
HETATM   10  C2  UNL     1     -46.891  70.659  -5.207  1.00  0.00    -0.005 C 
HETATM   11  C1  UNL     1     -46.578  69.314  -5.829  1.00  0.00     0.005 C 
ENDBRANCH   9  10
ENDBRANCH   8   9
ENDBRANCH   7   8
ENDBRANCH   6   7
ENDBRANCH   4   5
ENDBRANCH   3   4
ENDBRANCH   1   2
BRANCH   1  12
HETATM   12  C12 UNL     1     -50.311  68.159  -9.195  1.00  0.00    -0.027 C 
HETATM   13  C13 UNL     1     -50.404  67.135  -9.973  1.00  0.00    -0.027 C 
BRANCH  13  14
HETATM   14  C14 UNL     1     -49.307  66.489 -10.670  1.00  0.00     0.053 C 
BRANCH  14  15
HETATM   15  C15 UNL     1     -49.229  66.539 -12.105  1.00  0.00    -0.027 C 
HETATM   16  C16 UNL     1     -49.154  67.491 -12.957  1.00  0.00    -0.030 C 
BRANCH  16  17
HETATM   17  C17 UNL     1     -49.127  68.935 -12.706  1.00  0.00     0.027 C 
BRANCH  17  18
HETATM   18  C18 UNL     1     -50.325  69.596 -13.337  1.00  0.00     0.014 C 
BRANCH  18  19
HETATM   19  C19 UNL     1     -51.406  69.882 -12.350  1.00  0.00     0.113 C 
BRANCH  19  20
HETATM   20  C20 UNL     1     -52.660  69.228 -12.800  1.00  0.00     0.172 C 
HETATM   21  O1  UNL     1     -52.635  68.058 -13.239  1.00  0.00    -0.648 OA
HETATM   22  O2  UNL     1     -53.849  69.917 -12.731  1.00  0.00    -0.648 OA
ENDBRANCH  19  20
ENDBRANCH  18  19
ENDBRANCH  17  18
ENDBRANCH  16  17
ENDBRANCH  14  15
ENDBRANCH  13  14
ENDBRANCH   1  12
TORSDOF 14
ENDMDL
