MODEL 2
REMARK VINA RESULT: -5.620524420      0.879      1.542
REMARK  5 active torsions:
REMARK  status: ('A' for Active; 'I' for Inactive)
REMARK    1  A    between atoms: C1_2  and  C2_3 
REMARK    2  A    between atoms: C1_2  and  C3_6 
REMARK    3  A    between atoms: C2_3  and  O2_4 
REMARK    4  A    between atoms: C3_6  and  O3_7 
REMARK    5  A    between atoms: O3_7  and  P1_8 
ROOT
HETATM    1  C3  UNL     1      24.684  25.559  24.146  1.00  0.00     0.263 C 
ENDROOT
BRANCH   1   2
HETATM    2  C1  UNL     1      24.945  24.563  25.252  1.00  0.00     0.174 C 
HETATM    3  O1  UNL     1      24.901  23.360  25.059  1.00  0.00    -0.293 OA
BRANCH   2   4
HETATM    4  C2  UNL     1      25.270  25.009  26.636  1.00  0.00     0.244 C 
BRANCH   4   5
HETATM    5  O2  UNL     1      26.001  24.067  27.332  1.00  0.00    -0.394 OA
ATOM      6  H2  UNL     1      25.531  23.249  27.434  1.00  0.00     0.209 HD
ENDBRANCH   4   5
ENDBRANCH   2   4
ENDBRANCH   1   2
BRANCH   1   7
HETATM    7  O3  UNL     1      23.637  26.323  24.513  1.00  0.00    -0.275 OA
BRANCH   7   8
HETATM    8  P1  UNL     1      23.382  27.768  23.788  1.00  0.00     0.422 P 
HETATM    9  O4  UNL     1      24.063  28.178  22.364  1.00  0.00    -0.617 OA
HETATM   10  O5  UNL     1      22.632  29.006  24.680  1.00  0.00    -0.617 OA
HETATM   11  O6  UNL     1      21.998  27.371  23.297  1.00  0.00    -0.617 OA
ENDBRANCH   7   8
ENDBRANCH   1   7
TORSDOF 5
ENDMDL
