MODEL 7
REMARK VINA RESULT: -5.422003715      2.510      4.307
REMARK  5 active torsions:
REMARK  status: ('A' for Active; 'I' for Inactive)
REMARK    1  A    between atoms: C1_2  and  C2_3 
REMARK    2  A    between atoms: C1_2  and  C3_6 
REMARK    3  A    between atoms: C2_3  and  O2_4 
REMARK    4  A    between atoms: C3_6  and  O3_7 
REMARK    5  A    between atoms: O3_7  and  P1_8 
ROOT
HETATM    1  C3  UNL     1      24.464  28.374  25.682  1.00  0.00     0.263 C 
ENDROOT
BRANCH   1   2
HETATM    2  C1  UNL     1      24.750  29.856  25.615  1.00  0.00     0.174 C 
HETATM    3  O1  UNL     1      24.869  30.536  26.620  1.00  0.00    -0.293 OA
BRANCH   2   4
HETATM    4  C2  UNL     1      24.901  30.558  24.310  1.00  0.00     0.244 C 
BRANCH   4   5
HETATM    5  O2  UNL     1      23.701  30.680  23.639  1.00  0.00    -0.394 OA
ATOM      6  H2  UNL     1      23.674  30.152  22.849  1.00  0.00     0.209 HD
ENDBRANCH   4   5
ENDBRANCH   2   4
ENDBRANCH   1   2
BRANCH   1   7
HETATM    7  O3  UNL     1      23.333  28.137  24.991  1.00  0.00    -0.275 OA
BRANCH   7   8
HETATM    8  P1  UNL     1      23.377  27.228  23.630  1.00  0.00     0.422 P 
HETATM    9  O4  UNL     1      23.267  25.602  23.647  1.00  0.00    -0.617 OA
HETATM   10  O5  UNL     1      23.860  27.964  22.175  1.00  0.00    -0.617 OA
HETATM   11  O6  UNL     1      21.944  27.572  23.254  1.00  0.00    -0.617 OA
ENDBRANCH   7   8
ENDBRANCH   1   7
TORSDOF 5
ENDMDL
