MODEL 17
REMARK VINA RESULT: -5.291772777      2.937      4.503
REMARK  5 active torsions:
REMARK  status: ('A' for Active; 'I' for Inactive)
REMARK    1  A    between atoms: C1_2  and  C2_3 
REMARK    2  A    between atoms: C1_2  and  C3_6 
REMARK    3  A    between atoms: C2_3  and  O2_4 
REMARK    4  A    between atoms: C3_6  and  O3_7 
REMARK    5  A    between atoms: O3_7  and  P1_8 
ROOT
HETATM    1  C3  UNL     1      23.814  29.455  25.269  1.00  0.00     0.263 C 
ENDROOT
BRANCH   1   2
HETATM    2  C1  UNL     1      24.284  30.392  24.180  1.00  0.00     0.174 C 
HETATM    3  O1  UNL     1      23.501  31.027  23.494  1.00  0.00    -0.293 OA
BRANCH   2   4
HETATM    4  C2  UNL     1      25.733  30.583  23.894  1.00  0.00     0.244 C 
BRANCH   4   5
HETATM    5  O2  UNL     1      26.248  29.579  23.100  1.00  0.00    -0.394 OA
ATOM      6  H2  UNL     1      25.609  28.900  22.917  1.00  0.00     0.209 HD
ENDBRANCH   4   5
ENDBRANCH   2   4
ENDBRANCH   1   2
BRANCH   1   7
HETATM    7  O3  UNL     1      22.845  28.674  24.755  1.00  0.00    -0.275 OA
BRANCH   7   8
HETATM    8  P1  UNL     1      23.230  27.448  23.741  1.00  0.00     0.422 P 
HETATM    9  O4  UNL     1      23.266  25.887  24.211  1.00  0.00    -0.617 OA
HETATM   10  O5  UNL     1      23.911  27.824  22.229  1.00  0.00    -0.617 OA
HETATM   11  O6  UNL     1      21.869  27.472  23.062  1.00  0.00    -0.617 OA
ENDBRANCH   7   8
ENDBRANCH   1   7
TORSDOF 5
ENDMDL
