MODEL 10
REMARK VINA RESULT: -5.368505137      0.825      2.100
REMARK  5 active torsions:
REMARK  status: ('A' for Active; 'I' for Inactive)
REMARK    1  A    between atoms: C1_2  and  C2_3 
REMARK    2  A    between atoms: C1_2  and  C3_6 
REMARK    3  A    between atoms: C2_3  and  O2_4 
REMARK    4  A    between atoms: C3_6  and  O3_7 
REMARK    5  A    between atoms: O3_7  and  P1_8 
ROOT
HETATM    1  C3  UNL     1      24.596  25.775  23.600  1.00  0.00     0.263 C 
ENDROOT
BRANCH   1   2
HETATM    2  C1  UNL     1      25.073  24.759  24.612  1.00  0.00     0.174 C 
HETATM    3  O1  UNL     1      25.541  23.685  24.275  1.00  0.00    -0.293 OA
BRANCH   2   4
HETATM    4  C2  UNL     1      24.990  25.026  26.075  1.00  0.00     0.244 C 
BRANCH   4   5
HETATM    5  O2  UNL     1      25.392  23.942  26.829  1.00  0.00    -0.394 OA
ATOM      6  H2  UNL     1      25.479  24.155  27.750  1.00  0.00     0.209 HD
ENDBRANCH   4   5
ENDBRANCH   2   4
ENDBRANCH   1   2
BRANCH   1   7
HETATM    7  O3  UNL     1      24.538  26.974  24.209  1.00  0.00    -0.275 OA
BRANCH   7   8
HETATM    8  P1  UNL     1      23.222  27.929  24.019  1.00  0.00     0.422 P 
HETATM    9  O4  UNL     1      23.005  29.315  24.849  1.00  0.00    -0.617 OA
HETATM   10  O5  UNL     1      21.888  27.316  23.160  1.00  0.00    -0.617 OA
HETATM   11  O6  UNL     1      23.725  28.501  22.703  1.00  0.00    -0.617 OA
ENDBRANCH   7   8
ENDBRANCH   1   7
TORSDOF 5
ENDMDL
