MODEL 12
REMARK VINA RESULT: -5.346784888      0.915      2.008
REMARK  5 active torsions:
REMARK  status: ('A' for Active; 'I' for Inactive)
REMARK    1  A    between atoms: C1_2  and  C2_3 
REMARK    2  A    between atoms: C1_2  and  C3_6 
REMARK    3  A    between atoms: C2_3  and  O2_4 
REMARK    4  A    between atoms: C3_6  and  O3_7 
REMARK    5  A    between atoms: O3_7  and  P1_8 
ROOT
HETATM    1  C3  UNL     1      24.949  25.797  23.687  1.00  0.00     0.263 C 
ENDROOT
BRANCH   1   2
HETATM    2  C1  UNL     1      25.185  24.695  24.694  1.00  0.00     0.174 C 
HETATM    3  O1  UNL     1      25.480  23.562  24.352  1.00  0.00    -0.293 OA
BRANCH   2   4
HETATM    4  C2  UNL     1      25.066  24.944  26.157  1.00  0.00     0.244 C 
BRANCH   4   5
HETATM    5  O2  UNL     1      25.569  23.901  26.909  1.00  0.00    -0.394 OA
ATOM      6  H2  UNL     1      26.401  23.587  26.577  1.00  0.00     0.209 HD
ENDBRANCH   4   5
ENDBRANCH   2   4
ENDBRANCH   1   2
BRANCH   1   7
HETATM    7  O3  UNL     1      24.523  26.886  24.355  1.00  0.00    -0.275 OA
BRANCH   7   8
HETATM    8  P1  UNL     1      23.414  27.882  23.678  1.00  0.00     0.422 P 
HETATM    9  O4  UNL     1      21.944  27.370  23.189  1.00  0.00    -0.617 OA
HETATM   10  O5  UNL     1      23.905  29.433  23.182  1.00  0.00    -0.617 OA
HETATM   11  O6  UNL     1      23.031  28.500  25.014  1.00  0.00    -0.617 OA
ENDBRANCH   7   8
ENDBRANCH   1   7
TORSDOF 5
ENDMDL
