MODEL 2
REMARK VINA RESULT: -7.297684457      4.030      5.983
REMARK  9 active torsions:
REMARK  status: ('A' for Active; 'I' for Inactive)
REMARK    1  A    between atoms: N5_13  and  C6_14 
REMARK    2  A    between atoms: C7_16  and  C8_17 
REMARK    3  A    between atoms: C8_17  and  O2_18 
REMARK    4  A    between atoms: O2_18  and  P1_19 
REMARK    5  A    between atoms: P1_19  and  O5_22 
REMARK    6  A    between atoms: O5_22  and  P2_23 
REMARK    7  A    between atoms: C9_27  and  O9_28 
REMARK    8  A    between atoms: O9_28  and  P3_29 
REMARK    9  A    between atoms: C10_33  and  O13_34 
ROOT
HETATM    1  C6  UNL     1      38.974   2.049  21.757  1.00  0.00     0.262 C 
HETATM    2  O1  UNL     1      38.303   0.861  22.142  1.00  0.00    -0.353 OA
HETATM    3  C7  UNL     1      38.051   1.132  23.475  1.00  0.00     0.180 C 
HETATM    4  C9  UNL     1      37.281   2.379  23.390  1.00  0.00     0.199 C 
HETATM    5  C10 UNL     1      38.268   3.178  22.450  1.00  0.00     0.199 C 
ENDROOT
BRANCH   1   6
HETATM    6  N5  UNL     1      39.110   2.219  20.360  1.00  0.00    -0.297 N 
HETATM    7  C3  UNL     1      40.097   1.577  19.659  1.00  0.00     0.142 A 
HETATM    8  N3  UNL     1      41.005   0.686  19.979  1.00  0.00    -0.336 N 
HETATM    9  C4  UNL     1      40.045   2.023  18.364  1.00  0.00     0.119 A 
HETATM   10  C2  UNL     1      41.853   0.232  19.045  1.00  0.00     0.183 A 
ATOM     11  H3  UNL     1      41.064   0.338  20.936  1.00  0.00     0.168 HD
HETATM   12  N2  UNL     1      41.820   0.648  17.797  1.00  0.00    -0.339 N 
HETATM   13  C1  UNL     1      40.897   1.577  17.395  1.00  0.00     0.148 A 
ATOM     14  H2  UNL     1      42.487   0.274  17.123  1.00  0.00     0.167 HD
HETATM   15  N1  UNL     1      40.956   2.025  16.069  1.00  0.00    -0.080 NA
HETATM   16  N4  UNL     1      39.022   2.909  18.278  1.00  0.00    -0.346 N 
HETATM   17  C5  UNL     1      38.475   3.006  19.486  1.00  0.00     0.188 A 
ATOM     18  H4  UNL     1      38.727   3.410  17.439  1.00  0.00     0.167 HD
ENDBRANCH   1   6
BRANCH   5  19
HETATM   19  O13 UNL     1      39.110   3.853  23.295  1.00  0.00    -0.388 OA
ATOM     20  H13 UNL     1      38.673   4.093  24.103  1.00  0.00     0.210 HD
ENDBRANCH   5  19
BRANCH   3  21
HETATM   21  C8  UNL     1      37.363  -0.010  24.198  1.00  0.00     0.216 C 
BRANCH  21  22
HETATM   22  O2  UNL     1      38.287  -1.053  24.140  1.00  0.00    -0.287 OA
BRANCH  22  23
HETATM   23  P1  UNL     1      37.591  -2.272  23.243  1.00  0.00     0.418 P 
HETATM   24  O3  UNL     1      36.048  -2.066  22.672  1.00  0.00    -0.624 OA
HETATM   25  O4  UNL     1      37.046  -2.787  24.644  1.00  0.00    -0.624 OA
BRANCH  23  26
HETATM   26  O5  UNL     1      38.387  -3.619  22.996  1.00  0.00    -0.173 OA
BRANCH  26  27
HETATM   27  P2  UNL     1      37.696  -4.880  22.226  1.00  0.00     0.431 P 
HETATM   28  O6  UNL     1      38.970  -5.718  22.263  1.00  0.00    -0.616 OA
HETATM   29  O7  UNL     1      36.858  -6.021  23.069  1.00  0.00    -0.616 OA
HETATM   30  O8  UNL     1      37.663  -4.911  20.564  1.00  0.00    -0.616 OA
ENDBRANCH  26  27
ENDBRANCH  23  26
ENDBRANCH  22  23
ENDBRANCH  21  22
ENDBRANCH   3  21
BRANCH   4  31
HETATM   31  O9  UNL     1      37.255   3.024  24.610  1.00  0.00    -0.272 OA
BRANCH  31  32
HETATM   32  P3  UNL     1      35.918   3.889  24.947  1.00  0.00     0.422 P 
HETATM   33  O10 UNL     1      35.868   4.560  26.488  1.00  0.00    -0.617 OA
HETATM   34  O11 UNL     1      36.479   5.186  24.401  1.00  0.00    -0.617 OA
HETATM   35  O12 UNL     1      35.188   2.669  25.581  1.00  0.00    -0.617 OA
ENDBRANCH  31  32
ENDBRANCH   4  31
TORSDOF 9
ENDMDL
