MODEL 3
REMARK VINA RESULT: -7.218453397      1.376      2.107
REMARK  9 active torsions:
REMARK  status: ('A' for Active; 'I' for Inactive)
REMARK    1  A    between atoms: N5_13  and  C6_14 
REMARK    2  A    between atoms: C7_16  and  C8_17 
REMARK    3  A    between atoms: C8_17  and  O2_18 
REMARK    4  A    between atoms: O2_18  and  P1_19 
REMARK    5  A    between atoms: P1_19  and  O5_22 
REMARK    6  A    between atoms: O5_22  and  P2_23 
REMARK    7  A    between atoms: C9_27  and  O9_28 
REMARK    8  A    between atoms: O9_28  and  P3_29 
REMARK    9  A    between atoms: C10_33  and  O13_34 
ROOT
HETATM    1  C6  UNL     1      40.850   1.374  23.950  1.00  0.00     0.262 C 
HETATM    2  O1  UNL     1      40.322   0.500  22.967  1.00  0.00    -0.353 OA
HETATM    3  C7  UNL     1      41.382  -0.377  22.813  1.00  0.00     0.180 C 
HETATM    4  C9  UNL     1      41.559  -0.881  24.180  1.00  0.00     0.199 C 
HETATM    5  C10 UNL     1      41.608   0.516  24.918  1.00  0.00     0.199 C 
ENDROOT
BRANCH   1   6
HETATM    6  N5  UNL     1      39.894   2.224  24.551  1.00  0.00    -0.297 N 
HETATM    7  C3  UNL     1      38.565   1.888  24.586  1.00  0.00     0.142 A 
HETATM    8  N3  UNL     1      37.889   0.823  24.229  1.00  0.00    -0.336 N 
HETATM    9  C4  UNL     1      37.882   2.948  25.124  1.00  0.00     0.119 A 
HETATM   10  C2  UNL     1      36.560   0.789  24.395  1.00  0.00     0.183 A 
ATOM     11  H3  UNL     1      38.374   0.021  23.826  1.00  0.00     0.168 HD
HETATM   12  N2  UNL     1      35.885   1.795  24.909  1.00  0.00    -0.339 N 
HETATM   13  C1  UNL     1      36.529   2.939  25.303  1.00  0.00     0.148 A 
ATOM     14  H2  UNL     1      34.873   1.723  25.014  1.00  0.00     0.167 HD
HETATM   15  N1  UNL     1      35.746   3.998  25.782  1.00  0.00    -0.080 NA
HETATM   16  N4  UNL     1      38.790   3.907  25.431  1.00  0.00    -0.346 N 
HETATM   17  C5  UNL     1      39.989   3.448  25.083  1.00  0.00     0.188 A 
ATOM     18  H4  UNL     1      38.591   4.814  25.852  1.00  0.00     0.167 HD
ENDBRANCH   1   6
BRANCH   5  19
HETATM   19  O13 UNL     1      42.935   0.859  24.961  1.00  0.00    -0.388 OA
ATOM     20  H13 UNL     1      43.452   0.193  25.399  1.00  0.00     0.210 HD
ENDBRANCH   5  19
BRANCH   3  21
HETATM   21  C8  UNL     1      41.132  -1.437  21.756  1.00  0.00     0.216 C 
BRANCH  21  22
HETATM   22  O2  UNL     1      39.742  -1.516  21.677  1.00  0.00    -0.287 OA
BRANCH  22  23
HETATM   23  P1  UNL     1      39.333  -3.122  21.839  1.00  0.00     0.418 P 
HETATM   24  O3  UNL     1      40.544  -4.246  21.979  1.00  0.00    -0.624 OA
HETATM   25  O4  UNL     1      39.434  -3.152  20.254  1.00  0.00    -0.624 OA
BRANCH  23  26
HETATM   26  O5  UNL     1      37.810  -3.554  21.805  1.00  0.00    -0.173 OA
BRANCH  26  27
HETATM   27  P2  UNL     1      36.848  -3.361  23.107  1.00  0.00     0.431 P 
HETATM   28  O6  UNL     1      36.151  -2.135  22.524  1.00  0.00    -0.616 OA
HETATM   29  O7  UNL     1      35.423  -4.179  23.226  1.00  0.00    -0.616 OA
HETATM   30  O8  UNL     1      37.396  -2.491  24.413  1.00  0.00    -0.616 OA
ENDBRANCH  26  27
ENDBRANCH  23  26
ENDBRANCH  22  23
ENDBRANCH  21  22
ENDBRANCH   3  21
BRANCH   4  31
HETATM   31  O9  UNL     1      42.796  -1.473  24.328  1.00  0.00    -0.272 OA
BRANCH  31  32
HETATM   32  P3  UNL     1      42.886  -2.719  25.372  1.00  0.00     0.422 P 
HETATM   33  O10 UNL     1      42.835  -2.296  26.999  1.00  0.00    -0.617 OA
HETATM   34  O11 UNL     1      41.390  -2.962  25.390  1.00  0.00    -0.617 OA
HETATM   35  O12 UNL     1      44.432  -2.602  25.508  1.00  0.00    -0.617 OA
ENDBRANCH  31  32
ENDBRANCH   4  31
TORSDOF 9
ENDMDL
