MODEL 1
REMARK VINA RESULT: -7.316466833      0.000      0.000
REMARK  9 active torsions:
REMARK  status: ('A' for Active; 'I' for Inactive)
REMARK    1  A    between atoms: N5_13  and  C6_14 
REMARK    2  A    between atoms: C7_16  and  C8_17 
REMARK    3  A    between atoms: C8_17  and  O2_18 
REMARK    4  A    between atoms: O2_18  and  P1_19 
REMARK    5  A    between atoms: P1_19  and  O5_22 
REMARK    6  A    between atoms: O5_22  and  P2_23 
REMARK    7  A    between atoms: C9_27  and  O9_28 
REMARK    8  A    between atoms: O9_28  and  P3_29 
REMARK    9  A    between atoms: C10_33  and  O13_34 
ROOT
HETATM    1  C6  UNL     1      39.941   1.434  23.454  1.00  0.00     0.262 C 
HETATM    2  O1  UNL     1      39.097   0.368  23.052  1.00  0.00    -0.353 OA
HETATM    3  C7  UNL     1      40.039  -0.587  22.713  1.00  0.00     0.180 C 
HETATM    4  C9  UNL     1      40.797  -0.722  23.963  1.00  0.00     0.199 C 
HETATM    5  C10 UNL     1      41.078   0.813  24.211  1.00  0.00     0.199 C 
ENDROOT
BRANCH   1   6
HETATM    6  N5  UNL     1      39.281   2.474  24.147  1.00  0.00    -0.297 N 
HETATM    7  C3  UNL     1      37.957   2.373  24.488  1.00  0.00     0.142 A 
HETATM    8  N3  UNL     1      37.065   1.417  24.391  1.00  0.00    -0.336 N 
HETATM    9  C4  UNL     1      37.578   3.570  25.041  1.00  0.00     0.119 A 
HETATM   10  C2  UNL     1      35.815   1.623  24.829  1.00  0.00     0.183 A 
ATOM     11  H3  UNL     1      37.323   0.518  23.983  1.00  0.00     0.168 HD
HETATM   12  N2  UNL     1      35.431   2.762  25.362  1.00  0.00    -0.339 N 
HETATM   13  C1  UNL     1      36.312   3.804  25.494  1.00  0.00     0.148 A 
ATOM     14  H2  UNL     1      34.468   2.872  25.680  1.00  0.00     0.167 HD
HETATM   15  N1  UNL     1      35.823   5.011  26.010  1.00  0.00    -0.080 NA
HETATM   16  N4  UNL     1      38.666   4.377  25.053  1.00  0.00    -0.346 N 
HETATM   17  C5  UNL     1      39.675   3.697  24.517  1.00  0.00     0.188 A 
ATOM     18  H4  UNL     1      38.704   5.332  25.410  1.00  0.00     0.167 HD
ENDBRANCH   1   6
BRANCH   5  19
HETATM   19  O13 UNL     1      42.282   1.065  23.607  1.00  0.00    -0.388 OA
ATOM     20  H13 UNL     1      42.643   1.898  23.886  1.00  0.00     0.210 HD
ENDBRANCH   5  19
BRANCH   3  21
HETATM   21  C8  UNL     1      39.427  -1.869  22.181  1.00  0.00     0.216 C 
BRANCH  21  22
HETATM   22  O2  UNL     1      38.789  -2.425  23.289  1.00  0.00    -0.287 OA
BRANCH  22  23
HETATM   23  P1  UNL     1      37.189  -2.638  22.877  1.00  0.00     0.418 P 
HETATM   24  O3  UNL     1      36.178  -1.325  22.889  1.00  0.00    -0.624 OA
HETATM   25  O4  UNL     1      36.975  -2.868  24.434  1.00  0.00    -0.624 OA
BRANCH  23  26
HETATM   26  O5  UNL     1      36.652  -4.088  22.534  1.00  0.00    -0.173 OA
BRANCH  26  27
HETATM   27  P2  UNL     1      37.642  -5.383  22.554  1.00  0.00     0.431 P 
HETATM   28  O6  UNL     1      36.630  -6.259  23.287  1.00  0.00    -0.616 OA
HETATM   29  O7  UNL     1      37.693  -6.421  21.275  1.00  0.00    -0.616 OA
HETATM   30  O8  UNL     1      38.752  -5.550  23.781  1.00  0.00    -0.616 OA
ENDBRANCH  26  27
ENDBRANCH  23  26
ENDBRANCH  22  23
ENDBRANCH  21  22
ENDBRANCH   3  21
BRANCH   4  31
HETATM   31  O9  UNL     1      42.011  -1.336  23.736  1.00  0.00    -0.272 OA
BRANCH  31  32
HETATM   32  P3  UNL     1      42.678  -2.117  25.000  1.00  0.00     0.422 P 
HETATM   33  O10 UNL     1      42.643  -1.281  26.459  1.00  0.00    -0.617 OA
HETATM   34  O11 UNL     1      41.398  -2.833  25.381  1.00  0.00    -0.617 OA
HETATM   35  O12 UNL     1      44.068  -1.451  24.784  1.00  0.00    -0.617 OA
ENDBRANCH  31  32
ENDBRANCH   4  31
TORSDOF 9
ENDMDL
