MODEL 6
REMARK VINA RESULT: -6.998017758      7.070      9.513
REMARK  9 active torsions:
REMARK  status: ('A' for Active; 'I' for Inactive)
REMARK    1  A    between atoms: N5_13  and  C6_14 
REMARK    2  A    between atoms: C7_16  and  C8_17 
REMARK    3  A    between atoms: C8_17  and  O2_18 
REMARK    4  A    between atoms: O2_18  and  P1_19 
REMARK    5  A    between atoms: P1_19  and  O5_22 
REMARK    6  A    between atoms: O5_22  and  P2_23 
REMARK    7  A    between atoms: C9_27  and  O9_28 
REMARK    8  A    between atoms: O9_28  and  P3_29 
REMARK    9  A    between atoms: C10_33  and  O13_34 
ROOT
HETATM    1  C6  UNL     1      37.260  -6.791  17.400  1.00  0.00     0.262 C 
HETATM    2  O1  UNL     1      37.706  -6.177  18.597  1.00  0.00    -0.353 OA
HETATM    3  C7  UNL     1      38.172  -7.281  19.289  1.00  0.00     0.180 C 
HETATM    4  C9  UNL     1      39.173  -7.820  18.360  1.00  0.00     0.199 C 
HETATM    5  C10 UNL     1      38.268  -7.849  17.065  1.00  0.00     0.199 C 
ENDROOT
BRANCH   1   6
HETATM    6  N5  UNL     1      36.991  -5.889  16.345  1.00  0.00    -0.297 N 
HETATM    7  C3  UNL     1      37.559  -4.642  16.313  1.00  0.00     0.142 A 
HETATM    8  N3  UNL     1      38.448  -4.030  17.057  1.00  0.00    -0.336 N 
HETATM    9  C4  UNL     1      37.024  -3.969  15.244  1.00  0.00     0.119 A 
HETATM   10  C2  UNL     1      38.815  -2.775  16.763  1.00  0.00     0.183 A 
ATOM     11  H3  UNL     1      38.860  -4.509  17.858  1.00  0.00     0.168 HD
HETATM   12  N2  UNL     1      38.315  -2.112  15.743  1.00  0.00    -0.339 N 
HETATM   13  C1  UNL     1      37.382  -2.691  14.924  1.00  0.00     0.148 A 
ATOM     14  H2  UNL     1      38.625  -1.158  15.560  1.00  0.00     0.167 HD
HETATM   15  N1  UNL     1      36.841  -1.910  13.894  1.00  0.00    -0.080 NA
HETATM   16  N4  UNL     1      36.159  -4.809  14.623  1.00  0.00    -0.346 N 
HETATM   17  C5  UNL     1      36.160  -5.954  15.299  1.00  0.00     0.188 A 
ATOM     18  H4  UNL     1      35.609  -4.599  13.791  1.00  0.00     0.167 HD
ENDBRANCH   1   6
BRANCH   5  19
HETATM   19  O13 UNL     1      37.700  -9.097  17.045  1.00  0.00    -0.388 OA
ATOM     20  H13 UNL     1      36.938  -9.123  16.479  1.00  0.00     0.210 HD
ENDBRANCH   5  19
BRANCH   3  21
HETATM   21  C8  UNL     1      38.687  -6.943  20.676  1.00  0.00     0.216 C 
BRANCH  21  22
HETATM   22  O2  UNL     1      37.532  -6.663  21.407  1.00  0.00    -0.287 OA
BRANCH  22  23
HETATM   23  P1  UNL     1      37.866  -5.334  22.355  1.00  0.00     0.418 P 
HETATM   24  O3  UNL     1      38.813  -5.529  23.701  1.00  0.00    -0.624 OA
HETATM   25  O4  UNL     1      36.566  -5.770  23.158  1.00  0.00    -0.624 OA
BRANCH  23  26
HETATM   26  O5  UNL     1      37.234  -3.929  21.989  1.00  0.00    -0.173 OA
BRANCH  26  27
HETATM   27  P2  UNL     1      37.419  -2.638  22.969  1.00  0.00     0.431 P 
HETATM   28  O6  UNL     1      36.031  -2.088  22.657  1.00  0.00    -0.616 OA
HETATM   29  O7  UNL     1      37.070  -2.749  24.576  1.00  0.00    -0.616 OA
HETATM   30  O8  UNL     1      38.151  -1.263  22.390  1.00  0.00    -0.616 OA
ENDBRANCH  26  27
ENDBRANCH  23  26
ENDBRANCH  22  23
ENDBRANCH  21  22
ENDBRANCH   3  21
BRANCH   4  31
HETATM   31  O9  UNL     1      39.485  -9.125  18.680  1.00  0.00    -0.272 OA
BRANCH  31  32
HETATM   32  P3  UNL     1      40.990  -9.624  18.310  1.00  0.00     0.422 P 
HETATM   33  O10 UNL     1      41.740  -8.777  17.066  1.00  0.00    -0.617 OA
HETATM   34  O11 UNL     1      41.663  -8.724  19.327  1.00  0.00    -0.617 OA
HETATM   35  O12 UNL     1      40.487 -10.587  17.196  1.00  0.00    -0.617 OA
ENDBRANCH  31  32
ENDBRANCH   4  31
TORSDOF 9
ENDMDL
