MODEL 1
REMARK VINA RESULT: -7.282157378      0.000      0.000
REMARK  9 active torsions:
REMARK  status: ('A' for Active; 'I' for Inactive)
REMARK    1  A    between atoms: N5_13  and  C6_14 
REMARK    2  A    between atoms: C7_16  and  C8_17 
REMARK    3  A    between atoms: C8_17  and  O2_18 
REMARK    4  A    between atoms: O2_18  and  P1_19 
REMARK    5  A    between atoms: P1_19  and  O5_22 
REMARK    6  A    between atoms: O5_22  and  P2_23 
REMARK    7  A    between atoms: C9_27  and  O9_28 
REMARK    8  A    between atoms: C10_30  and  O10_31 
REMARK    9  A    between atoms: O10_31  and  P3_32 
ROOT
HETATM    1  C6  UNL     1      38.999   1.942  21.651  1.00  0.00     0.263 C 
HETATM    2  O1  UNL     1      38.645   0.714  22.147  1.00  0.00    -0.353 OA
HETATM    3  C7  UNL     1      39.808   0.011  22.449  1.00  0.00     0.180 C 
HETATM    4  C9  UNL     1      40.732   1.082  22.976  1.00  0.00     0.183 C 
HETATM    5  C10 UNL     1      40.416   2.230  22.007  1.00  0.00     0.216 C 
ENDROOT
BRANCH   1   6
HETATM    6  N5  UNL     1      38.103   2.938  22.240  1.00  0.00    -0.297 N 
HETATM    7  C3  UNL     1      37.327   2.725  23.314  1.00  0.00     0.142 A 
HETATM    8  N3  UNL     1      37.092   1.697  24.144  1.00  0.00    -0.336 N 
HETATM    9  C4  UNL     1      36.646   3.906  23.540  1.00  0.00     0.119 A 
HETATM   10  C2  UNL     1      36.208   1.830  25.170  1.00  0.00     0.183 A 
ATOM     11  H3  UNL     1      37.579   0.811  24.005  1.00  0.00     0.168 HD
HETATM   12  N2  UNL     1      35.554   2.988  25.375  1.00  0.00    -0.339 N 
HETATM   13  C1  UNL     1      35.741   4.058  24.583  1.00  0.00     0.148 A 
ATOM     14  H2  UNL     1      34.898   3.057  26.153  1.00  0.00     0.167 HD
HETATM   15  N1  UNL     1      35.062   5.287  24.779  1.00  0.00    -0.080 NA
HETATM   16  N4  UNL     1      37.014   4.819  22.606  1.00  0.00    -0.346 N 
HETATM   17  C5  UNL     1      37.914   4.195  21.816  1.00  0.00     0.188 A 
ATOM     18  H4  UNL     1      36.679   5.779  22.518  1.00  0.00     0.167 HD
ENDBRANCH   1   6
BRANCH   5  19
HETATM   19  O10 UNL     1      41.292   2.081  20.933  1.00  0.00    -0.270 OA
BRANCH  19  20
HETATM   20  P3  UNL     1      41.719   3.382  20.243  1.00  0.00     0.422 P 
HETATM   21  O11 UNL     1      40.459   3.485  19.284  1.00  0.00    -0.617 OA
HETATM   22  O12 UNL     1      41.745   4.135  21.741  1.00  0.00    -0.617 OA
HETATM   23  O13 UNL     1      43.116   2.590  19.728  1.00  0.00    -0.617 OA
ENDBRANCH  19  20
ENDBRANCH   5  19
BRANCH   3  24
HETATM   24  C8  UNL     1      39.467  -1.015  23.499  1.00  0.00     0.216 C 
BRANCH  24  25
HETATM   25  O2  UNL     1      38.075  -1.164  23.546  1.00  0.00    -0.287 OA
BRANCH  25  26
HETATM   26  P1  UNL     1      37.539  -2.603  23.287  1.00  0.00     0.418 P 
HETATM   27  O3  UNL     1      36.202  -2.026  22.554  1.00  0.00    -0.624 OA
HETATM   28  O4  UNL     1      37.524  -2.781  24.940  1.00  0.00    -0.624 OA
BRANCH  26  29
HETATM   29  O5  UNL     1      37.118  -4.058  23.175  1.00  0.00    -0.173 OA
BRANCH  29  30
HETATM   30  P2  UNL     1      37.613  -5.193  22.169  1.00  0.00     0.431 P 
HETATM   31  O6  UNL     1      39.154  -5.917  22.389  1.00  0.00    -0.616 OA
HETATM   32  O7  UNL     1      37.138  -6.329  23.103  1.00  0.00    -0.616 OA
HETATM   33  O8  UNL     1      38.263  -4.239  21.179  1.00  0.00    -0.616 OA
ENDBRANCH  29  30
ENDBRANCH  26  29
ENDBRANCH  25  26
ENDBRANCH  24  25
ENDBRANCH   3  24
BRANCH   4  34
HETATM   34  O9  UNL     1      42.068   0.736  22.862  1.00  0.00    -0.390 OA
ATOM     35  H9  UNL     1      42.190  -0.157  22.564  1.00  0.00     0.210 HD
ENDBRANCH   4  34
TORSDOF 9
ENDMDL
