MODEL 2
REMARK VINA RESULT: -7.269526959      1.553      2.254
REMARK  9 active torsions:
REMARK  status: ('A' for Active; 'I' for Inactive)
REMARK    1  A    between atoms: N5_13  and  C6_14 
REMARK    2  A    between atoms: C7_16  and  C8_17 
REMARK    3  A    between atoms: C8_17  and  O2_18 
REMARK    4  A    between atoms: O2_18  and  P1_19 
REMARK    5  A    between atoms: P1_19  and  O5_22 
REMARK    6  A    between atoms: O5_22  and  P2_23 
REMARK    7  A    between atoms: C9_27  and  O9_28 
REMARK    8  A    between atoms: C10_30  and  O10_31 
REMARK    9  A    between atoms: O10_31  and  P3_32 
ROOT
HETATM    1  C6  UNL     1      38.414   0.940  22.734  1.00  0.00     0.263 C 
HETATM    2  O1  UNL     1      38.730  -0.308  23.209  1.00  0.00    -0.353 OA
HETATM    3  C7  UNL     1      39.896  -0.734  22.580  1.00  0.00     0.180 C 
HETATM    4  C9  UNL     1      40.707   0.534  22.459  1.00  0.00     0.183 C 
HETATM    5  C10 UNL     1      39.610   1.536  22.077  1.00  0.00     0.216 C 
ENDROOT
BRANCH   1   6
HETATM    6  N5  UNL     1      37.984   1.755  23.871  1.00  0.00    -0.297 N 
HETATM    7  C3  UNL     1      37.173   2.820  23.781  1.00  0.00     0.142 A 
HETATM    8  N3  UNL     1      36.532   3.463  22.792  1.00  0.00    -0.336 N 
HETATM    9  C4  UNL     1      37.019   3.298  25.069  1.00  0.00     0.119 A 
HETATM   10  C2  UNL     1      35.761   4.550  23.066  1.00  0.00     0.183 A 
ATOM     11  H3  UNL     1      36.625   3.135  21.831  1.00  0.00     0.168 HD
HETATM   12  N2  UNL     1      35.623   5.002  24.326  1.00  0.00    -0.339 N 
HETATM   13  C1  UNL     1      36.234   4.406  25.364  1.00  0.00     0.148 A 
ATOM     14  H2  UNL     1      35.037   5.819  24.499  1.00  0.00     0.167 HD
HETATM   15  N1  UNL     1      36.103   4.865  26.699  1.00  0.00    -0.080 NA
HETATM   16  N4  UNL     1      37.735   2.523  25.922  1.00  0.00    -0.346 N 
HETATM   17  C5  UNL     1      38.322   1.578  25.156  1.00  0.00     0.188 A 
ATOM     18  H4  UNL     1      37.813   2.632  26.933  1.00  0.00     0.167 HD
ENDBRANCH   1   6
BRANCH   5  19
HETATM   19  O10 UNL     1      39.537   1.518  20.685  1.00  0.00    -0.270 OA
BRANCH  19  20
HETATM   20  P3  UNL     1      39.502   2.892  20.006  1.00  0.00     0.422 P 
HETATM   21  O11 UNL     1      39.453   3.741  21.345  1.00  0.00    -0.617 OA
HETATM   22  O12 UNL     1      40.955   2.524  19.253  1.00  0.00    -0.617 OA
HETATM   23  O13 UNL     1      38.073   2.423  19.244  1.00  0.00    -0.617 OA
ENDBRANCH  19  20
ENDBRANCH   5  19
BRANCH   3  24
HETATM   24  C8  UNL     1      40.558  -1.751  23.474  1.00  0.00     0.216 C 
BRANCH  24  25
HETATM   25  O2  UNL     1      39.612  -2.223  24.392  1.00  0.00    -0.287 OA
BRANCH  25  26
HETATM   26  P1  UNL     1      38.868  -3.530  23.985  1.00  0.00     0.418 P 
HETATM   27  O3  UNL     1      37.447  -2.950  24.536  1.00  0.00    -0.624 OA
HETATM   28  O4  UNL     1      39.874  -4.310  25.054  1.00  0.00    -0.624 OA
BRANCH  26  29
HETATM   29  O5  UNL     1      38.303  -4.887  23.601  1.00  0.00    -0.173 OA
BRANCH  29  30
HETATM   30  P2  UNL     1      37.463  -5.319  22.316  1.00  0.00     0.431 P 
HETATM   31  O6  UNL     1      38.137  -6.424  21.187  1.00  0.00    -0.616 OA
HETATM   32  O7  UNL     1      36.942  -6.605  23.000  1.00  0.00    -0.616 OA
HETATM   33  O8  UNL     1      37.961  -4.191  21.427  1.00  0.00    -0.616 OA
ENDBRANCH  29  30
ENDBRANCH  26  29
ENDBRANCH  25  26
ENDBRANCH  24  25
ENDBRANCH   3  24
BRANCH   4  34
HETATM   34  O9  UNL     1      41.648   0.470  21.445  1.00  0.00    -0.390 OA
ATOM     35  H9  UNL     1      42.242   1.211  21.450  1.00  0.00     0.210 HD
ENDBRANCH   4  34
TORSDOF 9
ENDMDL
