MODEL 3
REMARK VINA RESULT: -7.196473965      4.324      7.854
REMARK  9 active torsions:
REMARK  status: ('A' for Active; 'I' for Inactive)
REMARK    1  A    between atoms: N5_13  and  C6_14 
REMARK    2  A    between atoms: C7_16  and  C8_17 
REMARK    3  A    between atoms: C8_17  and  O2_18 
REMARK    4  A    between atoms: O2_18  and  P1_19 
REMARK    5  A    between atoms: P1_19  and  O5_22 
REMARK    6  A    between atoms: O5_22  and  P2_23 
REMARK    7  A    between atoms: C9_27  and  O9_28 
REMARK    8  A    between atoms: C10_30  and  O10_31 
REMARK    9  A    between atoms: O10_31  and  P3_32 
ROOT
HETATM    1  C6  UNL     1      39.653  -2.093  23.084  1.00  0.00     0.263 C 
HETATM    2  O1  UNL     1      39.577  -0.732  22.931  1.00  0.00    -0.353 OA
HETATM    3  C7  UNL     1      38.253  -0.396  22.663  1.00  0.00     0.180 C 
HETATM    4  C9  UNL     1      37.470  -1.360  23.521  1.00  0.00     0.183 C 
HETATM    5  C10 UNL     1      38.291  -2.642  23.327  1.00  0.00     0.216 C 
ENDROOT
BRANCH   1   6
HETATM    6  N5  UNL     1      40.535  -2.367  24.220  1.00  0.00    -0.297 N 
HETATM    7  C3  UNL     1      41.525  -1.559  24.628  1.00  0.00     0.142 A 
HETATM    8  N3  UNL     1      42.027  -0.377  24.238  1.00  0.00    -0.336 N 
HETATM    9  C4  UNL     1      42.105  -2.179  25.719  1.00  0.00     0.119 A 
HETATM   10  C2  UNL     1      43.076   0.179  24.904  1.00  0.00     0.183 A 
ATOM     11  H3  UNL     1      41.621   0.107  23.437  1.00  0.00     0.168 HD
HETATM   12  N2  UNL     1      43.629  -0.440  25.965  1.00  0.00    -0.339 N 
HETATM   13  C1  UNL     1      43.175  -1.624  26.410  1.00  0.00     0.148 A 
ATOM     14  H2  UNL     1      44.413   0.002  26.443  1.00  0.00     0.167 HD
HETATM   15  N1  UNL     1      43.743  -2.294  27.524  1.00  0.00    -0.080 NA
HETATM   16  N4  UNL     1      41.465  -3.351  25.959  1.00  0.00    -0.346 N 
HETATM   17  C5  UNL     1      40.500  -3.442  25.018  1.00  0.00     0.188 A 
ATOM     18  H4  UNL     1      41.671  -4.024  26.698  1.00  0.00     0.167 HD
ENDBRANCH   1   6
BRANCH   5  19
HETATM   19  O10 UNL     1      37.751  -3.283  22.213  1.00  0.00    -0.270 OA
BRANCH  19  20
HETATM   20  P3  UNL     1      37.423  -4.769  22.399  1.00  0.00     0.422 P 
HETATM   21  O11 UNL     1      38.636  -5.089  23.371  1.00  0.00    -0.617 OA
HETATM   22  O12 UNL     1      35.916  -4.332  22.993  1.00  0.00    -0.617 OA
HETATM   23  O13 UNL     1      37.594  -4.963  20.733  1.00  0.00    -0.617 OA
ENDBRANCH  19  20
ENDBRANCH   5  19
BRANCH   3  24
HETATM   24  C8  UNL     1      38.047   1.037  23.082  1.00  0.00     0.216 C 
BRANCH  24  25
HETATM   25  O2  UNL     1      37.124   1.069  24.134  1.00  0.00    -0.287 OA
BRANCH  25  26
HETATM   26  P1  UNL     1      37.215   2.306  25.076  1.00  0.00     0.418 P 
HETATM   27  O3  UNL     1      38.710   1.883  25.570  1.00  0.00    -0.624 OA
HETATM   28  O4  UNL     1      35.905   1.661  25.873  1.00  0.00    -0.624 OA
BRANCH  26  29
HETATM   29  O5  UNL     1      37.121   3.510  25.998  1.00  0.00    -0.173 OA
BRANCH  29  30
HETATM   30  P2  UNL     1      36.656   5.004  25.686  1.00  0.00     0.431 P 
HETATM   31  O6  UNL     1      35.086   5.295  25.052  1.00  0.00    -0.616 OA
HETATM   32  O7  UNL     1      35.941   5.142  27.050  1.00  0.00    -0.616 OA
HETATM   33  O8  UNL     1      37.177   5.027  24.258  1.00  0.00    -0.616 OA
ENDBRANCH  29  30
ENDBRANCH  26  29
ENDBRANCH  25  26
ENDBRANCH  24  25
ENDBRANCH   3  24
BRANCH   4  34
HETATM   34  O9  UNL     1      36.182  -1.562  23.055  1.00  0.00    -0.390 OA
ATOM     35  H9  UNL     1      35.918  -0.912  22.414  1.00  0.00     0.210 HD
ENDBRANCH   4  34
TORSDOF 9
ENDMDL
