MODEL 3
REMARK VINA RESULT: -9.491096307      2.055      4.519
REMARK  10 active torsions:
REMARK  status: ('A' for Active; 'I' for Inactive)
REMARK    1  A    between atoms: N4_17  and  C9_18 
REMARK    2  A    between atoms: C9_18  and  C10_19 
REMARK    3  A    between atoms: C10_19  and  O3_20 
REMARK    4  A    between atoms: C10_19  and  C11_22 
REMARK    5  A    between atoms: C11_22  and  O4_23 
REMARK    6  A    between atoms: C11_22  and  C12_25 
REMARK    7  A    between atoms: C12_25  and  O5_26 
REMARK    8  A    between atoms: C12_25  and  C13_28 
REMARK    9  A    between atoms: C13_28  and  O6_29 
REMARK   10  A    between atoms: O6_29  and  P1_30 
ROOT
HETATM    1  C1  UNL     1      -2.970  62.811  25.883  1.00  0.00     0.049 C 
HETATM    2  C2  UNL     1      -2.460  62.088  24.694  1.00  0.00    -0.054 A 
HETATM    3  C3  UNL     1      -3.283  61.818  23.622  1.00  0.00     0.039 A 
HETATM    4  C4  UNL     1      -2.832  61.143  22.498  1.00  0.00     0.060 A 
HETATM    5  N1  UNL     1      -3.680  60.913  21.480  1.00  0.00    -0.347 N 
ATOM      6  H1  UNL     1      -4.647  61.233  21.547  1.00  0.00     0.166 HD
HETATM    7  C5  UNL     1      -3.271  60.269  20.380  1.00  0.00     0.146 A 
HETATM    8  C6  UNL     1      -4.113  60.005  19.293  1.00  0.00     0.280 A 
HETATM    9  O1  UNL     1      -5.293  60.393  19.368  1.00  0.00    -0.265 OA
HETATM   10  N2  UNL     1      -3.629  59.347  18.211  1.00  0.00    -0.273 N 
ATOM     11  H2  UNL     1      -4.240  59.152  17.417  1.00  0.00     0.173 HD
HETATM   12  C7  UNL     1      -2.344  58.951  18.183  1.00  0.00     0.328 A 
HETATM   13  O2  UNL     1      -1.959  58.345  17.149  1.00  0.00    -0.247 OA
HETATM   14  N3  UNL     1      -1.488  59.187  19.221  1.00  0.00    -0.292 N 
ATOM     15  H3  UNL     1      -0.522  58.868  19.154  1.00  0.00     0.172 HD
HETATM   16  C8  UNL     1      -1.891  59.832  20.325  1.00  0.00     0.145 A 
HETATM   17  N4  UNL     1      -1.065  60.088  21.386  1.00  0.00    -0.327 N 
HETATM   18  C14 UNL     1      -1.493  60.737  22.481  1.00  0.00     0.063 A 
HETATM   19  C15 UNL     1      -0.660  61.003  23.551  1.00  0.00     0.039 A 
HETATM   20  C16 UNL     1      -1.141  61.678  24.657  1.00  0.00    -0.054 A 
HETATM   21  C17 UNL     1      -0.261  61.973  25.815  1.00  0.00     0.049 C 
ENDROOT
BRANCH  17  22
HETATM   22  C9  UNL     1       0.304  59.631  21.279  1.00  0.00     0.165 C 
BRANCH  22  23
HETATM   23  C10 UNL     1       0.333  58.147  21.668  1.00  0.00     0.167 C 
BRANCH  23  24
HETATM   24  O3  UNL     1      -0.588  57.802  22.618  1.00  0.00    -0.391 OA
ATOM     25  H3  UNL     1      -0.209  57.443  23.412  1.00  0.00     0.210 HD
ENDBRANCH  23  24
BRANCH  23  26
HETATM   26  C11 UNL     1       1.670  57.632  21.955  1.00  0.00     0.179 C 
BRANCH  26  27
HETATM   27  O4  UNL     1       2.048  56.695  20.990  1.00  0.00    -0.390 OA
ATOM     28  H4  UNL     1       1.747  55.827  21.235  1.00  0.00     0.210 HD
ENDBRANCH  26  27
BRANCH  26  29
HETATM   29  C12 UNL     1       2.078  57.181  23.287  1.00  0.00     0.173 C 
BRANCH  29  30
HETATM   30  O5  UNL     1       3.468  57.567  23.385  1.00  0.00    -0.391 OA
ATOM     31  H5  UNL     1       3.624  57.648  24.318  1.00  0.00     0.210 HD
ENDBRANCH  29  30
BRANCH  29  32
HETATM   32  C13 UNL     1       2.164  55.671  23.488  1.00  0.00     0.217 C 
BRANCH  32  33
HETATM   33  O6  UNL     1       0.905  55.096  23.142  1.00  0.00    -0.280 OA
BRANCH  33  34
HETATM   34  P1  UNL     1       0.866  53.480  23.607  1.00  0.00     0.422 P 
HETATM   35  O7  UNL     1       1.435  52.651  22.504  1.00  0.00    -0.617 OA
HETATM   36  O8  UNL     1      -0.705  52.953  23.932  1.00  0.00    -0.617 OA
HETATM   37  O9  UNL     1       1.801  53.211  25.000  1.00  0.00    -0.617 OA
ENDBRANCH  33  34
ENDBRANCH  32  33
ENDBRANCH  29  32
ENDBRANCH  26  29
ENDBRANCH  23  26
ENDBRANCH  22  23
ENDBRANCH  17  22
TORSDOF 10
ENDMDL
