MODEL 6
REMARK VINA RESULT: -8.619092978      2.121      4.660
REMARK  10 active torsions:
REMARK  status: ('A' for Active; 'I' for Inactive)
REMARK    1  A    between atoms: N4_17  and  C9_18 
REMARK    2  A    between atoms: C9_18  and  C10_19 
REMARK    3  A    between atoms: C10_19  and  O3_20 
REMARK    4  A    between atoms: C10_19  and  C11_22 
REMARK    5  A    between atoms: C11_22  and  O4_23 
REMARK    6  A    between atoms: C11_22  and  C12_25 
REMARK    7  A    between atoms: C12_25  and  O5_26 
REMARK    8  A    between atoms: C12_25  and  C13_28 
REMARK    9  A    between atoms: C13_28  and  O6_29 
REMARK   10  A    between atoms: O6_29  and  P1_30 
ROOT
HETATM    1  C1  UNL     1      -3.076  62.857  25.975  1.00  0.00     0.049 C 
HETATM    2  C2  UNL     1      -2.553  62.156  24.778  1.00  0.00    -0.054 A 
HETATM    3  C3  UNL     1      -3.377  61.867  23.711  1.00  0.00     0.039 A 
HETATM    4  C4  UNL     1      -2.914  61.212  22.579  1.00  0.00     0.060 A 
HETATM    5  N1  UNL     1      -3.763  60.961  21.567  1.00  0.00    -0.347 N 
ATOM      6  H1  UNL     1      -4.738  61.249  21.644  1.00  0.00     0.166 HD
HETATM    7  C5  UNL     1      -3.342  60.336  20.461  1.00  0.00     0.146 A 
HETATM    8  C6  UNL     1      -4.185  60.051  19.379  1.00  0.00     0.280 A 
HETATM    9  O1  UNL     1      -5.376  60.401  19.466  1.00  0.00    -0.265 OA
HETATM   10  N2  UNL     1      -3.689  59.415  18.289  1.00  0.00    -0.273 N 
ATOM     11  H2  UNL     1      -4.300  59.204  17.500  1.00  0.00     0.173 HD
HETATM   12  C7  UNL     1      -2.393  59.059  18.249  1.00  0.00     0.328 A 
HETATM   13  O2  UNL     1      -1.997  58.472  17.208  1.00  0.00    -0.247 OA
HETATM   14  N3  UNL     1      -1.536  59.317  19.281  1.00  0.00    -0.292 N 
ATOM     15  H3  UNL     1      -0.560  59.029  19.204  1.00  0.00     0.172 HD
HETATM   16  C8  UNL     1      -1.950  59.943  20.392  1.00  0.00     0.145 A 
HETATM   17  N4  UNL     1      -1.123  60.220  21.447  1.00  0.00    -0.327 N 
HETATM   18  C14 UNL     1      -1.562  60.848  22.549  1.00  0.00     0.063 A 
HETATM   19  C15 UNL     1      -0.730  61.135  23.614  1.00  0.00     0.039 A 
HETATM   20  C16 UNL     1      -1.222  61.789  24.727  1.00  0.00    -0.054 A 
HETATM   21  C17 UNL     1      -0.342  62.105  25.880  1.00  0.00     0.049 C 
ENDROOT
BRANCH  17  22
HETATM   22  C9  UNL     1       0.258  59.807  21.327  1.00  0.00     0.165 C 
BRANCH  22  23
HETATM   23  C10 UNL     1       0.369  58.377  21.875  1.00  0.00     0.167 C 
BRANCH  23  24
HETATM   24  O3  UNL     1       0.772  58.311  23.179  1.00  0.00    -0.391 OA
ATOM     25  H3  UNL     1       1.689  58.092  23.290  1.00  0.00     0.210 HD
ENDBRANCH  23  24
BRANCH  23  26
HETATM   26  C11 UNL     1       1.099  57.460  21.003  1.00  0.00     0.179 C 
BRANCH  26  27
HETATM   27  O4  UNL     1       0.240  56.903  20.053  1.00  0.00    -0.390 OA
ATOM     28  H4  UNL     1       0.090  55.983  20.241  1.00  0.00     0.210 HD
ENDBRANCH  26  27
BRANCH  26  29
HETATM   29  C12 UNL     1       2.019  56.442  21.515  1.00  0.00     0.173 C 
BRANCH  29  30
HETATM   30  O5  UNL     1       2.905  56.170  20.406  1.00  0.00    -0.391 OA
ATOM     31  H5  UNL     1       3.684  55.808  20.812  1.00  0.00     0.210 HD
ENDBRANCH  29  30
BRANCH  29  32
HETATM   32  C13 UNL     1       1.418  55.063  21.772  1.00  0.00     0.217 C 
BRANCH  32  33
HETATM   33  O6  UNL     1       0.809  55.067  23.062  1.00  0.00    -0.280 OA
BRANCH  33  34
HETATM   34  P1  UNL     1       0.828  53.514  23.709  1.00  0.00     0.422 P 
HETATM   35  O7  UNL     1       1.737  53.501  24.893  1.00  0.00    -0.617 OA
HETATM   36  O8  UNL     1       1.367  52.370  22.592  1.00  0.00    -0.617 OA
HETATM   37  O9  UNL     1      -0.718  53.040  24.232  1.00  0.00    -0.617 OA
ENDBRANCH  33  34
ENDBRANCH  32  33
ENDBRANCH  29  32
ENDBRANCH  26  29
ENDBRANCH  23  26
ENDBRANCH  22  23
ENDBRANCH  17  22
TORSDOF 10
ENDMDL
