MODEL 8
REMARK VINA RESULT: -8.197682900      2.925      5.355
REMARK  10 active torsions:
REMARK  status: ('A' for Active; 'I' for Inactive)
REMARK    1  A    between atoms: N4_17  and  C9_18 
REMARK    2  A    between atoms: C9_18  and  C10_19 
REMARK    3  A    between atoms: C10_19  and  O3_20 
REMARK    4  A    between atoms: C10_19  and  C11_22 
REMARK    5  A    between atoms: C11_22  and  O4_23 
REMARK    6  A    between atoms: C11_22  and  C12_25 
REMARK    7  A    between atoms: C12_25  and  O5_26 
REMARK    8  A    between atoms: C12_25  and  C13_28 
REMARK    9  A    between atoms: C13_28  and  O6_29 
REMARK   10  A    between atoms: O6_29  and  P1_30 
ROOT
HETATM    1  C1  UNL     1      -5.348  60.845  20.901  1.00  0.00     0.049 C 
HETATM    2  C2  UNL     1      -3.972  60.448  20.518  1.00  0.00    -0.054 A 
HETATM    3  C3  UNL     1      -3.694  59.994  19.247  1.00  0.00     0.039 A 
HETATM    4  C4  UNL     1      -2.415  59.616  18.864  1.00  0.00     0.060 A 
HETATM    5  N1  UNL     1      -2.202  59.186  17.607  1.00  0.00    -0.347 N 
ATOM      6  H1  UNL     1      -2.982  59.137  16.952  1.00  0.00     0.166 HD
HETATM    7  C5  UNL     1      -0.978  58.820  17.208  1.00  0.00     0.146 A 
HETATM    8  C6  UNL     1      -0.703  58.366  15.912  1.00  0.00     0.280 A 
HETATM    9  O1  UNL     1      -1.650  58.304  15.107  1.00  0.00    -0.265 OA
HETATM   10  N2  UNL     1       0.562  58.012  15.578  1.00  0.00    -0.273 N 
ATOM     11  H2  UNL     1       0.767  57.679  14.635  1.00  0.00     0.173 HD
HETATM   12  C7  UNL     1       1.548  58.098  16.488  1.00  0.00     0.328 A 
HETATM   13  O2  UNL     1       2.700  57.754  16.113  1.00  0.00    -0.247 OA
HETATM   14  N3  UNL     1       1.325  58.536  17.762  1.00  0.00    -0.292 N 
ATOM     15  H3  UNL     1       2.105  58.584  18.418  1.00  0.00     0.172 HD
HETATM   16  C8  UNL     1       0.101  58.904  18.169  1.00  0.00     0.145 A 
HETATM   17  N4  UNL     1      -0.163  59.347  19.437  1.00  0.00    -0.327 N 
HETATM   18  C14 UNL     1      -1.398  59.711  19.820  1.00  0.00     0.063 A 
HETATM   19  C15 UNL     1      -1.668  60.166  21.096  1.00  0.00     0.039 A 
HETATM   20  C16 UNL     1      -2.953  60.535  21.447  1.00  0.00    -0.054 A 
HETATM   21  C17 UNL     1      -3.261  61.025  22.814  1.00  0.00     0.049 C 
ENDROOT
BRANCH  17  22
HETATM   22  C9  UNL     1       0.951  59.413  20.358  1.00  0.00     0.165 C 
BRANCH  22  23
HETATM   23  C10 UNL     1       1.068  58.047  21.048  1.00  0.00     0.167 C 
BRANCH  23  24
HETATM   24  O3  UNL     1       0.214  57.100  20.557  1.00  0.00    -0.391 OA
ATOM     25  H3  UNL     1       0.221  56.284  21.043  1.00  0.00     0.210 HD
ENDBRANCH  23  24
BRANCH  23  26
HETATM   26  C11 UNL     1       1.068  58.115  22.508  1.00  0.00     0.179 C 
BRANCH  26  27
HETATM   27  O4  UNL     1       2.345  58.428  22.981  1.00  0.00    -0.390 OA
ATOM     28  H4  UNL     1       2.405  59.355  23.184  1.00  0.00     0.210 HD
ENDBRANCH  26  27
BRANCH  26  29
HETATM   29  C12 UNL     1       0.452  57.088  23.350  1.00  0.00     0.173 C 
BRANCH  29  30
HETATM   30  O5  UNL     1       0.408  57.683  24.666  1.00  0.00    -0.391 OA
ATOM     31  H5  UNL     1      -0.107  57.074  25.182  1.00  0.00     0.210 HD
ENDBRANCH  29  30
BRANCH  29  32
HETATM   32  C13 UNL     1       1.290  55.839  23.606  1.00  0.00     0.217 C 
BRANCH  32  33
HETATM   33  O6  UNL     1       0.830  54.800  22.743  1.00  0.00    -0.280 OA
BRANCH  33  34
HETATM   34  P1  UNL     1       0.773  53.342  23.581  1.00  0.00     0.422 P 
HETATM   35  O7  UNL     1       1.188  52.244  22.660  1.00  0.00    -0.617 OA
HETATM   36  O8  UNL     1      -0.775  53.009  24.166  1.00  0.00    -0.617 OA
HETATM   37  O9  UNL     1       1.838  53.345  24.906  1.00  0.00    -0.617 OA
ENDBRANCH  33  34
ENDBRANCH  32  33
ENDBRANCH  29  32
ENDBRANCH  26  29
ENDBRANCH  23  26
ENDBRANCH  22  23
ENDBRANCH  17  22
TORSDOF 10
ENDMDL
