MODEL 1
REMARK VINA RESULT: -10.861986249      0.000      0.000
REMARK  10 active torsions:
REMARK  status: ('A' for Active; 'I' for Inactive)
REMARK    1  A    between atoms: N4_17  and  C9_18 
REMARK    2  A    between atoms: C9_18  and  C10_19 
REMARK    3  A    between atoms: C10_19  and  O3_20 
REMARK    4  A    between atoms: C10_19  and  C11_22 
REMARK    5  A    between atoms: C11_22  and  O4_23 
REMARK    6  A    between atoms: C11_22  and  C12_25 
REMARK    7  A    between atoms: C12_25  and  O5_26 
REMARK    8  A    between atoms: C12_25  and  C13_28 
REMARK    9  A    between atoms: C13_28  and  O6_29 
REMARK   10  A    between atoms: O6_29  and  P1_30 
ROOT
HETATM    1  C1  UNL     1      -5.438  60.041  18.803  1.00  0.00     0.049 C 
HETATM    2  C2  UNL     1      -4.291  60.167  19.735  1.00  0.00    -0.054 A 
HETATM    3  C3  UNL     1      -4.433  60.799  20.951  1.00  0.00     0.039 A 
HETATM    4  C4  UNL     1      -3.377  60.931  21.840  1.00  0.00     0.060 A 
HETATM    5  N1  UNL     1      -3.576  61.553  23.016  1.00  0.00    -0.347 N 
ATOM      6  H1  UNL     1      -4.499  61.926  23.239  1.00  0.00     0.166 HD
HETATM    7  C5  UNL     1      -2.577  61.690  23.896  1.00  0.00     0.146 A 
HETATM    8  C6  UNL     1      -2.732  62.328  25.132  1.00  0.00     0.280 A 
HETATM    9  O1  UNL     1      -3.855  62.785  25.411  1.00  0.00    -0.265 OA
HETATM   10  N2  UNL     1      -1.674  62.430  25.974  1.00  0.00    -0.273 N 
ATOM     11  H2  UNL     1      -1.782  62.895  26.876  1.00  0.00     0.173 HD
HETATM   12  C7  UNL     1      -0.481  61.918  25.622  1.00  0.00     0.328 A 
HETATM   13  O2  UNL     1       0.459  62.046  26.449  1.00  0.00    -0.247 OA
HETATM   14  N3  UNL     1      -0.285  61.287  24.426  1.00  0.00    -0.292 N 
ATOM     15  H3  UNL     1       0.637  60.915  24.203  1.00  0.00     0.172 HD
HETATM   16  C8  UNL     1      -1.282  61.147  23.540  1.00  0.00     0.145 A 
HETATM   17  N4  UNL     1      -1.127  60.522  22.332  1.00  0.00    -0.327 N 
HETATM   18  C14 UNL     1      -2.141  60.393  21.462  1.00  0.00     0.063 A 
HETATM   19  C15 UNL     1      -1.990  59.758  20.245  1.00  0.00     0.039 A 
HETATM   20  C16 UNL     1      -3.062  59.643  19.381  1.00  0.00    -0.054 A 
HETATM   21  C17 UNL     1      -2.919  58.963  18.069  1.00  0.00     0.049 C 
ENDROOT
BRANCH  17  22
HETATM   22  C9  UNL     1       0.186  59.997  22.027  1.00  0.00     0.165 C 
BRANCH  22  23
HETATM   23  C10 UNL     1       0.158  58.484  22.289  1.00  0.00     0.167 C 
BRANCH  23  24
HETATM   24  O3  UNL     1      -0.591  58.121  23.373  1.00  0.00    -0.391 OA
ATOM     25  H3  UNL     1      -1.514  57.997  23.182  1.00  0.00     0.210 HD
ENDBRANCH  23  24
BRANCH  23  26
HETATM   26  C11 UNL     1       1.474  57.851  22.265  1.00  0.00     0.179 C 
BRANCH  26  27
HETATM   27  O4  UNL     1       1.619  57.071  21.115  1.00  0.00    -0.390 OA
ATOM     28  H4  UNL     1       1.529  56.149  21.326  1.00  0.00     0.210 HD
ENDBRANCH  26  27
BRANCH  26  29
HETATM   29  C12 UNL     1       2.042  57.156  23.423  1.00  0.00     0.173 C 
BRANCH  29  30
HETATM   30  O5  UNL     1       3.428  57.566  23.441  1.00  0.00    -0.391 OA
ATOM     31  H5  UNL     1       3.789  57.139  24.209  1.00  0.00     0.210 HD
ENDBRANCH  29  30
BRANCH  29  32
HETATM   32  C13 UNL     1       2.171  55.641  23.300  1.00  0.00     0.217 C 
BRANCH  32  33
HETATM   33  O6  UNL     1       0.869  55.089  23.114  1.00  0.00    -0.280 OA
BRANCH  33  34
HETATM   34  P1  UNL     1       0.851  53.483  23.616  1.00  0.00     0.422 P 
HETATM   35  O7  UNL     1       1.396  52.633  22.516  1.00  0.00    -0.617 OA
HETATM   36  O8  UNL     1      -0.708  52.956  23.993  1.00  0.00    -0.617 OA
HETATM   37  O9  UNL     1       1.824  53.250  24.989  1.00  0.00    -0.617 OA
ENDBRANCH  33  34
ENDBRANCH  32  33
ENDBRANCH  29  32
ENDBRANCH  26  29
ENDBRANCH  23  26
ENDBRANCH  22  23
ENDBRANCH  17  22
TORSDOF 10
ENDMDL
