MODEL 2
REMARK VINA RESULT: -9.541203118      1.095      1.363
REMARK  10 active torsions:
REMARK  status: ('A' for Active; 'I' for Inactive)
REMARK    1  A    between atoms: N4_17  and  C9_18 
REMARK    2  A    between atoms: C9_18  and  C10_19 
REMARK    3  A    between atoms: C10_19  and  O3_20 
REMARK    4  A    between atoms: C10_19  and  C11_22 
REMARK    5  A    between atoms: C11_22  and  O4_23 
REMARK    6  A    between atoms: C11_22  and  C12_25 
REMARK    7  A    between atoms: C12_25  and  O5_26 
REMARK    8  A    between atoms: C12_25  and  C13_28 
REMARK    9  A    between atoms: C13_28  and  O6_29 
REMARK   10  A    between atoms: O6_29  and  P1_30 
ROOT
HETATM    1  C1  UNL     1      -4.025  59.141  17.045  1.00  0.00     0.049 C 
HETATM    2  C2  UNL     1      -3.122  59.307  18.209  1.00  0.00    -0.054 A 
HETATM    3  C3  UNL     1      -3.532  59.994  19.331  1.00  0.00     0.039 A 
HETATM    4  C4  UNL     1      -2.707  60.164  20.433  1.00  0.00     0.060 A 
HETATM    5  N1  UNL     1      -3.163  60.839  21.503  1.00  0.00    -0.347 N 
ATOM      6  H1  UNL     1      -4.108  61.223  21.492  1.00  0.00     0.166 HD
HETATM    7  C5  UNL     1      -2.391  61.014  22.582  1.00  0.00     0.146 A 
HETATM    8  C6  UNL     1      -2.818  61.708  23.721  1.00  0.00     0.280 A 
HETATM    9  O1  UNL     1      -3.971  62.178  23.714  1.00  0.00    -0.265 OA
HETATM   10  N2  UNL     1      -1.981  61.846  24.779  1.00  0.00    -0.273 N 
ATOM     11  H2  UNL     1      -2.288  62.351  25.610  1.00  0.00     0.173 HD
HETATM   12  C7  UNL     1      -0.745  61.317  24.733  1.00  0.00     0.328 A 
HETATM   13  O2  UNL     1      -0.019  61.480  25.748  1.00  0.00    -0.247 OA
HETATM   14  N3  UNL     1      -0.288  60.632  23.643  1.00  0.00    -0.292 N 
ATOM     15  H3  UNL     1       0.657  60.249  23.654  1.00  0.00     0.172 HD
HETATM   16  C8  UNL     1      -1.056  60.453  22.558  1.00  0.00     0.145 A 
HETATM   17  N4  UNL     1      -0.635  59.774  21.447  1.00  0.00    -0.327 N 
HETATM   18  C14 UNL     1      -1.423  59.608  20.373  1.00  0.00     0.063 A 
HETATM   19  C15 UNL     1      -1.004  58.918  19.252  1.00  0.00     0.039 A 
HETATM   20  C16 UNL     1      -1.851  58.766  18.170  1.00  0.00    -0.054 A 
HETATM   21  C17 UNL     1      -1.418  58.028  16.958  1.00  0.00     0.049 C 
ENDROOT
BRANCH  17  22
HETATM   22  C9  UNL     1       0.707  59.234  21.475  1.00  0.00     0.165 C 
BRANCH  22  23
HETATM   23  C10 UNL     1       0.605  57.746  21.839  1.00  0.00     0.167 C 
BRANCH  23  24
HETATM   24  O3  UNL     1      -0.170  57.494  22.937  1.00  0.00    -0.391 OA
ATOM     25  H3  UNL     1       0.266  57.661  23.764  1.00  0.00     0.210 HD
ENDBRANCH  23  24
BRANCH  23  26
HETATM   26  C11 UNL     1       1.890  57.052  21.875  1.00  0.00     0.179 C 
BRANCH  26  27
HETATM   27  O4  UNL     1       1.866  55.940  21.030  1.00  0.00    -0.390 OA
ATOM     28  H4  UNL     1       2.365  56.114  20.239  1.00  0.00     0.210 HD
ENDBRANCH  26  27
BRANCH  26  29
HETATM   29  C12 UNL     1       2.581  56.725  23.124  1.00  0.00     0.173 C 
BRANCH  29  30
HETATM   30  O5  UNL     1       3.973  56.627  22.748  1.00  0.00    -0.391 OA
ATOM     31  H5  UNL     1       4.278  55.839  23.181  1.00  0.00     0.210 HD
ENDBRANCH  29  30
BRANCH  29  32
HETATM   32  C13 UNL     1       2.318  55.334  23.692  1.00  0.00     0.217 C 
BRANCH  32  33
HETATM   33  O6  UNL     1       1.014  54.918  23.289  1.00  0.00    -0.280 OA
BRANCH  33  34
HETATM   34  P1  UNL     1       0.779  53.301  23.687  1.00  0.00     0.422 P 
HETATM   35  O7  UNL     1       1.298  52.455  22.572  1.00  0.00    -0.617 OA
HETATM   36  O8  UNL     1      -0.852  52.940  23.933  1.00  0.00    -0.617 OA
HETATM   37  O9  UNL     1       1.623  52.880  25.101  1.00  0.00    -0.617 OA
ENDBRANCH  33  34
ENDBRANCH  32  33
ENDBRANCH  29  32
ENDBRANCH  26  29
ENDBRANCH  23  26
ENDBRANCH  22  23
ENDBRANCH  17  22
TORSDOF 10
ENDMDL
