MODEL 7
REMARK VINA RESULT: -5.404279650      1.332      1.566
REMARK  4 active torsions:
REMARK  status: ('A' for Active; 'I' for Inactive)
REMARK    1  A    between atoms: C1_2  and  C2_4 
REMARK    2  A    between atoms: C2_4  and  C3_5 
REMARK    3  A    between atoms: C6_8  and  O3_9 
REMARK    4  A    between atoms: C7_11  and  O4_12 
ROOT
HETATM    1  C3  UNL     1      12.425  35.470  35.588  1.00  0.00    -0.045 A 
HETATM    2  C4  UNL     1      11.486  34.484  35.501  1.00  0.00     0.010 A 
HETATM    3  C5  UNL     1      10.550  34.427  34.471  1.00  0.00     0.040 A 
HETATM    4  C6  UNL     1      10.564  35.401  33.500  1.00  0.00     0.098 A 
HETATM    5  C7  UNL     1      11.503  36.415  33.559  1.00  0.00     0.099 A 
HETATM    6  C8  UNL     1      12.413  36.438  34.591  1.00  0.00     0.047 A 
ENDROOT
BRANCH   1   7
HETATM    7  C2  UNL     1      13.421  35.551  36.666  1.00  0.00     0.151 C 
BRANCH   7   8
HETATM    8  C1  UNL     1      14.595  36.393  36.277  1.00  0.00     0.176 C 
HETATM    9  O1  UNL     1      15.586  35.794  35.774  1.00  0.00    -0.648 OA
HETATM   10  O2  UNL     1      14.659  37.751  36.436  1.00  0.00    -0.648 OA
ENDBRANCH   7   8
ENDBRANCH   1   7
BRANCH   5  11
HETATM   11  O4  UNL     1      11.520  37.396  32.586  1.00  0.00    -0.358 OA
ATOM     12  H4  UNL     1      12.315  37.559  32.091  1.00  0.00     0.217 HD
ENDBRANCH   5  11
BRANCH   4  13
HETATM   13  O3  UNL     1       9.627  35.338  32.477  1.00  0.00    -0.358 OA
ATOM     14  H3  UNL     1       8.705  35.318  32.703  1.00  0.00     0.217 HD
ENDBRANCH   4  13
TORSDOF 4
ENDMDL
