MODEL 4
REMARK VINA RESULT: -5.727933339      1.016      1.198
REMARK  4 active torsions:
REMARK  status: ('A' for Active; 'I' for Inactive)
REMARK    1  A    between atoms: C1_2  and  C2_4 
REMARK    2  A    between atoms: C2_4  and  C3_5 
REMARK    3  A    between atoms: C6_8  and  O3_9 
REMARK    4  A    between atoms: C7_11  and  O4_12 
ROOT
HETATM    1  C3  UNL     1      13.056  35.691  35.574  1.00  0.00    -0.045 A 
HETATM    2  C4  UNL     1      12.189  34.664  35.805  1.00  0.00     0.010 A 
HETATM    3  C5  UNL     1      10.999  34.512  35.097  1.00  0.00     0.040 A 
HETATM    4  C6  UNL     1      10.676  35.431  34.126  1.00  0.00     0.098 A 
HETATM    5  C7  UNL     1      11.534  36.484  33.866  1.00  0.00     0.099 A 
HETATM    6  C8  UNL     1      12.702  36.601  34.585  1.00  0.00     0.047 A 
ENDROOT
BRANCH   1   7
HETATM    7  C2  UNL     1      14.316  35.873  36.308  1.00  0.00     0.151 C 
BRANCH   7   8
HETATM    8  C1  UNL     1      14.118  36.641  37.575  1.00  0.00     0.176 C 
HETATM    9  O1  UNL     1      13.989  35.970  38.636  1.00  0.00    -0.648 OA
HETATM   10  O2  UNL     1      14.066  38.008  37.652  1.00  0.00    -0.648 OA
ENDBRANCH   7   8
ENDBRANCH   1   7
BRANCH   5  11
HETATM   11  O4  UNL     1      11.215  37.409  32.890  1.00  0.00    -0.358 OA
ATOM     12  H4  UNL     1      11.779  38.160  32.745  1.00  0.00     0.217 HD
ENDBRANCH   5  11
BRANCH   4  13
HETATM   13  O3  UNL     1       9.488  35.273  33.425  1.00  0.00    -0.358 OA
ATOM     14  H3  UNL     1       8.667  35.425  33.878  1.00  0.00     0.217 HD
ENDBRANCH   4  13
TORSDOF 4
ENDMDL
