MODEL 6
REMARK VINA RESULT: -5.472839358      1.932      4.815
REMARK  4 active torsions:
REMARK  status: ('A' for Active; 'I' for Inactive)
REMARK    1  A    between atoms: C1_2  and  C2_4 
REMARK    2  A    between atoms: C2_4  and  C3_5 
REMARK    3  A    between atoms: C6_8  and  O3_9 
REMARK    4  A    between atoms: C7_11  and  O4_12 
ROOT
HETATM    1  C3  UNL     1      13.091  35.296  36.195  1.00  0.00    -0.045 A 
HETATM    2  C4  UNL     1      12.737  35.467  37.501  1.00  0.00     0.010 A 
HETATM    3  C5  UNL     1      13.606  35.996  38.453  1.00  0.00     0.040 A 
HETATM    4  C6  UNL     1      14.876  36.360  38.069  1.00  0.00     0.098 A 
HETATM    5  C7  UNL     1      15.267  36.200  36.752  1.00  0.00     0.099 A 
HETATM    6  C8  UNL     1      14.380  35.675  35.840  1.00  0.00     0.047 A 
ENDROOT
BRANCH   1   7
HETATM    7  C2  UNL     1      12.192  34.740  35.174  1.00  0.00     0.151 C 
BRANCH   7   8
HETATM    8  C1  UNL     1      11.317  35.790  34.571  1.00  0.00     0.176 C 
HETATM    9  O1  UNL     1      10.080  35.543  34.519  1.00  0.00    -0.648 OA
HETATM   10  O2  UNL     1      11.768  36.985  34.075  1.00  0.00    -0.648 OA
ENDBRANCH   7   8
ENDBRANCH   1   7
BRANCH   5  11
HETATM   11  O4  UNL     1      16.542  36.565  36.362  1.00  0.00    -0.358 OA
ATOM     12  H4  UNL     1      16.749  36.652  35.439  1.00  0.00     0.217 HD
ENDBRANCH   5  11
BRANCH   4  13
HETATM   13  O3  UNL     1      15.737  36.885  39.023  1.00  0.00    -0.358 OA
ATOM     14  H3  UNL     1      15.878  37.824  39.045  1.00  0.00     0.217 HD
ENDBRANCH   4  13
TORSDOF 4
ENDMDL
