MODEL 2
REMARK VINA RESULT: -5.752669010      1.443      4.709
REMARK  4 active torsions:
REMARK  status: ('A' for Active; 'I' for Inactive)
REMARK    1  A    between atoms: C1_2  and  C2_4 
REMARK    2  A    between atoms: C2_4  and  C3_5 
REMARK    3  A    between atoms: C6_8  and  O3_9 
REMARK    4  A    between atoms: C7_11  and  O4_12 
ROOT
HETATM    1  C3  UNL     1      13.292  35.896  36.206  1.00  0.00    -0.045 A 
HETATM    2  C4  UNL     1      13.557  35.778  37.538  1.00  0.00     0.010 A 
HETATM    3  C5  UNL     1      14.120  36.809  38.287  1.00  0.00     0.040 A 
HETATM    4  C6  UNL     1      14.428  37.996  37.665  1.00  0.00     0.098 A 
HETATM    5  C7  UNL     1      14.172  38.149  36.315  1.00  0.00     0.099 A 
HETATM    6  C8  UNL     1      13.613  37.109  35.607  1.00  0.00     0.047 A 
ENDROOT
BRANCH   1   7
HETATM    7  C2  UNL     1      12.700  34.823  35.395  1.00  0.00     0.151 C 
BRANCH   7   8
HETATM    8  C1  UNL     1      11.221  34.989  35.246  1.00  0.00     0.176 C 
HETATM    9  O1  UNL     1      10.489  34.307  36.017  1.00  0.00    -0.648 OA
HETATM   10  O2  UNL     1      10.622  35.819  34.337  1.00  0.00    -0.648 OA
ENDBRANCH   7   8
ENDBRANCH   1   7
BRANCH   5  11
HETATM   11  O4  UNL     1      14.478  39.341  35.685  1.00  0.00    -0.358 OA
ATOM     12  H4  UNL     1      15.167  39.369  35.031  1.00  0.00     0.217 HD
ENDBRANCH   5  11
BRANCH   4  13
HETATM   13  O3  UNL     1      14.990  39.019  38.418  1.00  0.00    -0.358 OA
ATOM     14  H3  UNL     1      14.633  39.202  39.278  1.00  0.00     0.217 HD
ENDBRANCH   4  13
TORSDOF 4
ENDMDL
