MODEL 1
REMARK VINA RESULT: -6.119070847      0.000      0.000
REMARK  4 active torsions:
REMARK  status: ('A' for Active; 'I' for Inactive)
REMARK    1  A    between atoms: C1_2  and  C2_4 
REMARK    2  A    between atoms: C2_4  and  C3_5 
REMARK    3  A    between atoms: C6_8  and  O3_9 
REMARK    4  A    between atoms: C7_11  and  O4_12 
ROOT
HETATM    1  C3  UNL     1      13.092  36.145  35.260  1.00  0.00    -0.045 A 
HETATM    2  C4  UNL     1      12.526  35.050  35.844  1.00  0.00     0.010 A 
HETATM    3  C5  UNL     1      11.335  34.487  35.390  1.00  0.00     0.040 A 
HETATM    4  C6  UNL     1      10.696  35.055  34.312  1.00  0.00     0.098 A 
HETATM    5  C7  UNL     1      11.244  36.165  33.697  1.00  0.00     0.099 A 
HETATM    6  C8  UNL     1      12.423  36.693  34.172  1.00  0.00     0.047 A 
ENDROOT
BRANCH   1   7
HETATM    7  C2  UNL     1      14.347  36.755  35.722  1.00  0.00     0.151 C 
BRANCH   7   8
HETATM    8  C1  UNL     1      14.108  38.041  36.447  1.00  0.00     0.176 C 
HETATM    9  O1  UNL     1      13.959  37.971  37.699  1.00  0.00    -0.648 OA
HETATM   10  O2  UNL     1      14.039  39.269  35.845  1.00  0.00    -0.648 OA
ENDBRANCH   7   8
ENDBRANCH   1   7
BRANCH   5  11
HETATM   11  O4  UNL     1      10.606  36.738  32.613  1.00  0.00    -0.358 OA
ATOM     12  H4  UNL     1      10.524  36.253  31.800  1.00  0.00     0.217 HD
ENDBRANCH   5  11
BRANCH   4  13
HETATM   13  O3  UNL     1       9.509  34.489  33.866  1.00  0.00    -0.358 OA
ATOM     14  H3  UNL     1       8.704  34.698  34.324  1.00  0.00     0.217 HD
ENDBRANCH   4  13
TORSDOF 4
ENDMDL
