MODEL 3
REMARK VINA RESULT: -5.862240104      1.939      5.002
REMARK  3 active torsions:
REMARK  status: ('A' for Active; 'I' for Inactive)
REMARK    1  A    between atoms: C1_2  and  C2_4 
REMARK    2  A    between atoms: C2_4  and  C3_5 
REMARK    3  A    between atoms: C7_9  and  N1_10 
ROOT
HETATM    1  C3  UNL     1      11.275  35.942  33.831  1.00  0.00    -0.046 A 
HETATM    2  C4  UNL     1      11.050  34.706  34.412  1.00  0.00     0.008 A 
HETATM    3  C5  UNL     1      11.790  34.394  35.535  1.00  0.00     0.003 A 
HETATM    4  C6  UNL     1      12.722  35.266  36.076  1.00  0.00     0.036 A 
HETATM    5  C7  UNL     1      12.939  36.494  35.494  1.00  0.00     0.103 A 
HETATM    6  C8  UNL     1      12.202  36.815  34.368  1.00  0.00     0.043 A 
ENDROOT
BRANCH   1   7
HETATM    7  C2  UNL     1      10.499  36.315  32.623  1.00  0.00     0.151 C 
BRANCH   7   8
HETATM    8  C1  UNL     1       9.844  35.145  32.025  1.00  0.00     0.176 C 
HETATM    9  O1  UNL     1      10.319  34.600  31.007  1.00  0.00    -0.648 OA
HETATM   10  O2  UNL     1       8.692  34.631  32.582  1.00  0.00    -0.648 OA
ENDBRANCH   7   8
ENDBRANCH   1   7
BRANCH   5  11
HETATM   11  N1  UNL     1      13.880  37.414  36.013  1.00  0.00    -0.116 N 
HETATM   12  O3  UNL     1      14.938  36.994  36.501  1.00  0.00    -0.532 OA
HETATM   13  O4  UNL     1      13.660  38.762  35.994  1.00  0.00    -0.532 OA
ENDBRANCH   5  11
TORSDOF 3
ENDMDL
