MODEL 4
REMARK VINA RESULT: -5.847720644      2.355      4.785
REMARK  3 active torsions:
REMARK  status: ('A' for Active; 'I' for Inactive)
REMARK    1  A    between atoms: C1_2  and  C2_4 
REMARK    2  A    between atoms: C2_4  and  C3_5 
REMARK    3  A    between atoms: C7_9  and  N1_10 
ROOT
HETATM    1  C3  UNL     1      12.976  35.929  36.147  1.00  0.00    -0.046 A 
HETATM    2  C4  UNL     1      12.774  35.410  37.414  1.00  0.00     0.008 A 
HETATM    3  C5  UNL     1      13.368  36.075  38.469  1.00  0.00     0.003 A 
HETATM    4  C6  UNL     1      14.138  37.214  38.289  1.00  0.00     0.036 A 
HETATM    5  C7  UNL     1      14.334  37.724  37.027  1.00  0.00     0.103 A 
HETATM    6  C8  UNL     1      13.741  37.064  35.964  1.00  0.00     0.043 A 
ENDROOT
BRANCH   1   7
HETATM    7  C2  UNL     1      12.353  35.244  34.988  1.00  0.00     0.151 C 
BRANCH   7   8
HETATM    8  C1  UNL     1      11.209  36.003  34.468  1.00  0.00     0.176 C 
HETATM    9  O1  UNL     1      10.039  35.639  34.710  1.00  0.00    -0.648 OA
HETATM   10  O2  UNL     1      11.413  37.133  33.703  1.00  0.00    -0.648 OA
ENDBRANCH   7   8
ENDBRANCH   1   7
BRANCH   5  11
HETATM   11  N1  UNL     1      15.111  38.884  36.798  1.00  0.00    -0.116 N 
HETATM   12  O3  UNL     1      16.210  39.000  37.359  1.00  0.00    -0.532 OA
HETATM   13  O4  UNL     1      14.688  39.887  35.974  1.00  0.00    -0.532 OA
ENDBRANCH   5  11
TORSDOF 3
ENDMDL
