MODEL 1
REMARK VINA RESULT: -6.732912809      0.000      0.000
REMARK  3 active torsions:
REMARK  status: ('A' for Active; 'I' for Inactive)
REMARK    1  A    between atoms: C1_2  and  C2_4 
REMARK    2  A    between atoms: C2_4  and  C3_5 
REMARK    3  A    between atoms: C7_9  and  N1_10 
ROOT
HETATM    1  C3  UNL     1      13.005  36.059  35.539  1.00  0.00    -0.046 A 
HETATM    2  C4  UNL     1      12.336  35.117  36.301  1.00  0.00     0.008 A 
HETATM    3  C5  UNL     1      11.119  34.671  35.827  1.00  0.00     0.003 A 
HETATM    4  C6  UNL     1      10.570  35.133  34.640  1.00  0.00     0.036 A 
HETATM    5  C7  UNL     1      11.241  36.069  33.886  1.00  0.00     0.103 A 
HETATM    6  C8  UNL     1      12.462  36.521  34.355  1.00  0.00     0.043 A 
ENDROOT
BRANCH   1   7
HETATM    7  C2  UNL     1      14.316  36.562  36.015  1.00  0.00     0.151 C 
BRANCH   7   8
HETATM    8  C1  UNL     1      14.168  37.805  36.782  1.00  0.00     0.176 C 
HETATM    9  O1  UNL     1      14.115  37.782  38.029  1.00  0.00    -0.648 OA
HETATM   10  O2  UNL     1      14.085  39.019  36.132  1.00  0.00    -0.648 OA
ENDBRANCH   7   8
ENDBRANCH   1   7
BRANCH   5  11
HETATM   11  N1  UNL     1      10.719  36.567  32.669  1.00  0.00    -0.116 N 
HETATM   12  O3  UNL     1       9.729  36.021  32.163  1.00  0.00    -0.532 OA
HETATM   13  O4  UNL     1      11.274  37.638  32.029  1.00  0.00    -0.532 OA
ENDBRANCH   5  11
TORSDOF 3
ENDMDL
