MODEL 2
REMARK VINA RESULT: -6.213829660      1.856      4.802
REMARK  3 active torsions:
REMARK  status: ('A' for Active; 'I' for Inactive)
REMARK    1  A    between atoms: C1_2  and  C2_4 
REMARK    2  A    between atoms: C2_4  and  C3_5 
REMARK    3  A    between atoms: C7_9  and  N1_10 
ROOT
HETATM    1  C3  UNL     1      10.599  35.681  33.977  1.00  0.00    -0.046 A 
HETATM    2  C4  UNL     1      10.259  34.578  34.741  1.00  0.00     0.008 A 
HETATM    3  C5  UNL     1      11.111  34.239  35.772  1.00  0.00     0.003 A 
HETATM    4  C6  UNL     1      12.264  34.958  36.051  1.00  0.00     0.036 A 
HETATM    5  C7  UNL     1      12.595  36.054  35.288  1.00  0.00     0.103 A 
HETATM    6  C8  UNL     1      11.746  36.401  34.252  1.00  0.00     0.043 A 
ENDROOT
BRANCH   1   7
HETATM    7  C2  UNL     1       9.708  36.078  32.860  1.00  0.00     0.151 C 
BRANCH   7   8
HETATM    8  C1  UNL     1      10.335  35.823  31.557  1.00  0.00     0.176 C 
HETATM    9  O1  UNL     1      10.910  36.741  30.936  1.00  0.00    -0.648 OA
HETATM   10  O2  UNL     1      10.298  34.562  31.001  1.00  0.00    -0.648 OA
ENDBRANCH   7   8
ENDBRANCH   1   7
BRANCH   5  11
HETATM   11  N1  UNL     1      13.761  36.817  35.536  1.00  0.00    -0.116 N 
HETATM   12  O3  UNL     1      14.854  36.243  35.633  1.00  0.00    -0.532 OA
HETATM   13  O4  UNL     1      13.720  38.175  35.675  1.00  0.00    -0.532 OA
ENDBRANCH   5  11
TORSDOF 3
ENDMDL
