MODEL 8
REMARK VINA RESULT: -4.724423641      1.924      3.154
REMARK  1 active torsions:
REMARK  status: ('A' for Active; 'I' for Inactive)
REMARK    1  A    between atoms: O1_1  and  C1_3 
ROOT
HETATM    1  C1  UNL     1      10.389  35.215  34.148  1.00  0.00     0.065 A 
HETATM    2  C2  UNL     1       9.579  35.395  33.045  1.00  0.00     0.036 A 
HETATM    3  C3  UNL     1      10.054  36.189  32.013  1.00  0.00     0.003 A 
HETATM    4  C4  UNL     1      11.309  36.759  32.134  1.00  0.00     0.000 A 
HETATM    5  C5  UNL     1      12.089  36.566  33.235  1.00  0.00     0.003 A 
HETATM    6  C6  UNL     1      11.629  35.774  34.279  1.00  0.00     0.036 A 
ENDROOT
BRANCH   1   7
HETATM    7  O1  UNL     1       9.915  34.422  35.182  1.00  0.00    -0.361 OA
ATOM      8  H1  UNL     1       9.165  33.865  35.010  1.00  0.00     0.217 HD
ENDBRANCH   1   7
TORSDOF 1
ENDMDL
