MODEL 11
REMARK VINA RESULT: -3.871232089      7.684      8.126
REMARK  1 active torsions:
REMARK  status: ('A' for Active; 'I' for Inactive)
REMARK    1  A    between atoms: O1_1  and  C1_3 
ROOT
HETATM    1  C1  UNL     1      16.018  40.471  37.159  1.00  0.00     0.065 A 
HETATM    2  C2  UNL     1      17.262  39.941  36.881  1.00  0.00     0.036 A 
HETATM    3  C3  UNL     1      17.516  38.637  37.277  1.00  0.00     0.003 A 
HETATM    4  C4  UNL     1      16.519  37.931  37.926  1.00  0.00     0.000 A 
HETATM    5  C5  UNL     1      15.299  38.479  38.190  1.00  0.00     0.003 A 
HETATM    6  C6  UNL     1      15.027  39.784  37.802  1.00  0.00     0.036 A 
ENDROOT
BRANCH   1   7
HETATM    7  O1  UNL     1      15.763  41.776  36.766  1.00  0.00    -0.361 OA
ATOM      8  H1  UNL     1      15.307  42.344  37.375  1.00  0.00     0.217 HD
ENDBRANCH   1   7
TORSDOF 1
ENDMDL
