MODEL 12
REMARK VINA RESULT: -3.816826678      7.284      8.282
REMARK  1 active torsions:
REMARK  status: ('A' for Active; 'I' for Inactive)
REMARK    1  A    between atoms: O1_1  and  C1_3 
ROOT
HETATM    1  C1  UNL     1      15.698  40.738  37.413  1.00  0.00     0.065 A 
HETATM    2  C2  UNL     1      15.360  39.575  36.751  1.00  0.00     0.036 A 
HETATM    3  C3  UNL     1      15.223  38.417  37.501  1.00  0.00     0.003 A 
HETATM    4  C4  UNL     1      15.429  38.480  38.868  1.00  0.00     0.000 A 
HETATM    5  C5  UNL     1      15.762  39.642  39.497  1.00  0.00     0.003 A 
HETATM    6  C6  UNL     1      15.904  40.812  38.762  1.00  0.00     0.036 A 
ENDROOT
BRANCH   1   7
HETATM    7  O1  UNL     1      15.836  41.898  36.665  1.00  0.00    -0.361 OA
ATOM      8  H1  UNL     1      15.314  42.652  36.911  1.00  0.00     0.217 HD
ENDBRANCH   1   7
TORSDOF 1
ENDMDL
