MODEL 4
REMARK VINA RESULT: -5.312251269      1.505      2.303
REMARK  1 active torsions:
REMARK  status: ('A' for Active; 'I' for Inactive)
REMARK    1  A    between atoms: O1_1  and  C1_3 
ROOT
HETATM    1  C1  UNL     1       9.753  34.993  32.798  1.00  0.00     0.065 A 
HETATM    2  C2  UNL     1      10.366  34.787  34.017  1.00  0.00     0.036 A 
HETATM    3  C3  UNL     1      11.447  35.593  34.345  1.00  0.00     0.003 A 
HETATM    4  C4  UNL     1      11.856  36.558  33.443  1.00  0.00     0.000 A 
HETATM    5  C5  UNL     1      11.233  36.740  32.244  1.00  0.00     0.003 A 
HETATM    6  C6  UNL     1      10.150  35.942  31.899  1.00  0.00     0.036 A 
ENDROOT
BRANCH   1   7
HETATM    7  O1  UNL     1       8.674  34.188  32.468  1.00  0.00    -0.361 OA
ATOM      8  H1  UNL     1       8.357  34.211  31.572  1.00  0.00     0.217 HD
ENDBRANCH   1   7
TORSDOF 1
ENDMDL
