MODEL 3
REMARK VINA RESULT: -5.326493979      1.506      2.353
REMARK  1 active torsions:
REMARK  status: ('A' for Active; 'I' for Inactive)
REMARK    1  A    between atoms: O1_1  and  C1_3 
ROOT
HETATM    1  C1  UNL     1       9.756  34.983  32.809  1.00  0.00     0.065 A 
HETATM    2  C2  UNL     1      10.166  35.941  31.905  1.00  0.00     0.036 A 
HETATM    3  C3  UNL     1      11.248  36.738  32.250  1.00  0.00     0.003 A 
HETATM    4  C4  UNL     1      11.860  36.537  33.474  1.00  0.00     0.000 A 
HETATM    5  C5  UNL     1      11.434  35.582  34.349  1.00  0.00     0.003 A 
HETATM    6  C6  UNL     1      10.353  34.776  34.020  1.00  0.00     0.036 A 
ENDROOT
BRANCH   1   7
HETATM    7  O1  UNL     1       8.674  34.185  32.466  1.00  0.00    -0.361 OA
ATOM      8  H1  UNL     1       8.830  33.259  32.323  1.00  0.00     0.217 HD
ENDBRANCH   1   7
TORSDOF 1
ENDMDL
