MODEL 10
REMARK VINA RESULT: -3.878148080      7.682      8.280
REMARK  1 active torsions:
REMARK  status: ('A' for Active; 'I' for Inactive)
REMARK    1  A    between atoms: O1_1  and  C1_3 
ROOT
HETATM    1  C1  UNL     1      16.010  40.460  37.183  1.00  0.00     0.065 A 
HETATM    2  C2  UNL     1      15.007  39.772  37.835  1.00  0.00     0.036 A 
HETATM    3  C3  UNL     1      15.263  38.466  38.227  1.00  0.00     0.003 A 
HETATM    4  C4  UNL     1      16.504  37.919  37.950  1.00  0.00     0.000 A 
HETATM    5  C5  UNL     1      17.477  38.622  37.305  1.00  0.00     0.003 A 
HETATM    6  C6  UNL     1      17.238  39.929  36.904  1.00  0.00     0.036 A 
ENDROOT
BRANCH   1   7
HETATM    7  O1  UNL     1      15.755  41.765  36.789  1.00  0.00    -0.361 OA
ATOM      8  H1  UNL     1      15.601  41.930  35.867  1.00  0.00     0.217 HD
ENDBRANCH   1   7
TORSDOF 1
ENDMDL
