MODEL 11
REMARK VINA RESULT: -7.542381207      5.545     10.530
REMARK  7 active torsions:
REMARK  status: ('A' for Active; 'I' for Inactive)
REMARK    1  A    between atoms: O1_1  and  C1_3 
REMARK    2  A    between atoms: C1_3  and  C2_4 
REMARK    3  A    between atoms: N1_13  and  C10_14 
REMARK    4  A    between atoms: C10_14  and  C11_15 
REMARK    5  A    between atoms: C11_15  and  C12_16 
REMARK    6  A    between atoms: C12_16  and  C13_17 
REMARK    7  A    between atoms: C13_17  and  C14_18 
ROOT
HETATM    1  C1  UNL     1      62.450  38.504   2.661  1.00  0.00     0.088 C 
HETATM    2  C8  UNL     1      62.353  37.302   1.734  1.00  0.00     0.073 C 
HETATM    3  C9  UNL     1      62.164  37.929   0.358  1.00  0.00     0.276 C 
HETATM    4  N1  UNL     1      63.494  38.385  -0.041  1.00  0.00     0.088 N 
HETATM    5  C22 UNL     1      64.204  39.120   0.926  1.00  0.00     0.276 C 
HETATM    6  C23 UNL     1      63.719  39.202   2.317  1.00  0.00     0.073 C 
ENDROOT
BRANCH   4   7
HETATM    7  C10 UNL     1      63.418  38.955  -1.379  1.00  0.00     0.272 C 
BRANCH   7   8
HETATM    8  C11 UNL     1      64.752  39.117  -2.042  1.00  0.00     0.033 C 
BRANCH   8   9
HETATM    9  C12 UNL     1      65.461  37.907  -2.492  1.00  0.00     0.038 C 
BRANCH   9  10
HETATM   10  C13 UNL     1      66.103  38.056  -3.813  1.00  0.00     0.083 C 
HETATM   11  S1  UNL     1      67.281  39.386  -4.035  1.00  0.00    -0.142 SA
HETATM   12  C20 UNL     1      68.596  38.732  -5.079  1.00  0.00     0.086 C 
HETATM   13  C21 UNL     1      68.283  37.329  -5.436  1.00  0.00     0.086 C 
HETATM   14  S2  UNL     1      67.247  36.608  -4.124  1.00  0.00    -0.142 SA
BRANCH  10  15
HETATM   15  C14 UNL     1      65.109  38.080  -4.925  1.00  0.00    -0.029 A 
HETATM   16  C15 UNL     1      64.936  39.165  -5.726  1.00  0.00     0.012 A 
HETATM   17  C16 UNL     1      64.013  39.130  -6.738  1.00  0.00     0.043 A 
HETATM   18  C17 UNL     1      63.262  37.995  -6.942  1.00  0.00     0.116 A 
HETATM   19  F1  UNL     1      62.334  37.963  -7.959  1.00  0.00    -0.206 F 
HETATM   20  C18 UNL     1      63.406  36.870  -6.152  1.00  0.00     0.043 A 
HETATM   21  C19 UNL     1      64.361  36.945  -5.128  1.00  0.00     0.012 A 
ENDBRANCH  10  15
ENDBRANCH   9  10
ENDBRANCH   8   9
ENDBRANCH   7   8
ENDBRANCH   4   7
BRANCH   1  22
HETATM   22  O1  UNL     1      61.387  39.364   2.314  1.00  0.00    -0.385 OA
ATOM     23  H1  UNL     1      60.553  38.928   2.446  1.00  0.00     0.211 HD
ENDBRANCH   1  22
BRANCH   1  24
HETATM   24  C2  UNL     1      62.352  38.115   4.077  1.00  0.00    -0.024 A 
HETATM   25  C3  UNL     1      61.136  37.998   4.721  1.00  0.00     0.012 A 
HETATM   26  C4  UNL     1      61.090  37.620   6.063  1.00  0.00     0.024 A 
HETATM   27  C5  UNL     1      62.226  37.352   6.792  1.00  0.00     0.034 A 
HETATM   28 CL1  UNL     1      62.190  36.866   8.479  1.00  0.00    -0.084 Cl
HETATM   29  C6  UNL     1      63.438  37.474   6.137  1.00  0.00     0.024 A 
HETATM   30  C7  UNL     1      63.504  37.848   4.803  1.00  0.00     0.012 A 
ENDBRANCH   1  24
TORSDOF 7
ENDMDL
