MODEL 17
REMARK VINA RESULT: -7.386649830      5.411     10.529
REMARK  7 active torsions:
REMARK  status: ('A' for Active; 'I' for Inactive)
REMARK    1  A    between atoms: O1_1  and  C1_3 
REMARK    2  A    between atoms: C1_3  and  C2_4 
REMARK    3  A    between atoms: N1_13  and  C10_14 
REMARK    4  A    between atoms: C10_14  and  C11_15 
REMARK    5  A    between atoms: C11_15  and  C12_16 
REMARK    6  A    between atoms: C12_16  and  C13_17 
REMARK    7  A    between atoms: C13_17  and  C14_18 
ROOT
HETATM    1  C1  UNL     1      62.297  38.985   3.527  1.00  0.00     0.088 C 
HETATM    2  C8  UNL     1      62.459  37.863   2.513  1.00  0.00     0.073 C 
HETATM    3  C9  UNL     1      62.127  38.532   1.185  1.00  0.00     0.276 C 
HETATM    4  N1  UNL     1      63.322  39.297   0.833  1.00  0.00     0.088 N 
HETATM    5  C22 UNL     1      63.861  40.096   1.857  1.00  0.00     0.276 C 
HETATM    6  C23 UNL     1      63.380  39.966   3.247  1.00  0.00     0.073 C 
ENDROOT
BRANCH   4   7
HETATM    7  C10 UNL     1      63.114  39.933  -0.460  1.00  0.00     0.272 C 
BRANCH   7   8
HETATM    8  C11 UNL     1      64.257  39.756  -1.412  1.00  0.00     0.033 C 
BRANCH   8   9
HETATM    9  C12 UNL     1      64.006  39.952  -2.850  1.00  0.00     0.038 C 
BRANCH   9  10
HETATM   10  C13 UNL     1      64.599  38.903  -3.701  1.00  0.00     0.083 C 
HETATM   11  S1  UNL     1      66.297  39.102  -4.231  1.00  0.00    -0.142 SA
HETATM   12  C20 UNL     1      67.040  37.461  -4.188  1.00  0.00     0.086 C 
HETATM   13  C21 UNL     1      66.022  36.476  -3.756  1.00  0.00     0.086 C 
HETATM   14  S2  UNL     1      64.792  37.324  -2.716  1.00  0.00    -0.142 SA
BRANCH  10  15
HETATM   15  C14 UNL     1      63.743  38.584  -4.882  1.00  0.00    -0.029 A 
HETATM   16  C15 UNL     1      64.207  38.650  -6.158  1.00  0.00     0.012 A 
HETATM   17  C16 UNL     1      63.380  38.340  -7.206  1.00  0.00     0.043 A 
HETATM   18  C17 UNL     1      62.080  37.960  -6.963  1.00  0.00     0.116 A 
HETATM   19  F1  UNL     1      61.250  37.650  -8.017  1.00  0.00    -0.206 F 
HETATM   20  C18 UNL     1      61.568  37.878  -5.682  1.00  0.00     0.043 A 
HETATM   21  C19 UNL     1      62.445  38.204  -4.637  1.00  0.00     0.012 A 
ENDBRANCH  10  15
ENDBRANCH   9  10
ENDBRANCH   8   9
ENDBRANCH   7   8
ENDBRANCH   4   7
BRANCH   1  22
HETATM   22  O1  UNL     1      61.069  39.614   3.234  1.00  0.00    -0.385 OA
ATOM     23  H1  UNL     1      60.490  39.573   3.986  1.00  0.00     0.211 HD
ENDBRANCH   1  22
BRANCH   1  24
HETATM   24  C2  UNL     1      62.297  38.481   4.909  1.00  0.00    -0.024 A 
HETATM   25  C3  UNL     1      63.341  38.733   5.779  1.00  0.00     0.012 A 
HETATM   26  C4  UNL     1      63.296  38.241   7.084  1.00  0.00     0.024 A 
HETATM   27  C5  UNL     1      62.237  37.499   7.556  1.00  0.00     0.034 A 
HETATM   28 CL1  UNL     1      62.156  36.878   9.196  1.00  0.00    -0.084 Cl
HETATM   29  C6  UNL     1      61.199  37.253   6.675  1.00  0.00     0.024 A 
HETATM   30  C7  UNL     1      61.225  37.734   5.374  1.00  0.00     0.012 A 
ENDBRANCH   1  24
TORSDOF 7
ENDMDL
