MODEL 2
REMARK VINA RESULT: -7.806527068      4.273      4.822
REMARK  7 active torsions:
REMARK  status: ('A' for Active; 'I' for Inactive)
REMARK    1  A    between atoms: O1_1  and  C1_3 
REMARK    2  A    between atoms: C1_3  and  C2_4 
REMARK    3  A    between atoms: N1_13  and  C10_14 
REMARK    4  A    between atoms: C10_14  and  C11_15 
REMARK    5  A    between atoms: C11_15  and  C12_16 
REMARK    6  A    between atoms: C12_16  and  C13_17 
REMARK    7  A    between atoms: C13_17  and  C14_18 
ROOT
HETATM    1  C1  UNL     1      67.549  40.900  -1.174  1.00  0.00     0.088 C 
HETATM    2  C8  UNL     1      67.444  39.987   0.038  1.00  0.00     0.073 C 
HETATM    3  C9  UNL     1      67.390  40.958   1.211  1.00  0.00     0.276 C 
HETATM    4  N1  UNL     1      66.020  41.468   1.223  1.00  0.00     0.088 N 
HETATM    5  C22 UNL     1      65.518  41.903  -0.017  1.00  0.00     0.276 C 
HETATM    6  C23 UNL     1      66.255  41.629  -1.266  1.00  0.00     0.073 C 
ENDROOT
BRANCH   4   7
HETATM    7  C10 UNL     1      65.860  42.371   2.354  1.00  0.00     0.272 C 
BRANCH   7   8
HETATM    8  C11 UNL     1      65.740  41.671   3.674  1.00  0.00     0.033 C 
BRANCH   8   9
HETATM    9  C12 UNL     1      64.795  40.548   3.785  1.00  0.00     0.038 C 
BRANCH   9  10
HETATM   10  C13 UNL     1      63.577  40.875   4.553  1.00  0.00     0.083 C 
HETATM   11  S1  UNL     1      63.615  42.304   5.630  1.00  0.00    -0.142 SA
HETATM   12  C20 UNL     1      61.996  43.083   5.500  1.00  0.00     0.086 C 
HETATM   13  C21 UNL     1      61.149  42.296   4.574  1.00  0.00     0.086 C 
HETATM   14  S2  UNL     1      62.226  41.435   3.386  1.00  0.00    -0.142 SA
BRANCH  10  15
HETATM   15  C14 UNL     1      63.051  39.698   5.304  1.00  0.00    -0.029 A 
HETATM   16  C15 UNL     1      63.541  39.329   6.518  1.00  0.00     0.012 A 
HETATM   17  C16 UNL     1      63.015  38.243   7.169  1.00  0.00     0.043 A 
HETATM   18  C17 UNL     1      61.992  37.528   6.592  1.00  0.00     0.116 A 
HETATM   19  F1  UNL     1      61.466  36.436   7.247  1.00  0.00    -0.206 F 
HETATM   20  C18 UNL     1      61.463  37.869   5.361  1.00  0.00     0.043 A 
HETATM   21  C19 UNL     1      62.027  38.986   4.727  1.00  0.00     0.012 A 
ENDBRANCH  10  15
ENDBRANCH   9  10
ENDBRANCH   8   9
ENDBRANCH   7   8
ENDBRANCH   4   7
BRANCH   1  22
HETATM   22  O1  UNL     1      68.549  41.849  -0.876  1.00  0.00    -0.385 OA
ATOM     23  H1  UNL     1      68.435  42.182   0.007  1.00  0.00     0.211 HD
ENDBRANCH   1  22
BRANCH   1  24
HETATM   24  C2  UNL     1      67.898  40.156  -2.395  1.00  0.00    -0.024 A 
HETATM   25  C3  UNL     1      67.423  40.527  -3.638  1.00  0.00     0.012 A 
HETATM   26  C4  UNL     1      67.785  39.795  -4.770  1.00  0.00     0.024 A 
HETATM   27  C5  UNL     1      68.612  38.697  -4.705  1.00  0.00     0.034 A 
HETATM   28 CL1  UNL     1      69.088  37.769  -6.116  1.00  0.00    -0.084 Cl
HETATM   29  C6  UNL     1      69.081  38.336  -3.453  1.00  0.00     0.024 A 
HETATM   30  C7  UNL     1      68.732  39.050  -2.317  1.00  0.00     0.012 A 
ENDBRANCH   1  24
TORSDOF 7
ENDMDL
