MODEL 1
REMARK VINA RESULT: -8.059053826      0.000      0.000
REMARK  7 active torsions:
REMARK  status: ('A' for Active; 'I' for Inactive)
REMARK    1  A    between atoms: O1_1  and  C1_3 
REMARK    2  A    between atoms: C1_3  and  C2_4 
REMARK    3  A    between atoms: N1_13  and  C10_14 
REMARK    4  A    between atoms: C10_14  and  C11_15 
REMARK    5  A    between atoms: C11_15  and  C12_16 
REMARK    6  A    between atoms: C12_16  and  C13_17 
REMARK    7  A    between atoms: C13_17  and  C14_18 
ROOT
HETATM    1  C1  UNL     1      62.374  39.064  -3.674  1.00  0.00     0.088 C 
HETATM    2  C8  UNL     1      63.084  38.127  -2.709  1.00  0.00     0.073 C 
HETATM    3  C9  UNL     1      63.152  38.932  -1.417  1.00  0.00     0.276 C 
HETATM    4  N1  UNL     1      61.813  38.841  -0.839  1.00  0.00     0.088 N 
HETATM    5  C22 UNL     1      60.747  39.098  -1.720  1.00  0.00     0.276 C 
HETATM    6  C23 UNL     1      60.981  39.210  -3.173  1.00  0.00     0.073 C 
ENDROOT
BRANCH   4   7
HETATM    7  C10 UNL     1      61.799  39.542   0.437  1.00  0.00     0.272 C 
BRANCH   7   8
HETATM    8  C11 UNL     1      62.479  38.797   1.545  1.00  0.00     0.033 C 
BRANCH   8   9
HETATM    9  C12 UNL     1      61.718  38.525   2.775  1.00  0.00     0.038 C 
BRANCH   9  10
HETATM   10  C13 UNL     1      62.315  39.123   3.984  1.00  0.00     0.083 C 
HETATM   11  S1  UNL     1      63.923  39.897   3.839  1.00  0.00    -0.142 SA
HETATM   12  C20 UNL     1      63.883  41.357   4.895  1.00  0.00     0.086 C 
HETATM   13  C21 UNL     1      62.561  41.443   5.557  1.00  0.00     0.086 C 
HETATM   14  S2  UNL     1      61.323  40.622   4.503  1.00  0.00    -0.142 SA
BRANCH  10  15
HETATM   15  C14 UNL     1      62.320  38.177   5.138  1.00  0.00    -0.029 A 
HETATM   16  C15 UNL     1      63.468  37.662   5.654  1.00  0.00     0.012 A 
HETATM   17  C16 UNL     1      63.416  36.802   6.720  1.00  0.00     0.043 A 
HETATM   18  C17 UNL     1      62.201  36.461   7.267  1.00  0.00     0.116 A 
HETATM   19  F1  UNL     1      62.150  35.596   8.337  1.00  0.00    -0.206 F 
HETATM   20  C18 UNL     1      61.010  36.963   6.775  1.00  0.00     0.043 A 
HETATM   21  C19 UNL     1      61.105  37.839   5.684  1.00  0.00     0.012 A 
ENDBRANCH  10  15
ENDBRANCH   9  10
ENDBRANCH   8   9
ENDBRANCH   7   8
ENDBRANCH   4   7
BRANCH   1  22
HETATM   22  O1  UNL     1      63.003  40.320  -3.547  1.00  0.00    -0.385 OA
ATOM     23  H1  UNL     1      63.596  40.320  -2.804  1.00  0.00     0.211 HD
ENDBRANCH   1  22
BRANCH   1  24
HETATM   24  C2  UNL     1      62.458  38.588  -5.064  1.00  0.00    -0.024 A 
HETATM   25  C3  UNL     1      63.643  38.606  -5.773  1.00  0.00     0.012 A 
HETATM   26  C4  UNL     1      63.677  38.138  -7.087  1.00  0.00     0.024 A 
HETATM   27  C5  UNL     1      62.561  37.649  -7.725  1.00  0.00     0.034 A 
HETATM   28 CL1  UNL     1      62.583  37.047  -9.374  1.00  0.00    -0.084 Cl
HETATM   29  C6  UNL     1      61.379  37.637  -7.004  1.00  0.00     0.024 A 
HETATM   30  C7  UNL     1      61.325  38.097  -5.696  1.00  0.00     0.012 A 
ENDBRANCH   1  24
TORSDOF 7
ENDMDL
