MODEL 3
REMARK VINA RESULT: -7.782200768      1.939      3.227
REMARK  7 active torsions:
REMARK  status: ('A' for Active; 'I' for Inactive)
REMARK    1  A    between atoms: O1_1  and  C1_3 
REMARK    2  A    between atoms: C1_3  and  C2_4 
REMARK    3  A    between atoms: N1_13  and  C10_14 
REMARK    4  A    between atoms: C10_14  and  C11_15 
REMARK    5  A    between atoms: C11_15  and  C12_16 
REMARK    6  A    between atoms: C12_16  and  C13_17 
REMARK    7  A    between atoms: C13_17  and  C14_18 
ROOT
HETATM    1  C1  UNL     1      62.611  38.892  -3.244  1.00  0.00     0.088 C 
HETATM    2  C8  UNL     1      63.274  37.863  -2.341  1.00  0.00     0.073 C 
HETATM    3  C9  UNL     1      63.422  38.597  -1.013  1.00  0.00     0.276 C 
HETATM    4  N1  UNL     1      62.090  38.568  -0.410  1.00  0.00     0.088 N 
HETATM    5  C22 UNL     1      61.028  38.939  -1.254  1.00  0.00     0.276 C 
HETATM    6  C23 UNL     1      61.241  39.107  -2.705  1.00  0.00     0.073 C 
ENDROOT
BRANCH   4   7
HETATM    7  C10 UNL     1      62.148  39.206   0.897  1.00  0.00     0.272 C 
BRANCH   7   8
HETATM    8  C11 UNL     1      62.178  38.238   2.041  1.00  0.00     0.033 C 
BRANCH   8   9
HETATM    9  C12 UNL     1      63.305  38.307   2.986  1.00  0.00     0.038 C 
BRANCH   9  10
HETATM   10  C13 UNL     1      62.892  38.556   4.381  1.00  0.00     0.083 C 
HETATM   11  S1  UNL     1      61.243  38.065   4.875  1.00  0.00    -0.142 SA
HETATM   12  C20 UNL     1      61.383  37.428   6.555  1.00  0.00     0.086 C 
HETATM   13  C21 UNL     1      62.792  37.530   6.999  1.00  0.00     0.086 C 
HETATM   14  S2  UNL     1      63.873  37.459   5.535  1.00  0.00    -0.142 SA
BRANCH  10  15
HETATM   15  C14 UNL     1      63.137  39.967   4.798  1.00  0.00    -0.029 A 
HETATM   16  C15 UNL     1      62.132  40.801   5.178  1.00  0.00     0.012 A 
HETATM   17  C16 UNL     1      62.415  42.087   5.559  1.00  0.00     0.043 A 
HETATM   18  C17 UNL     1      63.717  42.532   5.557  1.00  0.00     0.116 A 
HETATM   19  F1  UNL     1      63.998  43.825   5.939  1.00  0.00    -0.206 F 
HETATM   20  C18 UNL     1      64.768  41.718   5.180  1.00  0.00     0.043 A 
HETATM   21  C19 UNL     1      64.439  40.410   4.797  1.00  0.00     0.012 A 
ENDBRANCH  10  15
ENDBRANCH   9  10
ENDBRANCH   8   9
ENDBRANCH   7   8
ENDBRANCH   4   7
BRANCH   1  22
HETATM   22  O1  UNL     1      63.327  40.095  -3.071  1.00  0.00    -0.385 OA
ATOM     23  H1  UNL     1      62.984  40.769  -3.646  1.00  0.00     0.211 HD
ENDBRANCH   1  22
BRANCH   1  24
HETATM   24  C2  UNL     1      62.635  38.480  -4.656  1.00  0.00    -0.024 A 
HETATM   25  C3  UNL     1      63.818  38.341  -5.357  1.00  0.00     0.012 A 
HETATM   26  C4  UNL     1      63.794  37.942  -6.694  1.00  0.00     0.024 A 
HETATM   27  C5  UNL     1      62.621  37.673  -7.362  1.00  0.00     0.034 A 
HETATM   28 CL1  UNL     1      62.569  37.161  -9.040  1.00  0.00    -0.084 Cl
HETATM   29  C6  UNL     1      61.444  37.816  -6.649  1.00  0.00     0.024 A 
HETATM   30  C7  UNL     1      61.447  38.212  -5.320  1.00  0.00     0.012 A 
ENDBRANCH   1  24
TORSDOF 7
ENDMDL
