MODEL 6
REMARK VINA RESULT: -7.234492397      2.909      7.715
REMARK  8 active torsions:
REMARK  status: ('A' for Active; 'I' for Inactive)
REMARK    1  A    between atoms: C1_2  and  C2_4 
REMARK    2  A    between atoms: C2_4  and  C3_5 
REMARK    3  A    between atoms: C3_5  and  C4_6 
REMARK    4  A    between atoms: C4_6  and  C5_7 
REMARK    5  A    between atoms: C5_7  and  P1_8 
REMARK    6  A    between atoms: P1_8  and  O5_11 
REMARK    7  A    between atoms: O5_11  and  C6_12 
REMARK    8  A    between atoms: C9_15  and  N1_16 
ROOT
HETATM    1  P1  UNL     1      17.912   8.618  37.467  1.00  0.00     0.254 P 
HETATM    2  O3  UNL     1      19.401   9.082  36.887  1.00  0.00    -0.646 OA
HETATM    3  O4  UNL     1      17.654   6.975  37.726  1.00  0.00    -0.646 OA
ENDROOT
BRANCH   1   4
HETATM    4  C5  UNL     1      16.797   9.777  38.083  1.00  0.00     0.136 C 
BRANCH   4   5
HETATM    5  C4  UNL     1      15.624   9.175  38.886  1.00  0.00     0.013 C 
BRANCH   5   6
HETATM    6  C3  UNL     1      15.841   9.524  40.367  1.00  0.00     0.011 C 
BRANCH   6   7
HETATM    7  C2  UNL     1      15.845   8.179  41.100  1.00  0.00     0.113 C 
BRANCH   7   8
HETATM    8  C1  UNL     1      17.265   7.893  41.419  1.00  0.00     0.172 C 
HETATM    9  O1  UNL     1      18.116   8.828  41.458  1.00  0.00    -0.648 OA
HETATM   10  O2  UNL     1      17.708   6.600  41.685  1.00  0.00    -0.648 OA
ENDBRANCH   7   8
ENDBRANCH   6   7
ENDBRANCH   5   6
ENDBRANCH   4   5
ENDBRANCH   1   4
BRANCH   1  11
HETATM   11  O5  UNL     1      17.336   8.433  36.051  1.00  0.00    -0.270 OA
BRANCH  11  12
HETATM   12  C6  UNL     1      17.576   7.552  35.040  1.00  0.00     0.079 A 
HETATM   13  C7  UNL     1      17.191   6.230  35.024  1.00  0.00     0.040 A 
HETATM   14  C8  UNL     1      17.493   5.434  33.940  1.00  0.00     0.039 A 
HETATM   15  C9  UNL     1      18.177   5.898  32.839  1.00  0.00     0.103 A 
HETATM   16  C10 UNL     1      18.570   7.218  32.839  1.00  0.00     0.039 A 
HETATM   17  C11 UNL     1      18.269   8.029  33.930  1.00  0.00     0.040 A 
BRANCH  15  18
HETATM   18  N1  UNL     1      18.475   5.042  31.725  1.00  0.00    -0.116 N 
HETATM   19  O6  UNL     1      18.113   3.849  31.740  1.00  0.00    -0.532 OA
HETATM   20  O7  UNL     1      19.153   5.487  30.628  1.00  0.00    -0.532 OA
ENDBRANCH  15  18
ENDBRANCH  11  12
ENDBRANCH   1  11
TORSDOF 8
ENDMDL
