MODEL 1
REMARK VINA RESULT: -7.556865504      0.000      0.000
REMARK  8 active torsions:
REMARK  status: ('A' for Active; 'I' for Inactive)
REMARK    1  A    between atoms: C1_2  and  C2_4 
REMARK    2  A    between atoms: C2_4  and  C3_5 
REMARK    3  A    between atoms: C3_5  and  C4_6 
REMARK    4  A    between atoms: C4_6  and  C5_7 
REMARK    5  A    between atoms: C5_7  and  P1_8 
REMARK    6  A    between atoms: P1_8  and  O5_11 
REMARK    7  A    between atoms: O5_11  and  C6_12 
REMARK    8  A    between atoms: C9_15  and  N1_16 
ROOT
HETATM    1  P1  UNL     1      17.348   7.739  34.231  1.00  0.00     0.254 P 
HETATM    2  O3  UNL     1      18.784   8.571  34.349  1.00  0.00    -0.646 OA
HETATM    3  O4  UNL     1      16.157   8.379  33.229  1.00  0.00    -0.646 OA
ENDROOT
BRANCH   1   4
HETATM    4  C5  UNL     1      17.196   6.136  34.840  1.00  0.00     0.136 C 
BRANCH   4   5
HETATM    5  C4  UNL     1      17.113   5.042  33.755  1.00  0.00     0.013 C 
BRANCH   5   6
HETATM    6  C3  UNL     1      18.519   4.859  33.163  1.00  0.00     0.011 C 
BRANCH   6   7
HETATM    7  C2  UNL     1      18.305   4.720  31.653  1.00  0.00     0.113 C 
BRANCH   7   8
HETATM    8  C1  UNL     1      19.024   5.858  31.032  1.00  0.00     0.172 C 
HETATM    9  O1  UNL     1      20.170   5.694  30.521  1.00  0.00    -0.648 OA
HETATM   10  O2  UNL     1      18.470   7.136  30.990  1.00  0.00    -0.648 OA
ENDBRANCH   7   8
ENDBRANCH   6   7
ENDBRANCH   5   6
ENDBRANCH   4   5
ENDBRANCH   1   4
BRANCH   1  11
HETATM   11  O5  UNL     1      16.715   8.519  35.397  1.00  0.00    -0.270 OA
BRANCH  11  12
HETATM   12  C6  UNL     1      16.902   8.522  36.747  1.00  0.00     0.079 A 
HETATM   13  C7  UNL     1      18.088   8.240  37.389  1.00  0.00     0.040 A 
HETATM   14  C8  UNL     1      18.153   8.273  38.765  1.00  0.00     0.039 A 
HETATM   15  C9  UNL     1      17.071   8.581  39.559  1.00  0.00     0.103 A 
HETATM   16  C10 UNL     1      15.878   8.866  38.932  1.00  0.00     0.039 A 
HETATM   17  C11 UNL     1      15.803   8.834  37.542  1.00  0.00     0.040 A 
BRANCH  15  18
HETATM   18  N1  UNL     1      17.175   8.608  40.991  1.00  0.00    -0.116 N 
HETATM   19  O6  UNL     1      17.467   7.570  41.616  1.00  0.00    -0.532 OA
HETATM   20  O7  UNL     1      16.960   9.746  41.714  1.00  0.00    -0.532 OA
ENDBRANCH  15  18
ENDBRANCH  11  12
ENDBRANCH   1  11
TORSDOF 8
ENDMDL
