MODEL 7
REMARK VINA RESULT: -7.215038150      2.913      7.785
REMARK  8 active torsions:
REMARK  status: ('A' for Active; 'I' for Inactive)
REMARK    1  A    between atoms: C1_2  and  C2_4 
REMARK    2  A    between atoms: C2_4  and  C3_5 
REMARK    3  A    between atoms: C3_5  and  C4_6 
REMARK    4  A    between atoms: C4_6  and  C5_7 
REMARK    5  A    between atoms: C5_7  and  P1_8 
REMARK    6  A    between atoms: P1_8  and  O5_11 
REMARK    7  A    between atoms: O5_11  and  C6_12 
REMARK    8  A    between atoms: C9_15  and  N1_16 
ROOT
HETATM    1  P1  UNL     1      17.902   8.538  37.457  1.00  0.00     0.254 P 
HETATM    2  O3  UNL     1      19.297   9.124  36.765  1.00  0.00    -0.646 OA
HETATM    3  O4  UNL     1      17.810   6.882  37.742  1.00  0.00    -0.646 OA
ENDROOT
BRANCH   1   4
HETATM    4  C5  UNL     1      16.737   9.601  38.150  1.00  0.00     0.136 C 
BRANCH   4   5
HETATM    5  C4  UNL     1      15.691   8.909  39.048  1.00  0.00     0.013 C 
BRANCH   5   6
HETATM    6  C3  UNL     1      15.569   9.728  40.343  1.00  0.00     0.011 C 
BRANCH   6   7
HETATM    7  C2  UNL     1      15.645   8.701  41.477  1.00  0.00     0.113 C 
BRANCH   7   8
HETATM    8  C1  UNL     1      17.069   8.298  41.568  1.00  0.00     0.172 C 
HETATM    9  O1  UNL     1      17.973   9.165  41.750  1.00  0.00    -0.648 OA
HETATM   10  O2  UNL     1      17.459   6.966  41.457  1.00  0.00    -0.648 OA
ENDBRANCH   7   8
ENDBRANCH   6   7
ENDBRANCH   5   6
ENDBRANCH   4   5
ENDBRANCH   1   4
BRANCH   1  11
HETATM   11  O5  UNL     1      17.241   8.288  36.089  1.00  0.00    -0.270 OA
BRANCH  11  12
HETATM   12  C6  UNL     1      17.582   7.552  34.994  1.00  0.00     0.079 A 
HETATM   13  C7  UNL     1      18.270   8.024  33.898  1.00  0.00     0.040 A 
HETATM   14  C8  UNL     1      18.557   7.182  32.846  1.00  0.00     0.039 A 
HETATM   15  C9  UNL     1      18.185   5.856  32.826  1.00  0.00     0.103 A 
HETATM   16  C10 UNL     1      17.495   5.368  33.914  1.00  0.00     0.039 A 
HETATM   17  C11 UNL     1      17.202   6.213  34.981  1.00  0.00     0.040 A 
BRANCH  15  18
HETATM   18  N1  UNL     1      18.501   5.004  31.714  1.00  0.00    -0.116 N 
HETATM   19  O6  UNL     1      18.111   3.820  31.703  1.00  0.00    -0.532 OA
HETATM   20  O7  UNL     1      19.227   5.444  30.645  1.00  0.00    -0.532 OA
ENDBRANCH  15  18
ENDBRANCH  11  12
ENDBRANCH   1  11
TORSDOF 8
ENDMDL
