MODEL 3
REMARK VINA RESULT: -7.341188390      0.223      1.284
REMARK  8 active torsions:
REMARK  status: ('A' for Active; 'I' for Inactive)
REMARK    1  A    between atoms: C1_2  and  C2_4 
REMARK    2  A    between atoms: C2_4  and  C3_5 
REMARK    3  A    between atoms: C3_5  and  C4_6 
REMARK    4  A    between atoms: C4_6  and  C5_7 
REMARK    5  A    between atoms: C5_7  and  P1_8 
REMARK    6  A    between atoms: P1_8  and  O5_11 
REMARK    7  A    between atoms: O5_11  and  C6_12 
REMARK    8  A    between atoms: C9_15  and  N1_16 
ROOT
HETATM    1  P1  UNL     1      17.332   7.810  34.253  1.00  0.00     0.254 P 
HETATM    2  O3  UNL     1      18.806   8.581  34.284  1.00  0.00    -0.646 OA
HETATM    3  O4  UNL     1      16.137   8.455  33.259  1.00  0.00    -0.646 OA
ENDROOT
BRANCH   1   4
HETATM    4  C5  UNL     1      17.130   6.247  34.946  1.00  0.00     0.136 C 
BRANCH   4   5
HETATM    5  C4  UNL     1      17.062   5.095  33.921  1.00  0.00     0.013 C 
BRANCH   5   6
HETATM    6  C3  UNL     1      18.458   4.939  33.297  1.00  0.00     0.011 C 
BRANCH   6   7
HETATM    7  C2  UNL     1      18.209   4.736  31.799  1.00  0.00     0.113 C 
BRANCH   7   8
HETATM    8  C1  UNL     1      18.948   5.822  31.112  1.00  0.00     0.172 C 
HETATM    9  O1  UNL     1      20.079   5.599  30.589  1.00  0.00    -0.648 OA
HETATM   10  O2  UNL     1      18.431   7.111  31.017  1.00  0.00    -0.648 OA
ENDBRANCH   7   8
ENDBRANCH   6   7
ENDBRANCH   5   6
ENDBRANCH   4   5
ENDBRANCH   1   4
BRANCH   1  11
HETATM   11  O5  UNL     1      16.774   8.674  35.398  1.00  0.00    -0.270 OA
BRANCH  11  12
HETATM   12  C6  UNL     1      16.839   8.601  36.757  1.00  0.00     0.079 A 
HETATM   13  C7  UNL     1      15.767   8.714  37.615  1.00  0.00     0.040 A 
HETATM   14  C8  UNL     1      15.958   8.624  38.977  1.00  0.00     0.039 A 
HETATM   15  C9  UNL     1      17.195   8.422  39.547  1.00  0.00     0.103 A 
HETATM   16  C10 UNL     1      18.278   8.308  38.703  1.00  0.00     0.039 A 
HETATM   17  C11 UNL     1      18.093   8.397  37.326  1.00  0.00     0.040 A 
BRANCH  15  18
HETATM   18  N1  UNL     1      17.360   8.332  40.971  1.00  0.00    -0.116 N 
HETATM   19  O6  UNL     1      17.357   9.366  41.667  1.00  0.00    -0.532 OA
HETATM   20  O7  UNL     1      17.524   7.137  41.609  1.00  0.00    -0.532 OA
ENDBRANCH  15  18
ENDBRANCH  11  12
ENDBRANCH   1  11
TORSDOF 8
ENDMDL
