MODEL 9
REMARK VINA RESULT: -7.210263593      2.936      8.017
REMARK  8 active torsions:
REMARK  status: ('A' for Active; 'I' for Inactive)
REMARK    1  A    between atoms: C1_2  and  C2_4 
REMARK    2  A    between atoms: C2_4  and  C3_5 
REMARK    3  A    between atoms: C3_5  and  C4_6 
REMARK    4  A    between atoms: C4_6  and  C5_7 
REMARK    5  A    between atoms: C5_7  and  P1_8 
REMARK    6  A    between atoms: P1_8  and  O5_11 
REMARK    7  A    between atoms: O5_11  and  C6_12 
REMARK    8  A    between atoms: C9_15  and  N1_16 
ROOT
HETATM    1  P1  UNL     1      17.510   8.263  37.333  1.00  0.00     0.254 P 
HETATM    2  O3  UNL     1      18.800   9.202  36.862  1.00  0.00    -0.646 OA
HETATM    3  O4  UNL     1      17.748   6.599  37.420  1.00  0.00    -0.646 OA
ENDROOT
BRANCH   1   4
HETATM    4  C5  UNL     1      16.095   8.971  38.012  1.00  0.00     0.136 C 
BRANCH   4   5
HETATM    5  C4  UNL     1      16.246   9.431  39.477  1.00  0.00     0.013 C 
BRANCH   5   6
HETATM    6  C3  UNL     1      17.309   8.540  40.141  1.00  0.00     0.011 C 
BRANCH   6   7
HETATM    7  C2  UNL     1      17.370   9.004  41.599  1.00  0.00     0.113 C 
BRANCH   7   8
HETATM    8  C1  UNL     1      17.733   7.806  42.393  1.00  0.00     0.172 C 
HETATM    9  O1  UNL     1      17.376   6.652  42.016  1.00  0.00    -0.648 OA
HETATM   10  O2  UNL     1      18.472   7.906  43.570  1.00  0.00    -0.648 OA
ENDBRANCH   7   8
ENDBRANCH   6   7
ENDBRANCH   5   6
ENDBRANCH   4   5
ENDBRANCH   1   4
BRANCH   1  11
HETATM   11  O5  UNL     1      17.030   8.067  35.883  1.00  0.00    -0.270 OA
BRANCH  11  12
HETATM   12  C6  UNL     1      17.469   7.315  34.835  1.00  0.00     0.079 A 
HETATM   13  C7  UNL     1      17.247   5.965  34.672  1.00  0.00     0.040 A 
HETATM   14  C8  UNL     1      17.744   5.311  33.566  1.00  0.00     0.039 A 
HETATM   15  C9  UNL     1      18.471   5.947  32.583  1.00  0.00     0.103 A 
HETATM   16  C10 UNL     1      18.701   7.298  32.732  1.00  0.00     0.039 A 
HETATM   17  C11 UNL     1      18.203   7.965  33.847  1.00  0.00     0.040 A 
BRANCH  15  18
HETATM   18  N1  UNL     1      18.973   5.236  31.442  1.00  0.00    -0.116 N 
HETATM   19  O6  UNL     1      18.611   4.063  31.228  1.00  0.00    -0.532 OA
HETATM   20  O7  UNL     1      19.851   5.800  30.563  1.00  0.00    -0.532 OA
ENDBRANCH  15  18
ENDBRANCH  11  12
ENDBRANCH   1  11
TORSDOF 8
ENDMDL
