MODEL 10
REMARK VINA RESULT: -7.206729310      2.971      7.800
REMARK  8 active torsions:
REMARK  status: ('A' for Active; 'I' for Inactive)
REMARK    1  A    between atoms: C1_2  and  C2_4 
REMARK    2  A    between atoms: C2_4  and  C3_5 
REMARK    3  A    between atoms: C3_5  and  C4_6 
REMARK    4  A    between atoms: C4_6  and  C5_7 
REMARK    5  A    between atoms: C5_7  and  P1_8 
REMARK    6  A    between atoms: P1_8  and  O5_11 
REMARK    7  A    between atoms: O5_11  and  C6_12 
REMARK    8  A    between atoms: C9_15  and  N1_16 
ROOT
HETATM    1  P1  UNL     1      17.851   8.633  37.447  1.00  0.00     0.254 P 
HETATM    2  O3  UNL     1      19.344   9.060  36.851  1.00  0.00    -0.646 OA
HETATM    3  O4  UNL     1      17.571   7.001  37.752  1.00  0.00    -0.646 OA
ENDROOT
BRANCH   1   4
HETATM    4  C5  UNL     1      16.753   9.822  38.034  1.00  0.00     0.136 C 
BRANCH   4   5
HETATM    5  C4  UNL     1      15.559   9.257  38.831  1.00  0.00     0.013 C 
BRANCH   5   6
HETATM    6  C3  UNL     1      15.706   9.720  40.289  1.00  0.00     0.011 C 
BRANCH   6   7
HETATM    7  C2  UNL     1      14.829   8.765  41.104  1.00  0.00     0.113 C 
BRANCH   7   8
HETATM    8  C1  UNL     1      15.648   7.549  41.328  1.00  0.00     0.172 C 
HETATM    9  O1  UNL     1      15.095   6.428  41.520  1.00  0.00    -0.648 OA
HETATM   10  O2  UNL     1      17.040   7.597  41.333  1.00  0.00    -0.648 OA
ENDBRANCH   7   8
ENDBRANCH   6   7
ENDBRANCH   5   6
ENDBRANCH   4   5
ENDBRANCH   1   4
BRANCH   1  11
HETATM   11  O5  UNL     1      17.269   8.416  36.038  1.00  0.00    -0.270 OA
BRANCH  11  12
HETATM   12  C6  UNL     1      17.548   7.554  35.021  1.00  0.00     0.079 A 
HETATM   13  C7  UNL     1      17.189   6.225  34.979  1.00  0.00     0.040 A 
HETATM   14  C8  UNL     1      17.530   5.450  33.892  1.00  0.00     0.039 A 
HETATM   15  C9  UNL     1      18.230   5.941  32.812  1.00  0.00     0.103 A 
HETATM   16  C10 UNL     1      18.598   7.269  32.839  1.00  0.00     0.039 A 
HETATM   17  C11 UNL     1      18.256   8.059  33.934  1.00  0.00     0.040 A 
BRANCH  15  18
HETATM   18  N1  UNL     1      18.569   5.107  31.695  1.00  0.00    -0.116 N 
HETATM   19  O6  UNL     1      18.146   3.936  31.639  1.00  0.00    -0.532 OA
HETATM   20  O7  UNL     1      19.354   5.549  30.669  1.00  0.00    -0.532 OA
ENDBRANCH  15  18
ENDBRANCH  11  12
ENDBRANCH   1  11
TORSDOF 8
ENDMDL
