MODEL 8
REMARK VINA RESULT: -5.766947639      2.451      3.114
REMARK  3 active torsions:
REMARK  status: ('A' for Active; 'I' for Inactive)
REMARK    1  A    between atoms: C1_2  and  C2_4 
REMARK    2  A    between atoms: C2_4  and  C3_5 
REMARK    3  A    between atoms: C6_8  and  N1_9 
ROOT
HETATM    1  C3  UNL     1      10.937  35.559  34.092  1.00  0.00    -0.048 A 
HETATM    2  C4  UNL     1      10.988  34.786  35.239  1.00  0.00     0.010 A 
HETATM    3  C5  UNL     1      12.073  34.824  36.100  1.00  0.00     0.036 A 
HETATM    4  C6  UNL     1      13.140  35.646  35.827  1.00  0.00     0.102 A 
HETATM    5  C7  UNL     1      13.123  36.439  34.680  1.00  0.00     0.036 A 
HETATM    6  C8  UNL     1      12.032  36.371  33.857  1.00  0.00     0.010 A 
ENDROOT
BRANCH   1   7
HETATM    7  C2  UNL     1       9.796  35.528  33.173  1.00  0.00     0.151 C 
BRANCH   7   8
HETATM    8  C1  UNL     1      10.186  35.356  31.762  1.00  0.00     0.176 C 
HETATM    9  O1  UNL     1      10.251  34.187  31.302  1.00  0.00    -0.648 OA
HETATM   10  O2  UNL     1      10.489  36.397  30.901  1.00  0.00    -0.648 OA
ENDBRANCH   7   8
ENDBRANCH   1   7
BRANCH   4  11
HETATM   11  N1  UNL     1      14.266  35.701  36.699  1.00  0.00    -0.116 N 
HETATM   12  O3  UNL     1      14.073  35.862  37.919  1.00  0.00    -0.532 OA
HETATM   13  O4  UNL     1      15.531  35.579  36.198  1.00  0.00    -0.532 OA
ENDBRANCH   4  11
TORSDOF 3
ENDMDL
