MODEL 3
REMARK VINA RESULT: -5.904553974      3.052      5.945
REMARK  3 active torsions:
REMARK  status: ('A' for Active; 'I' for Inactive)
REMARK    1  A    between atoms: C1_2  and  C2_4 
REMARK    2  A    between atoms: C2_4  and  C3_5 
REMARK    3  A    between atoms: C6_8  and  N1_9 
ROOT
HETATM    1  C3  UNL     1      12.720  35.510  35.601  1.00  0.00    -0.048 A 
HETATM    2  C4  UNL     1      11.854  34.444  35.433  1.00  0.00     0.010 A 
HETATM    3  C5  UNL     1      11.014  34.350  34.336  1.00  0.00     0.036 A 
HETATM    4  C6  UNL     1      11.025  35.333  33.374  1.00  0.00     0.102 A 
HETATM    5  C7  UNL     1      11.886  36.421  33.511  1.00  0.00     0.036 A 
HETATM    6  C8  UNL     1      12.698  36.474  34.611  1.00  0.00     0.010 A 
ENDROOT
BRANCH   1   7
HETATM    7  C2  UNL     1      13.614  35.621  36.758  1.00  0.00     0.151 C 
BRANCH   7   8
HETATM    8  C1  UNL     1      14.974  36.068  36.406  1.00  0.00     0.176 C 
HETATM    9  O1  UNL     1      15.349  37.200  36.807  1.00  0.00    -0.648 OA
HETATM   10  O2  UNL     1      15.873  35.327  35.659  1.00  0.00    -0.648 OA
ENDBRANCH   7   8
ENDBRANCH   1   7
BRANCH   4  11
HETATM   11  N1  UNL     1      10.170  35.256  32.237  1.00  0.00    -0.116 N 
HETATM   12  O3  UNL     1       9.233  34.435  32.243  1.00  0.00    -0.532 OA
HETATM   13  O4  UNL     1      10.380  36.073  31.161  1.00  0.00    -0.532 OA
ENDBRANCH   4  11
TORSDOF 3
ENDMDL
