MODEL 1
REMARK VINA RESULT: -5.986404265      0.000      0.000
REMARK  3 active torsions:
REMARK  status: ('A' for Active; 'I' for Inactive)
REMARK    1  A    between atoms: C1_2  and  C2_4 
REMARK    2  A    between atoms: C2_4  and  C3_5 
REMARK    3  A    between atoms: C6_8  and  N1_9 
ROOT
HETATM    1  C3  UNL     1      13.228  35.187  35.908  1.00  0.00    -0.048 A 
HETATM    2  C4  UNL     1      13.014  35.579  37.218  1.00  0.00     0.010 A 
HETATM    3  C5  UNL     1      14.047  36.029  38.025  1.00  0.00     0.036 A 
HETATM    4  C6  UNL     1      15.329  36.095  37.531  1.00  0.00     0.102 A 
HETATM    5  C7  UNL     1      15.581  35.708  36.215  1.00  0.00     0.036 A 
HETATM    6  C8  UNL     1      14.532  35.270  35.453  1.00  0.00     0.010 A 
ENDROOT
BRANCH   1   7
HETATM    7  C2  UNL     1      12.145  34.709  35.044  1.00  0.00     0.151 C 
BRANCH   7   8
HETATM    8  C1  UNL     1      11.314  35.795  34.493  1.00  0.00     0.176 C 
HETATM    9  O1  UNL     1      10.087  35.575  34.323  1.00  0.00    -0.648 OA
HETATM   10  O2  UNL     1      11.791  37.047  34.146  1.00  0.00    -0.648 OA
ENDBRANCH   7   8
ENDBRANCH   1   7
BRANCH   4  11
HETATM   11  N1  UNL     1      16.405  36.555  38.343  1.00  0.00    -0.116 N 
HETATM   12  O3  UNL     1      17.167  35.717  38.862  1.00  0.00    -0.532 OA
HETATM   13  O4  UNL     1      16.594  37.893  38.543  1.00  0.00    -0.532 OA
ENDBRANCH   4  11
TORSDOF 3
ENDMDL
