MODEL 6
REMARK VINA RESULT: -5.865876911      0.532      1.410
REMARK  3 active torsions:
REMARK  status: ('A' for Active; 'I' for Inactive)
REMARK    1  A    between atoms: C1_2  and  C2_4 
REMARK    2  A    between atoms: C2_4  and  C3_5 
REMARK    3  A    between atoms: C6_8  and  N1_9 
ROOT
HETATM    1  C3  UNL     1      13.119  35.246  36.073  1.00  0.00    -0.048 A 
HETATM    2  C4  UNL     1      14.338  35.223  35.418  1.00  0.00     0.010 A 
HETATM    3  C5  UNL     1      15.511  35.613  36.043  1.00  0.00     0.036 A 
HETATM    4  C6  UNL     1      15.488  36.037  37.351  1.00  0.00     0.102 A 
HETATM    5  C7  UNL     1      14.278  36.072  38.042  1.00  0.00     0.036 A 
HETATM    6  C8  UNL     1      13.142  35.679  37.386  1.00  0.00     0.010 A 
ENDROOT
BRANCH   1   7
HETATM    7  C2  UNL     1      11.870  34.837  35.424  1.00  0.00     0.151 C 
BRANCH   7   8
HETATM    8  C1  UNL     1      11.501  35.686  34.277  1.00  0.00     0.176 C 
HETATM    9  O1  UNL     1      10.995  35.132  33.268  1.00  0.00    -0.648 OA
HETATM   10  O2  UNL     1      11.676  37.058  34.230  1.00  0.00    -0.648 OA
ENDBRANCH   7   8
ENDBRANCH   1   7
BRANCH   4  11
HETATM   11  N1  UNL     1      16.683  36.441  38.013  1.00  0.00    -0.116 N 
HETATM   12  O3  UNL     1      17.353  35.584  38.620  1.00  0.00    -0.532 OA
HETATM   13  O4  UNL     1      17.082  37.747  37.978  1.00  0.00    -0.532 OA
ENDBRANCH   4  11
TORSDOF 3
ENDMDL
