MODEL 4
REMARK VINA RESULT: -5.903223209      3.037      5.819
REMARK  3 active torsions:
REMARK  status: ('A' for Active; 'I' for Inactive)
REMARK    1  A    between atoms: C1_2  and  C2_4 
REMARK    2  A    between atoms: C2_4  and  C3_5 
REMARK    3  A    between atoms: C6_8  and  N1_9 
ROOT
HETATM    1  C3  UNL     1      13.109  35.538  35.564  1.00  0.00    -0.048 A 
HETATM    2  C4  UNL     1      12.149  34.543  35.546  1.00  0.00     0.010 A 
HETATM    3  C5  UNL     1      11.144  34.513  34.592  1.00  0.00     0.036 A 
HETATM    4  C6  UNL     1      11.081  35.491  33.627  1.00  0.00     0.102 A 
HETATM    5  C7  UNL     1      12.033  36.510  33.615  1.00  0.00     0.036 A 
HETATM    6  C8  UNL     1      13.008  36.501  34.576  1.00  0.00     0.010 A 
ENDROOT
BRANCH   1   7
HETATM    7  C2  UNL     1      14.178  35.582  36.567  1.00  0.00     0.151 C 
BRANCH   7   8
HETATM    8  C1  UNL     1      13.738  36.117  37.868  1.00  0.00     0.176 C 
HETATM    9  O1  UNL     1      13.942  37.334  38.109  1.00  0.00    -0.648 OA
HETATM   10  O2  UNL     1      13.112  35.369  38.851  1.00  0.00    -0.648 OA
ENDBRANCH   7   8
ENDBRANCH   1   7
BRANCH   4  11
HETATM   11  N1  UNL     1      10.057  35.480  32.637  1.00  0.00    -0.116 N 
HETATM   12  O3  UNL     1       9.016  34.829  32.855  1.00  0.00    -0.532 OA
HETATM   13  O4  UNL     1      10.218  36.173  31.471  1.00  0.00    -0.532 OA
ENDBRANCH   4  11
TORSDOF 3
ENDMDL
