MODEL 2
REMARK VINA RESULT: -5.931905653      3.044      6.008
REMARK  3 active torsions:
REMARK  status: ('A' for Active; 'I' for Inactive)
REMARK    1  A    between atoms: C1_2  and  C2_4 
REMARK    2  A    between atoms: C2_4  and  C3_5 
REMARK    3  A    between atoms: C6_8  and  N1_9 
ROOT
HETATM    1  C3  UNL     1      12.747  35.534  35.597  1.00  0.00    -0.048 A 
HETATM    2  C4  UNL     1      12.743  36.478  34.586  1.00  0.00     0.010 A 
HETATM    3  C5  UNL     1      11.889  36.383  33.499  1.00  0.00     0.036 A 
HETATM    4  C6  UNL     1      11.012  35.328  33.403  1.00  0.00     0.102 A 
HETATM    5  C7  UNL     1      10.989  34.358  34.404  1.00  0.00     0.036 A 
HETATM    6  C8  UNL     1      11.850  34.491  35.460  1.00  0.00     0.010 A 
ENDROOT
BRANCH   1   7
HETATM    7  C2  UNL     1      13.646  35.623  36.751  1.00  0.00     0.151 C 
BRANCH   7   8
HETATM    8  C1  UNL     1      15.005  36.074  36.402  1.00  0.00     0.176 C 
HETATM    9  O1  UNL     1      15.385  37.196  36.825  1.00  0.00    -0.648 OA
HETATM   10  O2  UNL     1      15.899  35.347  35.635  1.00  0.00    -0.648 OA
ENDBRANCH   7   8
ENDBRANCH   1   7
BRANCH   4  11
HETATM   11  N1  UNL     1      10.124  35.210  32.295  1.00  0.00    -0.116 N 
HETATM   12  O3  UNL     1       9.144  34.446  32.388  1.00  0.00    -0.532 OA
HETATM   13  O4  UNL     1      10.348  35.927  31.153  1.00  0.00    -0.532 OA
ENDBRANCH   4  11
TORSDOF 3
ENDMDL
