MODEL 7
REMARK VINA RESULT: -5.847005431      2.933      5.870
REMARK  3 active torsions:
REMARK  status: ('A' for Active; 'I' for Inactive)
REMARK    1  A    between atoms: C1_2  and  C2_4 
REMARK    2  A    between atoms: C2_4  and  C3_5 
REMARK    3  A    between atoms: C6_8  and  N1_9 
ROOT
HETATM    1  C3  UNL     1      13.189  35.612  35.748  1.00  0.00    -0.048 A 
HETATM    2  C4  UNL     1      13.216  36.450  34.648  1.00  0.00     0.010 A 
HETATM    3  C5  UNL     1      12.193  36.462  33.713  1.00  0.00     0.036 A 
HETATM    4  C6  UNL     1      11.111  35.627  33.863  1.00  0.00     0.102 A 
HETATM    5  C7  UNL     1      11.051  34.770  34.961  1.00  0.00     0.036 A 
HETATM    6  C8  UNL     1      12.083  34.789  35.860  1.00  0.00     0.010 A 
ENDROOT
BRANCH   1   7
HETATM    7  C2  UNL     1      14.264  35.588  36.745  1.00  0.00     0.151 C 
BRANCH   7   8
HETATM    8  C1  UNL     1      13.869  36.159  38.045  1.00  0.00     0.176 C 
HETATM    9  O1  UNL     1      13.986  37.400  38.208  1.00  0.00    -0.648 OA
HETATM   10  O2  UNL     1      13.377  35.420  39.107  1.00  0.00    -0.648 OA
ENDBRANCH   7   8
ENDBRANCH   1   7
BRANCH   4  11
HETATM   11  N1  UNL     1      10.048  35.624  32.915  1.00  0.00    -0.116 N 
HETATM   12  O3  UNL     1      10.097  36.417  31.955  1.00  0.00    -0.532 OA
HETATM   13  O4  UNL     1       8.998  34.763  33.060  1.00  0.00    -0.532 OA
ENDBRANCH   4  11
TORSDOF 3
ENDMDL
