MODEL 5
REMARK VINA RESULT: -5.892508333      3.193      5.844
REMARK  3 active torsions:
REMARK  status: ('A' for Active; 'I' for Inactive)
REMARK    1  A    between atoms: C1_2  and  C2_4 
REMARK    2  A    between atoms: C2_4  and  C3_5 
REMARK    3  A    between atoms: C6_8  and  N1_9 
ROOT
HETATM    1  C3  UNL     1      13.246  35.886  35.133  1.00  0.00    -0.048 A 
HETATM    2  C4  UNL     1      12.564  34.703  35.352  1.00  0.00     0.010 A 
HETATM    3  C5  UNL     1      11.478  34.330  34.577  1.00  0.00     0.036 A 
HETATM    4  C6  UNL     1      11.048  35.144  33.556  1.00  0.00     0.102 A 
HETATM    5  C7  UNL     1      11.713  36.344  33.306  1.00  0.00     0.036 A 
HETATM    6  C8  UNL     1      12.781  36.674  34.096  1.00  0.00     0.010 A 
ENDROOT
BRANCH   1   7
HETATM    7  C2  UNL     1      14.397  36.293  35.945  1.00  0.00     0.151 C 
BRANCH   7   8
HETATM    8  C1  UNL     1      14.185  37.562  36.665  1.00  0.00     0.176 C 
HETATM    9  O1  UNL     1      13.926  37.511  37.894  1.00  0.00    -0.648 OA
HETATM   10  O2  UNL     1      14.251  38.815  36.079  1.00  0.00    -0.648 OA
ENDBRANCH   7   8
ENDBRANCH   1   7
BRANCH   4  11
HETATM   11  N1  UNL     1       9.935  34.780  32.746  1.00  0.00    -0.116 N 
HETATM   12  O3  UNL     1       8.810  34.689  33.276  1.00  0.00    -0.532 OA
HETATM   13  O4  UNL     1      10.103  34.537  31.412  1.00  0.00    -0.532 OA
ENDBRANCH   4  11
TORSDOF 3
ENDMDL
