MODEL 10
REMARK VINA RESULT: -5.289879380      1.095      3.777
REMARK  4 active torsions:
REMARK  status: ('A' for Active; 'I' for Inactive)
REMARK    1  A    between atoms: C1_2  and  C2_4 
REMARK    2  A    between atoms: C2_4  and  C3_5 
REMARK    3  A    between atoms: C5_7  and  O3_8 
REMARK    4  A    between atoms: C8_12  and  O4_13 
ROOT
HETATM    1  C3  UNL     1      11.630  35.600  34.504  1.00  0.00    -0.012 A 
HETATM    2  C4  UNL     1      11.626  36.346  33.338  1.00  0.00     0.047 A 
HETATM    3  C5  UNL     1      10.499  36.330  32.528  1.00  0.00     0.066 A 
HETATM    4  C6  UNL     1       9.388  35.594  32.851  1.00  0.00     0.039 A 
HETATM    5  C7  UNL     1       9.395  34.854  34.007  1.00  0.00     0.040 A 
HETATM    6  C8  UNL     1      10.503  34.871  34.802  1.00  0.00     0.072 A 
ENDROOT
BRANCH   1   7
HETATM    7  C2  UNL     1      12.831  35.645  35.380  1.00  0.00     0.154 C 
BRANCH   7   8
HETATM    8  C1  UNL     1      13.520  36.945  35.038  1.00  0.00     0.177 C 
HETATM    9  O1  UNL     1      14.223  37.004  33.977  1.00  0.00    -0.648 OA
HETATM   10  O2  UNL     1      13.435  38.084  35.796  1.00  0.00    -0.648 OA
ENDBRANCH   7   8
ENDBRANCH   1   7
BRANCH   6  11
HETATM   11  O4  UNL     1      10.517  34.128  35.970  1.00  0.00    -0.360 OA
ATOM     12  H4  UNL     1      10.123  33.264  35.943  1.00  0.00     0.217 HD
ENDBRANCH   6  11
BRANCH   3  13
HETATM   13  O3  UNL     1      10.476  37.076  31.352  1.00  0.00    -0.361 OA
ATOM     14  H3  UNL     1      10.016  37.908  31.326  1.00  0.00     0.217 HD
ENDBRANCH   3  13
TORSDOF 4
ENDMDL
