MODEL 7
REMARK VINA RESULT: -5.361851266      1.827      4.313
REMARK  4 active torsions:
REMARK  status: ('A' for Active; 'I' for Inactive)
REMARK    1  A    between atoms: C1_2  and  C2_4 
REMARK    2  A    between atoms: C2_4  and  C3_5 
REMARK    3  A    between atoms: C5_7  and  O3_8 
REMARK    4  A    between atoms: C8_12  and  O4_13 
ROOT
HETATM    1  C3  UNL     1      12.971  36.374  34.852  1.00  0.00    -0.012 A 
HETATM    2  C4  UNL     1      12.129  36.693  33.801  1.00  0.00     0.047 A 
HETATM    3  C5  UNL     1      10.970  35.954  33.615  1.00  0.00     0.066 A 
HETATM    4  C6  UNL     1      10.634  34.914  34.444  1.00  0.00     0.039 A 
HETATM    5  C7  UNL     1      11.472  34.600  35.485  1.00  0.00     0.040 A 
HETATM    6  C8  UNL     1      12.610  35.327  35.667  1.00  0.00     0.072 A 
ENDROOT
BRANCH   1   7
HETATM    7  C2  UNL     1      14.197  37.190  35.062  1.00  0.00     0.154 C 
BRANCH   7   8
HETATM    8  C1  UNL     1      13.833  38.178  36.144  1.00  0.00     0.177 C 
HETATM    9  O1  UNL     1      14.047  37.862  37.360  1.00  0.00    -0.648 OA
HETATM   10  O2  UNL     1      13.285  39.413  35.907  1.00  0.00    -0.648 OA
ENDBRANCH   7   8
ENDBRANCH   1   7
BRANCH   6  11
HETATM   11  O4  UNL     1      13.460  35.016  36.716  1.00  0.00    -0.360 OA
ATOM     12  H4  UNL     1      13.818  35.739  37.217  1.00  0.00     0.217 HD
ENDBRANCH   6  11
BRANCH   3  13
HETATM   13  O3  UNL     1      10.109  36.261  32.563  1.00  0.00    -0.361 OA
ATOM     14  H3  UNL     1       9.198  35.992  32.600  1.00  0.00     0.217 HD
ENDBRANCH   3  13
TORSDOF 4
ENDMDL
