MODEL 6
REMARK VINA RESULT: -5.370359781      2.343      3.957
REMARK  4 active torsions:
REMARK  status: ('A' for Active; 'I' for Inactive)
REMARK    1  A    between atoms: C1_2  and  C2_4 
REMARK    2  A    between atoms: C2_4  and  C3_5 
REMARK    3  A    between atoms: C5_7  and  O3_8 
REMARK    4  A    between atoms: C8_12  and  O4_13 
ROOT
HETATM    1  C3  UNL     1      13.178  35.385  36.109  1.00  0.00    -0.012 A 
HETATM    2  C4  UNL     1      12.508  35.091  37.285  1.00  0.00     0.047 A 
HETATM    3  C5  UNL     1      13.003  35.579  38.485  1.00  0.00     0.066 A 
HETATM    4  C6  UNL     1      14.138  36.346  38.541  1.00  0.00     0.039 A 
HETATM    5  C7  UNL     1      14.801  36.634  37.375  1.00  0.00     0.040 A 
HETATM    6  C8  UNL     1      14.315  36.155  36.195  1.00  0.00     0.072 A 
ENDROOT
BRANCH   1   7
HETATM    7  C2  UNL     1      12.626  34.881  34.823  1.00  0.00     0.154 C 
BRANCH   7   8
HETATM    8  C1  UNL     1      11.583  35.896  34.418  1.00  0.00     0.177 C 
HETATM    9  O1  UNL     1      11.958  37.080  34.136  1.00  0.00    -0.648 OA
HETATM   10  O2  UNL     1      10.241  35.626  34.326  1.00  0.00    -0.648 OA
ENDBRANCH   7   8
ENDBRANCH   1   7
BRANCH   6  11
HETATM   11  O4  UNL     1      14.978  36.442  35.014  1.00  0.00    -0.360 OA
ATOM     12  H4  UNL     1      15.661  37.102  35.047  1.00  0.00     0.217 HD
ENDBRANCH   6  11
BRANCH   3  13
HETATM   13  O3  UNL     1      12.340  35.295  39.678  1.00  0.00    -0.361 OA
ATOM     14  H3  UNL     1      12.524  34.487  40.143  1.00  0.00     0.217 HD
ENDBRANCH   3  13
TORSDOF 4
ENDMDL
