MODEL 5
REMARK VINA RESULT: -5.372730155      2.343      4.022
REMARK  4 active torsions:
REMARK  status: ('A' for Active; 'I' for Inactive)
REMARK    1  A    between atoms: C1_2  and  C2_4 
REMARK    2  A    between atoms: C2_4  and  C3_5 
REMARK    3  A    between atoms: C5_7  and  O3_8 
REMARK    4  A    between atoms: C8_12  and  O4_13 
ROOT
HETATM    1  C3  UNL     1      13.443  35.734  35.995  1.00  0.00    -0.012 A 
HETATM    2  C4  UNL     1      13.505  35.458  37.351  1.00  0.00     0.047 A 
HETATM    3  C5  UNL     1      14.035  36.409  38.210  1.00  0.00     0.066 A 
HETATM    4  C6  UNL     1      14.499  37.616  37.755  1.00  0.00     0.039 A 
HETATM    5  C7  UNL     1      14.438  37.886  36.411  1.00  0.00     0.040 A 
HETATM    6  C8  UNL     1      13.917  36.951  35.566  1.00  0.00     0.072 A 
ENDROOT
BRANCH   1   7
HETATM    7  C2  UNL     1      12.847  34.720  35.084  1.00  0.00     0.154 C 
BRANCH   7   8
HETATM    8  C1  UNL     1      11.371  35.039  35.050  1.00  0.00     0.177 C 
HETATM    9  O1  UNL     1      10.960  35.952  34.262  1.00  0.00    -0.648 OA
HETATM   10  O2  UNL     1      10.429  34.402  35.815  1.00  0.00    -0.648 OA
ENDBRANCH   7   8
ENDBRANCH   1   7
BRANCH   6  11
HETATM   11  O4  UNL     1      13.852  37.216  34.209  1.00  0.00    -0.360 OA
ATOM     12  H4  UNL     1      14.239  38.028  33.904  1.00  0.00     0.217 HD
ENDBRANCH   6  11
BRANCH   3  13
HETATM   13  O3  UNL     1      14.103  36.150  39.578  1.00  0.00    -0.361 OA
ATOM     14  H3  UNL     1      13.511  36.594  40.176  1.00  0.00     0.217 HD
ENDBRANCH   3  13
TORSDOF 4
ENDMDL
