MODEL 6
REMARK VINA RESULT: -4.343957011      4.591      6.680
REMARK  2 active torsions:
REMARK  status: ('A' for Active; 'I' for Inactive)
REMARK    1  A    between atoms: C1_2  and  C2_4 
REMARK    2  A    between atoms: C2_4  and  C3_5 
ROOT
HETATM    1  C3  UNL     1      14.916  39.394  38.278  1.00  0.00    -0.008 A 
HETATM    2  C4  UNL     1      14.594  40.572  38.907  1.00  0.00     0.015 A 
HETATM    3  C5  UNL     1      15.602  41.245  39.483  1.00  0.00     0.008 A 
HETATM    4  C6  UNL     1      16.853  40.717  39.402  1.00  0.00     0.050 A 
HETATM    5  S1  UNL     1      16.602  39.284  38.520  1.00  0.00    -0.106 SA
ENDROOT
BRANCH   1   6
HETATM    6  C2  UNL     1      13.992  38.449  37.557  1.00  0.00     0.159 C 
BRANCH   6   7
HETATM    7  C1  UNL     1      13.694  39.004  36.219  1.00  0.00     0.177 C 
HETATM    8  O1  UNL     1      12.547  38.842  35.741  1.00  0.00    -0.648 OA
HETATM    9  O2  UNL     1      14.686  39.690  35.529  1.00  0.00    -0.648 OA
ENDBRANCH   6   7
ENDBRANCH   1   6
TORSDOF 2
ENDMDL
