MODEL 5
REMARK VINA RESULT: -4.366226146      4.704      6.749
REMARK  2 active torsions:
REMARK  status: ('A' for Active; 'I' for Inactive)
REMARK    1  A    between atoms: C1_2  and  C2_4 
REMARK    2  A    between atoms: C2_4  and  C3_5 
ROOT
HETATM    1  C3  UNL     1      15.022  39.557  38.303  1.00  0.00    -0.008 A 
HETATM    2  C4  UNL     1      14.547  40.620  39.032  1.00  0.00     0.015 A 
HETATM    3  C5  UNL     1      15.461  41.414  39.611  1.00  0.00     0.008 A 
HETATM    4  C6  UNL     1      16.776  41.111  39.435  1.00  0.00     0.050 A 
HETATM    5  S1  UNL     1      16.714  39.717  38.461  1.00  0.00    -0.106 SA
ENDROOT
BRANCH   1   6
HETATM    6  C2  UNL     1      14.227  38.520  37.557  1.00  0.00     0.159 C 
BRANCH   6   7
HETATM    7  C1  UNL     1      13.834  39.077  36.244  1.00  0.00     0.177 C 
HETATM    8  O1  UNL     1      14.666  39.763  35.606  1.00  0.00    -0.648 OA
HETATM    9  O2  UNL     1      12.559  38.826  35.752  1.00  0.00    -0.648 OA
ENDBRANCH   6   7
ENDBRANCH   1   6
TORSDOF 2
ENDMDL
