MODEL 2
REMARK VINA RESULT: -5.100808273      1.026      1.716
REMARK  2 active torsions:
REMARK  status: ('A' for Active; 'I' for Inactive)
REMARK    1  A    between atoms: C1_2  and  C2_4 
REMARK    2  A    between atoms: C2_4  and  C3_5 
ROOT
HETATM    1  C3  UNL     1      12.007  36.264  33.911  1.00  0.00    -0.008 A 
HETATM    2  C4  UNL     1      11.455  36.727  32.742  1.00  0.00     0.015 A 
HETATM    3  C5  UNL     1      10.282  36.193  32.372  1.00  0.00     0.008 A 
HETATM    4  C6  UNL     1       9.731  35.241  33.173  1.00  0.00     0.050 A 
HETATM    5  S1  UNL     1      10.864  35.108  34.435  1.00  0.00    -0.106 SA
ENDROOT
BRANCH   1   6
HETATM    6  C2  UNL     1      13.301  36.685  34.554  1.00  0.00     0.159 C 
BRANCH   6   7
HETATM    7  C1  UNL     1      13.015  37.745  35.546  1.00  0.00     0.177 C 
HETATM    8  O1  UNL     1      12.151  38.611  35.272  1.00  0.00    -0.648 OA
HETATM    9  O2  UNL     1      13.707  37.755  36.750  1.00  0.00    -0.648 OA
ENDBRANCH   6   7
ENDBRANCH   1   6
TORSDOF 2
ENDMDL
