MODEL 7
REMARK VINA RESULT: -4.267307344      4.081      6.075
REMARK  2 active torsions:
REMARK  status: ('A' for Active; 'I' for Inactive)
REMARK    1  A    between atoms: C1_2  and  C2_4 
REMARK    2  A    between atoms: C2_4  and  C3_5 
ROOT
HETATM    1  C3  UNL     1      15.767  38.616  37.172  1.00  0.00    -0.008 A 
HETATM    2  C4  UNL     1      16.886  37.835  37.332  1.00  0.00     0.015 A 
HETATM    3  C5  UNL     1      18.073  38.433  37.156  1.00  0.00     0.008 A 
HETATM    4  C6  UNL     1      18.082  39.756  36.836  1.00  0.00     0.050 A 
HETATM    5  S1  UNL     1      16.426  40.143  36.786  1.00  0.00    -0.106 SA
ENDROOT
BRANCH   1   6
HETATM    6  C2  UNL     1      14.326  38.206  37.310  1.00  0.00     0.159 C 
BRANCH   6   7
HETATM    7  C1  UNL     1      13.665  38.344  35.994  1.00  0.00     0.177 C 
HETATM    8  O1  UNL     1      12.962  39.358  35.774  1.00  0.00    -0.648 OA
HETATM    9  O2  UNL     1      13.839  37.352  35.037  1.00  0.00    -0.648 OA
ENDBRANCH   6   7
ENDBRANCH   1   6
TORSDOF 2
ENDMDL
