MODEL 1
REMARK VINA RESULT: -5.479551278      0.000      0.000
REMARK  2 active torsions:
REMARK  status: ('A' for Active; 'I' for Inactive)
REMARK    1  A    between atoms: C1_2  and  C2_4 
REMARK    2  A    between atoms: C2_4  and  C3_5 
ROOT
HETATM    1  C3  UNL     1      12.125  36.291  34.044  1.00  0.00    -0.008 A 
HETATM    2  C4  UNL     1      11.320  35.332  34.611  1.00  0.00     0.015 A 
HETATM    3  C5  UNL     1      10.184  35.034  33.962  1.00  0.00     0.008 A 
HETATM    4  C6  UNL     1       9.916  35.695  32.803  1.00  0.00     0.050 A 
HETATM    5  S1  UNL     1      11.259  36.726  32.638  1.00  0.00    -0.106 SA
ENDROOT
BRANCH   1   6
HETATM    6  C2  UNL     1      13.442  36.812  34.553  1.00  0.00     0.159 C 
BRANCH   6   7
HETATM    7  C1  UNL     1      13.179  37.804  35.619  1.00  0.00     0.177 C 
HETATM    8  O1  UNL     1      13.815  37.716  36.695  1.00  0.00    -0.648 OA
HETATM    9  O2  UNL     1      12.240  38.804  35.402  1.00  0.00    -0.648 OA
ENDBRANCH   6   7
ENDBRANCH   1   6
TORSDOF 2
ENDMDL
