MODEL 3
REMARK VINA RESULT: -5.086611081      1.239      1.521
REMARK  2 active torsions:
REMARK  status: ('A' for Active; 'I' for Inactive)
REMARK    1  A    between atoms: C1_2  and  C2_4 
REMARK    2  A    between atoms: C2_4  and  C3_5 
ROOT
HETATM    1  C3  UNL     1      11.340  35.807  33.602  1.00  0.00    -0.008 A 
HETATM    2  C4  UNL     1      10.623  34.721  33.160  1.00  0.00     0.015 A 
HETATM    3  C5  UNL     1      10.109  34.797  31.924  1.00  0.00     0.008 A 
HETATM    4  C6  UNL     1      10.333  35.931  31.206  1.00  0.00     0.050 A 
HETATM    5  S1  UNL     1      11.261  36.876  32.273  1.00  0.00    -0.106 SA
ENDROOT
BRANCH   1   6
HETATM    6  C2  UNL     1      12.020  35.986  34.933  1.00  0.00     0.159 C 
BRANCH   6   7
HETATM    7  C1  UNL     1      12.866  37.198  34.874  1.00  0.00     0.177 C 
HETATM    8  O1  UNL     1      14.029  37.101  34.415  1.00  0.00    -0.648 OA
HETATM    9  O2  UNL     1      12.355  38.409  35.324  1.00  0.00    -0.648 OA
ENDBRANCH   6   7
ENDBRANCH   1   6
TORSDOF 2
ENDMDL
