MODEL 17
REMARK VINA RESULT: -4.056637732      1.757      2.327
REMARK  2 active torsions:
REMARK  status: ('A' for Active; 'I' for Inactive)
REMARK    1  A    between atoms: C1_2  and  C2_4 
REMARK    2  A    between atoms: C2_4  and  C3_5 
ROOT
HETATM    1  C3  UNL     1      10.931  35.212  33.748  1.00  0.00    -0.008 A 
HETATM    2  C4  UNL     1      11.035  35.136  32.381  1.00  0.00     0.015 A 
HETATM    3  C5  UNL     1       9.928  34.789  31.707  1.00  0.00     0.008 A 
HETATM    4  C6  UNL     1       8.796  34.540  32.420  1.00  0.00     0.050 A 
HETATM    5  S1  UNL     1       9.298  34.796  34.026  1.00  0.00    -0.106 SA
ENDROOT
BRANCH   1   6
HETATM    6  C2  UNL     1      12.004  35.574  34.739  1.00  0.00     0.159 C 
BRANCH   6   7
HETATM    7  C1  UNL     1      12.559  36.896  34.375  1.00  0.00     0.177 C 
HETATM    8  O1  UNL     1      11.820  37.905  34.458  1.00  0.00    -0.648 OA
HETATM    9  O2  UNL     1      13.879  36.988  33.951  1.00  0.00    -0.648 OA
ENDBRANCH   6   7
ENDBRANCH   1   6
TORSDOF 2
ENDMDL
