MODEL 4
REMARK VINA RESULT: -4.815575085      1.505      1.877
REMARK  2 active torsions:
REMARK  status: ('A' for Active; 'I' for Inactive)
REMARK    1  A    between atoms: C1_2  and  C2_4 
REMARK    2  A    between atoms: C2_4  and  C3_5 
ROOT
HETATM    1  C3  UNL     1      11.393  35.954  33.557  1.00  0.00    -0.008 A 
HETATM    2  C4  UNL     1      11.561  36.765  32.462  1.00  0.00     0.015 A 
HETATM    3  C5  UNL     1      10.810  36.492  31.385  1.00  0.00     0.008 A 
HETATM    4  C6  UNL     1       9.946  35.443  31.456  1.00  0.00     0.050 A 
HETATM    5  S1  UNL     1      10.198  34.853  33.032  1.00  0.00    -0.106 SA
ENDROOT
BRANCH   1   6
HETATM    6  C2  UNL     1      12.098  36.035  34.884  1.00  0.00     0.159 C 
BRANCH   6   7
HETATM    7  C1  UNL     1      12.897  37.279  34.922  1.00  0.00     0.177 C 
HETATM    8  O1  UNL     1      14.102  37.233  34.580  1.00  0.00    -0.648 OA
HETATM    9  O2  UNL     1      12.297  38.462  35.334  1.00  0.00    -0.648 OA
ENDBRANCH   6   7
ENDBRANCH   1   6
TORSDOF 2
ENDMDL
