MODEL 4
REMARK VINA RESULT: -8.630587377      3.565      6.618
REMARK  12 active torsions:
REMARK  status: ('A' for Active; 'I' for Inactive)
REMARK    1  A    between atoms: N1_4  and  C1_5 
REMARK    2  A    between atoms: C1_5  and  C2_6 
REMARK    3  A    between atoms: C8_12  and  C9_13 
REMARK    4  A    between atoms: C9_13  and  O3_14 
REMARK    5  A    between atoms: O3_14  and  C10_15 
REMARK    6  A    between atoms: C16_21  and  O4_22 
REMARK    7  A    between atoms: C17_24  and  O5_25 
REMARK    8  A    between atoms: C18_27  and  C19_28 
REMARK    9  A    between atoms: C19_28  and  O6_29 
REMARK   10  A    between atoms: O6_29  and  C20_30 
REMARK   11  A    between atoms: N2_36  and  C26_37 
REMARK   12  A    between atoms: C26_37  and  C27_38 
ROOT
HETATM    1  O1  UNL     1       8.033  28.025   4.169  1.00  0.00    -0.182 OA
HETATM    2  S1  UNL     1       7.780  26.565   4.490  1.00  0.00     0.320 S 
HETATM    3  O2  UNL     1       7.851  25.902   3.104  1.00  0.00    -0.182 OA
HETATM    4  N1  UNL     1       6.252  26.230   5.066  1.00  0.00    -0.281 N 
HETATM    5  C8  UNL     1       5.751  26.896   6.191  1.00  0.00     0.153 C 
HETATM    6  C16 UNL     1       6.622  26.897   7.409  1.00  0.00     0.174 C 
HETATM    7  C17 UNL     1       8.058  27.151   7.186  1.00  0.00     0.174 C 
HETATM    8  C18 UNL     1       8.892  25.943   6.832  1.00  0.00     0.153 C 
HETATM    9  N2  UNL     1       9.019  25.858   5.393  1.00  0.00    -0.281 N 
ENDROOT
BRANCH   5  10
HETATM   10  C9  UNL     1       5.167  28.271   5.967  1.00  0.00     0.204 C 
BRANCH  10  11
HETATM   11  O3  UNL     1       4.106  28.586   6.799  1.00  0.00    -0.349 OA
BRANCH  11  12
HETATM   12  C10 UNL     1       2.930  27.870   6.680  1.00  0.00     0.068 A 
HETATM   13  C11 UNL     1       2.062  28.195   5.671  1.00  0.00     0.037 A 
HETATM   14  C12 UNL     1       0.875  27.479   5.542  1.00  0.00     0.003 A 
HETATM   15  C13 UNL     1       0.544  26.451   6.400  1.00  0.00     0.000 A 
HETATM   16  C14 UNL     1       1.422  26.131   7.412  1.00  0.00     0.003 A 
HETATM   17  C15 UNL     1       2.597  26.845   7.533  1.00  0.00     0.037 A 
ENDBRANCH  11  12
ENDBRANCH  10  11
ENDBRANCH   5  10
BRANCH   4  18
HETATM   18  C1  UNL     1       5.303  26.146   4.005  1.00  0.00     0.176 C 
BRANCH  18  19
HETATM   19  C2  UNL     1       4.501  24.911   4.035  1.00  0.00    -0.040 A 
HETATM   20  C3  UNL     1       5.097  23.708   3.744  1.00  0.00     0.009 A 
HETATM   21  C4  UNL     1       4.373  22.515   3.762  1.00  0.00     0.001 A 
HETATM   22  C5  UNL     1       3.035  22.542   4.079  1.00  0.00     0.000 A 
HETATM   23  C6  UNL     1       2.429  23.746   4.373  1.00  0.00     0.001 A 
HETATM   24  C7  UNL     1       3.174  24.932   4.348  1.00  0.00     0.009 A 
ENDBRANCH  18  19
ENDBRANCH   4  18
BRANCH   6  25
HETATM   25  O4  UNL     1       6.144  27.934   8.250  1.00  0.00    -0.391 OA
ATOM     26  H4  UNL     1       5.196  27.923   8.185  1.00  0.00     0.210 HD
ENDBRANCH   6  25
BRANCH   7  27
HETATM   27  O5  UNL     1       8.582  27.617   8.422  1.00  0.00    -0.391 OA
ATOM     28  H5  UNL     1       7.901  28.143   8.823  1.00  0.00     0.210 HD
ENDBRANCH   7  27
BRANCH   9  29
HETATM   29  C26 UNL     1      10.345  26.132   4.928  1.00  0.00     0.176 C 
BRANCH  29  30
HETATM   30  C27 UNL     1      11.103  24.988   4.437  1.00  0.00    -0.040 A 
HETATM   31  C28 UNL     1      10.506  23.898   3.843  1.00  0.00     0.009 A 
HETATM   32  C29 UNL     1      11.234  22.814   3.383  1.00  0.00     0.001 A 
HETATM   33  C30 UNL     1      12.603  22.805   3.513  1.00  0.00     0.000 A 
HETATM   34  C31 UNL     1      13.221  23.873   4.099  1.00  0.00     0.001 A 
HETATM   35  C32 UNL     1      12.473  24.964   4.561  1.00  0.00     0.009 A 
ENDBRANCH  29  30
ENDBRANCH   9  29
BRANCH   8  36
HETATM   36  C19 UNL     1       8.388  24.672   7.439  1.00  0.00     0.204 C 
BRANCH  36  37
HETATM   37  O6  UNL     1       9.345  23.921   8.047  1.00  0.00    -0.349 OA
BRANCH  37  38
HETATM   38  C20 UNL     1      10.476  23.305   7.708  1.00  0.00     0.068 A 
HETATM   39  C21 UNL     1      10.388  22.082   7.015  1.00  0.00     0.037 A 
HETATM   40  C22 UNL     1      11.464  21.362   6.615  1.00  0.00     0.003 A 
HETATM   41  C23 UNL     1      12.730  21.815   6.880  1.00  0.00     0.000 A 
HETATM   42  C24 UNL     1      12.886  22.996   7.549  1.00  0.00     0.003 A 
HETATM   43  C25 UNL     1      11.765  23.720   7.951  1.00  0.00     0.037 A 
ENDBRANCH  37  38
ENDBRANCH  36  37
ENDBRANCH   8  36
TORSDOF 12
ENDMDL
