MODEL 7
REMARK VINA RESULT: -7.919163839      5.760     10.002
REMARK  12 active torsions:
REMARK  status: ('A' for Active; 'I' for Inactive)
REMARK    1  A    between atoms: N1_4  and  C1_5 
REMARK    2  A    between atoms: C1_5  and  C2_6 
REMARK    3  A    between atoms: C8_12  and  C9_13 
REMARK    4  A    between atoms: C9_13  and  O3_14 
REMARK    5  A    between atoms: O3_14  and  C10_15 
REMARK    6  A    between atoms: C16_21  and  O4_22 
REMARK    7  A    between atoms: C17_24  and  O5_25 
REMARK    8  A    between atoms: C18_27  and  C19_28 
REMARK    9  A    between atoms: C19_28  and  O6_29 
REMARK   10  A    between atoms: O6_29  and  C20_30 
REMARK   11  A    between atoms: N2_36  and  C26_37 
REMARK   12  A    between atoms: C26_37  and  C27_38 
ROOT
HETATM    1  O1  UNL     1       7.133  27.441   2.694  1.00  0.00    -0.182 OA
HETATM    2  S1  UNL     1       6.119  26.598   3.442  1.00  0.00     0.320 S 
HETATM    3  O2  UNL     1       4.916  27.550   3.561  1.00  0.00    -0.182 OA
HETATM    4  N1  UNL     1       6.544  26.219   5.009  1.00  0.00    -0.281 N 
HETATM    5  C8  UNL     1       7.757  25.578   5.285  1.00  0.00     0.153 C 
HETATM    6  C16 UNL     1       8.049  24.335   4.504  1.00  0.00     0.174 C 
HETATM    7  C17 UNL     1       7.741  24.381   3.062  1.00  0.00     0.174 C 
HETATM    8  C18 UNL     1       6.317  24.050   2.682  1.00  0.00     0.153 C 
HETATM    9  N2  UNL     1       5.563  25.277   2.549  1.00  0.00    -0.281 N 
ENDROOT
BRANCH   5  10
HETATM   10  C9  UNL     1       8.990  26.450   5.354  1.00  0.00     0.204 C 
BRANCH  10  11
HETATM   11  O3  UNL     1       9.873  26.114   6.366  1.00  0.00    -0.349 OA
BRANCH  11  12
HETATM   12  C10 UNL     1       9.683  26.652   7.624  1.00  0.00     0.068 A 
HETATM   13  C11 UNL     1      10.687  26.533   8.549  1.00  0.00     0.037 A 
HETATM   14  C12 UNL     1      10.506  27.073   9.819  1.00  0.00     0.003 A 
HETATM   15  C13 UNL     1       9.345  27.724  10.178  1.00  0.00     0.000 A 
HETATM   16  C14 UNL     1       8.340  27.839   9.242  1.00  0.00     0.003 A 
HETATM   17  C15 UNL     1       8.528  27.302   7.985  1.00  0.00     0.037 A 
ENDBRANCH  11  12
ENDBRANCH  10  11
ENDBRANCH   5  10
BRANCH   4  18
HETATM   18  C1  UNL     1       6.275  27.302   5.897  1.00  0.00     0.176 C 
BRANCH  18  19
HETATM   19  C2  UNL     1       4.965  27.203   6.560  1.00  0.00    -0.040 A 
HETATM   20  C3  UNL     1       4.308  25.996   6.588  1.00  0.00     0.009 A 
HETATM   21  C4  UNL     1       3.065  25.860   7.207  1.00  0.00     0.001 A 
HETATM   22  C5  UNL     1       2.483  26.954   7.804  1.00  0.00     0.000 A 
HETATM   23  C6  UNL     1       3.137  28.169   7.781  1.00  0.00     0.001 A 
HETATM   24  C7  UNL     1       4.384  28.285   7.153  1.00  0.00     0.009 A 
ENDBRANCH  18  19
ENDBRANCH   4  18
BRANCH   6  25
HETATM   25  O4  UNL     1       9.442  24.096   4.622  1.00  0.00    -0.391 OA
ATOM     26  H4  UNL     1       9.614  23.267   4.193  1.00  0.00     0.210 HD
ENDBRANCH   6  25
BRANCH   7  27
HETATM   27  O5  UNL     1       8.534  23.375   2.447  1.00  0.00    -0.391 OA
ATOM     28  H5  UNL     1       8.845  23.739   1.627  1.00  0.00     0.210 HD
ENDBRANCH   7  27
BRANCH   9  29
HETATM   29  C26 UNL     1       5.196  25.567   1.196  1.00  0.00     0.176 C 
BRANCH  29  30
HETATM   30  C27 UNL     1       3.856  25.159   0.792  1.00  0.00    -0.040 A 
HETATM   31  C28 UNL     1       3.593  23.937   0.213  1.00  0.00     0.009 A 
HETATM   32  C29 UNL     1       2.318  23.561  -0.173  1.00  0.00     0.001 A 
HETATM   33  C30 UNL     1       1.262  24.420   0.021  1.00  0.00     0.000 A 
HETATM   34  C31 UNL     1       1.495  25.638   0.593  1.00  0.00     0.001 A 
HETATM   35  C32 UNL     1       2.790  26.009   0.978  1.00  0.00     0.009 A 
ENDBRANCH  29  30
ENDBRANCH   9  29
BRANCH   8  36
HETATM   36  C19 UNL     1       5.665  23.074   3.610  1.00  0.00     0.204 C 
BRANCH  36  37
HETATM   37  O6  UNL     1       4.428  23.443   4.035  1.00  0.00    -0.349 OA
BRANCH  37  38
HETATM   38  C20 UNL     1       3.161  23.121   3.776  1.00  0.00     0.068 A 
HETATM   39  C21 UNL     1       2.159  24.065   4.074  1.00  0.00     0.037 A 
HETATM   40  C22 UNL     1       0.838  23.859   3.857  1.00  0.00     0.003 A 
HETATM   41  C23 UNL     1       0.409  22.675   3.315  1.00  0.00     0.000 A 
HETATM   42  C24 UNL     1       1.331  21.715   3.002  1.00  0.00     0.003 A 
HETATM   43  C25 UNL     1       2.684  21.951   3.235  1.00  0.00     0.037 A 
ENDBRANCH  37  38
ENDBRANCH  36  37
ENDBRANCH   8  36
TORSDOF 12
ENDMDL
