MODEL 9
REMARK VINA RESULT: -7.546828756      3.489      9.505
REMARK  12 active torsions:
REMARK  status: ('A' for Active; 'I' for Inactive)
REMARK    1  A    between atoms: N1_4  and  C1_5 
REMARK    2  A    between atoms: C1_5  and  C2_6 
REMARK    3  A    between atoms: C8_12  and  C9_13 
REMARK    4  A    between atoms: C9_13  and  O3_14 
REMARK    5  A    between atoms: O3_14  and  C10_15 
REMARK    6  A    between atoms: C16_21  and  O4_22 
REMARK    7  A    between atoms: C17_24  and  O5_25 
REMARK    8  A    between atoms: C18_27  and  C19_28 
REMARK    9  A    between atoms: C19_28  and  O6_29 
REMARK   10  A    between atoms: O6_29  and  C20_30 
REMARK   11  A    between atoms: N2_36  and  C26_37 
REMARK   12  A    between atoms: C26_37  and  C27_38 
ROOT
HETATM    1  O1  UNL     1       8.865  26.531   1.789  1.00  0.00    -0.182 OA
HETATM    2  S1  UNL     1       7.799  26.333   2.849  1.00  0.00     0.320 S 
HETATM    3  O2  UNL     1       7.127  27.715   2.908  1.00  0.00    -0.182 OA
HETATM    4  N1  UNL     1       8.383  26.055   4.385  1.00  0.00    -0.281 N 
HETATM    5  C8  UNL     1       9.276  25.006   4.631  1.00  0.00     0.153 C 
HETATM    6  C16 UNL     1       8.872  23.654   4.131  1.00  0.00     0.174 C 
HETATM    7  C17 UNL     1       8.290  23.605   2.776  1.00  0.00     0.174 C 
HETATM    8  C18 UNL     1       6.805  23.864   2.688  1.00  0.00     0.153 C 
HETATM    9  N2  UNL     1       6.584  25.259   2.377  1.00  0.00    -0.281 N 
ENDROOT
BRANCH   5  10
HETATM   10  C9  UNL     1      10.732  25.262   4.321  1.00  0.00     0.204 C 
BRANCH  10  11
HETATM   11  O3  UNL     1      11.533  25.440   5.437  1.00  0.00    -0.349 OA
BRANCH  11  12
HETATM   12  C10 UNL     1      12.076  24.330   6.052  1.00  0.00     0.068 A 
HETATM   13  C11 UNL     1      11.642  23.995   7.308  1.00  0.00     0.037 A 
HETATM   14  C12 UNL     1      12.184  22.877   7.937  1.00  0.00     0.003 A 
HETATM   15  C13 UNL     1      13.145  22.094   7.335  1.00  0.00     0.000 A 
HETATM   16  C14 UNL     1      13.577  22.437   6.072  1.00  0.00     0.003 A 
HETATM   17  C15 UNL     1      13.035  23.546   5.455  1.00  0.00     0.037 A 
ENDBRANCH  11  12
ENDBRANCH  10  11
ENDBRANCH   5  10
BRANCH   4  18
HETATM   18  C1  UNL     1       8.768  27.271   5.022  1.00  0.00     0.176 C 
BRANCH  18  19
HETATM   19  C2  UNL     1       8.421  27.318   6.453  1.00  0.00    -0.040 A 
HETATM   20  C3  UNL     1       7.118  27.546   6.826  1.00  0.00     0.009 A 
HETATM   21  C4  UNL     1       6.747  27.597   8.171  1.00  0.00     0.001 A 
HETATM   22  C5  UNL     1       7.702  27.414   9.143  1.00  0.00     0.000 A 
HETATM   23  C6  UNL     1       9.012  27.183   8.775  1.00  0.00     0.001 A 
HETATM   24  C7  UNL     1       9.363  27.137   7.420  1.00  0.00     0.009 A 
ENDBRANCH  18  19
ENDBRANCH   4  18
BRANCH   6  25
HETATM   25  O4  UNL     1      10.047  22.860   4.106  1.00  0.00    -0.391 OA
ATOM     26  H4  UNL     1       9.783  21.989   3.834  1.00  0.00     0.210 HD
ENDBRANCH   6  25
BRANCH   7  27
HETATM   27  O5  UNL     1       8.464  22.273   2.310  1.00  0.00    -0.391 OA
ATOM     28  H5  UNL     1       9.391  22.080   2.385  1.00  0.00     0.210 HD
ENDBRANCH   7  27
BRANCH   9  29
HETATM   29  C26 UNL     1       6.065  25.467   1.060  1.00  0.00     0.176 C 
BRANCH  29  30
HETATM   30  C27 UNL     1       4.634  25.245   0.889  1.00  0.00    -0.040 A 
HETATM   31  C28 UNL     1       4.126  24.191   0.162  1.00  0.00     0.009 A 
HETATM   32  C29 UNL     1       2.765  23.992   0.002  1.00  0.00     0.001 A 
HETATM   33  C30 UNL     1       1.873  24.863   0.581  1.00  0.00     0.000 A 
HETATM   34  C31 UNL     1       2.350  25.916   1.307  1.00  0.00     0.001 A 
HETATM   35  C32 UNL     1       3.729  26.109   1.462  1.00  0.00     0.009 A 
ENDBRANCH  29  30
ENDBRANCH   9  29
BRANCH   8  36
HETATM   36  C19 UNL     1       6.050  23.420   3.901  1.00  0.00     0.204 C 
BRANCH  36  37
HETATM   37  O6  UNL     1       4.909  22.730   3.632  1.00  0.00    -0.349 OA
BRANCH  37  38
HETATM   38  C20 UNL     1       3.595  22.939   3.692  1.00  0.00     0.068 A 
HETATM   39  C21 UNL     1       3.128  24.042   4.433  1.00  0.00     0.037 A 
HETATM   40  C22 UNL     1       1.818  24.362   4.569  1.00  0.00     0.003 A 
HETATM   41  C23 UNL     1       0.858  23.591   3.965  1.00  0.00     0.000 A 
HETATM   42  C24 UNL     1       1.245  22.505   3.230  1.00  0.00     0.003 A 
HETATM   43  C25 UNL     1       2.598  22.197   3.105  1.00  0.00     0.037 A 
ENDBRANCH  37  38
ENDBRANCH  36  37
ENDBRANCH   8  36
TORSDOF 12
ENDMDL
