MODEL 1
REMARK VINA RESULT: -10.093546398      0.000      0.000
REMARK  12 active torsions:
REMARK  status: ('A' for Active; 'I' for Inactive)
REMARK    1  A    between atoms: N1_3  and  C2_4 
REMARK    2  A    between atoms: C2_4  and  C3_5 
REMARK    3  A    between atoms: C9_11  and  C10_12 
REMARK    4  A    between atoms: C10_12  and  O2_13 
REMARK    5  A    between atoms: O2_13  and  C11_14 
REMARK    6  A    between atoms: C17_20  and  O3_21 
REMARK    7  A    between atoms: C18_23  and  O4_24 
REMARK    8  A    between atoms: C19_26  and  C20_27 
REMARK    9  A    between atoms: C20_27  and  O5_28 
REMARK   10  A    between atoms: O5_28  and  C21_29 
REMARK   11  A    between atoms: N2_35  and  C27_36 
REMARK   12  A    between atoms: C27_36  and  C28_37 
ROOT
HETATM    1  O1  UNL     1      12.260  24.848   7.637  1.00  0.00    -0.247 OA
HETATM    2  C1  UNL     1      11.881  24.459   6.469  1.00  0.00     0.322 C 
HETATM    3  N1  UNL     1      12.989  23.945   5.750  1.00  0.00    -0.320 N 
HETATM    4  C9  UNL     1      12.929  23.154   4.546  1.00  0.00     0.145 C 
HETATM    5  C17 UNL     1      11.916  23.854   3.598  1.00  0.00     0.174 C 
HETATM    6  C18 UNL     1      10.507  23.665   4.028  1.00  0.00     0.174 C 
HETATM    7  C19 UNL     1       9.994  24.855   4.856  1.00  0.00     0.145 C 
HETATM    8  N2  UNL     1      10.490  24.629   6.185  1.00  0.00    -0.320 N 
ENDROOT
BRANCH   4   9
HETATM    9  C10 UNL     1      14.223  22.961   3.840  1.00  0.00     0.203 C 
BRANCH   9  10
HETATM   10  O2  UNL     1      14.156  21.887   2.966  1.00  0.00    -0.349 OA
BRANCH  10  11
HETATM   11  C11 UNL     1      14.480  20.579   3.070  1.00  0.00     0.068 A 
HETATM   12  C12 UNL     1      14.930  19.744   2.071  1.00  0.00     0.037 A 
HETATM   13  C13 UNL     1      15.222  18.430   2.352  1.00  0.00     0.003 A 
HETATM   14  C14 UNL     1      15.083  17.901   3.605  1.00  0.00     0.000 A 
HETATM   15  C15 UNL     1      14.636  18.724   4.604  1.00  0.00     0.003 A 
HETATM   16  C16 UNL     1      14.343  20.019   4.357  1.00  0.00     0.037 A 
ENDBRANCH  10  11
ENDBRANCH   9  10
ENDBRANCH   4   9
BRANCH   3  17
HETATM   17  C2  UNL     1      14.312  24.232   6.266  1.00  0.00     0.166 C 
BRANCH  17  18
HETATM   18  C3  UNL     1      14.877  23.198   7.125  1.00  0.00    -0.040 A 
HETATM   19  C4  UNL     1      16.163  23.292   7.580  1.00  0.00     0.009 A 
HETATM   20  C5  UNL     1      16.718  22.337   8.392  1.00  0.00     0.001 A 
HETATM   21  C6  UNL     1      15.941  21.253   8.754  1.00  0.00     0.000 A 
HETATM   22  C7  UNL     1      14.644  21.111   8.323  1.00  0.00     0.001 A 
HETATM   23  C8  UNL     1      14.123  22.114   7.495  1.00  0.00     0.009 A 
ENDBRANCH  17  18
ENDBRANCH   3  17
BRANCH   5  24
HETATM   24  O3  UNL     1      12.290  25.175   3.421  1.00  0.00    -0.391 OA
ATOM     25  H3  UNL     1      11.530  25.735   3.527  1.00  0.00     0.210 HD
ENDBRANCH   5  24
BRANCH   6  26
HETATM   26  O4  UNL     1      10.409  22.552   4.852  1.00  0.00    -0.391 OA
ATOM     27  H4  UNL     1       9.549  22.521   5.254  1.00  0.00     0.210 HD
ENDBRANCH   6  26
BRANCH   8  28
HETATM   28  C27 UNL     1       9.642  24.563   7.338  1.00  0.00     0.166 C 
BRANCH  28  29
HETATM   29  C28 UNL     1       9.416  25.859   8.022  1.00  0.00    -0.040 A 
HETATM   30  C29 UNL     1       8.789  25.900   9.252  1.00  0.00     0.009 A 
HETATM   31  C30 UNL     1       8.574  27.095   9.923  1.00  0.00     0.001 A 
HETATM   32  C31 UNL     1       8.992  28.280   9.354  1.00  0.00     0.000 A 
HETATM   33  C32 UNL     1       9.618  28.279   8.134  1.00  0.00     0.001 A 
HETATM   34  C33 UNL     1       9.812  27.068   7.504  1.00  0.00     0.009 A 
ENDBRANCH  28  29
ENDBRANCH   8  28
BRANCH   7  35
HETATM   35  C20 UNL     1       8.523  24.907   4.689  1.00  0.00     0.203 C 
BRANCH  35  36
HETATM   36  O5  UNL     1       7.913  26.143   4.679  1.00  0.00    -0.349 OA
BRANCH  36  37
HETATM   37  C21 UNL     1       7.043  26.764   5.514  1.00  0.00     0.068 A 
HETATM   38  C22 UNL     1       6.161  26.140   6.359  1.00  0.00     0.037 A 
HETATM   39  C23 UNL     1       5.295  26.839   7.185  1.00  0.00     0.003 A 
HETATM   40  C24 UNL     1       5.285  28.218   7.189  1.00  0.00     0.000 A 
HETATM   41  C25 UNL     1       6.165  28.859   6.345  1.00  0.00     0.003 A 
HETATM   42  C26 UNL     1       7.019  28.169   5.532  1.00  0.00     0.037 A 
ENDBRANCH  36  37
ENDBRANCH  35  36
ENDBRANCH   7  35
TORSDOF 12
ENDMDL
