MODEL 1
REMARK VINA RESULT: -9.862114581      0.000      0.000
REMARK  10 active torsions:
REMARK  status: ('A' for Active; 'I' for Inactive)
REMARK    1  A    between atoms: N4_17  and  C9_18 
REMARK    2  A    between atoms: C9_18  and  C10_19 
REMARK    3  A    between atoms: C10_19  and  O3_20 
REMARK    4  A    between atoms: C10_19  and  C11_22 
REMARK    5  A    between atoms: C11_22  and  O4_23 
REMARK    6  A    between atoms: C11_22  and  C12_25 
REMARK    7  A    between atoms: C12_25  and  O5_26 
REMARK    8  A    between atoms: C12_25  and  C13_28 
REMARK    9  A    between atoms: C13_28  and  O6_29 
REMARK   10  A    between atoms: O6_29  and  P1_30 
ROOT
HETATM    1  C1  UNL     1      52.886  15.750  28.428  1.00  0.00     0.049 C 
HETATM    2  C2  UNL     1      52.930  15.080  27.106  1.00  0.00    -0.054 A 
HETATM    3  C3  UNL     1      51.808  14.475  26.581  1.00  0.00     0.039 A 
HETATM    4  C4  UNL     1      51.821  13.842  25.348  1.00  0.00     0.060 A 
HETATM    5  N1  UNL     1      50.694  13.273  24.884  1.00  0.00    -0.347 N 
ATOM      6  H1  UNL     1      49.843  13.310  25.445  1.00  0.00     0.166 HD
HETATM    7  C5  UNL     1      50.677  12.660  23.694  1.00  0.00     0.146 A 
HETATM    8  C6  UNL     1      49.530  12.054  23.166  1.00  0.00     0.280 A 
HETATM    9  O1  UNL     1      48.488  12.095  23.845  1.00  0.00    -0.265 OA
HETATM   10  N2  UNL     1      49.587  11.450  21.953  1.00  0.00    -0.273 N 
ATOM     11  H2  UNL     1      48.754  11.006  21.565  1.00  0.00     0.173 HD
HETATM   12  C7  UNL     1      50.740  11.435  21.261  1.00  0.00     0.328 A 
HETATM   13  O2  UNL     1      50.723  10.858  20.142  1.00  0.00    -0.247 OA
HETATM   14  N3  UNL     1      51.881  12.014  21.738  1.00  0.00    -0.292 N 
ATOM     15  H3  UNL     1      52.732  11.977  21.177  1.00  0.00     0.172 HD
HETATM   16  C8  UNL     1      51.906  12.630  22.929  1.00  0.00     0.145 A 
HETATM   17  N4  UNL     1      53.029  13.222  23.442  1.00  0.00    -0.327 N 
HETATM   18  C14 UNL     1      53.028  13.834  24.637  1.00  0.00     0.063 A 
HETATM   19  C15 UNL     1      54.157  14.437  25.155  1.00  0.00     0.039 A 
HETATM   20  C16 UNL     1      54.110  15.061  26.388  1.00  0.00    -0.054 A 
HETATM   21  C17 UNL     1      55.313  15.715  26.960  1.00  0.00     0.049 C 
ENDROOT
BRANCH  17  22
HETATM   22  C9  UNL     1      54.229  13.164  22.637  1.00  0.00     0.165 C 
BRANCH  22  23
HETATM   23  C10 UNL     1      54.314  14.466  21.829  1.00  0.00     0.167 C 
BRANCH  23  24
HETATM   24  O3  UNL     1      53.202  14.728  21.077  1.00  0.00    -0.391 OA
ATOM     25  H3  UNL     1      52.601  13.995  21.008  1.00  0.00     0.210 HD
ENDBRANCH  23  24
BRANCH  23  26
HETATM   26  C11 UNL     1      55.559  14.625  21.082  1.00  0.00     0.179 C 
BRANCH  26  27
HETATM   27  O4  UNL     1      56.615  14.915  21.950  1.00  0.00    -0.390 OA
ATOM     28  H4  UNL     1      57.388  14.417  21.710  1.00  0.00     0.210 HD
ENDBRANCH  26  27
BRANCH  26  29
HETATM   29  C12 UNL     1      55.660  15.441  19.870  1.00  0.00     0.173 C 
BRANCH  29  30
HETATM   30  O5  UNL     1      56.962  15.120  19.330  1.00  0.00    -0.391 OA
ATOM     31  H5  UNL     1      57.357  15.966  19.153  1.00  0.00     0.210 HD
ENDBRANCH  29  30
BRANCH  29  32
HETATM   32  C13 UNL     1      55.779  16.947  20.083  1.00  0.00     0.217 C 
BRANCH  32  33
HETATM   33  O6  UNL     1      55.403  17.607  18.875  1.00  0.00    -0.280 OA
BRANCH  33  34
HETATM   34  P1  UNL     1      55.444  19.274  19.096  1.00  0.00     0.422 P 
HETATM   35  O7  UNL     1      56.869  19.711  19.168  1.00  0.00    -0.617 OA
HETATM   36  O8  UNL     1      54.656  19.744  20.513  1.00  0.00    -0.617 OA
HETATM   37  O9  UNL     1      54.710  20.091  17.800  1.00  0.00    -0.617 OA
ENDBRANCH  33  34
ENDBRANCH  32  33
ENDBRANCH  29  32
ENDBRANCH  26  29
ENDBRANCH  23  26
ENDBRANCH  22  23
ENDBRANCH  17  22
TORSDOF 10
ENDMDL
