MODEL 3
REMARK VINA RESULT: -8.982209170      2.325      4.600
REMARK  10 active torsions:
REMARK  status: ('A' for Active; 'I' for Inactive)
REMARK    1  A    between atoms: N4_17  and  C9_18 
REMARK    2  A    between atoms: C9_18  and  C10_19 
REMARK    3  A    between atoms: C10_19  and  O3_20 
REMARK    4  A    between atoms: C10_19  and  C11_22 
REMARK    5  A    between atoms: C11_22  and  O4_23 
REMARK    6  A    between atoms: C11_22  and  C12_25 
REMARK    7  A    between atoms: C12_25  and  O5_26 
REMARK    8  A    between atoms: C12_25  and  C13_28 
REMARK    9  A    between atoms: C13_28  and  O6_29 
REMARK   10  A    between atoms: O6_29  and  P1_30 
ROOT
HETATM    1  C1  UNL     1      48.898  11.860  23.155  1.00  0.00     0.049 C 
HETATM    2  C2  UNL     1      50.288  12.350  23.319  1.00  0.00    -0.054 A 
HETATM    3  C3  UNL     1      50.669  13.030  24.456  1.00  0.00     0.039 A 
HETATM    4  C4  UNL     1      51.962  13.499  24.635  1.00  0.00     0.060 A 
HETATM    5  N1  UNL     1      52.278  14.152  25.767  1.00  0.00    -0.347 N 
ATOM      6  H1  UNL     1      51.564  14.299  26.481  1.00  0.00     0.166 HD
HETATM    7  C5  UNL     1      53.520  14.610  25.969  1.00  0.00     0.146 A 
HETATM    8  C6  UNL     1      53.900  15.294  27.130  1.00  0.00     0.280 A 
HETATM    9  O1  UNL     1      53.033  15.477  28.004  1.00  0.00    -0.265 OA
HETATM   10  N2  UNL     1      55.177  15.731  27.266  1.00  0.00    -0.273 N 
ATOM     11  H2  UNL     1      55.458  16.231  28.110  1.00  0.00     0.173 HD
HETATM   12  C7  UNL     1      56.073  15.506  26.289  1.00  0.00     0.328 A 
HETATM   13  O2  UNL     1      57.240  15.937  26.478  1.00  0.00    -0.247 OA
HETATM   14  N3  UNL     1      55.745  14.843  25.140  1.00  0.00    -0.292 N 
ATOM     15  H3  UNL     1      56.459  14.696  24.427  1.00  0.00     0.172 HD
HETATM   16  C8  UNL     1      54.503  14.380  24.932  1.00  0.00     0.145 A 
HETATM   17  N4  UNL     1      54.136  13.712  23.795  1.00  0.00    -0.327 N 
HETATM   18  C14 UNL     1      52.886  13.258  23.610  1.00  0.00     0.063 A 
HETATM   19  C15 UNL     1      52.512  12.577  22.468  1.00  0.00     0.039 A 
HETATM   20  C16 UNL     1      51.215  12.122  22.321  1.00  0.00    -0.054 A 
HETATM   21  C17 UNL     1      50.796  11.389  21.100  1.00  0.00     0.049 C 
ENDROOT
BRANCH  17  22
HETATM   22  C9  UNL     1      55.157  13.508  22.791  1.00  0.00     0.165 C 
BRANCH  22  23
HETATM   23  C10 UNL     1      55.541  14.884  22.229  1.00  0.00     0.167 C 
BRANCH  23  24
HETATM   24  O3  UNL     1      54.516  15.788  22.220  1.00  0.00    -0.391 OA
ATOM     25  H3  UNL     1      54.772  16.666  22.477  1.00  0.00     0.210 HD
ENDBRANCH  23  24
BRANCH  23  26
HETATM   26  C11 UNL     1      56.266  14.828  20.961  1.00  0.00     0.179 C 
BRANCH  26  27
HETATM   27  O4  UNL     1      57.489  15.496  21.070  1.00  0.00    -0.390 OA
ATOM     28  H4  UNL     1      57.387  16.412  20.838  1.00  0.00     0.210 HD
ENDBRANCH  26  27
BRANCH  26  29
HETATM   29  C12 UNL     1      55.637  15.128  19.674  1.00  0.00     0.173 C 
BRANCH  29  30
HETATM   30  O5  UNL     1      56.294  14.243  18.740  1.00  0.00    -0.391 OA
ATOM     31  H5  UNL     1      56.349  14.748  17.937  1.00  0.00     0.210 HD
ENDBRANCH  29  30
BRANCH  29  32
HETATM   32  C13 UNL     1      55.952  16.495  19.075  1.00  0.00     0.217 C 
BRANCH  32  33
HETATM   33  O6  UNL     1      55.712  17.492  20.068  1.00  0.00    -0.280 OA
BRANCH  33  34
HETATM   34  P1  UNL     1      55.592  19.005  19.344  1.00  0.00     0.422 P 
HETATM   35  O7  UNL     1      56.954  19.612  19.277  1.00  0.00    -0.617 OA
HETATM   36  O8  UNL     1      54.574  20.039  20.205  1.00  0.00    -0.617 OA
HETATM   37  O9  UNL     1      54.993  18.890  17.758  1.00  0.00    -0.617 OA
ENDBRANCH  33  34
ENDBRANCH  32  33
ENDBRANCH  29  32
ENDBRANCH  26  29
ENDBRANCH  23  26
ENDBRANCH  22  23
ENDBRANCH  17  22
TORSDOF 10
ENDMDL
