MODEL 5
REMARK VINA RESULT: -8.539105849      2.384      4.937
REMARK  10 active torsions:
REMARK  status: ('A' for Active; 'I' for Inactive)
REMARK    1  A    between atoms: N4_17  and  C9_18 
REMARK    2  A    between atoms: C9_18  and  C10_19 
REMARK    3  A    between atoms: C10_19  and  O3_20 
REMARK    4  A    between atoms: C10_19  and  C11_22 
REMARK    5  A    between atoms: C11_22  and  O4_23 
REMARK    6  A    between atoms: C11_22  and  C12_25 
REMARK    7  A    between atoms: C12_25  and  O5_26 
REMARK    8  A    between atoms: C12_25  and  C13_28 
REMARK    9  A    between atoms: C13_28  and  O6_29 
REMARK   10  A    between atoms: O6_29  and  P1_30 
ROOT
HETATM    1  C1  UNL     1      49.665  12.571  23.697  1.00  0.00     0.049 C 
HETATM    2  C2  UNL     1      51.108  12.912  23.715  1.00  0.00    -0.054 A 
HETATM    3  C3  UNL     1      51.669  13.560  24.794  1.00  0.00     0.039 A 
HETATM    4  C4  UNL     1      53.016  13.891  24.836  1.00  0.00     0.060 A 
HETATM    5  N1  UNL     1      53.509  14.518  25.918  1.00  0.00    -0.347 N 
ATOM      6  H1  UNL     1      52.888  14.749  26.694  1.00  0.00     0.166 HD
HETATM    7  C5  UNL     1      54.805  14.844  25.989  1.00  0.00     0.146 A 
HETATM    8  C6  UNL     1      55.368  15.497  27.092  1.00  0.00     0.280 A 
HETATM    9  O1  UNL     1      54.616  15.782  28.042  1.00  0.00    -0.265 OA
HETATM   10  N2  UNL     1      56.691  15.797  27.094  1.00  0.00    -0.273 N 
ATOM     11  H2  UNL     1      57.105  16.273  27.895  1.00  0.00     0.173 HD
HETATM   12  C7  UNL     1      57.457  15.466  26.039  1.00  0.00     0.328 A 
HETATM   13  O2  UNL     1      58.677  15.772  26.106  1.00  0.00    -0.247 OA
HETATM   14  N3  UNL     1      56.950  14.829  24.943  1.00  0.00    -0.292 N 
ATOM     15  H3  UNL     1      57.571  14.598  24.168  1.00  0.00     0.172 HD
HETATM   16  C8  UNL     1      55.652  14.499  24.866  1.00  0.00     0.145 A 
HETATM   17  N4  UNL     1      55.106  13.860  23.786  1.00  0.00    -0.327 N 
HETATM   18  C14 UNL     1      53.803  13.540  23.732  1.00  0.00     0.063 A 
HETATM   19  C15 UNL     1      53.249  12.890  22.647  1.00  0.00     0.039 A 
HETATM   20  C16 UNL     1      51.903  12.575  22.636  1.00  0.00    -0.054 A 
HETATM   21  C17 UNL     1      51.291  11.876  21.479  1.00  0.00     0.049 C 
ENDROOT
BRANCH  17  22
HETATM   22  C9  UNL     1      55.996  13.537  22.692  1.00  0.00     0.165 C 
BRANCH  22  23
HETATM   23  C10 UNL     1      56.126  14.786  21.809  1.00  0.00     0.167 C 
BRANCH  23  24
HETATM   24  O3  UNL     1      56.241  15.954  22.511  1.00  0.00    -0.391 OA
ATOM     25  H3  UNL     1      56.537  16.691  21.989  1.00  0.00     0.210 HD
ENDBRANCH  23  24
BRANCH  23  26
HETATM   26  C11 UNL     1      55.140  14.861  20.734  1.00  0.00     0.179 C 
BRANCH  26  27
HETATM   27  O4  UNL     1      55.714  14.476  19.519  1.00  0.00    -0.390 OA
ATOM     28  H4  UNL     1      55.657  15.183  18.887  1.00  0.00     0.210 HD
ENDBRANCH  26  27
BRANCH  26  29
HETATM   29  C12 UNL     1      54.266  16.020  20.537  1.00  0.00     0.173 C 
BRANCH  29  30
HETATM   30  O5  UNL     1      52.959  15.447  20.307  1.00  0.00    -0.391 OA
ATOM     31  H5  UNL     1      52.602  15.958  19.589  1.00  0.00     0.210 HD
ENDBRANCH  29  30
BRANCH  29  32
HETATM   32  C13 UNL     1      54.484  16.814  19.253  1.00  0.00     0.217 C 
BRANCH  32  33
HETATM   33  O6  UNL     1      55.759  17.449  19.323  1.00  0.00    -0.280 OA
BRANCH  33  34
HETATM   34  P1  UNL     1      55.572  19.120  19.257  1.00  0.00     0.422 P 
HETATM   35  O7  UNL     1      56.923  19.753  19.273  1.00  0.00    -0.617 OA
HETATM   36  O8  UNL     1      54.678  19.707  20.563  1.00  0.00    -0.617 OA
HETATM   37  O9  UNL     1      54.785  19.601  17.831  1.00  0.00    -0.617 OA
ENDBRANCH  33  34
ENDBRANCH  32  33
ENDBRANCH  29  32
ENDBRANCH  26  29
ENDBRANCH  23  26
ENDBRANCH  22  23
ENDBRANCH  17  22
TORSDOF 10
ENDMDL
