MODEL 2
REMARK VINA RESULT: -9.143010839      2.260      4.603
REMARK  10 active torsions:
REMARK  status: ('A' for Active; 'I' for Inactive)
REMARK    1  A    between atoms: N4_17  and  C9_18 
REMARK    2  A    between atoms: C9_18  and  C10_19 
REMARK    3  A    between atoms: C10_19  and  O3_20 
REMARK    4  A    between atoms: C10_19  and  C11_22 
REMARK    5  A    between atoms: C11_22  and  O4_23 
REMARK    6  A    between atoms: C11_22  and  C12_25 
REMARK    7  A    between atoms: C12_25  and  O5_26 
REMARK    8  A    between atoms: C12_25  and  C13_28 
REMARK    9  A    between atoms: C13_28  and  O6_29 
REMARK   10  A    between atoms: O6_29  and  P1_30 
ROOT
HETATM    1  C1  UNL     1      48.823  11.865  23.332  1.00  0.00     0.049 C 
HETATM    2  C2  UNL     1      50.236  12.313  23.314  1.00  0.00    -0.054 A 
HETATM    3  C3  UNL     1      50.773  13.006  24.377  1.00  0.00     0.039 A 
HETATM    4  C4  UNL     1      52.092  13.437  24.385  1.00  0.00     0.060 A 
HETATM    5  N1  UNL     1      52.562  14.105  25.453  1.00  0.00    -0.347 N 
ATOM      6  H1  UNL     1      51.945  14.292  26.243  1.00  0.00     0.166 HD
HETATM    7  C5  UNL     1      53.832  14.527  25.491  1.00  0.00     0.146 A 
HETATM    8  C6  UNL     1      54.371  15.226  26.578  1.00  0.00     0.280 A 
HETATM    9  O1  UNL     1      53.623  15.457  27.546  1.00  0.00    -0.265 OA
HETATM   10  N2  UNL     1      55.667  15.624  26.547  1.00  0.00    -0.273 N 
ATOM     11  H2  UNL     1      56.063  16.133  27.337  1.00  0.00     0.173 HD
HETATM   12  C7  UNL     1      56.430  15.347  25.475  1.00  0.00     0.328 A 
HETATM   13  O2  UNL     1      57.624  15.744  25.510  1.00  0.00    -0.247 OA
HETATM   14  N3  UNL     1      55.946  14.668  24.393  1.00  0.00    -0.292 N 
ATOM     15  H3  UNL     1      56.563  14.481  23.603  1.00  0.00     0.172 HD
HETATM   16  C8  UNL     1      54.675  14.242  24.349  1.00  0.00     0.145 A 
HETATM   17  N4  UNL     1      54.152  13.559  23.284  1.00  0.00    -0.327 N 
HETATM   18  C14 UNL     1      52.876  13.142  23.263  1.00  0.00     0.063 A 
HETATM   19  C15 UNL     1      52.346  12.447  22.193  1.00  0.00     0.039 A 
HETATM   20  C16 UNL     1      51.028  12.032  22.217  1.00  0.00    -0.054 A 
HETATM   21  C17 UNL     1      50.441  11.284  21.076  1.00  0.00     0.049 C 
ENDROOT
BRANCH  17  22
HETATM   22  C9  UNL     1      55.037  13.299  22.169  1.00  0.00     0.165 C 
BRANCH  22  23
HETATM   23  C10 UNL     1      55.168  14.598  21.363  1.00  0.00     0.167 C 
BRANCH  23  24
HETATM   24  O3  UNL     1      54.341  14.665  20.276  1.00  0.00    -0.391 OA
ATOM     25  H3  UNL     1      54.597  14.096  19.560  1.00  0.00     0.210 HD
ENDBRANCH  23  24
BRANCH  23  26
HETATM   26  C11 UNL     1      56.547  14.972  21.055  1.00  0.00     0.179 C 
BRANCH  26  27
HETATM   27  O4  UNL     1      57.440  14.120  21.709  1.00  0.00    -0.390 OA
ATOM     28  H4  UNL     1      58.188  14.610  22.033  1.00  0.00     0.210 HD
ENDBRANCH  26  27
BRANCH  26  29
HETATM   29  C12 UNL     1      57.027  16.354  21.115  1.00  0.00     0.173 C 
BRANCH  29  30
HETATM   30  O5  UNL     1      57.492  16.512  22.474  1.00  0.00    -0.391 OA
ATOM     31  H5  UNL     1      57.233  17.395  22.710  1.00  0.00     0.210 HD
ENDBRANCH  29  30
BRANCH  29  32
HETATM   32  C13 UNL     1      55.960  17.440  21.028  1.00  0.00     0.217 C 
BRANCH  32  33
HETATM   33  O6  UNL     1      55.590  17.604  19.659  1.00  0.00    -0.280 OA
BRANCH  33  34
HETATM   34  P1  UNL     1      55.515  19.240  19.277  1.00  0.00     0.422 P 
HETATM   35  O7  UNL     1      56.901  19.795  19.282  1.00  0.00    -0.617 OA
HETATM   36  O8  UNL     1      54.576  20.105  20.381  1.00  0.00    -0.617 OA
HETATM   37  O9  UNL     1      54.858  19.488  17.730  1.00  0.00    -0.617 OA
ENDBRANCH  33  34
ENDBRANCH  32  33
ENDBRANCH  29  32
ENDBRANCH  26  29
ENDBRANCH  23  26
ENDBRANCH  22  23
ENDBRANCH  17  22
TORSDOF 10
ENDMDL
