MODEL 1
REMARK VINA RESULT: -6.681402552      0.000      0.000
REMARK  10 active torsions:
REMARK  status: ('A' for Active; 'I' for Inactive)
REMARK    1  A    between atoms: C2_2  and  C3_3 
REMARK    2  A    between atoms: C3_3  and  C4_4 
REMARK    3  A    between atoms: C4_4  and  C5_5 
REMARK    4  A    between atoms: C5_5  and  C6_6 
REMARK    5  A    between atoms: C6_6  and  C7_7 
REMARK    6  A    between atoms: C7_7  and  C8_8 
REMARK    7  A    between atoms: C8_8  and  C9_9 
REMARK    8  A    between atoms: C9_9  and  C10_10 
REMARK    9  A    between atoms: C10_10  and  C11_11 
REMARK   10  A    between atoms: C12_12  and  O1_13 
ROOT
HETATM    1  C11 UNL     1      22.214  69.611  -3.740  1.00  0.00     0.049 A 
HETATM    2  C12 UNL     1      22.258  69.210  -2.439  1.00  0.00     0.146 A 
HETATM    3  C13 UNL     1      21.327  70.037  -1.709  1.00  0.00     0.282 A 
HETATM    4  O2  UNL     1      21.114  69.939  -0.470  1.00  0.00    -0.265 OA
HETATM    5  N1  UNL     1      20.690  70.963  -2.562  1.00  0.00    -0.288 N 
ATOM      6  H1  UNL     1      19.990  71.664  -2.318  1.00  0.00     0.172 HD
HETATM    7  C14 UNL     1      21.258  70.688  -3.863  1.00  0.00     0.257 A 
HETATM    8  O3  UNL     1      20.904  71.342  -4.883  1.00  0.00    -0.267 OA
ENDROOT
BRANCH   1   9
HETATM    9  C10 UNL     1      23.039  68.978  -4.799  1.00  0.00     0.047 C 
BRANCH   9  10
HETATM   10  C9  UNL     1      22.266  68.596  -5.992  1.00  0.00     0.005 C 
BRANCH  10  11
HETATM   11  C8  UNL     1      22.484  69.325  -7.269  1.00  0.00     0.000 C 
BRANCH  11  12
HETATM   12  C7  UNL     1      21.627  68.798  -8.396  1.00  0.00     0.000 C 
BRANCH  12  13
HETATM   13  C6  UNL     1      22.428  67.927  -9.325  1.00  0.00     0.000 C 
BRANCH  13  14
HETATM   14  C5  UNL     1      21.851  66.554  -9.358  1.00  0.00     0.000 C 
BRANCH  14  15
HETATM   15  C4  UNL     1      22.881  65.482  -9.046  1.00  0.00     0.000 C 
BRANCH  15  16
HETATM   16  C3  UNL     1      24.156  66.218  -8.655  1.00  0.00    -0.000 C 
BRANCH  16  17
HETATM   17  C2  UNL     1      24.822  65.541  -7.492  1.00  0.00    -0.005 C 
HETATM   18  C1  UNL     1      23.785  65.143  -6.482  1.00  0.00     0.005 C 
ENDBRANCH  16  17
ENDBRANCH  15  16
ENDBRANCH  14  15
ENDBRANCH  13  14
ENDBRANCH  12  13
ENDBRANCH  11  12
ENDBRANCH  10  11
ENDBRANCH   9  10
ENDBRANCH   1   9
BRANCH   2  19
HETATM   19  O1  UNL     1      23.071  68.183  -1.973  1.00  0.00    -0.355 OA
ATOM     20  H1  UNL     1      23.800  68.315  -1.377  1.00  0.00     0.218 HD
ENDBRANCH   2  19
TORSDOF 10
ENDMDL
