MODEL 2
REMARK VINA RESULT: -6.609020116      0.687      2.280
REMARK  10 active torsions:
REMARK  status: ('A' for Active; 'I' for Inactive)
REMARK    1  A    between atoms: C2_2  and  C3_3 
REMARK    2  A    between atoms: C3_3  and  C4_4 
REMARK    3  A    between atoms: C4_4  and  C5_5 
REMARK    4  A    between atoms: C5_5  and  C6_6 
REMARK    5  A    between atoms: C6_6  and  C7_7 
REMARK    6  A    between atoms: C7_7  and  C8_8 
REMARK    7  A    between atoms: C8_8  and  C9_9 
REMARK    8  A    between atoms: C9_9  and  C10_10 
REMARK    9  A    between atoms: C10_10  and  C11_11 
REMARK   10  A    between atoms: C12_12  and  O1_13 
ROOT
HETATM    1  C11 UNL     1      21.882  69.908  -3.783  1.00  0.00     0.049 A 
HETATM    2  C12 UNL     1      22.122  69.442  -2.527  1.00  0.00     0.146 A 
HETATM    3  C13 UNL     1      21.213  70.126  -1.639  1.00  0.00     0.282 A 
HETATM    4  O2  UNL     1      21.163  69.938  -0.393  1.00  0.00    -0.265 OA
HETATM    5  N1  UNL     1      20.392  71.029  -2.347  1.00  0.00    -0.288 N 
ATOM      6  H1  UNL     1      19.664  71.640  -1.976  1.00  0.00     0.172 HD
HETATM    7  C14 UNL     1      20.821  70.887  -3.721  1.00  0.00     0.257 A 
HETATM    8  O3  UNL     1      20.284  71.558  -4.646  1.00  0.00    -0.267 OA
ENDROOT
BRANCH   1   9
HETATM    9  C10 UNL     1      22.627  69.423  -4.972  1.00  0.00     0.047 C 
BRANCH   9  10
HETATM   10  C9  UNL     1      22.656  67.956  -5.085  1.00  0.00     0.005 C 
BRANCH  10  11
HETATM   11  C8  UNL     1      23.902  67.283  -5.539  1.00  0.00     0.000 C 
BRANCH  11  12
HETATM   12  C7  UNL     1      23.663  65.864  -6.003  1.00  0.00     0.000 C 
BRANCH  12  13
HETATM   13  C6  UNL     1      24.645  65.470  -7.073  1.00  0.00     0.000 C 
BRANCH  13  14
HETATM   14  C5  UNL     1      24.225  66.042  -8.382  1.00  0.00     0.000 C 
BRANCH  14  15
HETATM   15  C4  UNL     1      23.021  65.327  -8.971  1.00  0.00     0.000 C 
BRANCH  15  16
HETATM   16  C3  UNL     1      22.002  66.410  -9.300  1.00  0.00    -0.000 C 
BRANCH  16  17
HETATM   17  C2  UNL     1      22.633  67.770  -9.231  1.00  0.00    -0.005 C 
HETATM   18  C1  UNL     1      21.668  68.740  -8.615  1.00  0.00     0.005 C 
ENDBRANCH  16  17
ENDBRANCH  15  16
ENDBRANCH  14  15
ENDBRANCH  13  14
ENDBRANCH  12  13
ENDBRANCH  11  12
ENDBRANCH  10  11
ENDBRANCH   9  10
ENDBRANCH   1   9
BRANCH   2  19
HETATM   19  O1  UNL     1      23.080  68.479  -2.229  1.00  0.00    -0.355 OA
ATOM     20  H1  UNL     1      22.903  67.698  -1.717  1.00  0.00     0.218 HD
ENDBRANCH   2  19
TORSDOF 10
ENDMDL
