MODEL 3
REMARK VINA RESULT: -6.575701476      2.952      4.123
REMARK  10 active torsions:
REMARK  status: ('A' for Active; 'I' for Inactive)
REMARK    1  A    between atoms: C2_2  and  C3_3 
REMARK    2  A    between atoms: C3_3  and  C4_4 
REMARK    3  A    between atoms: C4_4  and  C5_5 
REMARK    4  A    between atoms: C5_5  and  C6_6 
REMARK    5  A    between atoms: C6_6  and  C7_7 
REMARK    6  A    between atoms: C7_7  and  C8_8 
REMARK    7  A    between atoms: C8_8  and  C9_9 
REMARK    8  A    between atoms: C9_9  and  C10_10 
REMARK    9  A    between atoms: C10_10  and  C11_11 
REMARK   10  A    between atoms: C12_12  and  O1_13 
ROOT
HETATM    1  C11 UNL     1      23.548  65.921  -3.414  1.00  0.00     0.049 A 
HETATM    2  C12 UNL     1      23.647  66.503  -2.186  1.00  0.00     0.146 A 
HETATM    3  C13 UNL     1      24.066  65.476  -1.262  1.00  0.00     0.282 A 
HETATM    4  O2  UNL     1      24.255  65.667  -0.030  1.00  0.00    -0.265 OA
HETATM    5  N1  UNL     1      24.234  64.238  -1.918  1.00  0.00    -0.288 N 
ATOM      6  H1  UNL     1      24.522  63.347  -1.513  1.00  0.00     0.172 HD
HETATM    7  C14 UNL     1      23.903  64.525  -3.296  1.00  0.00     0.257 A 
HETATM    8  O3  UNL     1      23.952  63.626  -4.181  1.00  0.00    -0.267 OA
ENDROOT
BRANCH   1   9
HETATM    9  C10 UNL     1      23.147  66.677  -4.626  1.00  0.00     0.047 C 
BRANCH   9  10
HETATM   10  C9  UNL     1      24.233  67.492  -5.194  1.00  0.00     0.005 C 
BRANCH  10  11
HETATM   11  C8  UNL     1      23.903  68.742  -5.926  1.00  0.00     0.000 C 
BRANCH  11  12
HETATM   12  C7  UNL     1      22.445  68.822  -6.317  1.00  0.00     0.000 C 
BRANCH  12  13
HETATM   13  C6  UNL     1      22.273  69.544  -7.626  1.00  0.00     0.000 C 
BRANCH  13  14
HETATM   14  C5  UNL     1      21.602  68.654  -8.613  1.00  0.00     0.000 C 
BRANCH  14  15
HETATM   15  C4  UNL     1      22.581  67.748  -9.339  1.00  0.00     0.000 C 
BRANCH  15  16
HETATM   16  C3  UNL     1      21.991  66.345  -9.276  1.00  0.00    -0.000 C 
BRANCH  16  17
HETATM   17  C2  UNL     1      23.009  65.364  -8.771  1.00  0.00    -0.005 C 
HETATM   18  C1  UNL     1      24.306  66.076  -8.515  1.00  0.00     0.005 C 
ENDBRANCH  16  17
ENDBRANCH  15  16
ENDBRANCH  14  15
ENDBRANCH  13  14
ENDBRANCH  12  13
ENDBRANCH  11  12
ENDBRANCH  10  11
ENDBRANCH   9  10
ENDBRANCH   1   9
BRANCH   2  19
HETATM   19  O1  UNL     1      23.383  67.846  -1.943  1.00  0.00    -0.355 OA
ATOM     20  H1  UNL     1      23.348  68.230  -1.075  1.00  0.00     0.218 HD
ENDBRANCH   2  19
TORSDOF 10
ENDMDL
