MODEL 16
REMARK VINA RESULT: -5.419124815      1.240      1.985
REMARK  3 active torsions:
REMARK  status: ('A' for Active; 'I' for Inactive)
REMARK    1  A    between atoms: C1_2  and  C2_4 
REMARK    2  A    between atoms: C2_4  and  C3_6 
REMARK    3  A    between atoms: C3_6  and  C4_7 
ROOT
HETATM    1  C4  UNL     1       9.582 -50.004  36.361  1.00  0.00    -0.057 A 
HETATM    2  C5  UNL     1       8.547 -49.147  36.118  1.00  0.00     0.007 A 
HETATM    3  C6  UNL     1       7.454 -49.131  36.975  1.00  0.00     0.001 A 
HETATM    4  C7  UNL     1       7.397 -49.968  38.066  1.00  0.00     0.000 A 
HETATM    5  C8  UNL     1       8.431 -50.828  38.314  1.00  0.00     0.001 A 
HETATM    6  C9  UNL     1       9.517 -50.843  37.464  1.00  0.00     0.007 A 
ENDROOT
BRANCH   1   7
HETATM    7  C3  UNL     1      10.768 -50.060  35.480  1.00  0.00     0.065 C 
BRANCH   7   8
HETATM    8  C2  UNL     1      10.712 -51.211  34.501  1.00  0.00     0.163 C 
HETATM    9  S1  UNL     1      12.003 -52.416  34.811  1.00  0.00    -0.081 SA
BRANCH   8  10
HETATM   10  C1  UNL     1      10.845 -50.658  33.135  1.00  0.00     0.188 C 
HETATM   11  O1  UNL     1      11.372 -51.334  32.200  1.00  0.00    -0.647 OA
HETATM   12  O2  UNL     1      10.398 -49.377  32.821  1.00  0.00    -0.647 OA
ENDBRANCH   8  10
ENDBRANCH   7   8
ENDBRANCH   1   7
TORSDOF 3
ENDMDL
