MODEL 19
REMARK VINA RESULT: -5.088550088      3.111      5.132
REMARK  3 active torsions:
REMARK  status: ('A' for Active; 'I' for Inactive)
REMARK    1  A    between atoms: C1_2  and  C2_4 
REMARK    2  A    between atoms: C2_4  and  C3_6 
REMARK    3  A    between atoms: C3_6  and  C4_7 
ROOT
HETATM    1  C4  UNL     1      10.367 -49.640  35.568  1.00  0.00    -0.057 A 
HETATM    2  C5  UNL     1       9.649 -49.627  34.407  1.00  0.00     0.007 A 
HETATM    3  C6  UNL     1      10.261 -50.003  33.218  1.00  0.00     0.001 A 
HETATM    4  C7  UNL     1      11.582 -50.389  33.193  1.00  0.00     0.000 A 
HETATM    5  C8  UNL     1      12.305 -50.405  34.353  1.00  0.00     0.001 A 
HETATM    6  C9  UNL     1      11.697 -50.032  35.534  1.00  0.00     0.007 A 
ENDROOT
BRANCH   1   7
HETATM    7  C3  UNL     1       9.763 -49.250  36.860  1.00  0.00     0.065 C 
BRANCH   7   8
HETATM    8  C2  UNL     1       8.453 -49.956  37.127  1.00  0.00     0.163 C 
HETATM    9  S1  UNL     1       7.179 -48.818  37.674  1.00  0.00    -0.081 SA
BRANCH   8  10
HETATM   10  C1  UNL     1       8.690 -50.991  38.157  1.00  0.00     0.188 C 
HETATM   11  O1  UNL     1       7.939 -51.093  39.174  1.00  0.00    -0.647 OA
HETATM   12  O2  UNL     1       9.747 -51.893  38.052  1.00  0.00    -0.647 OA
ENDBRANCH   8  10
ENDBRANCH   7   8
ENDBRANCH   1   7
TORSDOF 3
ENDMDL
