MODEL 9
REMARK VINA RESULT: -5.818237055      0.744      1.783
REMARK  3 active torsions:
REMARK  status: ('A' for Active; 'I' for Inactive)
REMARK    1  A    between atoms: C1_2  and  C2_4 
REMARK    2  A    between atoms: C2_4  and  C3_6 
REMARK    3  A    between atoms: C3_6  and  C4_7 
ROOT
HETATM    1  C4  UNL     1       8.880 -49.857  36.726  1.00  0.00    -0.057 A 
HETATM    2  C5  UNL     1       7.784 -49.048  36.628  1.00  0.00     0.007 A 
HETATM    3  C6  UNL     1       6.792 -49.118  37.599  1.00  0.00     0.001 A 
HETATM    4  C7  UNL     1       6.897 -49.991  38.657  1.00  0.00     0.000 A 
HETATM    5  C8  UNL     1       7.993 -50.802  38.760  1.00  0.00     0.001 A 
HETATM    6  C9  UNL     1       8.978 -50.733  37.798  1.00  0.00     0.007 A 
ENDROOT
BRANCH   1   7
HETATM    7  C3  UNL     1       9.964 -49.822  35.721  1.00  0.00     0.065 C 
BRANCH   7   8
HETATM    8  C2  UNL     1       9.950 -51.028  34.808  1.00  0.00     0.163 C 
HETATM    9  S1  UNL     1      11.507 -51.917  34.853  1.00  0.00    -0.081 SA
BRANCH   8  10
HETATM   10  C1  UNL     1       9.668 -50.560  33.434  1.00  0.00     0.188 C 
HETATM   11  O1  UNL     1      10.301 -49.585  32.927  1.00  0.00    -0.647 OA
HETATM   12  O2  UNL     1       8.697 -51.169  32.642  1.00  0.00    -0.647 OA
ENDBRANCH   8  10
ENDBRANCH   7   8
ENDBRANCH   1   7
TORSDOF 3
ENDMDL
