MODEL 14
REMARK VINA RESULT: -5.577595147      3.582      5.119
REMARK  3 active torsions:
REMARK  status: ('A' for Active; 'I' for Inactive)
REMARK    1  A    between atoms: C1_2  and  C2_4 
REMARK    2  A    between atoms: C2_4  and  C3_6 
REMARK    3  A    between atoms: C3_6  and  C4_7 
ROOT
HETATM    1  C4  UNL     1       9.081 -49.380  35.989  1.00  0.00    -0.057 A 
HETATM    2  C5  UNL     1       9.010 -49.972  34.761  1.00  0.00     0.007 A 
HETATM    3  C6  UNL     1      10.180 -50.331  34.104  1.00  0.00     0.001 A 
HETATM    4  C7  UNL     1      11.412 -50.097  34.671  1.00  0.00     0.000 A 
HETATM    5  C8  UNL     1      11.489 -49.505  35.902  1.00  0.00     0.001 A 
HETATM    6  C9  UNL     1      10.327 -49.149  36.555  1.00  0.00     0.007 A 
ENDROOT
BRANCH   1   7
HETATM    7  C3  UNL     1       7.867 -48.979  36.731  1.00  0.00     0.065 C 
BRANCH   7   8
HETATM    8  C2  UNL     1       7.992 -49.211  38.220  1.00  0.00     0.163 C 
HETATM    9  S1  UNL     1       7.930 -50.956  38.632  1.00  0.00    -0.081 SA
BRANCH   8  10
HETATM   10  C1  UNL     1       6.891 -48.488  38.892  1.00  0.00     0.188 C 
HETATM   11  O1  UNL     1       5.762 -49.036  39.083  1.00  0.00    -0.647 OA
HETATM   12  O2  UNL     1       7.046 -47.178  39.341  1.00  0.00    -0.647 OA
ENDBRANCH   8  10
ENDBRANCH   7   8
ENDBRANCH   1   7
TORSDOF 3
ENDMDL
