MODEL 17
REMARK VINA RESULT: -5.359577130      1.484      1.809
REMARK  3 active torsions:
REMARK  status: ('A' for Active; 'I' for Inactive)
REMARK    1  A    between atoms: C1_2  and  C2_4 
REMARK    2  A    between atoms: C2_4  and  C3_6 
REMARK    3  A    between atoms: C3_6  and  C4_7 
ROOT
HETATM    1  C4  UNL     1       9.139 -50.152  36.221  1.00  0.00    -0.057 A 
HETATM    2  C5  UNL     1       9.452 -51.020  37.228  1.00  0.00     0.007 A 
HETATM    3  C6  UNL     1       8.723 -50.988  38.410  1.00  0.00     0.001 A 
HETATM    4  C7  UNL     1       7.692 -50.094  38.583  1.00  0.00     0.000 A 
HETATM    5  C8  UNL     1       7.375 -49.223  37.577  1.00  0.00     0.001 A 
HETATM    6  C9  UNL     1       8.097 -49.255  36.403  1.00  0.00     0.007 A 
ENDROOT
BRANCH   1   7
HETATM    7  C3  UNL     1       9.882 -50.145  34.942  1.00  0.00     0.065 C 
BRANCH   7   8
HETATM    8  C2  UNL     1      10.985 -51.180  34.905  1.00  0.00     0.163 C 
HETATM    9  S1  UNL     1      12.578 -50.444  34.531  1.00  0.00    -0.081 SA
BRANCH   8  10
HETATM   10  C1  UNL     1      10.634 -52.187  33.881  1.00  0.00     0.188 C 
HETATM   11  O1  UNL     1      11.391 -52.408  32.886  1.00  0.00    -0.647 OA
HETATM   12  O2  UNL     1       9.461 -52.934  33.965  1.00  0.00    -0.647 OA
ENDBRANCH   8  10
ENDBRANCH   7   8
ENDBRANCH   1   7
TORSDOF 3
ENDMDL
