MODEL 20
REMARK VINA RESULT: -5.062398897      3.108      4.964
REMARK  3 active torsions:
REMARK  status: ('A' for Active; 'I' for Inactive)
REMARK    1  A    between atoms: C1_2  and  C2_4 
REMARK    2  A    between atoms: C2_4  and  C3_6 
REMARK    3  A    between atoms: C3_6  and  C4_7 
ROOT
HETATM    1  C4  UNL     1      10.386 -49.665  35.599  1.00  0.00    -0.057 A 
HETATM    2  C5  UNL     1      11.706 -50.011  35.555  1.00  0.00     0.007 A 
HETATM    3  C6  UNL     1      12.274 -50.392  34.345  1.00  0.00     0.001 A 
HETATM    4  C7  UNL     1      11.526 -50.427  33.191  1.00  0.00     0.000 A 
HETATM    5  C8  UNL     1      10.204 -50.081  33.230  1.00  0.00     0.001 A 
HETATM    6  C9  UNL     1       9.639 -49.702  34.430  1.00  0.00     0.007 A 
ENDROOT
BRANCH   1   7
HETATM    7  C3  UNL     1       9.733 -49.251  36.860  1.00  0.00     0.065 C 
BRANCH   7   8
HETATM    8  C2  UNL     1       8.443 -49.996  37.118  1.00  0.00     0.163 C 
HETATM    9  S1  UNL     1       7.129 -48.893  37.642  1.00  0.00    -0.081 SA
BRANCH   8  10
HETATM   10  C1  UNL     1       8.701 -51.014  38.159  1.00  0.00     0.188 C 
HETATM   11  O1  UNL     1       7.963 -51.109  39.186  1.00  0.00    -0.647 OA
HETATM   12  O2  UNL     1       9.763 -51.910  38.054  1.00  0.00    -0.647 OA
ENDBRANCH   8  10
ENDBRANCH   7   8
ENDBRANCH   1   7
TORSDOF 3
ENDMDL
