MODEL 20
REMARK VINA RESULT: -4.531110366      1.518      2.266
REMARK  3 active torsions:
REMARK  status: ('A' for Active; 'I' for Inactive)
REMARK    1  A    between atoms: C1_2  and  C2_4 
REMARK    2  A    between atoms: C2_4  and  O3_5 
REMARK    3  A    between atoms: O3_5  and  P1_6 
ROOT
HETATM    1  O3  UNL     1       8.912  -2.173  18.242  1.00  0.00    -0.272 OA
ENDROOT
BRANCH   1   2
HETATM    2  C2  UNL     1       8.373  -2.893  17.223  1.00  0.00     0.295 C 
BRANCH   2   3
HETATM    3  C1  UNL     1       8.866  -2.302  15.950  1.00  0.00     0.198 C 
HETATM    4  O1  UNL     1       9.615  -1.277  15.923  1.00  0.00    -0.646 OA
HETATM    5  O2  UNL     1       8.536  -2.838  14.715  1.00  0.00    -0.646 OA
ENDBRANCH   2   3
ENDBRANCH   1   2
BRANCH   1   6
HETATM    6  P1  UNL     1       7.679  -1.320  18.973  1.00  0.00     0.422 P 
HETATM    7  O4  UNL     1       7.497  -2.434  19.993  1.00  0.00    -0.617 OA
HETATM    8  O5  UNL     1       7.977  -0.175  20.078  1.00  0.00    -0.617 OA
HETATM    9  O6  UNL     1       6.119  -1.507  18.410  1.00  0.00    -0.617 OA
ENDBRANCH   1   6
TORSDOF 3
ENDMDL
