MODEL 3
REMARK VINA RESULT: -5.294892282      0.867      1.582
REMARK  3 active torsions:
REMARK  status: ('A' for Active; 'I' for Inactive)
REMARK    1  A    between atoms: C1_2  and  C2_4 
REMARK    2  A    between atoms: C2_4  and  O3_5 
REMARK    3  A    between atoms: O3_5  and  P1_6 
ROOT
HETATM    1  O3  UNL     1       9.202  -1.682  16.828  1.00  0.00    -0.272 OA
ENDROOT
BRANCH   1   2
HETATM    2  C2  UNL     1       8.867  -2.400  15.724  1.00  0.00     0.295 C 
BRANCH   2   3
HETATM    3  C1  UNL     1       8.954  -1.485  14.554  1.00  0.00     0.198 C 
HETATM    4  O1  UNL     1       9.790  -0.532  14.498  1.00  0.00    -0.646 OA
HETATM    5  O2  UNL     1       8.123  -1.620  13.453  1.00  0.00    -0.646 OA
ENDBRANCH   2   3
ENDBRANCH   1   2
BRANCH   1   6
HETATM    6  P1  UNL     1       7.977  -1.860  17.945  1.00  0.00     0.422 P 
HETATM    7  O4  UNL     1       8.465  -3.263  18.274  1.00  0.00    -0.617 OA
HETATM    8  O5  UNL     1       8.121  -1.310  19.461  1.00  0.00    -0.617 OA
HETATM    9  O6  UNL     1       6.495  -2.436  17.438  1.00  0.00    -0.617 OA
ENDBRANCH   1   6
TORSDOF 3
ENDMDL
