MODEL 16
REMARK VINA RESULT: -4.668412080      2.903      4.562
REMARK  3 active torsions:
REMARK  status: ('A' for Active; 'I' for Inactive)
REMARK    1  A    between atoms: C1_2  and  C2_4 
REMARK    2  A    between atoms: C2_4  and  O3_5 
REMARK    3  A    between atoms: O3_5  and  P1_6 
ROOT
HETATM    1  O3  UNL     1       7.319  -1.078  18.542  1.00  0.00    -0.272 OA
ENDROOT
BRANCH   1   2
HETATM    2  C2  UNL     1       7.518  -1.371  19.854  1.00  0.00     0.295 C 
BRANCH   2   3
HETATM    3  C1  UNL     1       7.924  -0.113  20.536  1.00  0.00     0.198 C 
HETATM    4  O1  UNL     1       7.654   0.116  21.755  1.00  0.00    -0.646 OA
HETATM    5  O2  UNL     1       8.622   0.888  19.878  1.00  0.00    -0.646 OA
ENDBRANCH   2   3
ENDBRANCH   1   2
BRANCH   1   6
HETATM    6  P1  UNL     1       8.484  -1.878  17.657  1.00  0.00     0.422 P 
HETATM    7  O4  UNL     1       8.329  -3.106  18.541  1.00  0.00    -0.617 OA
HETATM    8  O5  UNL     1       8.124  -2.656  16.284  1.00  0.00    -0.617 OA
HETATM    9  O6  UNL     1      10.088  -1.705  18.085  1.00  0.00    -0.617 OA
ENDBRANCH   1   6
TORSDOF 3
ENDMDL
