MODEL 7
REMARK VINA RESULT: -5.038601986      1.063      1.683
REMARK  3 active torsions:
REMARK  status: ('A' for Active; 'I' for Inactive)
REMARK    1  A    between atoms: C1_2  and  C2_4 
REMARK    2  A    between atoms: C2_4  and  O3_5 
REMARK    3  A    between atoms: O3_5  and  P1_6 
ROOT
HETATM    1  O3  UNL     1       9.060  -1.607  16.704  1.00  0.00    -0.272 OA
ENDROOT
BRANCH   1   2
HETATM    2  C2  UNL     1       8.929  -2.368  15.585  1.00  0.00     0.295 C 
BRANCH   2   3
HETATM    3  C1  UNL     1       8.930  -1.447  14.417  1.00  0.00     0.198 C 
HETATM    4  O1  UNL     1       8.138  -1.596  13.435  1.00  0.00    -0.646 OA
HETATM    5  O2  UNL     1       9.797  -0.369  14.331  1.00  0.00    -0.646 OA
ENDBRANCH   2   3
ENDBRANCH   1   2
BRANCH   1   6
HETATM    6  P1  UNL     1       7.823  -2.011  17.745  1.00  0.00     0.422 P 
HETATM    7  O4  UNL     1       8.142  -0.804  18.613  1.00  0.00    -0.617 OA
HETATM    8  O5  UNL     1       6.292  -1.568  17.460  1.00  0.00    -0.617 OA
HETATM    9  O6  UNL     1       8.132  -3.065  19.002  1.00  0.00    -0.617 OA
ENDBRANCH   1   6
TORSDOF 3
ENDMDL
