MODEL 1
REMARK VINA RESULT: -5.407912692      0.000      0.000
REMARK  3 active torsions:
REMARK  status: ('A' for Active; 'I' for Inactive)
REMARK    1  A    between atoms: C1_2  and  C2_4 
REMARK    2  A    between atoms: C2_4  and  O3_5 
REMARK    3  A    between atoms: O3_5  and  P1_6 
ROOT
HETATM    1  O3  UNL     1       7.786  -2.114  16.431  1.00  0.00    -0.272 OA
ENDROOT
BRANCH   1   2
HETATM    2  C2  UNL     1       8.774  -2.534  15.598  1.00  0.00     0.295 C 
BRANCH   2   3
HETATM    3  C1  UNL     1       8.892  -1.533  14.505  1.00  0.00     0.198 C 
HETATM    4  O1  UNL     1       8.124  -1.539  13.493  1.00  0.00    -0.646 OA
HETATM    5  O2  UNL     1       9.849  -0.531  14.525  1.00  0.00    -0.646 OA
ENDBRANCH   2   3
ENDBRANCH   1   2
BRANCH   1   6
HETATM    6  P1  UNL     1       8.446  -1.919  17.950  1.00  0.00     0.422 P 
HETATM    7  O4  UNL     1       8.848  -3.386  17.976  1.00  0.00    -0.617 OA
HETATM    8  O5  UNL     1       9.953  -1.366  18.157  1.00  0.00    -0.617 OA
HETATM    9  O6  UNL     1       7.468  -2.106  19.289  1.00  0.00    -0.617 OA
ENDBRANCH   1   6
TORSDOF 3
ENDMDL
