MODEL 2
REMARK VINA RESULT: -5.318604300      0.380      1.126
REMARK  3 active torsions:
REMARK  status: ('A' for Active; 'I' for Inactive)
REMARK    1  A    between atoms: C1_2  and  C2_4 
REMARK    2  A    between atoms: C2_4  and  O3_5 
REMARK    3  A    between atoms: O3_5  and  P1_6 
ROOT
HETATM    1  O3  UNL     1       7.780  -2.134  16.473  1.00  0.00    -0.272 OA
ENDROOT
BRANCH   1   2
HETATM    2  C2  UNL     1       8.878  -2.470  15.746  1.00  0.00     0.295 C 
BRANCH   2   3
HETATM    3  C1  UNL     1       8.966  -1.519  14.606  1.00  0.00     0.198 C 
HETATM    4  O1  UNL     1       9.808  -0.569  14.578  1.00  0.00    -0.646 OA
HETATM    5  O2  UNL     1       8.131  -1.614  13.503  1.00  0.00    -0.646 OA
ENDBRANCH   2   3
ENDBRANCH   1   2
BRANCH   1   6
HETATM    6  P1  UNL     1       8.292  -1.695  17.998  1.00  0.00     0.422 P 
HETATM    7  O4  UNL     1       8.369  -3.158  18.406  1.00  0.00    -0.617 OA
HETATM    8  O5  UNL     1       9.849  -1.386  18.316  1.00  0.00    -0.617 OA
HETATM    9  O6  UNL     1       7.153  -1.371  19.174  1.00  0.00    -0.617 OA
ENDBRANCH   1   6
TORSDOF 3
ENDMDL
