MODEL 10
REMARK VINA RESULT: -7.056658334      4.284      6.613
REMARK  8 active torsions:
REMARK  status: ('A' for Active; 'I' for Inactive)
REMARK    1  A    between atoms: N5_13  and  C6_14 
REMARK    2  A    between atoms: C7_16  and  C8_17 
REMARK    3  A    between atoms: C8_17  and  O2_18 
REMARK    4  A    between atoms: O2_18  and  P1_19 
REMARK    5  A    between atoms: P1_19  and  O5_22 
REMARK    6  A    between atoms: O5_22  and  P2_23 
REMARK    7  A    between atoms: C9_27  and  O9_28 
REMARK    8  A    between atoms: C10_30  and  O10_31 
ROOT
HETATM    1  C6  UNL     1      13.880  -2.282  -5.276  1.00  0.00     0.262 C 
HETATM    2  O1  UNL     1      14.867  -3.265  -5.193  1.00  0.00    -0.353 OA
HETATM    3  C7  UNL     1      15.320  -3.290  -6.511  1.00  0.00     0.180 C 
HETATM    4  C9  UNL     1      15.493  -1.853  -6.924  1.00  0.00     0.182 C 
HETATM    5  C10 UNL     1      14.656  -1.126  -5.863  1.00  0.00     0.198 C 
ENDROOT
BRANCH   1   6
HETATM    6  N5  UNL     1      13.287  -1.976  -4.005  1.00  0.00    -0.297 N 
HETATM    7  C3  UNL     1      12.660  -2.894  -3.239  1.00  0.00     0.142 A 
HETATM    8  N3  UNL     1      12.434  -4.217  -3.427  1.00  0.00    -0.336 N 
HETATM    9  C4  UNL     1      12.202  -2.293  -2.087  1.00  0.00     0.119 A 
HETATM   10  C2  UNL     1      11.776  -4.973  -2.527  1.00  0.00     0.183 A 
ATOM     11  H3  UNL     1      12.775  -4.657  -4.281  1.00  0.00     0.168 HD
HETATM   12  N2  UNL     1      11.335  -4.391  -1.417  1.00  0.00    -0.339 N 
HETATM   13  C1  UNL     1      11.534  -3.073  -1.177  1.00  0.00     0.148 A 
ATOM     14  H2  UNL     1      10.834  -4.951  -0.727  1.00  0.00     0.167 HD
HETATM   15  N1  UNL     1      11.053  -2.504   0.006  1.00  0.00    -0.080 NA
HETATM   16  N4  UNL     1      12.572  -1.004  -2.186  1.00  0.00    -0.346 N 
HETATM   17  C5  UNL     1      13.226  -0.825  -3.349  1.00  0.00     0.188 A 
ATOM     18  H4  UNL     1      12.386  -0.279  -1.493  1.00  0.00     0.167 HD
ENDBRANCH   1   6
BRANCH   5  19
HETATM   19  O10 UNL     1      13.857  -0.160  -6.429  1.00  0.00    -0.388 OA
ATOM     20  H10 UNL     1      14.334   0.457  -6.970  1.00  0.00     0.210 HD
ENDBRANCH   5  19
BRANCH   3  21
HETATM   21  C8  UNL     1      16.592  -4.092  -6.658  1.00  0.00     0.216 C 
BRANCH  21  22
HETATM   22  O2  UNL     1      17.639  -3.289  -6.326  1.00  0.00    -0.287 OA
BRANCH  22  23
HETATM   23  P1  UNL     1      18.507  -3.657  -4.989  1.00  0.00     0.418 P 
HETATM   24  O3  UNL     1      19.192  -4.861  -5.632  1.00  0.00    -0.624 OA
HETATM   25  O4  UNL     1      20.058  -2.930  -4.841  1.00  0.00    -0.624 OA
BRANCH  23  26
HETATM   26  O5  UNL     1      17.889  -4.483  -3.756  1.00  0.00    -0.173 OA
BRANCH  26  27
HETATM   27  P2  UNL     1      17.395  -3.675  -2.410  1.00  0.00     0.431 P 
HETATM   28  O6  UNL     1      15.826  -3.583  -2.033  1.00  0.00    -0.616 OA
HETATM   29  O7  UNL     1      18.529  -2.749  -1.565  1.00  0.00    -0.616 OA
HETATM   30  O8  UNL     1      17.760  -4.866  -1.522  1.00  0.00    -0.616 OA
ENDBRANCH  26  27
ENDBRANCH  23  26
ENDBRANCH  22  23
ENDBRANCH  21  22
ENDBRANCH   3  21
BRANCH   4  31
HETATM   31  O9  UNL     1      14.850  -1.607  -8.145  1.00  0.00    -0.390 OA
ATOM     32  H9  UNL     1      15.485  -1.477  -8.839  1.00  0.00     0.210 HD
ENDBRANCH   4  31
TORSDOF 8
ENDMDL
