MODEL 4
REMARK VINA RESULT: -7.271017832      2.345      4.193
REMARK  8 active torsions:
REMARK  status: ('A' for Active; 'I' for Inactive)
REMARK    1  A    between atoms: N5_13  and  C6_14 
REMARK    2  A    between atoms: C7_16  and  C8_17 
REMARK    3  A    between atoms: C8_17  and  O2_18 
REMARK    4  A    between atoms: O2_18  and  P1_19 
REMARK    5  A    between atoms: P1_19  and  O5_22 
REMARK    6  A    between atoms: O5_22  and  P2_23 
REMARK    7  A    between atoms: C9_27  and  O9_28 
REMARK    8  A    between atoms: C10_30  and  O10_31 
ROOT
HETATM    1  C6  UNL     1      18.025  -3.253  -5.310  1.00  0.00     0.262 C 
HETATM    2  O1  UNL     1      17.186  -2.879  -4.261  1.00  0.00    -0.353 OA
HETATM    3  C7  UNL     1      17.390  -3.937  -3.375  1.00  0.00     0.180 C 
HETATM    4  C9  UNL     1      18.876  -4.159  -3.321  1.00  0.00     0.182 C 
HETATM    5  C10 UNL     1      19.342  -3.434  -4.592  1.00  0.00     0.198 C 
ENDROOT
BRANCH   1   6
HETATM    6  N5  UNL     1      18.084  -2.272  -6.356  1.00  0.00    -0.297 N 
HETATM    7  C3  UNL     1      17.013  -1.562  -6.768  1.00  0.00     0.142 A 
HETATM    8  N3  UNL     1      15.720  -1.569  -6.361  1.00  0.00    -0.336 N 
HETATM    9  C4  UNL     1      17.391  -0.707  -7.780  1.00  0.00     0.119 A 
HETATM   10  C2  UNL     1      14.785  -0.769  -6.908  1.00  0.00     0.183 A 
ATOM     11  H3  UNL     1      15.445  -2.203  -5.611  1.00  0.00     0.168 HD
HETATM   12  N2  UNL     1      15.152   0.054  -7.884  1.00  0.00    -0.339 N 
HETATM   13  C1  UNL     1      16.430   0.103  -8.330  1.00  0.00     0.148 A 
ATOM     14  H2  UNL     1      14.454   0.664  -8.309  1.00  0.00     0.167 HD
HETATM   15  N1  UNL     1      16.771   0.986  -9.360  1.00  0.00    -0.080 NA
HETATM   16  N4  UNL     1      18.706  -0.925  -7.958  1.00  0.00    -0.346 N 
HETATM   17  C5  UNL     1      19.113  -1.872  -7.092  1.00  0.00     0.188 A 
ATOM     18  H4  UNL     1      19.299  -0.449  -8.638  1.00  0.00     0.167 HD
ENDBRANCH   1   6
BRANCH   5  19
HETATM   19  O10 UNL     1      20.252  -4.188  -5.295  1.00  0.00    -0.388 OA
ATOM     20  H10 UNL     1      20.937  -4.559  -4.752  1.00  0.00     0.210 HD
ENDBRANCH   5  19
BRANCH   3  21
HETATM   21  C8  UNL     1      16.795  -3.658  -2.014  1.00  0.00     0.216 C 
BRANCH  21  22
HETATM   22  O2  UNL     1      15.903  -2.641  -2.143  1.00  0.00    -0.287 OA
BRANCH  22  23
HETATM   23  P1  UNL     1      14.371  -3.002  -2.593  1.00  0.00     0.418 P 
HETATM   24  O3  UNL     1      13.749  -1.866  -1.784  1.00  0.00    -0.624 OA
HETATM   25  O4  UNL     1      13.774  -2.239  -4.012  1.00  0.00    -0.624 OA
BRANCH  23  26
HETATM   26  O5  UNL     1      13.515  -4.167  -1.888  1.00  0.00    -0.173 OA
BRANCH  26  27
HETATM   27  P2  UNL     1      11.893  -3.972  -1.695  1.00  0.00     0.431 P 
HETATM   28  O6  UNL     1      10.893  -4.082  -2.960  1.00  0.00    -0.616 OA
HETATM   29  O7  UNL     1      11.320  -3.421  -0.203  1.00  0.00    -0.616 OA
HETATM   30  O8  UNL     1      11.748  -5.405  -1.180  1.00  0.00    -0.616 OA
ENDBRANCH  26  27
ENDBRANCH  23  26
ENDBRANCH  22  23
ENDBRANCH  21  22
ENDBRANCH   3  21
BRANCH   4  31
HETATM   31  O9  UNL     1      19.183  -5.512  -3.526  1.00  0.00    -0.390 OA
ATOM     32  H9  UNL     1      19.663  -5.863  -2.785  1.00  0.00     0.210 HD
ENDBRANCH   4  31
TORSDOF 8
ENDMDL
