MODEL 13
REMARK VINA RESULT: -6.998871918      2.510      4.379
REMARK  8 active torsions:
REMARK  status: ('A' for Active; 'I' for Inactive)
REMARK    1  A    between atoms: N5_13  and  C6_14 
REMARK    2  A    between atoms: C7_16  and  C8_17 
REMARK    3  A    between atoms: C8_17  and  O2_18 
REMARK    4  A    between atoms: O2_18  and  P1_19 
REMARK    5  A    between atoms: P1_19  and  O5_22 
REMARK    6  A    between atoms: O5_22  and  P2_23 
REMARK    7  A    between atoms: C9_27  and  O9_28 
REMARK    8  A    between atoms: C10_30  and  O10_31 
ROOT
HETATM    1  C6  UNL     1      17.959  -3.083  -5.246  1.00  0.00     0.262 C 
HETATM    2  O1  UNL     1      17.125  -2.627  -4.225  1.00  0.00    -0.353 OA
HETATM    3  C7  UNL     1      17.307  -3.631  -3.274  1.00  0.00     0.180 C 
HETATM    4  C9  UNL     1      18.789  -3.878  -3.202  1.00  0.00     0.182 C 
HETATM    5  C10 UNL     1      19.271  -3.244  -4.514  1.00  0.00     0.198 C 
ENDROOT
BRANCH   1   6
HETATM    6  N5  UNL     1      18.039  -2.171  -6.352  1.00  0.00    -0.297 N 
HETATM    7  C3  UNL     1      16.983  -1.464  -6.808  1.00  0.00     0.142 A 
HETATM    8  N3  UNL     1      15.691  -1.416  -6.402  1.00  0.00    -0.336 N 
HETATM    9  C4  UNL     1      17.380  -0.683  -7.872  1.00  0.00     0.119 A 
HETATM   10  C2  UNL     1      14.774  -0.632  -6.998  1.00  0.00     0.183 A 
ATOM     11  H3  UNL     1      15.403  -1.996  -5.613  1.00  0.00     0.168 HD
HETATM   12  N2  UNL     1      15.158   0.119  -8.024  1.00  0.00    -0.339 N 
HETATM   13  C1  UNL     1      16.437   0.112  -8.472  1.00  0.00     0.148 A 
ATOM     14  H2  UNL     1      14.474   0.718  -8.487  1.00  0.00     0.167 HD
HETATM   15  N1  UNL     1      16.796   0.921  -9.554  1.00  0.00    -0.080 NA
HETATM   16  N4  UNL     1      18.690  -0.941  -8.035  1.00  0.00    -0.346 N 
HETATM   17  C5  UNL     1      19.076  -1.841  -7.111  1.00  0.00     0.188 A 
ATOM     18  H4  UNL     1      19.293  -0.523  -8.744  1.00  0.00     0.167 HD
ENDBRANCH   1   6
BRANCH   5  19
HETATM   19  O10 UNL     1      20.167  -4.058  -5.166  1.00  0.00    -0.388 OA
ATOM     20  H10 UNL     1      21.041  -4.034  -4.795  1.00  0.00     0.210 HD
ENDBRANCH   5  19
BRANCH   3  21
HETATM   21  C8  UNL     1      16.716  -3.256  -1.935  1.00  0.00     0.216 C 
BRANCH  21  22
HETATM   22  O2  UNL     1      15.463  -3.779  -1.865  1.00  0.00    -0.287 OA
BRANCH  22  23
HETATM   23  P1  UNL     1      14.209  -2.867  -2.389  1.00  0.00     0.418 P 
HETATM   24  O3  UNL     1      13.160  -3.930  -2.070  1.00  0.00    -0.624 OA
HETATM   25  O4  UNL     1      13.446  -1.852  -1.231  1.00  0.00    -0.624 OA
BRANCH  23  26
HETATM   26  O5  UNL     1      13.821  -2.742  -3.945  1.00  0.00    -0.173 OA
BRANCH  26  27
HETATM   27  P2  UNL     1      13.639  -4.109  -4.843  1.00  0.00     0.431 P 
HETATM   28  O6  UNL     1      12.320  -5.029  -4.686  1.00  0.00    -0.616 OA
HETATM   29  O7  UNL     1      14.956  -4.655  -5.751  1.00  0.00    -0.616 OA
HETATM   30  O8  UNL     1      13.189  -3.292  -6.055  1.00  0.00    -0.616 OA
ENDBRANCH  26  27
ENDBRANCH  23  26
ENDBRANCH  22  23
ENDBRANCH  21  22
ENDBRANCH   3  21
BRANCH   4  31
HETATM   31  O9  UNL     1      19.070  -5.247  -3.320  1.00  0.00    -0.390 OA
ATOM     32  H9  UNL     1      18.726  -5.726  -2.575  1.00  0.00     0.210 HD
ENDBRANCH   4  31
TORSDOF 8
ENDMDL
