MODEL 9
REMARK VINA RESULT: -6.707911666      2.722      7.365
REMARK  9 active torsions:
REMARK  status: ('A' for Active; 'I' for Inactive)
REMARK    1  A    between atoms: O1_2  and  C2_3 
REMARK    2  A    between atoms: C5_6  and  C6_7 
REMARK    3  A    between atoms: C6_7  and  C7_8 
REMARK    4  A    between atoms: C7_8  and  N1_9 
REMARK    5  A    between atoms: C7_8  and  C15_20 
REMARK       I    between atoms: N1_9  and  C8_11 
REMARK    6  A    between atoms: C8_11  and  C9_13 
REMARK    7  A    between atoms: C9_13  and  C10_14 
REMARK    8  A    between atoms: C9_13  and  C11_16 
REMARK    9  A    between atoms: C11_16  and  C12_17 
ROOT
HETATM    1  C7  UNL     1      -6.345  25.836  46.814  1.00  0.00     0.189 C 
ENDROOT
BRANCH   1   2
HETATM    2  C6  UNL     1      -6.832  25.382  48.141  1.00  0.00     0.074 C 
BRANCH   2   3
HETATM    3  C5  UNL     1      -6.097  24.226  48.717  1.00  0.00    -0.056 A 
HETATM    4  C4  UNL     1      -6.105  23.022  48.040  1.00  0.00     0.010 A 
HETATM    5  C3  UNL     1      -5.438  21.927  48.538  1.00  0.00     0.037 A 
HETATM    6  C2  UNL     1      -4.735  21.971  49.721  1.00  0.00     0.068 A 
HETATM    7  C17 UNL     1      -4.743  23.184  50.378  1.00  0.00     0.037 A 
HETATM    8  C16 UNL     1      -5.402  24.297  49.904  1.00  0.00     0.010 A 
BRANCH   6   9
HETATM    9  O1  UNL     1      -4.055  20.864  50.235  1.00  0.00    -0.356 OA
HETATM   10  C1  UNL     1      -2.836  20.487  49.636  1.00  0.00     0.210 C 
ENDBRANCH   6   9
ENDBRANCH   2   3
ENDBRANCH   1   2
BRANCH   1  11
HETATM   11  N1  UNL     1      -4.911  26.010  46.704  1.00  0.00    -0.346 N 
HETATM   12  C8  UNL     1      -4.154  25.489  45.623  1.00  0.00     0.223 C 
HETATM   13  O2  UNL     1      -4.817  24.845  44.738  1.00  0.00    -0.273 OA
ATOM     14  H1  UNL     1      -4.425  26.529  47.435  1.00  0.00     0.163 HD
BRANCH  12  15
HETATM   15  C9  UNL     1      -2.702  25.618  45.425  1.00  0.00     0.088 C 
BRANCH  15  16
HETATM   16  C10 UNL     1      -1.846  25.209  46.572  1.00  0.00     0.100 C 
HETATM   17  S1  UNL     1      -2.231  23.525  47.097  1.00  0.00    -0.097 SA
ENDBRANCH  15  16
BRANCH  15  18
HETATM   18  C11 UNL     1      -2.343  24.888  44.144  1.00  0.00     0.018 C 
BRANCH  18  19
HETATM   19  C12 UNL     1      -0.931  25.144  43.704  1.00  0.00    -0.022 C 
HETATM   20  C13 UNL     1      -0.711  26.634  43.565  1.00  0.00     0.009 C 
HETATM   21  C14 UNL     1      -0.778  24.538  42.319  1.00  0.00     0.009 C 
ENDBRANCH  18  19
ENDBRANCH  15  18
ENDBRANCH  12  15
ENDBRANCH   1  11
BRANCH   1  22
HETATM   22  C15 UNL     1      -7.008  27.109  46.453  1.00  0.00     0.197 C 
HETATM   23  O3  UNL     1      -6.387  28.192  46.587  1.00  0.00    -0.646 OA
HETATM   24  O4  UNL     1      -8.308  27.174  45.963  1.00  0.00    -0.646 OA
ENDBRANCH   1  22
TORSDOF 9
ENDMDL
