MODEL 15
REMARK VINA RESULT: -6.513417879      3.092      4.442
REMARK  9 active torsions:
REMARK  status: ('A' for Active; 'I' for Inactive)
REMARK    1  A    between atoms: O1_2  and  C2_3 
REMARK    2  A    between atoms: C5_6  and  C6_7 
REMARK    3  A    between atoms: C6_7  and  C7_8 
REMARK    4  A    between atoms: C7_8  and  N1_9 
REMARK    5  A    between atoms: C7_8  and  C15_20 
REMARK       I    between atoms: N1_9  and  C8_11 
REMARK    6  A    between atoms: C8_11  and  C9_13 
REMARK    7  A    between atoms: C9_13  and  C10_14 
REMARK    8  A    between atoms: C9_13  and  C11_16 
REMARK    9  A    between atoms: C11_16  and  C12_17 
ROOT
HETATM    1  C7  UNL     1      -3.419  25.172  46.598  1.00  0.00     0.189 C 
ENDROOT
BRANCH   1   2
HETATM    2  C6  UNL     1      -2.083  25.709  46.240  1.00  0.00     0.074 C 
BRANCH   2   3
HETATM    3  C5  UNL     1      -1.626  25.387  44.864  1.00  0.00    -0.056 A 
HETATM    4  C4  UNL     1      -0.940  26.345  44.143  1.00  0.00     0.010 A 
HETATM    5  C3  UNL     1      -0.498  26.088  42.867  1.00  0.00     0.037 A 
HETATM    6  C2  UNL     1      -0.712  24.877  42.246  1.00  0.00     0.068 A 
HETATM    7  C17 UNL     1      -1.399  23.937  42.985  1.00  0.00     0.037 A 
HETATM    8  C16 UNL     1      -1.853  24.167  44.265  1.00  0.00     0.010 A 
BRANCH   6   9
HETATM    9  O1  UNL     1      -0.267  24.607  40.949  1.00  0.00    -0.356 OA
HETATM   10  C1  UNL     1      -0.624  23.378  40.359  1.00  0.00     0.210 C 
ENDBRANCH   6   9
ENDBRANCH   2   3
ENDBRANCH   1   2
BRANCH   1  11
HETATM   11  N1  UNL     1      -3.503  23.729  46.695  1.00  0.00    -0.346 N 
HETATM   12  C8  UNL     1      -3.221  23.021  47.893  1.00  0.00     0.223 C 
HETATM   13  O2  UNL     1      -2.880  23.739  48.897  1.00  0.00    -0.273 OA
ATOM     14  H1  UNL     1      -3.777  23.199  45.868  1.00  0.00     0.163 HD
BRANCH  12  15
HETATM   15  C9  UNL     1      -3.283  21.564  48.087  1.00  0.00     0.088 C 
BRANCH  15  16
HETATM   16  C10 UNL     1      -2.317  20.757  47.294  1.00  0.00     0.100 C 
HETATM   17  S1  UNL     1      -0.615  21.155  47.749  1.00  0.00    -0.097 SA
ENDBRANCH  15  16
BRANCH  15  18
HETATM   18  C11 UNL     1      -3.182  21.291  49.577  1.00  0.00     0.018 C 
BRANCH  18  19
HETATM   19  C12 UNL     1      -3.858  20.014  49.981  1.00  0.00    -0.022 C 
HETATM   20  C13 UNL     1      -4.960  20.320  50.970  1.00  0.00     0.009 C 
HETATM   21  C14 UNL     1      -2.823  19.173  50.710  1.00  0.00     0.009 C 
ENDBRANCH  18  19
ENDBRANCH  15  18
ENDBRANCH  12  15
ENDBRANCH   1  11
BRANCH   1  22
HETATM   22  C15 UNL     1      -4.421  25.641  45.614  1.00  0.00     0.197 C 
HETATM   23  O3  UNL     1      -4.960  24.817  44.836  1.00  0.00    -0.646 OA
HETATM   24  O4  UNL     1      -4.807  26.973  45.503  1.00  0.00    -0.646 OA
ENDBRANCH   1  22
TORSDOF 9
ENDMDL
