MODEL 11
REMARK VINA RESULT: -6.649790661      1.728      2.737
REMARK  9 active torsions:
REMARK  status: ('A' for Active; 'I' for Inactive)
REMARK    1  A    between atoms: O1_2  and  C2_3 
REMARK    2  A    between atoms: C5_6  and  C6_7 
REMARK    3  A    between atoms: C6_7  and  C7_8 
REMARK    4  A    between atoms: C7_8  and  N1_9 
REMARK    5  A    between atoms: C7_8  and  C15_20 
REMARK       I    between atoms: N1_9  and  C8_11 
REMARK    6  A    between atoms: C8_11  and  C9_13 
REMARK    7  A    between atoms: C9_13  and  C10_14 
REMARK    8  A    between atoms: C9_13  and  C11_16 
REMARK    9  A    between atoms: C11_16  and  C12_17 
ROOT
HETATM    1  C7  UNL     1      -3.374  24.429  47.209  1.00  0.00     0.189 C 
ENDROOT
BRANCH   1   2
HETATM    2  C6  UNL     1      -2.461  25.517  46.779  1.00  0.00     0.074 C 
BRANCH   2   3
HETATM    3  C5  UNL     1      -1.937  25.386  45.395  1.00  0.00    -0.056 A 
HETATM    4  C4  UNL     1      -1.145  26.393  44.880  1.00  0.00     0.010 A 
HETATM    5  C3  UNL     1      -0.638  26.312  43.604  1.00  0.00     0.037 A 
HETATM    6  C2  UNL     1      -0.890  25.236  42.782  1.00  0.00     0.068 A 
HETATM    7  C17 UNL     1      -1.683  24.243  43.319  1.00  0.00     0.037 A 
HETATM    8  C16 UNL     1      -2.204  24.299  44.593  1.00  0.00     0.010 A 
BRANCH   6   9
HETATM    9  O1  UNL     1      -0.380  25.144  41.484  1.00  0.00    -0.356 OA
HETATM   10  C1  UNL     1      -0.578  23.947  40.767  1.00  0.00     0.210 C 
ENDBRANCH   6   9
ENDBRANCH   2   3
ENDBRANCH   1   2
BRANCH   1  11
HETATM   11  N1  UNL     1      -4.667  24.860  47.701  1.00  0.00    -0.346 N 
HETATM   12  C8  UNL     1      -5.782  25.074  46.848  1.00  0.00     0.223 C 
HETATM   13  O2  UNL     1      -5.578  24.864  45.602  1.00  0.00    -0.273 OA
ATOM     14  H1  UNL     1      -4.781  25.017  48.702  1.00  0.00     0.163 HD
BRANCH  12  15
HETATM   15  C9  UNL     1      -7.128  25.505  47.254  1.00  0.00     0.088 C 
BRANCH  15  16
HETATM   16  C10 UNL     1      -7.326  25.750  48.709  1.00  0.00     0.100 C 
HETATM   17  S1  UNL     1      -7.970  24.275  49.529  1.00  0.00    -0.097 SA
ENDBRANCH  15  16
BRANCH  15  18
HETATM   18  C11 UNL     1      -7.504  26.707  46.407  1.00  0.00     0.018 C 
BRANCH  18  19
HETATM   19  C12 UNL     1      -8.897  27.196  46.677  1.00  0.00    -0.022 C 
HETATM   20  C13 UNL     1      -9.835  26.643  45.628  1.00  0.00     0.009 C 
HETATM   21  C14 UNL     1      -8.880  28.707  46.510  1.00  0.00     0.009 C 
ENDBRANCH  18  19
ENDBRANCH  15  18
ENDBRANCH  12  15
ENDBRANCH   1  11
BRANCH   1  22
HETATM   22  C15 UNL     1      -2.715  23.615  48.255  1.00  0.00     0.197 C 
HETATM   23  O3  UNL     1      -1.491  23.352  48.158  1.00  0.00    -0.646 OA
HETATM   24  O4  UNL     1      -3.390  23.116  49.364  1.00  0.00    -0.646 OA
ENDBRANCH   1  22
TORSDOF 9
ENDMDL
