MODEL 10
REMARK VINA RESULT: -6.690609074      3.014      4.441
REMARK  9 active torsions:
REMARK  status: ('A' for Active; 'I' for Inactive)
REMARK    1  A    between atoms: O1_2  and  C2_3 
REMARK    2  A    between atoms: C5_6  and  C6_7 
REMARK    3  A    between atoms: C6_7  and  C7_8 
REMARK    4  A    between atoms: C7_8  and  N1_9 
REMARK    5  A    between atoms: C7_8  and  C15_20 
REMARK       I    between atoms: N1_9  and  C8_11 
REMARK    6  A    between atoms: C8_11  and  C9_13 
REMARK    7  A    between atoms: C9_13  and  C10_14 
REMARK    8  A    between atoms: C9_13  and  C11_16 
REMARK    9  A    between atoms: C11_16  and  C12_17 
ROOT
HETATM    1  C7  UNL     1      -2.951  25.256  46.059  1.00  0.00     0.189 C 
ENDROOT
BRANCH   1   2
HETATM    2  C6  UNL     1      -1.864  26.038  45.420  1.00  0.00     0.074 C 
BRANCH   2   3
HETATM    3  C5  UNL     1      -1.407  25.520  44.105  1.00  0.00    -0.056 A 
HETATM    4  C4  UNL     1      -0.519  26.271  43.360  1.00  0.00     0.010 A 
HETATM    5  C3  UNL     1      -0.071  25.828  42.138  1.00  0.00     0.037 A 
HETATM    6  C2  UNL     1      -0.478  24.628  41.597  1.00  0.00     0.068 A 
HETATM    7  C17 UNL     1      -1.365  23.897  42.360  1.00  0.00     0.037 A 
HETATM    8  C16 UNL     1      -1.830  24.316  43.587  1.00  0.00     0.010 A 
BRANCH   6   9
HETATM    9  O1  UNL     1      -0.028  24.170  40.356  1.00  0.00    -0.356 OA
HETATM   10  C1  UNL     1      -0.578  22.979  39.840  1.00  0.00     0.210 C 
ENDBRANCH   6   9
ENDBRANCH   2   3
ENDBRANCH   1   2
BRANCH   1  11
HETATM   11  N1  UNL     1      -2.768  23.819  46.056  1.00  0.00    -0.346 N 
HETATM   12  C8  UNL     1      -2.182  23.116  47.141  1.00  0.00     0.223 C 
HETATM   13  O2  UNL     1      -1.816  23.833  48.136  1.00  0.00    -0.273 OA
ATOM     14  H1  UNL     1      -3.072  23.290  45.239  1.00  0.00     0.163 HD
BRANCH  12  15
HETATM   15  C9  UNL     1      -1.959  21.665  47.229  1.00  0.00     0.088 C 
BRANCH  15  16
HETATM   16  C10 UNL     1      -0.568  21.200  46.976  1.00  0.00     0.100 C 
HETATM   17  S1  UNL     1      -0.053  19.997  48.221  1.00  0.00    -0.097 SA
ENDBRANCH  15  16
BRANCH  15  18
HETATM   18  C11 UNL     1      -2.493  21.195  48.569  1.00  0.00     0.018 C 
BRANCH  18  19
HETATM   19  C12 UNL     1      -3.993  21.193  48.630  1.00  0.00    -0.022 C 
HETATM   20  C13 UNL     1      -4.445  21.902  49.886  1.00  0.00     0.009 C 
HETATM   21  C14 UNL     1      -4.433  19.744  48.750  1.00  0.00     0.009 C 
ENDBRANCH  18  19
ENDBRANCH  15  18
ENDBRANCH  12  15
ENDBRANCH   1  11
BRANCH   1  22
HETATM   22  C15 UNL     1      -4.239  25.573  45.403  1.00  0.00     0.197 C 
HETATM   23  O3  UNL     1      -4.829  24.689  44.734  1.00  0.00    -0.646 OA
HETATM   24  O4  UNL     1      -4.846  26.821  45.487  1.00  0.00    -0.646 OA
ENDBRANCH   1  22
TORSDOF 9
ENDMDL
