MODEL 8
REMARK VINA RESULT: -6.761441542      3.187      4.508
REMARK  9 active torsions:
REMARK  status: ('A' for Active; 'I' for Inactive)
REMARK    1  A    between atoms: O1_2  and  C2_3 
REMARK    2  A    between atoms: C5_6  and  C6_7 
REMARK    3  A    between atoms: C6_7  and  C7_8 
REMARK    4  A    between atoms: C7_8  and  N1_9 
REMARK    5  A    between atoms: C7_8  and  C15_20 
REMARK       I    between atoms: N1_9  and  C8_11 
REMARK    6  A    between atoms: C8_11  and  C9_13 
REMARK    7  A    between atoms: C9_13  and  C10_14 
REMARK    8  A    between atoms: C9_13  and  C11_16 
REMARK    9  A    between atoms: C11_16  and  C12_17 
ROOT
HETATM    1  C7  UNL     1      -2.748  25.251  45.901  1.00  0.00     0.189 C 
ENDROOT
BRANCH   1   2
HETATM    2  C6  UNL     1      -1.728  26.055  45.184  1.00  0.00     0.074 C 
BRANCH   2   3
HETATM    3  C5  UNL     1      -1.299  25.500  43.875  1.00  0.00    -0.056 A 
HETATM    4  C4  UNL     1      -0.374  26.197  43.121  1.00  0.00     0.010 A 
HETATM    5  C3  UNL     1       0.051  25.719  41.904  1.00  0.00     0.037 A 
HETATM    6  C2  UNL     1      -0.415  24.534  41.377  1.00  0.00     0.068 A 
HETATM    7  C17 UNL     1      -1.337  23.857  42.148  1.00  0.00     0.037 A 
HETATM    8  C16 UNL     1      -1.781  24.312  43.370  1.00  0.00     0.010 A 
BRANCH   6   9
HETATM    9  O1  UNL     1       0.011  24.040  40.142  1.00  0.00    -0.356 OA
HETATM   10  C1  UNL     1      -0.554  22.839  39.667  1.00  0.00     0.210 C 
ENDBRANCH   6   9
ENDBRANCH   2   3
ENDBRANCH   1   2
BRANCH   1  11
HETATM   11  N1  UNL     1      -2.526  23.819  45.897  1.00  0.00    -0.346 N 
HETATM   12  C8  UNL     1      -2.033  23.114  47.026  1.00  0.00     0.223 C 
HETATM   13  O2  UNL     1      -1.789  23.824  48.063  1.00  0.00    -0.273 OA
ATOM     14  H1  UNL     1      -2.733  23.295  45.047  1.00  0.00     0.163 HD
BRANCH  12  15
HETATM   15  C9  UNL     1      -1.781  21.668  47.117  1.00  0.00     0.088 C 
BRANCH  15  16
HETATM   16  C10 UNL     1      -0.507  21.266  47.772  1.00  0.00     0.100 C 
HETATM   17  S1  UNL     1       0.283  19.912  46.874  1.00  0.00    -0.097 SA
ENDBRANCH  15  16
BRANCH  15  18
HETATM   18  C11 UNL     1      -2.994  21.026  47.764  1.00  0.00     0.018 C 
BRANCH  18  19
HETATM   19  C12 UNL     1      -2.747  20.615  49.186  1.00  0.00    -0.022 C 
HETATM   20  C13 UNL     1      -3.230  19.197  49.390  1.00  0.00     0.009 C 
HETATM   21  C14 UNL     1      -3.605  21.510  50.064  1.00  0.00     0.009 C 
ENDBRANCH  18  19
ENDBRANCH  15  18
ENDBRANCH  12  15
ENDBRANCH   1  11
BRANCH   1  22
HETATM   22  C15 UNL     1      -4.086  25.526  45.331  1.00  0.00     0.197 C 
HETATM   23  O3  UNL     1      -4.607  26.658  45.487  1.00  0.00    -0.646 OA
HETATM   24  O4  UNL     1      -4.814  24.581  44.615  1.00  0.00    -0.646 OA
ENDBRANCH   1  22
TORSDOF 9
ENDMDL
