MODEL 16
REMARK VINA RESULT: -6.431909002      3.220      7.487
REMARK  9 active torsions:
REMARK  status: ('A' for Active; 'I' for Inactive)
REMARK    1  A    between atoms: O1_2  and  C2_3 
REMARK    2  A    between atoms: C5_6  and  C6_7 
REMARK    3  A    between atoms: C6_7  and  C7_8 
REMARK    4  A    between atoms: C7_8  and  N1_9 
REMARK    5  A    between atoms: C7_8  and  C15_20 
REMARK       I    between atoms: N1_9  and  C8_11 
REMARK    6  A    between atoms: C8_11  and  C9_13 
REMARK    7  A    between atoms: C9_13  and  C10_14 
REMARK    8  A    between atoms: C9_13  and  C11_16 
REMARK    9  A    between atoms: C11_16  and  C12_17 
ROOT
HETATM    1  C7  UNL     1      -4.761  24.081  48.697  1.00  0.00     0.189 C 
ENDROOT
BRANCH   1   2
HETATM    2  C6  UNL     1      -6.167  23.884  48.268  1.00  0.00     0.074 C 
BRANCH   2   3
HETATM    3  C5  UNL     1      -6.818  25.083  47.680  1.00  0.00    -0.056 A 
HETATM    4  C4  UNL     1      -8.197  25.162  47.672  1.00  0.00     0.010 A 
HETATM    5  C3  UNL     1      -8.840  26.254  47.139  1.00  0.00     0.037 A 
HETATM    6  C2  UNL     1      -8.153  27.314  46.590  1.00  0.00     0.068 A 
HETATM    7  C17 UNL     1      -6.777  27.212  46.610  1.00  0.00     0.037 A 
HETATM    8  C16 UNL     1      -6.107  26.130  47.137  1.00  0.00     0.010 A 
BRANCH   6   9
HETATM    9  O1  UNL     1      -8.797  28.428  46.046  1.00  0.00    -0.356 OA
HETATM   10  C1  UNL     1     -10.144  28.299  45.649  1.00  0.00     0.210 C 
ENDBRANCH   6   9
ENDBRANCH   2   3
ENDBRANCH   1   2
BRANCH   1  11
HETATM   11  N1  UNL     1      -3.756  23.580  47.782  1.00  0.00    -0.346 N 
HETATM   12  C8  UNL     1      -2.601  24.324  47.426  1.00  0.00     0.223 C 
HETATM   13  O2  UNL     1      -2.496  25.481  47.963  1.00  0.00    -0.273 OA
ATOM     14  H1  UNL     1      -3.883  22.653  47.377  1.00  0.00     0.163 HD
BRANCH  12  15
HETATM   15  C9  UNL     1      -1.529  23.898  46.513  1.00  0.00     0.088 C 
BRANCH  15  16
HETATM   16  C10 UNL     1      -1.454  22.440  46.226  1.00  0.00     0.100 C 
HETATM   17  S1  UNL     1      -0.812  21.533  47.650  1.00  0.00    -0.097 SA
ENDBRANCH  15  16
BRANCH  15  18
HETATM   18  C11 UNL     1      -1.637  24.734  45.250  1.00  0.00     0.018 C 
BRANCH  18  19
HETATM   19  C12 UNL     1      -0.541  24.446  44.266  1.00  0.00    -0.022 C 
HETATM   20  C13 UNL     1       0.443  25.594  44.262  1.00  0.00     0.009 C 
HETATM   21  C14 UNL     1      -1.179  24.399  42.888  1.00  0.00     0.009 C 
ENDBRANCH  18  19
ENDBRANCH  15  18
ENDBRANCH  12  15
ENDBRANCH   1  11
BRANCH   1  22
HETATM   22  C15 UNL     1      -4.555  23.452  50.021  1.00  0.00     0.197 C 
HETATM   23  O3  UNL     1      -3.701  22.540  50.149  1.00  0.00    -0.646 OA
HETATM   24  O4  UNL     1      -5.269  23.823  51.155  1.00  0.00    -0.646 OA
ENDBRANCH   1  22
TORSDOF 9
ENDMDL
