MODEL 1
REMARK VINA RESULT: -10.520281275      0.000      0.000
REMARK  8 active torsions:
REMARK  status: ('A' for Active; 'I' for Inactive)
REMARK    1  A    between atoms: N5_13  and  C6_14 
REMARK    2  A    between atoms: C7_16  and  C8_17 
REMARK    3  A    between atoms: C8_17  and  O2_18 
REMARK    4  A    between atoms: O2_18  and  P1_19 
REMARK    5  A    between atoms: P1_19  and  O5_22 
REMARK    6  A    between atoms: O5_22  and  P2_23 
REMARK    7  A    between atoms: C9_27  and  O9_28 
REMARK    8  A    between atoms: C10_30  and  O10_31 
ROOT
HETATM    1  C6  UNL     1      20.754  36.640  16.709  1.00  0.00     0.262 C 
HETATM    2  O1  UNL     1      20.509  35.357  16.220  1.00  0.00    -0.353 OA
HETATM    3  C7  UNL     1      19.607  34.884  17.172  1.00  0.00     0.180 C 
HETATM    4  C9  UNL     1      18.606  35.986  17.387  1.00  0.00     0.182 C 
HETATM    5  C10 UNL     1      19.353  37.196  16.808  1.00  0.00     0.198 C 
ENDROOT
BRANCH   1   6
HETATM    6  N5  UNL     1      21.607  37.412  15.851  1.00  0.00    -0.297 N 
HETATM    7  C3  UNL     1      22.477  38.338  16.307  1.00  0.00     0.142 A 
HETATM    8  N3  UNL     1      22.762  38.759  17.563  1.00  0.00    -0.336 N 
HETATM    9  C4  UNL     1      23.147  38.902  15.243  1.00  0.00     0.119 A 
HETATM   10  C2  UNL     1      23.680  39.712  17.816  1.00  0.00     0.183 A 
ATOM     11  H3  UNL     1      22.264  38.339  18.348  1.00  0.00     0.168 HD
HETATM   12  N2  UNL     1      24.324  40.255  16.788  1.00  0.00    -0.339 N 
HETATM   13  C1  UNL     1      24.079  39.871  15.512  1.00  0.00     0.148 A 
ATOM     14  H2  UNL     1      25.021  40.979  16.964  1.00  0.00     0.167 HD
HETATM   15  N1  UNL     1      24.782  40.470  14.462  1.00  0.00    -0.080 NA
HETATM   16  N4  UNL     1      22.657  38.291  14.150  1.00  0.00    -0.346 N 
HETATM   17  C5  UNL     1      21.729  37.394  14.529  1.00  0.00     0.188 A 
ATOM     18  H4  UNL     1      22.943  38.477  13.188  1.00  0.00     0.167 HD
ENDBRANCH   1   6
BRANCH   5  19
HETATM   19  O10 UNL     1      19.254  38.290  17.636  1.00  0.00    -0.388 OA
ATOM     20  H10 UNL     1      19.348  39.118  17.182  1.00  0.00     0.210 HD
ENDBRANCH   5  19
BRANCH   3  21
HETATM   21  C8  UNL     1      18.959  33.588  16.744  1.00  0.00     0.216 C 
BRANCH  21  22
HETATM   22  O2  UNL     1      19.945  32.711  16.413  1.00  0.00    -0.287 OA
BRANCH  22  23
HETATM   23  P1  UNL     1      19.537  31.355  15.594  1.00  0.00     0.418 P 
HETATM   24  O3  UNL     1      19.231  32.099  14.296  1.00  0.00    -0.624 OA
HETATM   25  O4  UNL     1      20.797  30.538  14.759  1.00  0.00    -0.624 OA
BRANCH  23  26
HETATM   26  O5  UNL     1      18.084  30.675  15.716  1.00  0.00    -0.173 OA
BRANCH  26  27
HETATM   27  P2  UNL     1      17.903  29.318  16.629  1.00  0.00     0.431 P 
HETATM   28  O6  UNL     1      17.400  29.416  18.162  1.00  0.00    -0.616 OA
HETATM   29  O7  UNL     1      18.476  27.851  16.014  1.00  0.00    -0.616 OA
HETATM   30  O8  UNL     1      16.551  29.021  15.978  1.00  0.00    -0.616 OA
ENDBRANCH  26  27
ENDBRANCH  23  26
ENDBRANCH  22  23
ENDBRANCH  21  22
ENDBRANCH   3  21
BRANCH   4  31
HETATM   31  O9  UNL     1      18.452  36.257  18.754  1.00  0.00    -0.390 OA
ATOM     32  H9  UNL     1      18.078  37.120  18.885  1.00  0.00     0.210 HD
ENDBRANCH   4  31
TORSDOF 8
ENDMDL
