MODEL 2
REMARK VINA RESULT: -10.076260198      0.785      1.711
REMARK  8 active torsions:
REMARK  status: ('A' for Active; 'I' for Inactive)
REMARK    1  A    between atoms: N5_13  and  C6_14 
REMARK    2  A    between atoms: C7_16  and  C8_17 
REMARK    3  A    between atoms: C8_17  and  O2_18 
REMARK    4  A    between atoms: O2_18  and  P1_19 
REMARK    5  A    between atoms: P1_19  and  O5_22 
REMARK    6  A    between atoms: O5_22  and  P2_23 
REMARK    7  A    between atoms: C9_27  and  O9_28 
REMARK    8  A    between atoms: C10_30  and  O10_31 
ROOT
HETATM    1  C6  UNL     1      20.542  36.494  17.478  1.00  0.00     0.262 C 
HETATM    2  O1  UNL     1      20.642  35.402  16.617  1.00  0.00    -0.353 OA
HETATM    3  C7  UNL     1      19.457  34.729  16.911  1.00  0.00     0.180 C 
HETATM    4  C9  UNL     1      18.376  35.775  16.938  1.00  0.00     0.182 C 
HETATM    5  C10 UNL     1      19.198  37.063  17.087  1.00  0.00     0.198 C 
ENDROOT
BRANCH   1   6
HETATM    6  N5  UNL     1      21.618  37.431  17.321  1.00  0.00    -0.297 N 
HETATM    7  C3  UNL     1      22.037  37.885  16.121  1.00  0.00     0.142 A 
HETATM    8  N3  UNL     1      21.612  37.619  14.862  1.00  0.00    -0.336 N 
HETATM    9  C4  UNL     1      23.079  38.768  16.303  1.00  0.00     0.119 A 
HETATM   10  C2  UNL     1      22.170  38.184  13.775  1.00  0.00     0.183 A 
ATOM     11  H3  UNL     1      20.840  36.965  14.732  1.00  0.00     0.168 HD
HETATM   12  N2  UNL     1      23.176  39.034  13.953  1.00  0.00    -0.339 N 
HETATM   13  C1  UNL     1      23.640  39.338  15.188  1.00  0.00     0.148 A 
ATOM     14  H2  UNL     1      23.609  39.470  13.139  1.00  0.00     0.167 HD
HETATM   15  N1  UNL     1      24.700  40.240  15.327  1.00  0.00    -0.080 NA
HETATM   16  N4  UNL     1      23.268  38.827  17.633  1.00  0.00    -0.346 N 
HETATM   17  C5  UNL     1      22.380  38.016  18.237  1.00  0.00     0.188 A 
ATOM     18  H4  UNL     1      23.971  39.395  18.107  1.00  0.00     0.167 HD
ENDBRANCH   1   6
BRANCH   5  19
HETATM   19  O10 UNL     1      18.657  37.897  18.038  1.00  0.00    -0.388 OA
ATOM     20  H10 UNL     1      17.802  38.236  17.802  1.00  0.00     0.210 HD
ENDBRANCH   5  19
BRANCH   3  21
HETATM   21  C8  UNL     1      19.171  33.626  15.920  1.00  0.00     0.216 C 
BRANCH  21  22
HETATM   22  O2  UNL     1      19.875  32.525  16.297  1.00  0.00    -0.287 OA
BRANCH  22  23
HETATM   23  P1  UNL     1      19.629  31.128  15.483  1.00  0.00     0.418 P 
HETATM   24  O3  UNL     1      19.397  31.822  14.143  1.00  0.00    -0.624 OA
HETATM   25  O4  UNL     1      21.010  30.377  14.786  1.00  0.00    -0.624 OA
BRANCH  23  26
HETATM   26  O5  UNL     1      18.218  30.357  15.493  1.00  0.00    -0.173 OA
BRANCH  26  27
HETATM   27  P2  UNL     1      17.957  29.165  16.597  1.00  0.00     0.431 P 
HETATM   28  O6  UNL     1      17.535  29.526  18.115  1.00  0.00    -0.616 OA
HETATM   29  O7  UNL     1      18.367  27.579  16.181  1.00  0.00    -0.616 OA
HETATM   30  O8  UNL     1      16.556  28.910  16.039  1.00  0.00    -0.616 OA
ENDBRANCH  26  27
ENDBRANCH  23  26
ENDBRANCH  22  23
ENDBRANCH  21  22
ENDBRANCH   3  21
BRANCH   4  31
HETATM   31  O9  UNL     1      17.618  35.675  18.114  1.00  0.00    -0.390 OA
ATOM     32  H9  UNL     1      17.510  34.766  18.367  1.00  0.00     0.210 HD
ENDBRANCH   4  31
TORSDOF 8
ENDMDL
