MODEL 6
REMARK VINA RESULT: -9.436189613      6.493     10.211
REMARK  8 active torsions:
REMARK  status: ('A' for Active; 'I' for Inactive)
REMARK    1  A    between atoms: N5_13  and  C6_14 
REMARK    2  A    between atoms: C7_16  and  C8_17 
REMARK    3  A    between atoms: C8_17  and  O2_18 
REMARK    4  A    between atoms: O2_18  and  P1_19 
REMARK    5  A    between atoms: P1_19  and  O5_22 
REMARK    6  A    between atoms: O5_22  and  P2_23 
REMARK    7  A    between atoms: C9_27  and  O9_28 
REMARK    8  A    between atoms: C10_30  and  O10_31 
ROOT
HETATM    1  C6  UNL     1      18.971  29.389  16.356  1.00  0.00     0.262 C 
HETATM    2  O1  UNL     1      18.982  30.701  16.830  1.00  0.00    -0.353 OA
HETATM    3  C7  UNL     1      19.341  31.391  15.674  1.00  0.00     0.180 C 
HETATM    4  C9  UNL     1      18.493  30.828  14.566  1.00  0.00     0.182 C 
HETATM    5  C10 UNL     1      18.025  29.502  15.183  1.00  0.00     0.198 C 
ENDROOT
BRANCH   1   6
HETATM    6  N5  UNL     1      18.534  28.441  17.342  1.00  0.00    -0.297 N 
HETATM    7  C3  UNL     1      18.799  27.120  17.269  1.00  0.00     0.142 A 
HETATM    8  N3  UNL     1      19.473  26.388  16.349  1.00  0.00    -0.336 N 
HETATM    9  C4  UNL     1      18.249  26.482  18.360  1.00  0.00     0.119 A 
HETATM   10  C2  UNL     1      19.630  25.055  16.458  1.00  0.00     0.183 A 
ATOM     11  H3  UNL     1      19.878  26.866  15.544  1.00  0.00     0.168 HD
HETATM   12  N2  UNL     1      19.098  24.442  17.510  1.00  0.00    -0.339 N 
HETATM   13  C1  UNL     1      18.415  25.123  18.460  1.00  0.00     0.148 A 
ATOM     14  H2  UNL     1      19.208  23.432  17.605  1.00  0.00     0.167 HD
HETATM   15  N1  UNL     1      17.874  24.436  19.551  1.00  0.00    -0.080 NA
HETATM   16  N4  UNL     1      17.656  27.451  19.079  1.00  0.00    -0.346 N 
HETATM   17  C5  UNL     1      17.835  28.630  18.454  1.00  0.00     0.188 A 
ATOM     18  H4  UNL     1      17.152  27.315  19.956  1.00  0.00     0.167 HD
ENDBRANCH   1   6
BRANCH   5  19
HETATM   19  O10 UNL     1      18.137  28.465  14.286  1.00  0.00    -0.388 OA
ATOM     20  H10 UNL     1      17.734  28.645  13.445  1.00  0.00     0.210 HD
ENDBRANCH   5  19
BRANCH   3  21
HETATM   21  C8  UNL     1      19.171  32.885  15.830  1.00  0.00     0.216 C 
BRANCH  21  22
HETATM   22  O2  UNL     1      20.025  33.307  16.801  1.00  0.00    -0.287 OA
BRANCH  22  23
HETATM   23  P1  UNL     1      19.925  34.862  17.301  1.00  0.00     0.418 P 
HETATM   24  O3  UNL     1      18.398  34.874  17.317  1.00  0.00    -0.624 OA
HETATM   25  O4  UNL     1      19.885  35.136  18.997  1.00  0.00    -0.624 OA
BRANCH  23  26
HETATM   26  O5  UNL     1      20.068  36.106  16.292  1.00  0.00    -0.173 OA
BRANCH  26  27
HETATM   27  P2  UNL     1      21.103  37.331  16.662  1.00  0.00     0.431 P 
HETATM   28  O6  UNL     1      21.689  38.293  15.503  1.00  0.00    -0.616 OA
HETATM   29  O7  UNL     1      21.723  37.414  18.232  1.00  0.00    -0.616 OA
HETATM   30  O8  UNL     1      19.942  38.219  17.112  1.00  0.00    -0.616 OA
ENDBRANCH  26  27
ENDBRANCH  23  26
ENDBRANCH  22  23
ENDBRANCH  21  22
ENDBRANCH   3  21
BRANCH   4  31
HETATM   31  O9  UNL     1      19.285  30.473  13.466  1.00  0.00    -0.390 OA
ATOM     32  H9  UNL     1      18.852  29.812  12.938  1.00  0.00     0.210 HD
ENDBRANCH   4  31
TORSDOF 8
ENDMDL
