MODEL 11
REMARK VINA RESULT: -9.230577245      1.088      2.002
REMARK  8 active torsions:
REMARK  status: ('A' for Active; 'I' for Inactive)
REMARK    1  A    between atoms: N5_13  and  C6_14 
REMARK    2  A    between atoms: C7_16  and  C8_17 
REMARK    3  A    between atoms: C8_17  and  O2_18 
REMARK    4  A    between atoms: O2_18  and  P1_19 
REMARK    5  A    between atoms: P1_19  and  O5_22 
REMARK    6  A    between atoms: O5_22  and  P2_23 
REMARK    7  A    between atoms: C9_27  and  O9_28 
REMARK    8  A    between atoms: C10_30  and  O10_31 
ROOT
HETATM    1  C6  UNL     1      20.730  36.673  16.723  1.00  0.00     0.262 C 
HETATM    2  O1  UNL     1      20.466  35.378  16.276  1.00  0.00    -0.353 OA
HETATM    3  C7  UNL     1      19.544  34.957  17.233  1.00  0.00     0.180 C 
HETATM    4  C9  UNL     1      18.562  36.085  17.397  1.00  0.00     0.182 C 
HETATM    5  C10 UNL     1      19.339  37.259  16.786  1.00  0.00     0.198 C 
ENDROOT
BRANCH   1   6
HETATM    6  N5  UNL     1      21.608  37.398  15.849  1.00  0.00    -0.297 N 
HETATM    7  C3  UNL     1      22.443  38.369  16.275  1.00  0.00     0.142 A 
HETATM    8  N3  UNL     1      22.668  38.883  17.509  1.00  0.00    -0.336 N 
HETATM    9  C4  UNL     1      23.150  38.869  15.203  1.00  0.00     0.119 A 
HETATM   10  C2  UNL     1      23.559  39.867  17.732  1.00  0.00     0.183 A 
ATOM     11  H3  UNL     1      22.142  38.509  18.300  1.00  0.00     0.168 HD
HETATM   12  N2  UNL     1      24.239  40.348  16.696  1.00  0.00    -0.339 N 
HETATM   13  C1  UNL     1      24.055  39.872  15.442  1.00  0.00     0.148 A 
ATOM     14  H2  UNL     1      24.917  41.095  16.850  1.00  0.00     0.167 HD
HETATM   15  N1  UNL     1      24.795  40.407  14.383  1.00  0.00    -0.080 NA
HETATM   16  N4  UNL     1      22.718  38.174  14.136  1.00  0.00    -0.346 N 
HETATM   17  C5  UNL     1      21.787  37.289  14.539  1.00  0.00     0.188 A 
ATOM     18  H4  UNL     1      23.043  38.298  13.177  1.00  0.00     0.167 HD
ENDBRANCH   1   6
BRANCH   5  19
HETATM   19  O10 UNL     1      19.252  38.383  17.574  1.00  0.00    -0.388 OA
ATOM     20  H10 UNL     1      18.877  38.217  18.431  1.00  0.00     0.210 HD
ENDBRANCH   5  19
BRANCH   3  21
HETATM   21  C8  UNL     1      18.875  33.659  16.842  1.00  0.00     0.216 C 
BRANCH  21  22
HETATM   22  O2  UNL     1      19.831  32.820  16.361  1.00  0.00    -0.287 OA
BRANCH  22  23
HETATM   23  P1  UNL     1      19.353  31.491  15.534  1.00  0.00     0.418 P 
HETATM   24  O3  UNL     1      20.517  30.633  16.025  1.00  0.00    -0.624 OA
HETATM   25  O4  UNL     1      18.292  30.408  16.344  1.00  0.00    -0.624 OA
BRANCH  23  26
HETATM   26  O5  UNL     1      19.670  31.283  13.971  1.00  0.00    -0.173 OA
BRANCH  26  27
HETATM   27  P2  UNL     1      19.013  30.001  13.178  1.00  0.00     0.431 P 
HETATM   28  O6  UNL     1      18.692  30.086  11.596  1.00  0.00    -0.616 OA
HETATM   29  O7  UNL     1      18.464  28.687  14.089  1.00  0.00    -0.616 OA
HETATM   30  O8  UNL     1      20.378  29.317  13.084  1.00  0.00    -0.616 OA
ENDBRANCH  26  27
ENDBRANCH  23  26
ENDBRANCH  22  23
ENDBRANCH  21  22
ENDBRANCH   3  21
BRANCH   4  31
HETATM   31  O9  UNL     1      18.398  36.406  18.752  1.00  0.00    -0.390 OA
ATOM     32  H9  UNL     1      17.505  36.680  18.926  1.00  0.00     0.210 HD
ENDBRANCH   4  31
TORSDOF 8
ENDMDL
