MODEL 8
REMARK VINA RESULT: -9.331962805      3.453      5.791
REMARK  8 active torsions:
REMARK  status: ('A' for Active; 'I' for Inactive)
REMARK    1  A    between atoms: N5_13  and  C6_14 
REMARK    2  A    between atoms: C7_16  and  C8_17 
REMARK    3  A    between atoms: C8_17  and  O2_18 
REMARK    4  A    between atoms: O2_18  and  P1_19 
REMARK    5  A    between atoms: P1_19  and  O5_22 
REMARK    6  A    between atoms: O5_22  and  P2_23 
REMARK    7  A    between atoms: C9_27  and  O9_28 
REMARK    8  A    between atoms: C10_30  and  O10_31 
ROOT
HETATM    1  C6  UNL     1      18.714  31.811  14.272  1.00  0.00     0.262 C 
HETATM    2  O1  UNL     1      18.523  31.423  15.599  1.00  0.00    -0.353 OA
HETATM    3  C7  UNL     1      18.139  30.094  15.428  1.00  0.00     0.180 C 
HETATM    4  C9  UNL     1      19.099  29.503  14.432  1.00  0.00     0.182 C 
HETATM    5  C10 UNL     1      19.692  30.765  13.791  1.00  0.00     0.198 C 
ENDROOT
BRANCH   1   6
HETATM    6  N5  UNL     1      19.214  33.151  14.148  1.00  0.00    -0.297 N 
HETATM    7  C3  UNL     1      19.583  33.906  15.204  1.00  0.00     0.142 A 
HETATM    8  N3  UNL     1      19.586  33.648  16.535  1.00  0.00    -0.336 N 
HETATM    9  C4  UNL     1      20.018  35.135  14.759  1.00  0.00     0.119 A 
HETATM   10  C2  UNL     1      19.999  34.551  17.445  1.00  0.00     0.183 A 
ATOM     11  H3  UNL     1      19.264  32.737  16.859  1.00  0.00     0.168 HD
HETATM   12  N2  UNL     1      20.417  35.735  17.013  1.00  0.00    -0.339 N 
HETATM   13  C1  UNL     1      20.437  36.046  15.695  1.00  0.00     0.148 A 
ATOM     14  H2  UNL     1      20.732  36.429  17.692  1.00  0.00     0.167 HD
HETATM   15  N1  UNL     1      20.886  37.306  15.287  1.00  0.00    -0.080 NA
HETATM   16  N4  UNL     1      19.900  35.091  13.420  1.00  0.00    -0.346 N 
HETATM   17  C5  UNL     1      19.414  33.888  13.063  1.00  0.00     0.188 A 
ATOM     18  H4  UNL     1      20.140  35.848  12.779  1.00  0.00     0.167 HD
ENDBRANCH   1   6
BRANCH   5  19
HETATM   19  O10 UNL     1      19.748  30.654  12.422  1.00  0.00    -0.388 OA
ATOM     20  H10 UNL     1      19.057  30.114  12.057  1.00  0.00     0.210 HD
ENDBRANCH   5  19
BRANCH   3  21
HETATM   21  C8  UNL     1      18.121  29.336  16.735  1.00  0.00     0.216 C 
BRANCH  21  22
HETATM   22  O2  UNL     1      17.533  28.130  16.516  1.00  0.00    -0.287 OA
BRANCH  22  23
HETATM   23  P1  UNL     1      18.395  26.776  16.834  1.00  0.00     0.418 P 
HETATM   24  O3  UNL     1      18.577  26.414  15.362  1.00  0.00    -0.624 OA
HETATM   25  O4  UNL     1      20.102  26.945  16.943  1.00  0.00    -0.624 OA
BRANCH  23  26
HETATM   26  O5  UNL     1      17.700  25.383  17.240  1.00  0.00    -0.173 OA
BRANCH  26  27
HETATM   27  P2  UNL     1      18.292  24.528  18.515  1.00  0.00     0.431 P 
HETATM   28  O6  UNL     1      19.881  24.279  18.675  1.00  0.00    -0.616 OA
HETATM   29  O7  UNL     1      17.198  23.718  19.517  1.00  0.00    -0.616 OA
HETATM   30  O8  UNL     1      18.172  25.747  19.431  1.00  0.00    -0.616 OA
ENDBRANCH  26  27
ENDBRANCH  23  26
ENDBRANCH  22  23
ENDBRANCH  21  22
ENDBRANCH   3  21
BRANCH   4  31
HETATM   31  O9  UNL     1      18.406  28.848  13.403  1.00  0.00    -0.390 OA
ATOM     32  H9  UNL     1      18.957  28.194  12.991  1.00  0.00     0.210 HD
ENDBRANCH   4  31
TORSDOF 8
ENDMDL
