MODEL 9
REMARK VINA RESULT: -9.267645872      3.631      5.982
REMARK  8 active torsions:
REMARK  status: ('A' for Active; 'I' for Inactive)
REMARK    1  A    between atoms: N5_13  and  C6_14 
REMARK    2  A    between atoms: C7_16  and  C8_17 
REMARK    3  A    between atoms: C8_17  and  O2_18 
REMARK    4  A    between atoms: O2_18  and  P1_19 
REMARK    5  A    between atoms: P1_19  and  O5_22 
REMARK    6  A    between atoms: O5_22  and  P2_23 
REMARK    7  A    between atoms: C9_27  and  O9_28 
REMARK    8  A    between atoms: C10_30  and  O10_31 
ROOT
HETATM    1  C6  UNL     1      18.678  31.691  15.090  1.00  0.00     0.262 C 
HETATM    2  O1  UNL     1      18.147  31.004  16.181  1.00  0.00    -0.353 OA
HETATM    3  C7  UNL     1      17.753  29.813  15.572  1.00  0.00     0.180 C 
HETATM    4  C9  UNL     1      18.901  29.389  14.697  1.00  0.00     0.182 C 
HETATM    5  C10 UNL     1      19.694  30.698  14.575  1.00  0.00     0.198 C 
ENDROOT
BRANCH   1   6
HETATM    6  N5  UNL     1      19.257  32.954  15.452  1.00  0.00    -0.297 N 
HETATM    7  C3  UNL     1      19.514  33.934  14.560  1.00  0.00     0.142 A 
HETATM    8  N3  UNL     1      19.324  34.002  13.221  1.00  0.00    -0.336 N 
HETATM    9  C4  UNL     1      20.065  35.015  15.215  1.00  0.00     0.119 A 
HETATM   10  C2  UNL     1      19.653  35.090  12.498  1.00  0.00     0.183 A 
ATOM     11  H3  UNL     1      18.915  33.200  12.741  1.00  0.00     0.168 HD
HETATM   12  N2  UNL     1      20.184  36.130  13.130  1.00  0.00    -0.339 N 
HETATM   13  C1  UNL     1      20.396  36.117  14.468  1.00  0.00     0.148 A 
ATOM     14  H2  UNL     1      20.440  36.961  12.595  1.00  0.00     0.167 HD
HETATM   15  N1  UNL     1      20.958  37.236  15.091  1.00  0.00    -0.080 NA
HETATM   16  N4  UNL     1      20.128  34.654  16.509  1.00  0.00    -0.346 N 
HETATM   17  C5  UNL     1      19.637  33.408  16.639  1.00  0.00     0.188 A 
ATOM     18  H4  UNL     1      20.489  35.232  17.268  1.00  0.00     0.167 HD
ENDBRANCH   1   6
BRANCH   5  19
HETATM   19  O10 UNL     1      20.082  30.931  13.277  1.00  0.00    -0.388 OA
ATOM     20  H10 UNL     1      20.365  31.824  13.121  1.00  0.00     0.210 HD
ENDBRANCH   5  19
BRANCH   3  21
HETATM   21  C8  UNL     1      17.375  28.757  16.584  1.00  0.00     0.216 C 
BRANCH  21  22
HETATM   22  O2  UNL     1      18.483  28.456  17.315  1.00  0.00    -0.287 OA
BRANCH  22  23
HETATM   23  P1  UNL     1      18.280  27.816  18.807  1.00  0.00     0.418 P 
HETATM   24  O3  UNL     1      19.778  27.726  19.091  1.00  0.00    -0.624 OA
HETATM   25  O4  UNL     1      18.158  28.919  20.119  1.00  0.00    -0.624 OA
BRANCH  23  26
HETATM   26  O5  UNL     1      17.994  26.251  19.045  1.00  0.00    -0.173 OA
BRANCH  26  27
HETATM   27  P2  UNL     1      18.675  25.144  18.038  1.00  0.00     0.431 P 
HETATM   28  O6  UNL     1      19.956  24.278  18.509  1.00  0.00    -0.616 OA
HETATM   29  O7  UNL     1      18.163  25.098  16.427  1.00  0.00    -0.616 OA
HETATM   30  O8  UNL     1      17.589  24.121  18.373  1.00  0.00    -0.616 OA
ENDBRANCH  26  27
ENDBRANCH  23  26
ENDBRANCH  22  23
ENDBRANCH  21  22
ENDBRANCH   3  21
BRANCH   4  31
HETATM   31  O9  UNL     1      18.454  29.098  13.400  1.00  0.00    -0.390 OA
ATOM     32  H9  UNL     1      18.187  28.189  13.333  1.00  0.00     0.210 HD
ENDBRANCH   4  31
TORSDOF 8
ENDMDL
