MODEL 4
REMARK VINA RESULT: -3.614582541      1.993      3.676
REMARK  3 active torsions:
REMARK  status: ('A' for Active; 'I' for Inactive)
REMARK    1  A    between atoms: N1_1  and  C1_5 
REMARK    2  A    between atoms: C1_5  and  C2_6 
REMARK    3  A    between atoms: C2_6  and  C3_7 
ROOT
HETATM    1  C3  UNL     1      -4.102   2.788  14.581  1.00  0.00     0.027 A 
HETATM    2  C4  UNL     1      -4.176   1.986  13.473  1.00  0.00     0.114 A 
HETATM    3  N2  UNL     1      -4.347   0.727  13.904  1.00  0.00    -0.360 N 
ATOM      4  H2  UNL     1      -4.437  -0.098  13.311  1.00  0.00     0.166 HD
HETATM    5  C5  UNL     1      -4.379   0.733  15.246  1.00  0.00     0.180 A 
HETATM    6  N3  UNL     1      -4.228   1.999  15.652  1.00  0.00    -0.355 N 
ATOM      7  H3  UNL     1      -4.212   2.311  16.624  1.00  0.00     0.166 HD
ENDROOT
BRANCH   1   8
HETATM    8  C2  UNL     1      -3.912   4.288  14.573  1.00  0.00     0.085 C 
BRANCH   8   9
HETATM    9  C1  UNL     1      -2.478   4.612  14.160  1.00  0.00     0.235 C 
BRANCH   9  10
HETATM   10  N1  UNL     1      -1.523   3.971  15.015  1.00  0.00    -0.079 N 
ATOM     11  H13 UNL     1      -0.780   4.614  15.291  1.00  0.00     0.274 HD
ATOM     12  H12 UNL     1      -1.917   3.780  15.936  1.00  0.00     0.274 HD
ATOM     13  H11 UNL     1      -1.144   3.125  14.590  1.00  0.00     0.274 HD
ENDBRANCH   9  10
ENDBRANCH   8   9
ENDBRANCH   1   8
TORSDOF 3
ENDMDL
