MODEL 3
REMARK VINA RESULT: -3.737987637      1.490      1.586
REMARK  3 active torsions:
REMARK  status: ('A' for Active; 'I' for Inactive)
REMARK    1  A    between atoms: N1_1  and  C1_5 
REMARK    2  A    between atoms: C1_5  and  C2_6 
REMARK    3  A    between atoms: C2_6  and  C3_7 
ROOT
HETATM    1  C3  UNL     1      -4.436   2.362  15.244  1.00  0.00     0.027 A 
HETATM    2  C4  UNL     1      -5.430   3.125  14.690  1.00  0.00     0.114 A 
HETATM    3  N2  UNL     1      -4.862   4.255  14.243  1.00  0.00    -0.360 N 
ATOM      4  H2  UNL     1      -5.348   5.022  13.780  1.00  0.00     0.166 HD
HETATM    5  C5  UNL     1      -3.547   4.207  14.507  1.00  0.00     0.180 A 
HETATM    6  N3  UNL     1      -3.295   3.045  15.120  1.00  0.00    -0.355 N 
ATOM      7  H3  UNL     1      -2.378   2.732  15.441  1.00  0.00     0.166 HD
ENDROOT
BRANCH   1   8
HETATM    8  C2  UNL     1      -4.618   0.999  15.875  1.00  0.00     0.085 C 
BRANCH   8   9
HETATM    9  C1  UNL     1      -5.879   1.008  16.736  1.00  0.00     0.235 C 
BRANCH   9  10
HETATM   10  N1  UNL     1      -5.755   0.136  17.865  1.00  0.00    -0.079 N 
ATOM     11  H13 UNL     1      -5.744  -0.844  17.580  1.00  0.00     0.274 HD
ATOM     12  H12 UNL     1      -4.824   0.192  18.278  1.00  0.00     0.274 HD
ATOM     13  H11 UNL     1      -6.481   0.312  18.560  1.00  0.00     0.274 HD
ENDBRANCH   9  10
ENDBRANCH   8   9
ENDBRANCH   1   8
TORSDOF 3
ENDMDL
