MODEL 1
REMARK VINA RESULT: -3.739194155      0.000      0.000
REMARK  3 active torsions:
REMARK  status: ('A' for Active; 'I' for Inactive)
REMARK    1  A    between atoms: N1_1  and  C1_5 
REMARK    2  A    between atoms: C1_5  and  C2_6 
REMARK    3  A    between atoms: C2_6  and  C3_7 
ROOT
HETATM    1  C3  UNL     1      -4.417   1.706  14.794  1.00  0.00     0.027 A 
HETATM    2  C4  UNL     1      -4.746   2.995  14.468  1.00  0.00     0.114 A 
HETATM    3  N2  UNL     1      -4.667   3.101  13.133  1.00  0.00    -0.360 N 
ATOM      4  H2  UNL     1      -4.855   3.943  12.591  1.00  0.00     0.166 HD
HETATM    5  C5  UNL     1      -4.299   1.912  12.630  1.00  0.00     0.180 A 
HETATM    6  N3  UNL     1      -4.148   1.064  13.654  1.00  0.00    -0.355 N 
ATOM      7  H3  UNL     1      -3.872   0.084  13.575  1.00  0.00     0.166 HD
ENDROOT
BRANCH   1   8
HETATM    8  C2  UNL     1      -4.373   1.133  16.194  1.00  0.00     0.085 C 
BRANCH   8   9
HETATM    9  C1  UNL     1      -5.798   0.976  16.718  1.00  0.00     0.235 C 
BRANCH   9  10
HETATM   10  N1  UNL     1      -5.842   0.170  17.901  1.00  0.00    -0.079 N 
ATOM     11  H13 UNL     1      -6.587  -0.525  17.851  1.00  0.00     0.274 HD
ATOM     12  H12 UNL     1      -5.041  -0.459  17.953  1.00  0.00     0.274 HD
ATOM     13  H11 UNL     1      -5.922   0.739  18.743  1.00  0.00     0.274 HD
ENDBRANCH   9  10
ENDBRANCH   8   9
ENDBRANCH   1   8
TORSDOF 3
ENDMDL
