MODEL 3
REMARK VINA RESULT: -4.846949947      2.787      4.605
REMARK  6 active torsions:
REMARK  status: ('A' for Active; 'I' for Inactive)
REMARK       I    between atoms: C2_2  and  N1_4 
REMARK    1  A    between atoms: N1_4  and  C3_6 
REMARK    2  A    between atoms: C4_7  and  O2_8 
REMARK    3  A    between atoms: C5_11  and  C6_12 
REMARK    4  A    between atoms: C6_12  and  O4_13 
REMARK    5  A    between atoms: C7_15  and  O5_16 
REMARK    6  A    between atoms: C8_18  and  O6_19 
ROOT
HETATM    1  C3  UNL     1      15.992   2.894  35.227  1.00  0.00     0.170 C 
HETATM    2  C4  UNL     1      15.586   2.338  33.859  1.00  0.00     0.282 C 
HETATM    3  O3  UNL     1      14.883   1.163  34.135  1.00  0.00    -0.349 OA
HETATM    4  C5  UNL     1      15.791   0.217  34.530  1.00  0.00     0.179 C 
HETATM    5  C7  UNL     1      16.615   0.595  35.717  1.00  0.00     0.180 C 
HETATM    6  C8  UNL     1      17.138   2.012  35.662  1.00  0.00     0.177 C 
ENDROOT
BRANCH   1   7
HETATM    7  N1  UNL     1      16.337   4.273  35.116  1.00  0.00    -0.349 N 
HETATM    8  C2  UNL     1      16.282   5.171  36.216  1.00  0.00     0.214 C 
HETATM    9  C1  UNL     1      16.645   6.618  36.094  1.00  0.00     0.117 C 
HETATM   10  O1  UNL     1      15.904   4.675  37.321  1.00  0.00    -0.274 OA
ATOM     11  H1  UNL     1      16.636   4.630  34.208  1.00  0.00     0.163 HD
ENDBRANCH   1   7
BRANCH   2  12
HETATM   12  O2  UNL     1      16.736   1.956  33.162  1.00  0.00    -0.369 OA
ATOM     13  H2  UNL     1      16.835   1.013  33.218  1.00  0.00     0.212 HD
ENDBRANCH   2  12
BRANCH   6  14
HETATM   14  O6  UNL     1      17.631   2.332  36.909  1.00  0.00    -0.391 OA
ATOM     15  H6  UNL     1      18.578   2.293  36.960  1.00  0.00     0.210 HD
ENDBRANCH   6  14
BRANCH   5  16
HETATM   16  O5  UNL     1      15.955   0.363  36.926  1.00  0.00    -0.390 OA
ATOM     17  H5  UNL     1      16.472  -0.155  37.532  1.00  0.00     0.210 HD
ENDBRANCH   5  16
BRANCH   4  18
HETATM   18  C6  UNL     1      15.104  -1.107  34.853  1.00  0.00     0.198 C 
BRANCH  18  19
HETATM   19  O4  UNL     1      13.754  -0.837  35.042  1.00  0.00    -0.398 OA
ATOM     20  H4  UNL     1      13.342  -1.642  35.335  1.00  0.00     0.209 HD
ENDBRANCH  18  19
ENDBRANCH   4  18
TORSDOF 6
ENDMDL
