MODEL 2
REMARK VINA RESULT: -4.916179530      1.643      4.902
REMARK  6 active torsions:
REMARK  status: ('A' for Active; 'I' for Inactive)
REMARK       I    between atoms: C2_2  and  N1_4 
REMARK    1  A    between atoms: N1_4  and  C3_6 
REMARK    2  A    between atoms: C4_7  and  O2_8 
REMARK    3  A    between atoms: C5_11  and  C6_12 
REMARK    4  A    between atoms: C6_12  and  O4_13 
REMARK    5  A    between atoms: C7_15  and  O5_16 
REMARK    6  A    between atoms: C8_18  and  O6_19 
ROOT
HETATM    1  C3  UNL     1      16.158  -1.823  36.119  1.00  0.00     0.170 C 
HETATM    2  C4  UNL     1      15.474  -1.586  34.769  1.00  0.00     0.282 C 
HETATM    3  O3  UNL     1      16.308  -0.697  34.087  1.00  0.00    -0.349 OA
HETATM    4  C5  UNL     1      16.162   0.537  34.661  1.00  0.00     0.179 C 
HETATM    5  C7  UNL     1      16.466   0.590  36.123  1.00  0.00     0.180 C 
HETATM    6  C8  UNL     1      15.878  -0.563  36.904  1.00  0.00     0.177 C 
ENDROOT
BRANCH   1   7
HETATM    7  N1  UNL     1      15.648  -3.006  36.729  1.00  0.00    -0.349 N 
HETATM    8  C2  UNL     1      16.340  -4.247  36.701  1.00  0.00     0.214 C 
HETATM    9  C1  UNL     1      15.800  -5.486  37.343  1.00  0.00     0.117 C 
HETATM   10  O1  UNL     1      17.455  -4.248  36.096  1.00  0.00    -0.274 OA
ATOM     11  H1  UNL     1      14.746  -2.960  37.205  1.00  0.00     0.163 HD
ENDBRANCH   1   7
BRANCH   2  12
HETATM   12  O2  UNL     1      14.268  -0.913  34.979  1.00  0.00    -0.369 OA
ATOM     13  H2  UNL     1      13.581  -1.344  34.485  1.00  0.00     0.212 HD
ENDBRANCH   2  12
BRANCH   6  14
HETATM   14  O6  UNL     1      16.450  -0.563  38.158  1.00  0.00    -0.391 OA
ATOM     15  H6  UNL     1      15.826  -0.400  38.855  1.00  0.00     0.210 HD
ENDBRANCH   6  14
BRANCH   5  16
HETATM   16  O5  UNL     1      17.833   0.710  36.383  1.00  0.00    -0.390 OA
ATOM     17  H5  UNL     1      18.070   1.572  36.705  1.00  0.00     0.210 HD
ENDBRANCH   5  16
BRANCH   4  18
HETATM   18  C6  UNL     1      17.044   1.575  33.973  1.00  0.00     0.198 C 
BRANCH  18  19
HETATM   19  O4  UNL     1      18.134   0.902  33.436  1.00  0.00    -0.398 OA
ATOM     20  H4  UNL     1      18.891   1.469  33.528  1.00  0.00     0.209 HD
ENDBRANCH  18  19
ENDBRANCH   4  18
TORSDOF 6
ENDMDL
