MODEL 5
REMARK VINA RESULT: -4.813306152      1.083      1.083
REMARK  6 active torsions:
REMARK  status: ('A' for Active; 'I' for Inactive)
REMARK       I    between atoms: C2_2  and  N1_4 
REMARK    1  A    between atoms: N1_4  and  C3_6 
REMARK    2  A    between atoms: C4_7  and  O2_8 
REMARK    3  A    between atoms: C5_11  and  C6_12 
REMARK    4  A    between atoms: C6_12  and  O4_13 
REMARK    5  A    between atoms: C7_15  and  O5_16 
REMARK    6  A    between atoms: C8_18  and  O6_19 
ROOT
HETATM    1  C3  UNL     1      16.421  -0.489  35.196  1.00  0.00     0.170 C 
HETATM    2  C4  UNL     1      16.907  -0.256  36.630  1.00  0.00     0.282 C 
HETATM    3  O3  UNL     1      17.405  -1.490  37.053  1.00  0.00    -0.349 OA
HETATM    4  C5  UNL     1      16.336  -2.314  37.282  1.00  0.00     0.179 C 
HETATM    5  C7  UNL     1      15.436  -2.517  36.108  1.00  0.00     0.180 C 
HETATM    6  C8  UNL     1      15.121  -1.240  35.362  1.00  0.00     0.177 C 
ENDROOT
BRANCH   1   7
HETATM    7  N1  UNL     1      16.283   0.756  34.514  1.00  0.00    -0.349 N 
HETATM    8  C2  UNL     1      17.298   1.290  33.675  1.00  0.00     0.214 C 
HETATM    9  C1  UNL     1      17.148   2.597  32.962  1.00  0.00     0.117 C 
HETATM   10  O1  UNL     1      18.351   0.592  33.562  1.00  0.00    -0.274 OA
ATOM     11  H1  UNL     1      15.419   1.284  34.633  1.00  0.00     0.163 HD
ENDBRANCH   1   7
BRANCH   2  12
HETATM   12  O2  UNL     1      15.808   0.027  37.445  1.00  0.00    -0.369 OA
ATOM     13  H2  UNL     1      15.952  -0.351  38.303  1.00  0.00     0.212 HD
ENDBRANCH   2  12
BRANCH   6  14
HETATM   14  O6  UNL     1      14.532  -1.582  34.163  1.00  0.00    -0.391 OA
ATOM     15  H6  UNL     1      14.732  -2.468  33.886  1.00  0.00     0.210 HD
ENDBRANCH   6  14
BRANCH   5  16
HETATM   16  O5  UNL     1      15.909  -3.494  35.229  1.00  0.00    -0.390 OA
ATOM     17  H5  UNL     1      15.366  -3.583  34.454  1.00  0.00     0.210 HD
ENDBRANCH   5  16
BRANCH   4  18
HETATM   18  C6  UNL     1      16.793  -3.694  37.751  1.00  0.00     0.198 C 
BRANCH  18  19
HETATM   19  O4  UNL     1      18.040  -3.931  37.185  1.00  0.00    -0.398 OA
ATOM     20  H4  UNL     1      18.638  -4.134  37.895  1.00  0.00     0.209 HD
ENDBRANCH  18  19
ENDBRANCH   4  18
TORSDOF 6
ENDMDL
