MODEL 4
REMARK VINA RESULT: -4.813686780      2.066      4.861
REMARK  6 active torsions:
REMARK  status: ('A' for Active; 'I' for Inactive)
REMARK       I    between atoms: C2_2  and  N1_4 
REMARK    1  A    between atoms: N1_4  and  C3_6 
REMARK    2  A    between atoms: C4_7  and  O2_8 
REMARK    3  A    between atoms: C5_11  and  C6_12 
REMARK    4  A    between atoms: C6_12  and  O4_13 
REMARK    5  A    between atoms: C7_15  and  O5_16 
REMARK    6  A    between atoms: C8_18  and  O6_19 
ROOT
HETATM    1  C3  UNL     1      16.075  -1.233  36.459  1.00  0.00     0.170 C 
HETATM    2  C4  UNL     1      16.938  -0.257  37.265  1.00  0.00     0.282 C 
HETATM    3  O3  UNL     1      16.316   0.985  37.122  1.00  0.00    -0.349 OA
HETATM    4  C5  UNL     1      16.559   1.429  35.850  1.00  0.00     0.179 C 
HETATM    5  C7  UNL     1      16.096   0.513  34.765  1.00  0.00     0.180 C 
HETATM    6  C8  UNL     1      16.429  -0.940  35.020  1.00  0.00     0.177 C 
ENDROOT
BRANCH   1   7
HETATM    7  N1  UNL     1      16.347  -2.575  36.856  1.00  0.00    -0.349 N 
HETATM    8  C2  UNL     1      15.448  -3.648  36.611  1.00  0.00     0.214 C 
HETATM    9  C1  UNL     1      15.739  -5.054  37.031  1.00  0.00     0.117 C 
HETATM   10  O1  UNL     1      14.373  -3.345  36.010  1.00  0.00    -0.274 OA
ATOM     11  H1  UNL     1      17.225  -2.773  37.337  1.00  0.00     0.163 HD
ENDBRANCH   1   7
BRANCH   2  12
HETATM   12  O2  UNL     1      18.191  -0.144  36.657  1.00  0.00    -0.369 OA
ATOM     13  H2  UNL     1      18.413   0.775  36.571  1.00  0.00     0.212 HD
ENDBRANCH   2  12
BRANCH   6  14
HETATM   14  O6  UNL     1      15.720  -1.703  34.118  1.00  0.00    -0.391 OA
ATOM     15  H6  UNL     1      16.202  -1.887  33.320  1.00  0.00     0.210 HD
ENDBRANCH   6  14
BRANCH   5  16
HETATM   16  O5  UNL     1      14.737   0.660  34.480  1.00  0.00    -0.390 OA
ATOM     17  H5  UNL     1      14.563   0.720  33.548  1.00  0.00     0.210 HD
ENDBRANCH   5  16
BRANCH   4  18
HETATM   18  C6  UNL     1      15.911   2.790  35.606  1.00  0.00     0.198 C 
BRANCH  18  19
HETATM   19  O4  UNL     1      15.014   3.013  36.643  1.00  0.00    -0.398 OA
ATOM     20  H4  UNL     1      14.667   3.891  36.534  1.00  0.00     0.209 HD
ENDBRANCH  18  19
ENDBRANCH   4  18
TORSDOF 6
ENDMDL
