MODEL 1
REMARK VINA RESULT: -5.513081087      0.000      0.000
REMARK  6 active torsions:
REMARK  status: ('A' for Active; 'I' for Inactive)
REMARK       I    between atoms: C2_2  and  N1_4 
REMARK    1  A    between atoms: N1_4  and  C3_6 
REMARK    2  A    between atoms: C4_7  and  O2_8 
REMARK    3  A    between atoms: C5_11  and  C6_12 
REMARK    4  A    between atoms: C6_12  and  O4_13 
REMARK    5  A    between atoms: C7_15  and  O5_16 
REMARK    6  A    between atoms: C8_18  and  O6_19 
ROOT
HETATM    1  C3  UNL     1      16.454  -0.704  35.603  1.00  0.00     0.170 C 
HETATM    2  C4  UNL     1      17.131  -1.199  36.884  1.00  0.00     0.282 C 
HETATM    3  O3  UNL     1      17.286  -2.575  36.709  1.00  0.00    -0.349 OA
HETATM    4  C5  UNL     1      16.052  -3.154  36.840  1.00  0.00     0.179 C 
HETATM    5  C7  UNL     1      15.016  -2.645  35.892  1.00  0.00     0.180 C 
HETATM    6  C8  UNL     1      15.015  -1.140  35.752  1.00  0.00     0.177 C 
ENDROOT
BRANCH   1   7
HETATM    7  N1  UNL     1      16.617   0.706  35.472  1.00  0.00    -0.349 N 
HETATM    8  C2  UNL     1      17.373   1.299  34.425  1.00  0.00     0.214 C 
HETATM    9  C1  UNL     1      17.542   2.780  34.293  1.00  0.00     0.117 C 
HETATM   10  O1  UNL     1      17.904   0.496  33.599  1.00  0.00    -0.274 OA
ATOM     11  H1  UNL     1      16.172   1.315  36.159  1.00  0.00     0.163 HD
ENDBRANCH   1   7
BRANCH   2  12
HETATM   12  O2  UNL     1      16.253  -1.034  37.959  1.00  0.00    -0.369 OA
ATOM     13  H2  UNL     1      16.752  -0.813  38.736  1.00  0.00     0.212 HD
ENDBRANCH   2  12
BRANCH   6  14
HETATM   14  O6  UNL     1      14.231  -0.814  34.665  1.00  0.00    -0.391 OA
ATOM     15  H6  UNL     1      14.177   0.121  34.508  1.00  0.00     0.210 HD
ENDBRANCH   6  14
BRANCH   5  16
HETATM   16  O5  UNL     1      15.089  -3.253  34.637  1.00  0.00    -0.390 OA
ATOM     17  H5  UNL     1      14.334  -3.799  34.450  1.00  0.00     0.210 HD
ENDBRANCH   5  16
BRANCH   4  18
HETATM   18  C6  UNL     1      16.130  -4.668  36.661  1.00  0.00     0.198 C 
BRANCH  18  19
HETATM   19  O4  UNL     1      17.171  -4.928  35.778  1.00  0.00    -0.398 OA
ATOM     20  H4  UNL     1      17.512  -5.790  35.987  1.00  0.00     0.209 HD
ENDBRANCH  18  19
ENDBRANCH   4  18
TORSDOF 6
ENDMDL
