MODEL 15
REMARK VINA RESULT: -4.854079364      2.837      5.875
REMARK  3 active torsions:
REMARK  status: ('A' for Active; 'I' for Inactive)
REMARK       I    between atoms: C2_2  and  N1_4 
REMARK    1  A    between atoms: N1_4  and  C3_6 
REMARK    2  A    between atoms: C4_11  and  S1_12 
REMARK    3  A    between atoms: S1_12  and  N4_13 
ROOT
HETATM    1  C3  UNL     1      33.599  14.659 -18.763  1.00  0.00     0.168 A 
HETATM    2  N2  UNL     1      34.590  13.775 -18.835  1.00  0.00    -0.278 N 
ATOM      3  H2  UNL     1      35.080  13.485 -17.989  1.00  0.00     0.189 HD
HETATM    4  N3  UNL     1      34.920  13.298 -19.954  1.00  0.00    -0.281 N 
ATOM      5  H3  UNL     1      35.679  12.619 -20.015  1.00  0.00     0.188 HD
HETATM    6  C4  UNL     1      34.280  13.679 -21.055  1.00  0.00     0.208 A 
HETATM    7  S2  UNL     1      33.145  14.784 -20.408  1.00  0.00    -0.020 SA
ENDROOT
BRANCH   6   8
HETATM    8  S1  UNL     1      34.567  13.147 -22.721  1.00  0.00     0.280 S 
HETATM    9  O2  UNL     1      35.681  13.933 -23.312  1.00  0.00    -0.199 OA
HETATM   10  O3  UNL     1      34.931  11.693 -22.639  1.00  0.00    -0.199 OA
BRANCH   8  11
HETATM   11  N4  UNL     1      33.103  13.316 -23.606  1.00  0.00    -0.323 N 
ATOM     12  H42 UNL     1      32.167  13.227 -23.211  1.00  0.00     0.169 HD
ATOM     13  H41 UNL     1      33.335  13.518 -24.578  1.00  0.00     0.169 HD
ENDBRANCH   8  11
ENDBRANCH   6   8
BRANCH   1  14
HETATM   14  N1  UNL     1      33.066  15.322 -17.601  1.00  0.00    -0.306 N 
HETATM   15  C2  UNL     1      33.853  16.294 -16.945  1.00  0.00     0.219 C 
HETATM   16  C1  UNL     1      33.381  17.023 -15.743  1.00  0.00     0.117 C 
HETATM   17  O1  UNL     1      34.996  16.541 -17.411  1.00  0.00    -0.274 OA
ATOM     18  H1  UNL     1      32.134  15.092 -17.256  1.00  0.00     0.171 HD
ENDBRANCH   1  14
TORSDOF 3
ENDMDL
