MODEL 7
REMARK VINA RESULT: -5.608541487      1.483      1.483
REMARK  3 active torsions:
REMARK  status: ('A' for Active; 'I' for Inactive)
REMARK       I    between atoms: C2_2  and  N1_4 
REMARK    1  A    between atoms: N1_4  and  C3_6 
REMARK    2  A    between atoms: C4_11  and  S1_12 
REMARK    3  A    between atoms: S1_12  and  N4_13 
ROOT
HETATM    1  C3  UNL     1      33.981  15.180 -19.964  1.00  0.00     0.168 A 
HETATM    2  N2  UNL     1      34.624  16.337 -20.106  1.00  0.00    -0.278 N 
ATOM      3  H2  UNL     1      34.833  16.696 -21.037  1.00  0.00     0.189 HD
HETATM    4  N3  UNL     1      34.973  16.986 -19.084  1.00  0.00    -0.281 N 
ATOM      5  H3  UNL     1      35.465  17.873 -19.187  1.00  0.00     0.188 HD
HETATM    6  C4  UNL     1      34.699  16.515 -17.871  1.00  0.00     0.208 A 
HETATM    7  S2  UNL     1      33.894  15.057 -18.260  1.00  0.00    -0.020 SA
ENDROOT
BRANCH   6   8
HETATM    8  S1  UNL     1      35.088  17.248 -16.305  1.00  0.00     0.280 S 
HETATM    9  O2  UNL     1      36.532  17.597 -16.261  1.00  0.00    -0.199 OA
HETATM   10  O3  UNL     1      34.241  18.483 -16.200  1.00  0.00    -0.199 OA
BRANCH   8  11
HETATM   11  N4  UNL     1      34.641  16.146 -15.063  1.00  0.00    -0.323 N 
ATOM     12  H42 UNL     1      35.104  15.257 -14.875  1.00  0.00     0.169 HD
ATOM     13  H41 UNL     1      33.845  16.535 -14.559  1.00  0.00     0.169 HD
ENDBRANCH   8  11
ENDBRANCH   6   8
BRANCH   1  14
HETATM   14  N1  UNL     1      33.498  14.288 -20.986  1.00  0.00    -0.306 N 
HETATM   15  C2  UNL     1      32.515  14.750 -21.890  1.00  0.00     0.219 C 
HETATM   16  C1  UNL     1      31.963  13.897 -22.970  1.00  0.00     0.117 C 
HETATM   17  O1  UNL     1      32.103  15.932 -21.761  1.00  0.00    -0.274 OA
ATOM     18  H1  UNL     1      33.859  13.337 -21.055  1.00  0.00     0.171 HD
ENDBRANCH   1  14
TORSDOF 3
ENDMDL
