MODEL 6
REMARK VINA RESULT: -5.616237050      1.833      2.064
REMARK  3 active torsions:
REMARK  status: ('A' for Active; 'I' for Inactive)
REMARK       I    between atoms: C2_2  and  N1_4 
REMARK    1  A    between atoms: N1_4  and  C3_6 
REMARK    2  A    between atoms: C4_11  and  S1_12 
REMARK    3  A    between atoms: S1_12  and  N4_13 
ROOT
HETATM    1  C3  UNL     1      33.759  15.259 -19.829  1.00  0.00     0.168 A 
HETATM    2  N2  UNL     1      33.266  14.811 -18.678  1.00  0.00    -0.278 N 
ATOM      3  H2  UNL     1      32.625  14.018 -18.668  1.00  0.00     0.189 HD
HETATM    4  N3  UNL     1      33.596  15.372 -17.598  1.00  0.00    -0.281 N 
ATOM      5  H3  UNL     1      33.222  15.032 -16.712  1.00  0.00     0.188 HD
HETATM    6  C4  UNL     1      34.432  16.405 -17.613  1.00  0.00     0.208 A 
HETATM    7  S2  UNL     1      34.741  16.551 -19.289  1.00  0.00    -0.020 SA
ENDROOT
BRANCH   6   8
HETATM    8  S1  UNL     1      35.031  17.341 -16.233  1.00  0.00     0.280 S 
HETATM    9  O2  UNL     1      34.031  18.373 -15.856  1.00  0.00    -0.199 OA
HETATM   10  O3  UNL     1      35.226  16.359 -15.114  1.00  0.00    -0.199 OA
BRANCH   8  11
HETATM   11  N4  UNL     1      36.551  18.024 -16.658  1.00  0.00    -0.323 N 
ATOM     12  H42 UNL     1      36.736  18.554 -17.510  1.00  0.00     0.169 HD
ATOM     13  H41 UNL     1      37.220  17.809 -15.920  1.00  0.00     0.169 HD
ENDBRANCH   8  11
ENDBRANCH   6   8
BRANCH   1  14
HETATM   14  N1  UNL     1      33.517  14.771 -21.162  1.00  0.00    -0.306 N 
HETATM   15  C2  UNL     1      34.163  13.588 -21.587  1.00  0.00     0.219 C 
HETATM   16  C1  UNL     1      33.969  13.018 -22.942  1.00  0.00     0.117 C 
HETATM   17  O1  UNL     1      34.928  13.009 -20.773  1.00  0.00    -0.274 OA
ATOM     18  H1  UNL     1      32.888  15.271 -21.790  1.00  0.00     0.171 HD
ENDBRANCH   1  14
TORSDOF 3
ENDMDL
