MODEL 4
REMARK VINA RESULT: -5.854617792      1.358      1.663
REMARK  3 active torsions:
REMARK  status: ('A' for Active; 'I' for Inactive)
REMARK       I    between atoms: C2_2  and  N1_4 
REMARK    1  A    between atoms: N1_4  and  C3_6 
REMARK    2  A    between atoms: C4_11  and  S1_12 
REMARK    3  A    between atoms: S1_12  and  N4_13 
ROOT
HETATM    1  C3  UNL     1      33.806  14.743 -19.509  1.00  0.00     0.168 A 
HETATM    2  N2  UNL     1      33.105  14.608 -18.387  1.00  0.00    -0.278 N 
ATOM      3  H2  UNL     1      32.346  13.929 -18.335  1.00  0.00     0.189 HD
HETATM    4  N3  UNL     1      33.384  15.323 -17.387  1.00  0.00    -0.281 N 
ATOM      5  H3  UNL     1      32.850  15.223 -16.523  1.00  0.00     0.188 HD
HETATM    6  C4  UNL     1      34.374  16.207 -17.457  1.00  0.00     0.208 A 
HETATM    7  S2  UNL     1      34.912  15.970 -19.063  1.00  0.00    -0.020 SA
ENDROOT
BRANCH   6   8
HETATM    8  S1  UNL     1      34.940  17.310 -16.190  1.00  0.00     0.280 S 
HETATM    9  O2  UNL     1      33.883  18.309 -15.887  1.00  0.00    -0.199 OA
HETATM   10  O3  UNL     1      35.221  16.456 -14.987  1.00  0.00    -0.199 OA
BRANCH   8  11
HETATM   11  N4  UNL     1      36.403  18.042 -16.720  1.00  0.00    -0.323 N 
ATOM     12  H42 UNL     1      37.310  17.577 -16.755  1.00  0.00     0.169 HD
ATOM     13  H41 UNL     1      36.203  19.005 -16.988  1.00  0.00     0.169 HD
ENDBRANCH   8  11
ENDBRANCH   6   8
BRANCH   1  14
HETATM   14  N1  UNL     1      33.657  14.036 -20.754  1.00  0.00    -0.306 N 
HETATM   15  C2  UNL     1      32.578  14.364 -21.604  1.00  0.00     0.219 C 
HETATM   16  C1  UNL     1      32.352  13.685 -22.903  1.00  0.00     0.117 C 
HETATM   17  O1  UNL     1      31.787  15.270 -21.231  1.00  0.00    -0.274 OA
ATOM     18  H1  UNL     1      34.321  13.308 -21.019  1.00  0.00     0.171 HD
ENDBRANCH   1  14
TORSDOF 3
ENDMDL
