MODEL 12
REMARK VINA RESULT: -4.895230581      3.058      5.735
REMARK  3 active torsions:
REMARK  status: ('A' for Active; 'I' for Inactive)
REMARK       I    between atoms: C2_2  and  N1_4 
REMARK    1  A    between atoms: N1_4  and  C3_6 
REMARK    2  A    between atoms: C4_11  and  S1_12 
REMARK    3  A    between atoms: S1_12  and  N4_13 
ROOT
HETATM    1  C3  UNL     1      34.911  15.199 -19.024  1.00  0.00     0.168 A 
HETATM    2  N2  UNL     1      34.697  13.887 -19.040  1.00  0.00    -0.278 N 
ATOM      3  H2  UNL     1      34.430  13.400 -18.185  1.00  0.00     0.189 HD
HETATM    4  N3  UNL     1      34.828  13.247 -20.119  1.00  0.00    -0.281 N 
ATOM      5  H3  UNL     1      34.665  12.241 -20.138  1.00  0.00     0.188 HD
HETATM    6  C4  UNL     1      35.177  13.885 -21.232  1.00  0.00     0.208 A 
HETATM    7  S2  UNL     1      35.317  15.490 -20.660  1.00  0.00    -0.020 SA
ENDROOT
BRANCH   6   8
HETATM    8  S1  UNL     1      35.417  13.200 -22.849  1.00  0.00     0.280 S 
HETATM    9  O2  UNL     1      36.548  12.237 -22.822  1.00  0.00    -0.199 OA
HETATM   10  O3  UNL     1      34.136  12.501 -23.201  1.00  0.00    -0.199 OA
BRANCH   8  11
HETATM   11  N4  UNL     1      35.681  14.492 -23.952  1.00  0.00    -0.323 N 
ATOM     12  H42 UNL     1      35.078  15.308 -24.052  1.00  0.00     0.169 HD
ATOM     13  H41 UNL     1      36.533  14.297 -24.479  1.00  0.00     0.169 HD
ENDBRANCH   8  11
ENDBRANCH   6   8
BRANCH   1  14
HETATM   14  N1  UNL     1      34.819  16.112 -17.913  1.00  0.00    -0.306 N 
HETATM   15  C2  UNL     1      33.685  16.056 -17.072  1.00  0.00     0.219 C 
HETATM   16  C1  UNL     1      33.511  16.959 -15.909  1.00  0.00     0.117 C 
HETATM   17  O1  UNL     1      32.798  15.202 -17.333  1.00  0.00    -0.274 OA
ATOM     18  H1  UNL     1      35.561  16.789 -17.737  1.00  0.00     0.171 HD
ENDBRANCH   1  14
TORSDOF 3
ENDMDL
