MODEL 14
REMARK VINA RESULT: -4.859329036      3.047      5.732
REMARK  3 active torsions:
REMARK  status: ('A' for Active; 'I' for Inactive)
REMARK       I    between atoms: C2_2  and  N1_4 
REMARK    1  A    between atoms: N1_4  and  C3_6 
REMARK    2  A    between atoms: C4_11  and  S1_12 
REMARK    3  A    between atoms: S1_12  and  N4_13 
ROOT
HETATM    1  C3  UNL     1      34.913  15.281 -18.980  1.00  0.00     0.168 A 
HETATM    2  N2  UNL     1      34.804  13.955 -18.988  1.00  0.00    -0.278 N 
ATOM      3  H2  UNL     1      34.619  13.451 -18.121  1.00  0.00     0.189 HD
HETATM    4  N3  UNL     1      34.931  13.325 -20.072  1.00  0.00    -0.281 N 
ATOM      5  H3  UNL     1      34.848  12.309 -20.084  1.00  0.00     0.188 HD
HETATM    6  C4  UNL     1      35.173  13.985 -21.200  1.00  0.00     0.208 A 
HETATM    7  S2  UNL     1      35.213  15.598 -20.634  1.00  0.00    -0.020 SA
ENDROOT
BRANCH   6   8
HETATM    8  S1  UNL     1      35.386  13.317 -22.828  1.00  0.00     0.280 S 
HETATM    9  O2  UNL     1      35.787  14.399 -23.764  1.00  0.00    -0.199 OA
HETATM   10  O3  UNL     1      36.471  12.285 -22.717  1.00  0.00    -0.199 OA
BRANCH   8  11
HETATM   11  N4  UNL     1      33.920  12.551 -23.298  1.00  0.00    -0.323 N 
ATOM     12  H42 UNL     1      33.035  13.032 -23.459  1.00  0.00     0.169 HD
ATOM     13  H41 UNL     1      34.093  11.550 -23.385  1.00  0.00     0.169 HD
ENDBRANCH   8  11
ENDBRANCH   6   8
BRANCH   1  14
HETATM   14  N1  UNL     1      34.804  16.187 -17.866  1.00  0.00    -0.306 N 
HETATM   15  C2  UNL     1      33.682  16.091 -17.012  1.00  0.00     0.219 C 
HETATM   16  C1  UNL     1      33.493  16.984 -15.843  1.00  0.00     0.117 C 
HETATM   17  O1  UNL     1      32.820  15.210 -17.266  1.00  0.00    -0.274 OA
ATOM     18  H1  UNL     1      35.526  16.887 -17.695  1.00  0.00     0.171 HD
ENDBRANCH   1  14
TORSDOF 3
ENDMDL
