MODEL 1
REMARK VINA RESULT: -6.671756849      0.000      0.000
REMARK  10 active torsions:
REMARK  status: ('A' for Active; 'I' for Inactive)
REMARK    1  A    between atoms: O1_1  and  C1_3 
REMARK    2  A    between atoms: C2_4  and  O2_5 
REMARK    3  A    between atoms: O2_5  and  P1_6 
REMARK    4  A    between atoms: C3_10  and  O6_11 
REMARK    5  A    between atoms: O6_11  and  P2_12 
REMARK    6  A    between atoms: C4_16  and  O10_17 
REMARK    7  A    between atoms: O10_17  and  P3_18 
REMARK    8  A    between atoms: C5_22  and  O14_23 
REMARK    9  A    between atoms: C6_25  and  O15_26 
REMARK   10  A    between atoms: O15_26  and  P4_27 
ROOT
HETATM    1  C1  UNL     1       0.738   1.482  35.538  1.00  0.00     0.182 C 
HETATM    2  C2  UNL     1       0.074   1.464  36.891  1.00  0.00     0.199 C 
HETATM    3  C3  UNL     1      -0.103   2.932  37.229  1.00  0.00     0.200 C 
HETATM    4  C4  UNL     1       1.273   3.425  37.595  1.00  0.00     0.199 C 
HETATM    5  C5  UNL     1       2.108   3.441  36.355  1.00  0.00     0.182 C 
HETATM    6  C6  UNL     1       2.027   2.250  35.499  1.00  0.00     0.198 C 
ENDROOT
BRANCH   2   7
HETATM    7  O2  UNL     1      -1.139   0.898  36.783  1.00  0.00    -0.272 OA
BRANCH   7   8
HETATM    8  P1  UNL     1      -1.617  -0.252  37.805  1.00  0.00     0.422 P 
HETATM    9  O3  UNL     1      -2.974  -0.470  37.163  1.00  0.00    -0.617 OA
HETATM   10  O4  UNL     1      -2.162   0.071  39.305  1.00  0.00    -0.617 OA
HETATM   11  O5  UNL     1      -1.244  -1.896  37.467  1.00  0.00    -0.617 OA
ENDBRANCH   7   8
ENDBRANCH   2   7
BRANCH   1  12
HETATM   12  O1  UNL     1      -0.157   2.108  34.668  1.00  0.00    -0.390 OA
ATOM     13  H1  UNL     1      -0.598   1.414  34.191  1.00  0.00     0.210 HD
ENDBRANCH   1  12
BRANCH   3  14
HETATM   14  O6  UNL     1      -1.065   3.151  38.157  1.00  0.00    -0.272 OA
BRANCH  14  15
HETATM   15  P2  UNL     1      -2.437   3.878  37.684  1.00  0.00     0.422 P 
HETATM   16  O7  UNL     1      -2.592   5.554  37.879  1.00  0.00    -0.617 OA
HETATM   17  O8  UNL     1      -1.921   4.145  36.272  1.00  0.00    -0.617 OA
HETATM   18  O9  UNL     1      -3.755   3.018  37.235  1.00  0.00    -0.617 OA
ENDBRANCH  14  15
ENDBRANCH   3  14
BRANCH   6  19
HETATM   19  O15 UNL     1       2.258   2.463  34.155  1.00  0.00    -0.272 OA
BRANCH  19  20
HETATM   20  P4  UNL     1       3.709   2.594  33.552  1.00  0.00     0.422 P 
HETATM   21  O16 UNL     1       4.301   1.524  32.380  1.00  0.00    -0.617 OA
HETATM   22  O17 UNL     1       4.409   1.781  34.651  1.00  0.00    -0.617 OA
HETATM   23  O18 UNL     1       4.704   3.902  33.926  1.00  0.00    -0.617 OA
ENDBRANCH  19  20
ENDBRANCH   6  19
BRANCH   4  24
HETATM   24  O10 UNL     1       1.280   4.653  38.194  1.00  0.00    -0.272 OA
BRANCH  24  25
HETATM   25  P3  UNL     1       1.470   4.485  39.816  1.00  0.00     0.422 P 
HETATM   26  O11 UNL     1       0.363   5.497  40.124  1.00  0.00    -0.617 OA
HETATM   27  O12 UNL     1       2.557   3.430  39.580  1.00  0.00    -0.617 OA
HETATM   28  O13 UNL     1       2.551   5.496  40.580  1.00  0.00    -0.617 OA
ENDBRANCH  24  25
ENDBRANCH   4  24
BRANCH   5  29
HETATM   29  O14 UNL     1       3.433   3.626  36.812  1.00  0.00    -0.390 OA
ATOM     30  H14 UNL     1       3.976   3.489  36.045  1.00  0.00     0.210 HD
ENDBRANCH   5  29
TORSDOF 10
ENDMDL
