MODEL 3
REMARK VINA RESULT: -6.486907392      2.798      3.831
REMARK  10 active torsions:
REMARK  status: ('A' for Active; 'I' for Inactive)
REMARK    1  A    between atoms: O1_1  and  C1_3 
REMARK    2  A    between atoms: C2_4  and  O2_5 
REMARK    3  A    between atoms: O2_5  and  P1_6 
REMARK    4  A    between atoms: C3_10  and  O6_11 
REMARK    5  A    between atoms: O6_11  and  P2_12 
REMARK    6  A    between atoms: C4_16  and  O10_17 
REMARK    7  A    between atoms: O10_17  and  P3_18 
REMARK    8  A    between atoms: C5_22  and  O14_23 
REMARK    9  A    between atoms: C6_25  and  O15_26 
REMARK   10  A    between atoms: O15_26  and  P4_27 
ROOT
HETATM    1  C1  UNL     1      -0.335   3.511  37.938  1.00  0.00     0.182 C 
HETATM    2  C2  UNL     1      -1.065   2.522  38.810  1.00  0.00     0.199 C 
HETATM    3  C3  UNL     1      -1.559   3.361  39.974  1.00  0.00     0.200 C 
HETATM    4  C4  UNL     1      -0.338   3.634  40.814  1.00  0.00     0.199 C 
HETATM    5  C5  UNL     1       0.552   4.564  40.054  1.00  0.00     0.182 C 
HETATM    6  C6  UNL     1       0.770   4.247  38.638  1.00  0.00     0.198 C 
ENDROOT
BRANCH   2   7
HETATM    7  O2  UNL     1      -2.128   2.042  38.145  1.00  0.00    -0.272 OA
BRANCH   7   8
HETATM    8  P1  UNL     1      -2.021   0.701  37.259  1.00  0.00     0.422 P 
HETATM    9  O3  UNL     1      -2.307   1.374  35.930  1.00  0.00    -0.617 OA
HETATM   10  O4  UNL     1      -3.216  -0.402  37.179  1.00  0.00    -0.617 OA
HETATM   11  O5  UNL     1      -0.495   0.216  36.634  1.00  0.00    -0.617 OA
ENDBRANCH   7   8
ENDBRANCH   2   7
BRANCH   1  12
HETATM   12  O1  UNL     1      -1.283   4.453  37.530  1.00  0.00    -0.390 OA
ATOM     13  H1  UNL     1      -1.090   5.251  38.008  1.00  0.00     0.210 HD
ENDBRANCH   1  12
BRANCH   3  14
HETATM   14  O6  UNL     1      -2.602   2.798  40.630  1.00  0.00    -0.272 OA
BRANCH  14  15
HETATM   15  P2  UNL     1      -4.029   3.571  40.611  1.00  0.00     0.422 P 
HETATM   16  O7  UNL     1      -4.342   4.751  41.786  1.00  0.00    -0.617 OA
HETATM   17  O8  UNL     1      -3.520   4.688  39.704  1.00  0.00    -0.617 OA
HETATM   18  O9  UNL     1      -5.254   3.092  39.638  1.00  0.00    -0.617 OA
ENDBRANCH  14  15
ENDBRANCH   3  14
BRANCH   6  19
HETATM   19  O15 UNL     1       1.036   5.325  37.817  1.00  0.00    -0.272 OA
BRANCH  19  20
HETATM   20  P4  UNL     1       1.517   5.159  36.325  1.00  0.00     0.422 P 
HETATM   21  O16 UNL     1       3.067   4.604  35.931  1.00  0.00    -0.617 OA
HETATM   22  O17 UNL     1       1.989   6.611  36.150  1.00  0.00    -0.617 OA
HETATM   23  O18 UNL     1       0.460   5.377  35.030  1.00  0.00    -0.617 OA
ENDBRANCH  19  20
ENDBRANCH   6  19
BRANCH   4  24
HETATM   24  O10 UNL     1      -0.620   4.141  42.051  1.00  0.00    -0.272 OA
BRANCH  24  25
HETATM   25  P3  UNL     1      -0.670   2.929  43.157  1.00  0.00     0.422 P 
HETATM   26  O11 UNL     1      -1.970   3.451  43.777  1.00  0.00    -0.617 OA
HETATM   27  O12 UNL     1       0.605   2.327  42.556  1.00  0.00    -0.617 OA
HETATM   28  O13 UNL     1       0.081   3.182  44.621  1.00  0.00    -0.617 OA
ENDBRANCH  24  25
ENDBRANCH   4  24
BRANCH   5  29
HETATM   29  O14 UNL     1       1.780   4.544  40.755  1.00  0.00    -0.390 OA
ATOM     30  H14 UNL     1       1.537   4.513  41.672  1.00  0.00     0.210 HD
ENDBRANCH   5  29
TORSDOF 10
ENDMDL
