MODEL 4
REMARK VINA RESULT: -6.479405963      2.579      5.095
REMARK  10 active torsions:
REMARK  status: ('A' for Active; 'I' for Inactive)
REMARK    1  A    between atoms: O1_1  and  C1_3 
REMARK    2  A    between atoms: C2_4  and  O2_5 
REMARK    3  A    between atoms: O2_5  and  P1_6 
REMARK    4  A    between atoms: C3_10  and  O6_11 
REMARK    5  A    between atoms: O6_11  and  P2_12 
REMARK    6  A    between atoms: C4_16  and  O10_17 
REMARK    7  A    between atoms: O10_17  and  P3_18 
REMARK    8  A    between atoms: C5_22  and  O14_23 
REMARK    9  A    between atoms: C6_25  and  O15_26 
REMARK   10  A    between atoms: O15_26  and  P4_27 
ROOT
HETATM    1  C1  UNL     1       1.932   1.732  38.784  1.00  0.00     0.182 C 
HETATM    2  C2  UNL     1       1.756   3.110  38.201  1.00  0.00     0.199 C 
HETATM    3  C3  UNL     1       1.346   2.847  36.764  1.00  0.00     0.200 C 
HETATM    4  C4  UNL     1       2.606   2.403  36.066  1.00  0.00     0.199 C 
HETATM    5  C5  UNL     1       2.975   1.051  36.587  1.00  0.00     0.182 C 
HETATM    6  C6  UNL     1       2.917   0.875  38.044  1.00  0.00     0.198 C 
ENDROOT
BRANCH   2   7
HETATM    7  O2  UNL     1       0.745   3.732  38.829  1.00  0.00    -0.272 OA
BRANCH   7   8
HETATM    8  P1  UNL     1       0.994   4.569  40.183  1.00  0.00     0.422 P 
HETATM    9  O3  UNL     1       0.196   5.787  39.757  1.00  0.00    -0.617 OA
HETATM   10  O4  UNL     1       2.387   5.350  40.496  1.00  0.00    -0.617 OA
HETATM   11  O5  UNL     1      -0.087   4.381  41.507  1.00  0.00    -0.617 OA
ENDBRANCH   7   8
ENDBRANCH   2   7
BRANCH   1  12
HETATM   12  O1  UNL     1       0.684   1.109  38.708  1.00  0.00    -0.390 OA
ATOM     13  H1  UNL     1       0.849   0.206  38.461  1.00  0.00     0.210 HD
ENDBRANCH   1  12
BRANCH   3  14
HETATM   14  O6  UNL     1       0.705   3.895  36.194  1.00  0.00    -0.272 OA
BRANCH  14  15
HETATM   15  P2  UNL     1      -0.800   3.660  35.631  1.00  0.00     0.422 P 
HETATM   16  O7  UNL     1      -2.096   4.435  36.399  1.00  0.00    -0.617 OA
HETATM   17  O8  UNL     1      -0.729   4.846  34.673  1.00  0.00    -0.617 OA
HETATM   18  O9  UNL     1      -1.126   2.530  34.495  1.00  0.00    -0.617 OA
ENDBRANCH  14  15
ENDBRANCH   3  14
BRANCH   6  19
HETATM   19  O15 UNL     1       2.652  -0.407  38.481  1.00  0.00    -0.272 OA
BRANCH  19  20
HETATM   20  P4  UNL     1       3.791  -1.439  38.831  1.00  0.00     0.422 P 
HETATM   21  O16 UNL     1       5.321  -1.376  38.107  1.00  0.00    -0.617 OA
HETATM   22  O17 UNL     1       3.353  -2.507  37.817  1.00  0.00    -0.617 OA
HETATM   23  O18 UNL     1       3.605  -2.574  40.063  1.00  0.00    -0.617 OA
ENDBRANCH  19  20
ENDBRANCH   6  19
BRANCH   4  24
HETATM   24  O10 UNL     1       2.505   2.382  34.704  1.00  0.00    -0.272 OA
BRANCH  24  25
HETATM   25  P3  UNL     1       3.360   3.627  34.059  1.00  0.00     0.422 P 
HETATM   26  O11 UNL     1       4.644   3.215  34.786  1.00  0.00    -0.617 OA
HETATM   27  O12 UNL     1       2.124   4.067  33.267  1.00  0.00    -0.617 OA
HETATM   28  O13 UNL     1       3.393   5.063  34.901  1.00  0.00    -0.617 OA
ENDBRANCH  24  25
ENDBRANCH   4  24
BRANCH   5  29
HETATM   29  O14 UNL     1       4.291   0.829  36.119  1.00  0.00    -0.390 OA
ATOM     30  H14 UNL     1       4.617   0.108  36.643  1.00  0.00     0.210 HD
ENDBRANCH   5  29
TORSDOF 10
ENDMDL
