MODEL 9
REMARK VINA RESULT: -9.702765692      2.181     10.386
REMARK  15 active torsions:
REMARK  status: ('A' for Active; 'I' for Inactive)
REMARK    1  A    between atoms: C2_2  and  C3_3 
REMARK    2  A    between atoms: C3_3  and  C5_5 
REMARK    3  A    between atoms: C6_8  and  O1_9 
REMARK    4  A    between atoms: C7_11  and  N2_12 
REMARK    5  A    between atoms: N2_12  and  C8_15 
REMARK    6  A    between atoms: C8_15  and  C9_16 
REMARK    7  A    between atoms: C9_16  and  O2_17 
REMARK    8  A    between atoms: C9_16  and  C10_19 
REMARK    9  A    between atoms: C10_19  and  C11_20 
REMARK   10  A    between atoms: C10_19  and  N3_29 
REMARK   11  A    between atoms: C11_20  and  C12_21 
REMARK   12  A    between atoms: C15_24  and  O3_25 
REMARK       I    between atoms: N3_29  and  C18_31 
REMARK   13  A    between atoms: C18_31  and  C19_33 
REMARK   14  A    between atoms: C19_33  and  C20_34 
REMARK   15  A    between atoms: C19_33  and  N4_37 
ROOT
HETATM    1  N2  UNL     1       3.436  -1.729  14.543  1.00  0.00    -0.061 N 
ATOM      2  H21 UNL     1       3.444  -2.333  13.721  1.00  0.00     0.278 HD
ATOM      3  H22 UNL     1       2.527  -1.286  14.405  1.00  0.00     0.278 HD
ENDROOT
BRANCH   1   4
HETATM    4  C7  UNL     1       4.536  -0.735  14.497  1.00  0.00     0.263 C 
HETATM    5  C6  UNL     1       3.943   0.598  14.353  1.00  0.00     0.143 C 
HETATM    6  N1  UNL     1       3.117   1.156  13.370  1.00  0.00    -0.359 N 
HETATM    7  C5  UNL     1       3.403   1.610  12.030  1.00  0.00     0.179 C 
ATOM      8  H1  UNL     1       2.141   1.260  13.650  1.00  0.00     0.162 HD
HETATM    9  C37 UNL     1       3.390   3.122  12.022  1.00  0.00     0.240 C 
HETATM   10  N5  UNL     1       4.501   3.946  11.815  1.00  0.00    -0.359 N 
HETATM   11  O7  UNL     1       2.238   3.638  12.229  1.00  0.00    -0.271 OA
HETATM   12  C36 UNL     1       5.366   3.846  10.658  1.00  0.00     0.125 C 
ATOM     13  H5  UNL     1       4.713   4.655  12.517  1.00  0.00     0.162 HD
HETATM   14  C35 UNL     1       6.702   4.515  10.893  1.00  0.00     0.046 C 
HETATM   15  C34 UNL     1       7.818   3.976  10.039  1.00  0.00     0.177 C 
HETATM   16  O6  UNL     1       8.537   2.908  10.700  1.00  0.00    -0.351 OA
HETATM   17  C31 UNL     1       7.847   1.902  11.397  1.00  0.00     0.068 A 
HETATM   18  C30 UNL     1       7.437   0.776  10.755  1.00  0.00     0.037 A 
HETATM   19  C32 UNL     1       7.573   2.038  12.718  1.00  0.00     0.037 A 
HETATM   20  C29 UNL     1       6.726  -0.219  11.489  1.00  0.00     0.010 A 
HETATM   21  C28 UNL     1       6.425  -0.105  12.831  1.00  0.00    -0.056 A 
HETATM   22  C27 UNL     1       5.597  -1.155  13.552  1.00  0.00     0.080 C 
HETATM   23  C33 UNL     1       6.866   1.047  13.448  1.00  0.00     0.010 A 
BRANCH   5  24
HETATM   24  O1  UNL     1       4.250   1.421  15.349  1.00  0.00    -0.348 OA
ATOM     25  H1  UNL     1       3.538   1.982  15.633  1.00  0.00     0.219 HD
ENDBRANCH   5  24
BRANCH   7  26
HETATM   26  C3  UNL     1       2.312   1.188  11.057  1.00  0.00     0.013 C 
HETATM   27  C4  UNL     1       2.955   0.927   9.710  1.00  0.00     0.012 C 
BRANCH  26  28
HETATM   28  C2  UNL     1       1.610  -0.063  11.514  1.00  0.00     0.002 C 
HETATM   29  C1  UNL     1       0.282   0.266  12.163  1.00  0.00     0.005 C 
ENDBRANCH  26  28
ENDBRANCH   7  26
ENDBRANCH   1   4
BRANCH   1  30
HETATM   30  C8  UNL     1       3.467  -2.484  15.738  1.00  0.00     0.266 C 
BRANCH  30  31
HETATM   31  C9  UNL     1       3.585  -3.949  15.576  1.00  0.00     0.166 C 
BRANCH  31  32
HETATM   32  O2  UNL     1       3.004  -4.444  14.437  1.00  0.00    -0.392 OA
ATOM     33  H2  UNL     1       3.611  -4.611  13.725  1.00  0.00     0.210 HD
ENDBRANCH  31  32
BRANCH  31  34
HETATM   34  C10 UNL     1       4.837  -4.605  16.028  1.00  0.00     0.119 C 
BRANCH  34  35
HETATM   35  C11 UNL     1       6.076  -4.318  15.199  1.00  0.00     0.066 C 
BRANCH  35  36
HETATM   36  C12 UNL     1       7.339  -4.467  15.900  1.00  0.00    -0.056 A 
HETATM   37  C13 UNL     1       8.523  -4.103  15.243  1.00  0.00     0.010 A 
HETATM   38  C14 UNL     1       9.739  -4.231  15.871  1.00  0.00     0.037 A 
HETATM   39  C15 UNL     1       9.842  -4.715  17.156  1.00  0.00     0.065 A 
HETATM   40  C16 UNL     1       8.702  -5.079  17.823  1.00  0.00     0.037 A 
HETATM   41  C17 UNL     1       7.476  -4.941  17.162  1.00  0.00     0.010 A 
BRANCH  39  42
HETATM   42  O3  UNL     1      11.108  -4.832  17.771  1.00  0.00    -0.361 OA
ATOM     43  H3  UNL     1      11.775  -5.391  17.390  1.00  0.00     0.217 HD
ENDBRANCH  39  42
ENDBRANCH  35  36
ENDBRANCH  34  35
BRANCH  34  44
HETATM   44  N3  UNL     1       4.676  -6.088  15.949  1.00  0.00    -0.352 N 
HETATM   45  C18 UNL     1       4.388  -6.877  17.079  1.00  0.00     0.241 C 
HETATM   46  O4  UNL     1       4.273  -6.255  18.184  1.00  0.00    -0.271 OA
ATOM     47  H3  UNL     1       4.777  -6.546  15.043  1.00  0.00     0.163 HD
BRANCH  45  48
HETATM   48  C19 UNL     1       4.209  -8.325  17.131  1.00  0.00     0.182 C 
BRANCH  48  49
HETATM   49  C20 UNL     1       3.228  -8.822  18.157  1.00  0.00     0.009 C 
HETATM   50  C21 UNL     1       1.823  -8.321  17.962  1.00  0.00     0.012 C 
HETATM   51  C22 UNL     1       3.284 -10.301  18.307  1.00  0.00     0.012 C 
ENDBRANCH  48  49
BRANCH  48  52
HETATM   52  N4  UNL     1       5.448  -9.040  17.361  1.00  0.00    -0.338 N 
HETATM   53  C23 UNL     1       6.409  -8.889  18.425  1.00  0.00     0.127 C 
HETATM   54  C24 UNL     1       7.726  -9.216  17.713  1.00  0.00     0.029 C 
HETATM   55  C25 UNL     1       7.326 -10.463  16.954  1.00  0.00     0.104 C 
HETATM   56  C26 UNL     1       5.938 -10.065  16.521  1.00  0.00     0.220 C 
HETATM   57  O5  UNL     1       5.386 -10.629  15.540  1.00  0.00    -0.273 OA
ENDBRANCH  48  52
ENDBRANCH  45  48
ENDBRANCH  34  44
ENDBRANCH  31  34
ENDBRANCH  30  31
ENDBRANCH   1  30
TORSDOF 15
ENDMDL
