MODEL 7
REMARK VINA RESULT: -9.821158583      2.022     10.495
REMARK  15 active torsions:
REMARK  status: ('A' for Active; 'I' for Inactive)
REMARK    1  A    between atoms: C2_2  and  C3_3 
REMARK    2  A    between atoms: C3_3  and  C5_5 
REMARK    3  A    between atoms: C6_8  and  O1_9 
REMARK    4  A    between atoms: C7_11  and  N2_12 
REMARK    5  A    between atoms: N2_12  and  C8_15 
REMARK    6  A    between atoms: C8_15  and  C9_16 
REMARK    7  A    between atoms: C9_16  and  O2_17 
REMARK    8  A    between atoms: C9_16  and  C10_19 
REMARK    9  A    between atoms: C10_19  and  C11_20 
REMARK   10  A    between atoms: C10_19  and  N3_29 
REMARK   11  A    between atoms: C11_20  and  C12_21 
REMARK   12  A    between atoms: C15_24  and  O3_25 
REMARK       I    between atoms: N3_29  and  C18_31 
REMARK   13  A    between atoms: C18_31  and  C19_33 
REMARK   14  A    between atoms: C19_33  and  C20_34 
REMARK   15  A    between atoms: C19_33  and  N4_37 
ROOT
HETATM    1  N2  UNL     1       4.397  -2.494  14.335  1.00  0.00    -0.061 N 
ATOM      2  H21 UNL     1       4.968  -3.335  14.413  1.00  0.00     0.278 HD
ATOM      3  H22 UNL     1       4.048  -2.626  13.386  1.00  0.00     0.278 HD
ENDROOT
BRANCH   1   4
HETATM    4  C7  UNL     1       5.224  -1.266  14.441  1.00  0.00     0.263 C 
HETATM    5  C6  UNL     1       4.338  -0.105  14.323  1.00  0.00     0.143 C 
HETATM    6  N1  UNL     1       3.473   0.315  13.305  1.00  0.00    -0.359 N 
HETATM    7  C5  UNL     1       3.734   0.925  12.023  1.00  0.00     0.179 C 
ATOM      8  H1  UNL     1       2.484   0.163  13.504  1.00  0.00     0.162 HD
HETATM    9  C37 UNL     1       3.357   2.386  12.100  1.00  0.00     0.240 C 
HETATM   10  N5  UNL     1       4.247   3.463  12.038  1.00  0.00    -0.359 N 
HETATM   11  O7  UNL     1       2.103   2.598  12.235  1.00  0.00    -0.271 OA
HETATM   12  C36 UNL     1       5.190   3.659  10.957  1.00  0.00     0.125 C 
ATOM     13  H5  UNL     1       4.231   4.147  12.794  1.00  0.00     0.162 HD
HETATM   14  C35 UNL     1       6.304   4.606  11.345  1.00  0.00     0.046 C 
HETATM   15  C34 UNL     1       7.575   4.413  10.561  1.00  0.00     0.177 C 
HETATM   16  O6  UNL     1       8.483   3.499  11.220  1.00  0.00    -0.351 OA
HETATM   17  C31 UNL     1       8.009   2.308  11.796  1.00  0.00     0.068 A 
HETATM   18  C30 UNL     1       7.930   1.169  11.058  1.00  0.00     0.037 A 
HETATM   19  C32 UNL     1       7.618   2.274  13.095  1.00  0.00     0.037 A 
HETATM   20  C29 UNL     1       7.432  -0.019  11.670  1.00  0.00     0.010 A 
HETATM   21  C28 UNL     1       7.018  -0.082  12.985  1.00  0.00    -0.056 A 
HETATM   22  C27 UNL     1       6.420  -1.350  13.570  1.00  0.00     0.080 C 
HETATM   23  C33 UNL     1       7.122   1.091  13.703  1.00  0.00     0.010 A 
BRANCH   5  24
HETATM   24  O1  UNL     1       4.365   0.689  15.387  1.00  0.00    -0.348 OA
ATOM     25  H1  UNL     1       4.876   1.482  15.276  1.00  0.00     0.219 HD
ENDBRANCH   5  24
BRANCH   7  26
HETATM   26  C3  UNL     1       2.850   0.331  10.936  1.00  0.00     0.013 C 
HETATM   27  C4  UNL     1       1.438   0.233  11.478  1.00  0.00     0.012 C 
BRANCH  26  28
HETATM   28  C2  UNL     1       2.841   1.184   9.696  1.00  0.00     0.002 C 
HETATM   29  C1  UNL     1       1.490   1.135   9.014  1.00  0.00     0.005 C 
ENDBRANCH  26  28
ENDBRANCH   7  26
ENDBRANCH   1   4
BRANCH   1  30
HETATM   30  C8  UNL     1       3.345  -2.495  15.278  1.00  0.00     0.266 C 
BRANCH  30  31
HETATM   31  C9  UNL     1       3.693  -2.958  16.638  1.00  0.00     0.166 C 
BRANCH  31  32
HETATM   32  O2  UNL     1       2.896  -2.452  17.633  1.00  0.00    -0.392 OA
ATOM     33  H2  UNL     1       2.672  -3.076  18.314  1.00  0.00     0.210 HD
ENDBRANCH  31  32
BRANCH  31  34
HETATM   34  C10 UNL     1       4.165  -4.355  16.804  1.00  0.00     0.119 C 
BRANCH  34  35
HETATM   35  C11 UNL     1       3.373  -5.214  17.773  1.00  0.00     0.066 C 
BRANCH  35  36
HETATM   36  C12 UNL     1       3.344  -6.632  17.463  1.00  0.00    -0.056 A 
HETATM   37  C13 UNL     1       2.572  -7.484  18.267  1.00  0.00     0.010 A 
HETATM   38  C14 UNL     1       2.520  -8.832  18.009  1.00  0.00     0.037 A 
HETATM   39  C15 UNL     1       3.215  -9.395  16.962  1.00  0.00     0.065 A 
HETATM   40  C16 UNL     1       3.978  -8.589  16.159  1.00  0.00     0.037 A 
HETATM   41  C17 UNL     1       4.016  -7.219  16.443  1.00  0.00     0.010 A 
BRANCH  39  42
HETATM   42  O3  UNL     1       3.138 -10.786  16.724  1.00  0.00    -0.361 OA
ATOM     43  H3  UNL     1       3.145 -11.396  17.452  1.00  0.00     0.217 HD
ENDBRANCH  39  42
ENDBRANCH  35  36
ENDBRANCH  34  35
BRANCH  34  44
HETATM   44  N3  UNL     1       5.550  -4.348  17.364  1.00  0.00    -0.352 N 
HETATM   45  C18 UNL     1       6.694  -4.441  16.549  1.00  0.00     0.241 C 
HETATM   46  O4  UNL     1       6.485  -4.533  15.296  1.00  0.00    -0.271 OA
ATOM     47  H3  UNL     1       5.672  -4.273  18.374  1.00  0.00     0.163 HD
BRANCH  45  48
HETATM   48  C19 UNL     1       8.091  -4.444  16.972  1.00  0.00     0.182 C 
BRANCH  48  49
HETATM   49  C20 UNL     1       9.083  -3.965  15.949  1.00  0.00     0.009 C 
HETATM   50  C21 UNL     1       8.877  -4.539  14.574  1.00  0.00     0.012 C 
HETATM   51  C22 UNL     1       9.188  -2.481  15.931  1.00  0.00     0.012 C 
ENDBRANCH  48  49
BRANCH  48  52
HETATM   52  N4  UNL     1       8.545  -5.749  17.410  1.00  0.00    -0.338 N 
HETATM   53  C23 UNL     1       9.670  -6.527  16.957  1.00  0.00     0.127 C 
HETATM   54  C24 UNL     1       9.151  -7.960  17.114  1.00  0.00     0.029 C 
HETATM   55  C25 UNL     1       8.536  -7.880  18.495  1.00  0.00     0.104 C 
HETATM   56  C26 UNL     1       7.911  -6.511  18.417  1.00  0.00     0.220 C 
HETATM   57  O5  UNL     1       6.966  -6.193  19.187  1.00  0.00    -0.273 OA
ENDBRANCH  48  52
ENDBRANCH  45  48
ENDBRANCH  34  44
ENDBRANCH  31  34
ENDBRANCH  30  31
ENDBRANCH   1  30
TORSDOF 15
ENDMDL
