MODEL 5
REMARK VINA RESULT: -9.891235184      1.962      4.577
REMARK  15 active torsions:
REMARK  status: ('A' for Active; 'I' for Inactive)
REMARK    1  A    between atoms: C2_2  and  C3_3 
REMARK    2  A    between atoms: C3_3  and  C5_5 
REMARK    3  A    between atoms: C6_8  and  O1_9 
REMARK    4  A    between atoms: C7_11  and  N2_12 
REMARK    5  A    between atoms: N2_12  and  C8_15 
REMARK    6  A    between atoms: C8_15  and  C9_16 
REMARK    7  A    between atoms: C9_16  and  O2_17 
REMARK    8  A    between atoms: C9_16  and  C10_19 
REMARK    9  A    between atoms: C10_19  and  C11_20 
REMARK   10  A    between atoms: C10_19  and  N3_29 
REMARK   11  A    between atoms: C11_20  and  C12_21 
REMARK   12  A    between atoms: C15_24  and  O3_25 
REMARK       I    between atoms: N3_29  and  C18_31 
REMARK   13  A    between atoms: C18_31  and  C19_33 
REMARK   14  A    between atoms: C19_33  and  C20_34 
REMARK   15  A    between atoms: C19_33  and  N4_37 
ROOT
HETATM    1  N2  UNL     1       4.590   0.937  13.239  1.00  0.00    -0.061 N 
ATOM      2  H21 UNL     1       5.115   0.367  12.575  1.00  0.00     0.278 HD
ATOM      3  H22 UNL     1       5.321   1.604  13.486  1.00  0.00     0.278 HD
ENDROOT
BRANCH   1   4
HETATM    4  C7  UNL     1       4.161   0.142  14.416  1.00  0.00     0.263 C 
HETATM    5  C6  UNL     1       5.338  -0.106  15.255  1.00  0.00     0.143 C 
HETATM    6  N1  UNL     1       6.553  -0.752  14.999  1.00  0.00    -0.359 N 
HETATM    7  C5  UNL     1       6.881  -2.152  14.875  1.00  0.00     0.179 C 
ATOM      8  H1  UNL     1       7.347  -0.123  14.878  1.00  0.00     0.162 HD
HETATM    9  C37 UNL     1       7.622  -2.584  16.120  1.00  0.00     0.240 C 
HETATM   10  N5  UNL     1       7.144  -3.473  17.088  1.00  0.00    -0.359 N 
HETATM   11  O7  UNL     1       8.781  -2.058  16.249  1.00  0.00    -0.271 OA
HETATM   12  C36 UNL     1       6.672  -4.808  16.783  1.00  0.00     0.125 C 
ATOM     13  H5  UNL     1       7.127  -3.165  18.060  1.00  0.00     0.162 HD
HETATM   14  C35 UNL     1       5.816  -5.371  17.896  1.00  0.00     0.046 C 
HETATM   15  C34 UNL     1       4.844  -6.429  17.448  1.00  0.00     0.177 C 
HETATM   16  O6  UNL     1       3.556  -5.868  17.102  1.00  0.00    -0.351 OA
HETATM   17  C31 UNL     1       3.467  -4.688  16.344  1.00  0.00     0.068 A 
HETATM   18  C30 UNL     1       3.434  -4.742  14.986  1.00  0.00     0.037 A 
HETATM   19  C32 UNL     1       3.419  -3.477  16.952  1.00  0.00     0.037 A 
HETATM   20  C29 UNL     1       3.358  -3.524  14.247  1.00  0.00     0.010 A 
HETATM   21  C28 UNL     1       3.317  -2.277  14.837  1.00  0.00    -0.056 A 
HETATM   22  C27 UNL     1       3.316  -1.004  14.007  1.00  0.00     0.080 C 
HETATM   23  C33 UNL     1       3.343  -2.265  16.216  1.00  0.00     0.010 A 
BRANCH   5  24
HETATM   24  O1  UNL     1       5.219   0.382  16.484  1.00  0.00    -0.348 OA
ATOM     25  H1  UNL     1       5.233   1.330  16.537  1.00  0.00     0.219 HD
ENDBRANCH   5  24
BRANCH   7  26
HETATM   26  C3  UNL     1       7.842  -2.397  13.721  1.00  0.00     0.013 C 
HETATM   27  C4  UNL     1       7.953  -3.893  13.509  1.00  0.00     0.012 C 
BRANCH  26  28
HETATM   28  C2  UNL     1       7.360  -1.756  12.448  1.00  0.00     0.002 C 
HETATM   29  C1  UNL     1       6.020  -2.324  12.028  1.00  0.00     0.005 C 
ENDBRANCH  26  28
ENDBRANCH   7  26
ENDBRANCH   1   4
BRANCH   1  30
HETATM   30  C8  UNL     1       3.495   1.577  12.617  1.00  0.00     0.266 C 
BRANCH  30  31
HETATM   31  C9  UNL     1       3.277   1.250  11.192  1.00  0.00     0.166 C 
BRANCH  31  32
HETATM   32  O2  UNL     1       2.360   0.254  10.970  1.00  0.00    -0.392 OA
ATOM     33  H2  UNL     1       2.739  -0.586  10.738  1.00  0.00     0.210 HD
ENDBRANCH  31  32
BRANCH  31  34
HETATM   34  C10 UNL     1       3.312   2.358  10.204  1.00  0.00     0.119 C 
BRANCH  34  35
HETATM   35  C11 UNL     1       2.442   2.179   8.973  1.00  0.00     0.066 C 
BRANCH  35  36
HETATM   36  C12 UNL     1       2.163   3.396   8.231  1.00  0.00    -0.056 A 
HETATM   37  C13 UNL     1       1.938   4.584   8.942  1.00  0.00     0.010 A 
HETATM   38  C14 UNL     1       1.668   5.756   8.278  1.00  0.00     0.037 A 
HETATM   39  C15 UNL     1       1.608   5.811   6.903  1.00  0.00     0.065 A 
HETATM   40  C16 UNL     1       1.823   4.667   6.182  1.00  0.00     0.037 A 
HETATM   41  C17 UNL     1       2.096   3.485   6.881  1.00  0.00     0.010 A 
BRANCH  39  42
HETATM   42  O3  UNL     1       1.330   7.034   6.253  1.00  0.00    -0.361 OA
ATOM     43  H3  UNL     1       1.956   7.403   5.642  1.00  0.00     0.217 HD
ENDBRANCH  39  42
ENDBRANCH  35  36
ENDBRANCH  34  35
BRANCH  34  44
HETATM   44  N3  UNL     1       4.698   2.493   9.661  1.00  0.00    -0.352 N 
HETATM   45  C18 UNL     1       5.489   3.634   9.890  1.00  0.00     0.241 C 
HETATM   46  O4  UNL     1       4.958   4.555  10.591  1.00  0.00    -0.271 OA
ATOM     47  H3  UNL     1       5.084   1.731   9.105  1.00  0.00     0.163 HD
BRANCH  45  48
HETATM   48  C19 UNL     1       6.847   3.884   9.417  1.00  0.00     0.182 C 
BRANCH  48  49
HETATM   49  C20 UNL     1       6.977   4.216   7.956  1.00  0.00     0.009 C 
HETATM   50  C21 UNL     1       5.670   4.518   7.273  1.00  0.00     0.012 C 
HETATM   51  C22 UNL     1       7.997   5.271   7.714  1.00  0.00     0.012 C 
ENDBRANCH  48  49
BRANCH  48  52
HETATM   52  N4  UNL     1       7.748   2.778   9.672  1.00  0.00    -0.338 N 
HETATM   53  C23 UNL     1       8.781   2.225   8.833  1.00  0.00     0.127 C 
HETATM   54  C24 UNL     1       8.740   0.741   9.214  1.00  0.00     0.029 C 
HETATM   55  C25 UNL     1       8.687   0.846  10.723  1.00  0.00     0.104 C 
HETATM   56  C26 UNL     1       7.752   2.020  10.865  1.00  0.00     0.220 C 
HETATM   57  O5  UNL     1       7.115   2.207  11.935  1.00  0.00    -0.273 OA
ENDBRANCH  48  52
ENDBRANCH  45  48
ENDBRANCH  34  44
ENDBRANCH  31  34
ENDBRANCH  30  31
ENDBRANCH   1  30
TORSDOF 15
ENDMDL
