MODEL 6
REMARK VINA RESULT: -9.882399461      1.380      1.902
REMARK  15 active torsions:
REMARK  status: ('A' for Active; 'I' for Inactive)
REMARK    1  A    between atoms: C2_2  and  C3_3 
REMARK    2  A    between atoms: C3_3  and  C5_5 
REMARK    3  A    between atoms: C6_8  and  O1_9 
REMARK    4  A    between atoms: C7_11  and  N2_12 
REMARK    5  A    between atoms: N2_12  and  C8_15 
REMARK    6  A    between atoms: C8_15  and  C9_16 
REMARK    7  A    between atoms: C9_16  and  O2_17 
REMARK    8  A    between atoms: C9_16  and  C10_19 
REMARK    9  A    between atoms: C10_19  and  C11_20 
REMARK   10  A    between atoms: C10_19  and  N3_29 
REMARK   11  A    between atoms: C11_20  and  C12_21 
REMARK   12  A    between atoms: C15_24  and  O3_25 
REMARK       I    between atoms: N3_29  and  C18_31 
REMARK   13  A    between atoms: C18_31  and  C19_33 
REMARK   14  A    between atoms: C19_33  and  C20_34 
REMARK   15  A    between atoms: C19_33  and  N4_37 
ROOT
HETATM    1  N2  UNL     1       4.257  -0.883  14.261  1.00  0.00    -0.061 N 
ATOM      2  H21 UNL     1       5.115  -0.341  14.367  1.00  0.00     0.278 HD
ATOM      3  H22 UNL     1       3.591  -0.114  14.195  1.00  0.00     0.278 HD
ENDROOT
BRANCH   1   4
HETATM    4  C7  UNL     1       3.997  -1.725  15.454  1.00  0.00     0.263 C 
HETATM    5  C6  UNL     1       5.253  -1.869  16.196  1.00  0.00     0.143 C 
HETATM    6  N1  UNL     1       6.499  -2.397  15.838  1.00  0.00    -0.359 N 
HETATM    7  C5  UNL     1       6.944  -3.760  15.668  1.00  0.00     0.179 C 
ATOM      8  H1  UNL     1       7.220  -1.696  15.667  1.00  0.00     0.162 HD
HETATM    9  C37 UNL     1       7.816  -4.131  16.844  1.00  0.00     0.240 C 
HETATM   10  N5  UNL     1       7.499  -5.069  17.832  1.00  0.00    -0.359 N 
HETATM   11  O7  UNL     1       8.929  -3.501  16.892  1.00  0.00    -0.271 OA
HETATM   12  C36 UNL     1       7.130  -6.439  17.544  1.00  0.00     0.125 C 
ATOM     13  H5  UNL     1       7.529  -4.773  18.807  1.00  0.00     0.162 HD
HETATM   14  C35 UNL     1       6.419  -7.089  18.710  1.00  0.00     0.046 C 
HETATM   15  C34 UNL     1       5.516  -8.230  18.321  1.00  0.00     0.177 C 
HETATM   16  O6  UNL     1       4.159  -7.788  18.083  1.00  0.00    -0.351 OA
HETATM   17  C31 UNL     1       3.903  -6.615  17.354  1.00  0.00     0.068 A 
HETATM   18  C30 UNL     1       3.769  -6.660  16.002  1.00  0.00     0.037 A 
HETATM   19  C32 UNL     1       3.791  -5.419  17.983  1.00  0.00     0.037 A 
HETATM   20  C29 UNL     1       3.524  -5.448  15.290  1.00  0.00     0.010 A 
HETATM   21  C28 UNL     1       3.414  -4.216  15.901  1.00  0.00    -0.056 A 
HETATM   22  C27 UNL     1       3.231  -2.941  15.094  1.00  0.00     0.080 C 
HETATM   23  C33 UNL     1       3.547  -4.213  17.274  1.00  0.00     0.010 A 
BRANCH   5  24
HETATM   24  O1  UNL     1       5.186  -1.405  17.439  1.00  0.00    -0.348 OA
ATOM     25  H1  UNL     1       4.657  -0.622  17.541  1.00  0.00     0.219 HD
ENDBRANCH   5  24
BRANCH   7  26
HETATM   26  C3  UNL     1       7.830  -3.904  14.439  1.00  0.00     0.013 C 
HETATM   27  C4  UNL     1       8.416  -2.544  14.117  1.00  0.00     0.012 C 
BRANCH  26  28
HETATM   28  C2  UNL     1       8.954  -4.877  14.674  1.00  0.00     0.002 C 
HETATM   29  C1  UNL     1      10.175  -4.503  13.860  1.00  0.00     0.005 C 
ENDBRANCH  26  28
ENDBRANCH   7  26
ENDBRANCH   1   4
BRANCH   1  30
HETATM   30  C8  UNL     1       4.277  -1.653  13.076  1.00  0.00     0.266 C 
BRANCH  30  31
HETATM   31  C9  UNL     1       5.476  -1.501  12.224  1.00  0.00     0.166 C 
BRANCH  31  32
HETATM   32  O2  UNL     1       5.798  -2.615  11.492  1.00  0.00    -0.392 OA
ATOM     33  H2  UNL     1       6.169  -2.431  10.637  1.00  0.00     0.210 HD
ENDBRANCH  31  32
BRANCH  31  34
HETATM   34  C10 UNL     1       5.719  -0.185  11.583  1.00  0.00     0.119 C 
BRANCH  34  35
HETATM   35  C11 UNL     1       7.003   0.520  11.979  1.00  0.00     0.066 C 
BRANCH  35  36
HETATM   36  C12 UNL     1       7.275   1.757  11.267  1.00  0.00    -0.056 A 
HETATM   37  C13 UNL     1       7.479   1.706   9.880  1.00  0.00     0.010 A 
HETATM   38  C14 UNL     1       7.741   2.853   9.170  1.00  0.00     0.037 A 
HETATM   39  C15 UNL     1       7.813   4.083   9.784  1.00  0.00     0.065 A 
HETATM   40  C16 UNL     1       7.619   4.164  11.138  1.00  0.00     0.037 A 
HETATM   41  C17 UNL     1       7.355   2.982  11.840  1.00  0.00     0.010 A 
BRANCH  39  42
HETATM   42  O3  UNL     1       8.083   5.243   9.022  1.00  0.00    -0.361 OA
ATOM     43  H3  UNL     1       8.017   6.102   9.421  1.00  0.00     0.217 HD
ENDBRANCH  39  42
ENDBRANCH  35  36
ENDBRANCH  34  35
BRANCH  34  44
HETATM   44  N3  UNL     1       4.637   0.766  11.979  1.00  0.00    -0.352 N 
HETATM   45  C18 UNL     1       3.556   1.073  11.132  1.00  0.00     0.241 C 
HETATM   46  O4  UNL     1       3.547   0.493   9.999  1.00  0.00    -0.271 OA
ATOM     47  H3  UNL     1       4.684   1.210  12.896  1.00  0.00     0.163 HD
BRANCH  45  48
HETATM   48  C19 UNL     1       2.444   1.980  11.401  1.00  0.00     0.182 C 
BRANCH  48  49
HETATM   49  C20 UNL     1       1.105   1.326  11.604  1.00  0.00     0.009 C 
HETATM   50  C21 UNL     1       1.158   0.041  12.385  1.00  0.00     0.012 C 
HETATM   51  C22 UNL     1       0.100   2.277  12.150  1.00  0.00     0.012 C 
ENDBRANCH  48  49
BRANCH  48  52
HETATM   52  N4  UNL     1       2.266   2.978  10.366  1.00  0.00    -0.338 N 
HETATM   53  C23 UNL     1       1.485   2.914   9.156  1.00  0.00     0.127 C 
HETATM   54  C24 UNL     1       2.316   3.771   8.195  1.00  0.00     0.029 C 
HETATM   55  C25 UNL     1       2.615   4.963   9.078  1.00  0.00     0.104 C 
HETATM   56  C26 UNL     1       2.870   4.255  10.384  1.00  0.00     0.220 C 
HETATM   57  O5  UNL     1       3.538   4.812  11.296  1.00  0.00    -0.273 OA
ENDBRANCH  48  52
ENDBRANCH  45  48
ENDBRANCH  34  44
ENDBRANCH  31  34
ENDBRANCH  30  31
ENDBRANCH   1  30
TORSDOF 15
ENDMDL
