MODEL 3
REMARK VINA RESULT: -10.006798143      1.216      1.768
REMARK  15 active torsions:
REMARK  status: ('A' for Active; 'I' for Inactive)
REMARK    1  A    between atoms: C2_2  and  C3_3 
REMARK    2  A    between atoms: C3_3  and  C5_5 
REMARK    3  A    between atoms: C6_8  and  O1_9 
REMARK    4  A    between atoms: C7_11  and  N2_12 
REMARK    5  A    between atoms: N2_12  and  C8_15 
REMARK    6  A    between atoms: C8_15  and  C9_16 
REMARK    7  A    between atoms: C9_16  and  O2_17 
REMARK    8  A    between atoms: C9_16  and  C10_19 
REMARK    9  A    between atoms: C10_19  and  C11_20 
REMARK   10  A    between atoms: C10_19  and  N3_29 
REMARK   11  A    between atoms: C11_20  and  C12_21 
REMARK   12  A    between atoms: C15_24  and  O3_25 
REMARK       I    between atoms: N3_29  and  C18_31 
REMARK   13  A    between atoms: C18_31  and  C19_33 
REMARK   14  A    between atoms: C19_33  and  C20_34 
REMARK   15  A    between atoms: C19_33  and  N4_37 
ROOT
HETATM    1  N2  UNL     1       5.986  -1.145  13.854  1.00  0.00    -0.061 N 
ATOM      2  H21 UNL     1       5.387  -0.698  13.159  1.00  0.00     0.278 HD
ATOM      3  H22 UNL     1       6.384  -1.881  13.271  1.00  0.00     0.278 HD
ENDROOT
BRANCH   1   4
HETATM    4  C7  UNL     1       5.191  -1.709  14.972  1.00  0.00     0.263 C 
HETATM    5  C6  UNL     1       6.113  -2.062  16.057  1.00  0.00     0.143 C 
HETATM    6  N1  UNL     1       7.203  -2.939  16.113  1.00  0.00    -0.359 N 
HETATM    7  C5  UNL     1       7.264  -4.380  16.170  1.00  0.00     0.179 C 
ATOM      8  H1  UNL     1       8.113  -2.480  16.113  1.00  0.00     0.162 HD
HETATM    9  C37 UNL     1       7.653  -4.789  17.573  1.00  0.00     0.240 C 
HETATM   10  N5  UNL     1       6.832  -5.460  18.485  1.00  0.00    -0.359 N 
HETATM   11  O7  UNL     1       8.847  -4.467  17.901  1.00  0.00    -0.271 OA
HETATM   12  C36 UNL     1       6.173  -6.716  18.192  1.00  0.00     0.125 C 
ATOM     13  H5  UNL     1       6.690  -5.043  19.404  1.00  0.00     0.162 HD
HETATM   14  C35 UNL     1       5.026  -6.985  19.141  1.00  0.00     0.046 C 
HETATM   15  C34 UNL     1       3.968  -7.898  18.582  1.00  0.00     0.177 C 
HETATM   16  O6  UNL     1       2.907  -7.162  17.930  1.00  0.00    -0.351 OA
HETATM   17  C31 UNL     1       3.200  -6.081  17.081  1.00  0.00     0.068 A 
HETATM   18  C30 UNL     1       3.418  -6.285  15.755  1.00  0.00     0.037 A 
HETATM   19  C32 UNL     1       3.277  -4.818  17.570  1.00  0.00     0.037 A 
HETATM   20  C29 UNL     1       3.727  -5.167  14.924  1.00  0.00     0.010 A 
HETATM   21  C28 UNL     1       3.820  -3.873  15.394  1.00  0.00    -0.056 A 
HETATM   22  C27 UNL     1       4.230  -2.726  14.486  1.00  0.00     0.080 C 
HETATM   23  C33 UNL     1       3.584  -3.706  16.742  1.00  0.00     0.010 A 
BRANCH   5  24
HETATM   24  O1  UNL     1       5.859  -1.422  17.192  1.00  0.00    -0.348 OA
ATOM     25  H1  UNL     1       5.137  -0.806  17.146  1.00  0.00     0.219 HD
ENDBRANCH   5  24
BRANCH   7  26
HETATM   26  C3  UNL     1       8.361  -4.924  15.267  1.00  0.00     0.013 C 
HETATM   27  C4  UNL     1       8.095  -4.439  13.856  1.00  0.00     0.012 C 
BRANCH  26  28
HETATM   28  C2  UNL     1       9.724  -4.453  15.698  1.00  0.00     0.002 C 
HETATM   29  C1  UNL     1      10.367  -3.599  14.625  1.00  0.00     0.005 C 
ENDBRANCH  26  28
ENDBRANCH   7  26
ENDBRANCH   1   4
BRANCH   1  30
HETATM   30  C8  UNL     1       6.985  -0.260  14.320  1.00  0.00     0.266 C 
BRANCH  30  31
HETATM   31  C9  UNL     1       6.771   1.173  14.022  1.00  0.00     0.166 C 
BRANCH  31  32
HETATM   32  O2  UNL     1       7.668   2.018  14.623  1.00  0.00    -0.392 OA
ATOM     33  H2  UNL     1       8.270   1.593  15.223  1.00  0.00     0.210 HD
ENDBRANCH  31  32
BRANCH  31  34
HETATM   34  C10 UNL     1       6.310   1.545  12.662  1.00  0.00     0.119 C 
BRANCH  34  35
HETATM   35  C11 UNL     1       7.064   2.679  11.990  1.00  0.00     0.066 C 
BRANCH  35  36
HETATM   36  C12 UNL     1       7.313   2.501  10.570  1.00  0.00    -0.056 A 
HETATM   37  C13 UNL     1       8.131   1.440  10.156  1.00  0.00     0.010 A 
HETATM   38  C14 UNL     1       8.393   1.239   8.822  1.00  0.00     0.037 A 
HETATM   39  C15 UNL     1       7.869   2.062   7.850  1.00  0.00     0.065 A 
HETATM   40  C16 UNL     1       7.066   3.107   8.225  1.00  0.00     0.037 A 
HETATM   41  C17 UNL     1       6.814   3.292   9.589  1.00  0.00     0.010 A 
BRANCH  39  42
HETATM   42  O3  UNL     1       8.158   1.825   6.487  1.00  0.00    -0.361 OA
ATOM     43  H3  UNL     1       7.515   2.033   5.820  1.00  0.00     0.217 HD
ENDBRANCH  39  42
ENDBRANCH  35  36
ENDBRANCH  34  35
BRANCH  34  44
HETATM   44  N3  UNL     1       4.899   2.031  12.733  1.00  0.00    -0.352 N 
HETATM   45  C18 UNL     1       3.814   1.272  12.256  1.00  0.00     0.241 C 
HETATM   46  O4  UNL     1       4.100   0.138  11.753  1.00  0.00    -0.271 OA
ATOM     47  H3  UNL     1       4.715   2.947  13.143  1.00  0.00     0.163 HD
BRANCH  45  48
HETATM   48  C19 UNL     1       2.400   1.635  12.268  1.00  0.00     0.182 C 
BRANCH  48  49
HETATM   49  C20 UNL     1       1.472   0.618  12.874  1.00  0.00     0.009 C 
HETATM   50  C21 UNL     1       1.984  -0.004  14.145  1.00  0.00     0.012 C 
HETATM   51  C22 UNL     1       0.090   1.146  13.021  1.00  0.00     0.012 C 
ENDBRANCH  48  49
BRANCH  48  52
HETATM   52  N4  UNL     1       1.882   1.935  10.948  1.00  0.00    -0.338 N 
HETATM   53  C23 UNL     1       1.778   1.083   9.790  1.00  0.00     0.127 C 
HETATM   54  C24 UNL     1       1.987   2.078   8.644  1.00  0.00     0.029 C 
HETATM   55  C25 UNL     1       1.079   3.204   9.088  1.00  0.00     0.104 C 
HETATM   56  C26 UNL     1       1.362   3.192  10.568  1.00  0.00     0.220 C 
HETATM   57  O5  UNL     1       1.132   4.210  11.274  1.00  0.00    -0.273 OA
ENDBRANCH  48  52
ENDBRANCH  45  48
ENDBRANCH  34  44
ENDBRANCH  31  34
ENDBRANCH  30  31
ENDBRANCH   1  30
TORSDOF 15
ENDMDL
