MODEL 1
REMARK VINA RESULT: -10.162355075      0.000      0.000
REMARK  15 active torsions:
REMARK  status: ('A' for Active; 'I' for Inactive)
REMARK    1  A    between atoms: C2_2  and  C3_3 
REMARK    2  A    between atoms: C3_3  and  C5_5 
REMARK    3  A    between atoms: C6_8  and  O1_9 
REMARK    4  A    between atoms: C7_11  and  N2_12 
REMARK    5  A    between atoms: N2_12  and  C8_15 
REMARK    6  A    between atoms: C8_15  and  C9_16 
REMARK    7  A    between atoms: C9_16  and  O2_17 
REMARK    8  A    between atoms: C9_16  and  C10_19 
REMARK    9  A    between atoms: C10_19  and  C11_20 
REMARK   10  A    between atoms: C10_19  and  N3_29 
REMARK   11  A    between atoms: C11_20  and  C12_21 
REMARK   12  A    between atoms: C15_24  and  O3_25 
REMARK       I    between atoms: N3_29  and  C18_31 
REMARK   13  A    between atoms: C18_31  and  C19_33 
REMARK   14  A    between atoms: C19_33  and  C20_34 
REMARK   15  A    between atoms: C19_33  and  N4_37 
ROOT
HETATM    1  N2  UNL     1       4.588  -0.512  14.448  1.00  0.00    -0.061 N 
ATOM      2  H21 UNL     1       3.765  -0.401  13.856  1.00  0.00     0.278 HD
ATOM      3  H22 UNL     1       5.226  -0.912  13.760  1.00  0.00     0.278 HD
ENDROOT
BRANCH   1   4
HETATM    4  C7  UNL     1       4.330  -1.457  15.563  1.00  0.00     0.263 C 
HETATM    5  C6  UNL     1       5.580  -1.639  16.307  1.00  0.00     0.143 C 
HETATM    6  N1  UNL     1       6.840  -2.111  15.921  1.00  0.00    -0.359 N 
HETATM    7  C5  UNL     1       7.314  -3.446  15.642  1.00  0.00     0.179 C 
ATOM      8  H1  UNL     1       7.549  -1.385  15.820  1.00  0.00     0.162 HD
HETATM    9  C37 UNL     1       8.180  -3.900  16.795  1.00  0.00     0.240 C 
HETATM   10  N5  UNL     1       7.870  -4.924  17.695  1.00  0.00    -0.359 N 
HETATM   11  O7  UNL     1       9.279  -3.255  16.910  1.00  0.00    -0.271 OA
HETATM   12  C36 UNL     1       7.531  -6.272  17.287  1.00  0.00     0.125 C 
ATOM     13  H5  UNL     1       7.883  -4.711  18.692  1.00  0.00     0.162 HD
HETATM   14  C35 UNL     1       6.820  -7.031  18.384  1.00  0.00     0.046 C 
HETATM   15  C34 UNL     1       5.945  -8.151  17.888  1.00  0.00     0.177 C 
HETATM   16  O6  UNL     1       4.582  -7.717  17.670  1.00  0.00    -0.351 OA
HETATM   17  C31 UNL     1       4.311  -6.491  17.040  1.00  0.00     0.068 A 
HETATM   18  C30 UNL     1       4.194  -6.423  15.687  1.00  0.00     0.037 A 
HETATM   19  C32 UNL     1       4.168  -5.355  17.766  1.00  0.00     0.037 A 
HETATM   20  C29 UNL     1       3.933  -5.160  15.077  1.00  0.00     0.010 A 
HETATM   21  C28 UNL     1       3.791  -3.986  15.789  1.00  0.00    -0.056 A 
HETATM   22  C27 UNL     1       3.593  -2.652  15.090  1.00  0.00     0.080 C 
HETATM   23  C33 UNL     1       3.908  -4.098  17.159  1.00  0.00     0.010 A 
BRANCH   5  24
HETATM   24  O1  UNL     1       5.489  -1.284  17.583  1.00  0.00    -0.348 OA
ATOM     25  H1  UNL     1       5.997  -0.517  17.817  1.00  0.00     0.219 HD
ENDBRANCH   5  24
BRANCH   7  26
HETATM   26  C3  UNL     1       8.218  -3.469  14.418  1.00  0.00     0.013 C 
HETATM   27  C4  UNL     1       8.738  -4.881  14.242  1.00  0.00     0.012 C 
BRANCH  26  28
HETATM   28  C2  UNL     1       7.480  -3.060  13.172  1.00  0.00     0.002 C 
HETATM   29  C1  UNL     1       7.992  -1.734  12.649  1.00  0.00     0.005 C 
ENDBRANCH  26  28
ENDBRANCH   7  26
ENDBRANCH   1   4
BRANCH   1  30
HETATM   30  C8  UNL     1       5.055   0.735  14.921  1.00  0.00     0.266 C 
BRANCH  30  31
HETATM   31  C9  UNL     1       6.271   1.263  14.266  1.00  0.00     0.166 C 
BRANCH  31  32
HETATM   32  O2  UNL     1       7.448   0.821  14.812  1.00  0.00    -0.392 OA
ATOM     33  H2  UNL     1       8.192   0.852  14.222  1.00  0.00     0.210 HD
ENDBRANCH  31  32
BRANCH  31  34
HETATM   34  C10 UNL     1       6.247   1.457  12.795  1.00  0.00     0.119 C 
BRANCH  34  35
HETATM   35  C11 UNL     1       7.262   2.438  12.237  1.00  0.00     0.066 C 
BRANCH  35  36
HETATM   36  C12 UNL     1       7.557   2.285  10.823  1.00  0.00    -0.056 A 
HETATM   37  C13 UNL     1       7.205   3.320   9.944  1.00  0.00     0.010 A 
HETATM   38  C14 UNL     1       7.464   3.214   8.600  1.00  0.00     0.037 A 
HETATM   39  C15 UNL     1       8.074   2.101   8.066  1.00  0.00     0.065 A 
HETATM   40  C16 UNL     1       8.430   1.074   8.900  1.00  0.00     0.037 A 
HETATM   41  C17 UNL     1       8.155   1.204  10.266  1.00  0.00     0.010 A 
BRANCH  39  42
HETATM   42  O3  UNL     1       8.328   2.027   6.678  1.00  0.00    -0.361 OA
ATOM     43  H3  UNL     1       9.059   1.515   6.353  1.00  0.00     0.217 HD
ENDBRANCH  39  42
ENDBRANCH  35  36
ENDBRANCH  34  35
BRANCH  34  44
HETATM   44  N3  UNL     1       4.925   2.025  12.392  1.00  0.00    -0.352 N 
HETATM   45  C18 UNL     1       3.957   1.269  11.704  1.00  0.00     0.241 C 
HETATM   46  O4  UNL     1       4.270   0.063  11.440  1.00  0.00    -0.271 OA
ATOM     47  H3  UNL     1       4.716   2.996  12.623  1.00  0.00     0.163 HD
BRANCH  45  48
HETATM   48  C19 UNL     1       2.638   1.707  11.258  1.00  0.00     0.182 C 
BRANCH  48  49
HETATM   49  C20 UNL     1       1.797   0.657  10.584  1.00  0.00     0.009 C 
HETATM   50  C21 UNL     1       0.423   0.494  11.174  1.00  0.00     0.012 C 
HETATM   51  C22 UNL     1       1.760   0.840   9.108  1.00  0.00     0.012 C 
ENDBRANCH  48  49
BRANCH  48  52
HETATM   52  N4  UNL     1       2.694   2.837  10.353  1.00  0.00    -0.338 N 
HETATM   53  C23 UNL     1       3.562   3.067   9.226  1.00  0.00     0.127 C 
HETATM   54  C24 UNL     1       3.730   4.589   9.258  1.00  0.00     0.029 C 
HETATM   55  C25 UNL     1       2.294   5.021   9.463  1.00  0.00     0.104 C 
HETATM   56  C26 UNL     1       1.848   3.965  10.443  1.00  0.00     0.220 C 
HETATM   57  O5  UNL     1       0.851   4.162  11.188  1.00  0.00    -0.273 OA
ENDBRANCH  48  52
ENDBRANCH  45  48
ENDBRANCH  34  44
ENDBRANCH  31  34
ENDBRANCH  30  31
ENDBRANCH   1  30
TORSDOF 15
ENDMDL
