MODEL 4
REMARK VINA RESULT: -10.002139822      0.943      1.363
REMARK  15 active torsions:
REMARK  status: ('A' for Active; 'I' for Inactive)
REMARK    1  A    between atoms: C2_2  and  C3_3 
REMARK    2  A    between atoms: C3_3  and  C5_5 
REMARK    3  A    between atoms: C6_8  and  O1_9 
REMARK    4  A    between atoms: C7_11  and  N2_12 
REMARK    5  A    between atoms: N2_12  and  C8_15 
REMARK    6  A    between atoms: C8_15  and  C9_16 
REMARK    7  A    between atoms: C9_16  and  O2_17 
REMARK    8  A    between atoms: C9_16  and  C10_19 
REMARK    9  A    between atoms: C10_19  and  C11_20 
REMARK   10  A    between atoms: C10_19  and  N3_29 
REMARK   11  A    between atoms: C11_20  and  C12_21 
REMARK   12  A    between atoms: C15_24  and  O3_25 
REMARK       I    between atoms: N3_29  and  C18_31 
REMARK   13  A    between atoms: C18_31  and  C19_33 
REMARK   14  A    between atoms: C19_33  and  C20_34 
REMARK   15  A    between atoms: C19_33  and  N4_37 
ROOT
HETATM    1  N2  UNL     1       5.275  -0.783  13.914  1.00  0.00    -0.061 N 
ATOM      2  H21 UNL     1       4.645  -0.119  13.465  1.00  0.00     0.278 HD
ATOM      3  H22 UNL     1       5.383  -1.444  13.145  1.00  0.00     0.278 HD
ENDROOT
BRANCH   1   4
HETATM    4  C7  UNL     1       4.638  -1.422  15.093  1.00  0.00     0.263 C 
HETATM    5  C6  UNL     1       5.693  -1.777  16.047  1.00  0.00     0.143 C 
HETATM    6  N1  UNL     1       6.814  -2.608  15.940  1.00  0.00    -0.359 N 
HETATM    7  C5  UNL     1       6.936  -4.047  15.930  1.00  0.00     0.179 C 
ATOM      8  H1  UNL     1       7.700  -2.111  15.855  1.00  0.00     0.162 HD
HETATM    9  C37 UNL     1       7.501  -4.491  17.259  1.00  0.00     0.240 C 
HETATM   10  N5  UNL     1       6.818  -5.230  18.231  1.00  0.00    -0.359 N 
HETATM   11  O7  UNL     1       8.712  -4.131  17.461  1.00  0.00    -0.271 OA
HETATM   12  C36 UNL     1       6.177  -6.501  17.964  1.00  0.00     0.125 C 
ATOM     13  H5  UNL     1       6.769  -4.854  19.177  1.00  0.00     0.162 HD
HETATM   14  C35 UNL     1       5.160  -6.853  19.026  1.00  0.00     0.046 C 
HETATM   15  C34 UNL     1       4.079  -7.789  18.555  1.00  0.00     0.177 C 
HETATM   16  O6  UNL     1       2.922  -7.073  18.061  1.00  0.00    -0.351 OA
HETATM   17  C31 UNL     1       3.073  -5.950  17.231  1.00  0.00     0.068 A 
HETATM   18  C30 UNL     1       3.141  -6.095  15.881  1.00  0.00     0.037 A 
HETATM   19  C32 UNL     1       3.158  -4.704  17.760  1.00  0.00     0.037 A 
HETATM   20  C29 UNL     1       3.309  -4.935  15.068  1.00  0.00     0.010 A 
HETATM   21  C28 UNL     1       3.408  -3.656  15.578  1.00  0.00    -0.056 A 
HETATM   22  C27 UNL     1       3.665  -2.460  14.678  1.00  0.00     0.080 C 
HETATM   23  C33 UNL     1       3.325  -3.550  16.950  1.00  0.00     0.010 A 
BRANCH   5  24
HETATM   24  O1  UNL     1       5.550  -1.190  17.230  1.00  0.00    -0.348 OA
ATOM     25  H1  UNL     1       5.594  -0.241  17.209  1.00  0.00     0.219 HD
ENDBRANCH   5  24
BRANCH   7  26
HETATM   26  C3  UNL     1       7.939  -4.510  14.883  1.00  0.00     0.013 C 
HETATM   27  C4  UNL     1       7.787  -3.628  13.660  1.00  0.00     0.012 C 
BRANCH  26  28
HETATM   28  C2  UNL     1       9.354  -4.411  15.385  1.00  0.00     0.002 C 
HETATM   29  C1  UNL     1      10.320  -4.175  14.243  1.00  0.00     0.005 C 
ENDBRANCH  26  28
ENDBRANCH   7  26
ENDBRANCH   1   4
BRANCH   1  30
HETATM   30  C8  UNL     1       6.506  -0.179  14.253  1.00  0.00     0.266 C 
BRANCH  30  31
HETATM   31  C9  UNL     1       6.597   1.279  14.024  1.00  0.00     0.166 C 
BRANCH  31  32
HETATM   32  O2  UNL     1       7.451   1.936  14.873  1.00  0.00    -0.392 OA
ATOM     33  H2  UNL     1       7.237   2.850  15.017  1.00  0.00     0.210 HD
ENDBRANCH  31  32
BRANCH  31  34
HETATM   34  C10 UNL     1       6.530   1.776  12.627  1.00  0.00     0.119 C 
BRANCH  34  35
HETATM   35  C11 UNL     1       7.417   2.963  12.300  1.00  0.00     0.066 C 
BRANCH  35  36
HETATM   36  C12 UNL     1       7.709   3.147  10.889  1.00  0.00    -0.056 A 
HETATM   37  C13 UNL     1       8.169   2.050  10.146  1.00  0.00     0.010 A 
HETATM   38  C14 UNL     1       8.459   2.183   8.810  1.00  0.00     0.037 A 
HETATM   39  C15 UNL     1       8.311   3.385   8.154  1.00  0.00     0.065 A 
HETATM   40  C16 UNL     1       7.864   4.474   8.854  1.00  0.00     0.037 A 
HETATM   41  C17 UNL     1       7.576   4.315  10.214  1.00  0.00     0.010 A 
BRANCH  39  42
HETATM   42  O3  UNL     1       8.617   3.486   6.778  1.00  0.00    -0.361 OA
ATOM     43  H3  UNL     1       8.467   4.301   6.314  1.00  0.00     0.217 HD
ENDBRANCH  39  42
ENDBRANCH  35  36
ENDBRANCH  34  35
BRANCH  34  44
HETATM   44  N3  UNL     1       5.146   2.259  12.340  1.00  0.00    -0.352 N 
HETATM   45  C18 UNL     1       4.202   1.475  11.649  1.00  0.00     0.241 C 
HETATM   46  O4  UNL     1       4.592   0.322  11.278  1.00  0.00    -0.271 OA
ATOM     47  H3  UNL     1       4.874   3.190  12.655  1.00  0.00     0.163 HD
BRANCH  45  48
HETATM   48  C19 UNL     1       2.828   1.832  11.309  1.00  0.00     0.182 C 
BRANCH  48  49
HETATM   49  C20 UNL     1       1.986   0.719  10.747  1.00  0.00     0.009 C 
HETATM   50  C21 UNL     1       0.669   0.528  11.447  1.00  0.00     0.012 C 
HETATM   51  C22 UNL     1       1.831   0.831   9.272  1.00  0.00     0.012 C 
ENDBRANCH  48  49
BRANCH  48  52
HETATM   52  N4  UNL     1       2.746   2.930  10.366  1.00  0.00    -0.338 N 
HETATM   53  C23 UNL     1       3.544   3.193   9.195  1.00  0.00     0.127 C 
HETATM   54  C24 UNL     1       3.578   4.724   9.170  1.00  0.00     0.029 C 
HETATM   55  C25 UNL     1       2.118   5.036   9.423  1.00  0.00     0.104 C 
HETATM   56  C26 UNL     1       1.809   3.982  10.456  1.00  0.00     0.220 C 
HETATM   57  O5  UNL     1       0.829   4.119  11.237  1.00  0.00    -0.273 OA
ENDBRANCH  48  52
ENDBRANCH  45  48
ENDBRANCH  34  44
ENDBRANCH  31  34
ENDBRANCH  30  31
ENDBRANCH   1  30
TORSDOF 15
ENDMDL
