MODEL 3
REMARK VINA RESULT: -9.932429394      1.085      1.350
REMARK  9 active torsions:
REMARK  status: ('A' for Active; 'I' for Inactive)
REMARK    1  A    between atoms: C2_2  and  N1_5 
REMARK       I    between atoms: N1_5  and  C5_7 
REMARK    2  A    between atoms: C5_7  and  C6_9 
REMARK    3  A    between atoms: N2_14  and  C11_15 
REMARK    4  A    between atoms: C11_15  and  C12_16 
REMARK    5  A    between atoms: C12_16  and  O2_17 
REMARK    6  A    between atoms: C12_16  and  C13_19 
REMARK    7  A    between atoms: C25_35  and  C26_36 
REMARK    8  A    between atoms: C26_36  and  C27_37 
REMARK    9  A    between atoms: C28_40  and  O6_41 
ROOT
HETATM    1  C13 UNL     1       5.033   0.054  14.395  1.00  0.00     0.118 C 
HETATM    2  C14 UNL     1       6.082  -0.708  13.710  1.00  0.00     0.066 C 
HETATM    3  C15 UNL     1       6.714  -1.903  14.348  1.00  0.00    -0.056 A 
HETATM    4  C16 UNL     1       7.388  -1.740  15.533  1.00  0.00     0.010 A 
HETATM    5  C17 UNL     1       7.956  -2.878  16.189  1.00  0.00     0.037 A 
HETATM    6  C18 UNL     1       7.853  -4.138  15.678  1.00  0.00     0.068 A 
HETATM    7  C19 UNL     1       7.188  -4.272  14.496  1.00  0.00     0.037 A 
HETATM    8  C20 UNL     1       6.605  -3.161  13.809  1.00  0.00     0.010 A 
HETATM    9  O3  UNL     1       8.393  -5.257  16.346  1.00  0.00    -0.351 OA
HETATM   10  C21 UNL     1       7.722  -6.090  17.244  1.00  0.00     0.176 C 
HETATM   11  C22 UNL     1       6.538  -5.397  17.869  1.00  0.00     0.036 C 
HETATM   12  C23 UNL     1       5.425  -5.049  16.928  1.00  0.00     0.105 C 
HETATM   13  C24 UNL     1       4.111  -4.755  17.614  1.00  0.00     0.218 C 
HETATM   14  O4  UNL     1       3.873  -5.383  18.656  1.00  0.00    -0.274 OA
HETATM   15  N3  UNL     1       3.225  -3.781  17.038  1.00  0.00    -0.349 N 
ATOM     16  H3  UNL     1       2.320  -3.634  17.486  1.00  0.00     0.163 HD
HETATM   17  C25 UNL     1       3.538  -2.990  15.853  1.00  0.00     0.167 C 
HETATM   18  C28 UNL     1       4.156  -1.695  16.149  1.00  0.00     0.135 C 
HETATM   19  N5  UNL     1       4.256  -0.511  15.441  1.00  0.00    -0.365 N 
ATOM     20  H5  UNL     1       3.562   0.159  15.770  1.00  0.00     0.161 HD
ENDROOT
BRANCH   1  21
HETATM   21  C12 UNL     1       4.092   0.756  13.361  1.00  0.00     0.158 C 
BRANCH  21  22
HETATM   22  C11 UNL     1       4.613   0.559  12.009  1.00  0.00     0.151 C 
BRANCH  22  23
HETATM   23  N2  UNL     1       5.207   1.673  11.320  1.00  0.00    -0.398 N 
HETATM   24  C6  UNL     1       4.668   2.955  11.635  1.00  0.00     0.171 C 
HETATM   25  C7  UNL     1       5.691   3.992  11.132  1.00  0.00     0.035 C 
HETATM   26  C8  UNL     1       6.945   3.984  11.923  1.00  0.00     0.004 C 
HETATM   27  C9  UNL     1       7.402   2.559  12.117  1.00  0.00     0.019 C 
HETATM   28  C10 UNL     1       6.617   1.676  11.192  1.00  0.00     0.118 C 
BRANCH  24  29
HETATM   29  C5  UNL     1       3.451   3.277  10.818  1.00  0.00     0.240 C 
HETATM   30  N1  UNL     1       3.452   3.402   9.424  1.00  0.00    -0.351 N 
ATOM     31  H1  UNL     1       4.340   3.277   8.937  1.00  0.00     0.163 HD
HETATM   32  O1  UNL     1       2.392   3.439  11.446  1.00  0.00    -0.271 OA
BRANCH  30  33
HETATM   33  C2  UNL     1       2.279   3.698   8.624  1.00  0.00     0.022 C 
HETATM   34  C1  UNL     1       1.172   2.724   8.950  1.00  0.00     0.037 C 
HETATM   35  C3  UNL     1       2.637   3.587   7.176  1.00  0.00     0.037 C 
HETATM   36  C4  UNL     1       1.779   5.110   8.899  1.00  0.00     0.037 C 
ENDBRANCH  30  33
ENDBRANCH  24  29
ENDBRANCH  22  23
ENDBRANCH  21  22
BRANCH  21  37
HETATM   37  O2  UNL     1       2.798   0.350  13.589  1.00  0.00    -0.392 OA
ATOM     38  H2  UNL     1       2.502  -0.421  13.119  1.00  0.00     0.210 HD
ENDBRANCH  21  37
ENDBRANCH   1  21
BRANCH  18  39
HETATM   39  O6  UNL     1       4.724  -1.672  17.339  1.00  0.00    -0.348 OA
ATOM     40  H6  UNL     1       4.323  -1.034  17.917  1.00  0.00     0.219 HD
ENDBRANCH  18  39
BRANCH  17  41
HETATM   41  C26 UNL     1       2.282  -2.936  15.028  1.00  0.00     0.133 C 
BRANCH  41  42
HETATM   42  C27 UNL     1       1.508  -4.177  14.962  1.00  0.00     0.233 C 
HETATM   43  N4  UNL     1       2.140  -5.373  14.546  1.00  0.00    -0.062 NA
HETATM   44  O5  UNL     1       0.299  -4.201  15.263  1.00  0.00    -0.277 OA
ENDBRANCH  41  42
ENDBRANCH  17  41
TORSDOF 9
ENDMDL
