MODEL 2
REMARK VINA RESULT: -10.197657526      1.845      3.275
REMARK  9 active torsions:
REMARK  status: ('A' for Active; 'I' for Inactive)
REMARK    1  A    between atoms: C2_2  and  N1_5 
REMARK       I    between atoms: N1_5  and  C5_7 
REMARK    2  A    between atoms: C5_7  and  C6_9 
REMARK    3  A    between atoms: N2_14  and  C11_15 
REMARK    4  A    between atoms: C11_15  and  C12_16 
REMARK    5  A    between atoms: C12_16  and  O2_17 
REMARK    6  A    between atoms: C12_16  and  C13_19 
REMARK    7  A    between atoms: C25_35  and  C26_36 
REMARK    8  A    between atoms: C26_36  and  C27_37 
REMARK    9  A    between atoms: C28_40  and  O6_41 
ROOT
HETATM    1  C13 UNL     1       7.593  -1.533  14.575  1.00  0.00     0.118 C 
HETATM    2  C14 UNL     1       8.625  -2.538  14.298  1.00  0.00     0.066 C 
HETATM    3  C15 UNL     1       8.804  -3.729  15.183  1.00  0.00    -0.056 A 
HETATM    4  C16 UNL     1       9.131  -3.529  16.502  1.00  0.00     0.010 A 
HETATM    5  C17 UNL     1       9.257  -4.651  17.380  1.00  0.00     0.037 A 
HETATM    6  C18 UNL     1       9.061  -5.932  16.955  1.00  0.00     0.068 A 
HETATM    7  C19 UNL     1       8.747  -6.104  15.641  1.00  0.00     0.037 A 
HETATM    8  C20 UNL     1       8.610  -5.009  14.730  1.00  0.00     0.010 A 
HETATM    9  O3  UNL     1       9.160  -7.029  17.836  1.00  0.00    -0.351 OA
HETATM   10  C21 UNL     1       8.113  -7.619  18.546  1.00  0.00     0.176 C 
HETATM   11  C22 UNL     1       6.958  -6.668  18.731  1.00  0.00     0.036 C 
HETATM   12  C23 UNL     1       6.248  -6.266  17.474  1.00  0.00     0.105 C 
HETATM   13  C24 UNL     1       4.877  -5.675  17.707  1.00  0.00     0.218 C 
HETATM   14  O4  UNL     1       4.236  -6.118  18.670  1.00  0.00    -0.274 OA
HETATM   15  N3  UNL     1       4.398  -4.651  16.819  1.00  0.00    -0.349 N 
ATOM     16  H3  UNL     1       3.450  -4.302  16.960  1.00  0.00     0.163 HD
HETATM   17  C25 UNL     1       5.183  -4.079  15.730  1.00  0.00     0.167 C 
HETATM   18  C28 UNL     1       5.931  -2.876  16.104  1.00  0.00     0.135 C 
HETATM   19  N5  UNL     1       6.456  -1.824  15.375  1.00  0.00    -0.365 N 
ATOM     20  H5  UNL     1       5.841  -1.013  15.428  1.00  0.00     0.161 HD
ENDROOT
BRANCH   1  21
HETATM   21  C12 UNL     1       7.140  -0.824  13.256  1.00  0.00     0.158 C 
BRANCH  21  22
HETATM   22  C11 UNL     1       5.692  -0.958  13.098  1.00  0.00     0.151 C 
BRANCH  22  23
HETATM   23  N2  UNL     1       4.876   0.225  13.102  1.00  0.00    -0.398 N 
HETATM   24  C6  UNL     1       4.453   0.690  11.822  1.00  0.00     0.171 C 
HETATM   25  C7  UNL     1       3.290   1.669  12.077  1.00  0.00     0.035 C 
HETATM   26  C8  UNL     1       2.071   0.988  12.575  1.00  0.00     0.004 C 
HETATM   27  C9  UNL     1       2.452   0.023  13.671  1.00  0.00     0.019 C 
HETATM   28  C10 UNL     1       3.865   0.310  14.088  1.00  0.00     0.118 C 
BRANCH  24  29
HETATM   29  C5  UNL     1       5.478   1.568  11.167  1.00  0.00     0.240 C 
HETATM   30  N1  UNL     1       5.855   1.466   9.823  1.00  0.00    -0.351 N 
ATOM     31  H1  UNL     1       5.411   0.741   9.259  1.00  0.00     0.163 HD
HETATM   32  O1  UNL     1       6.008   2.430  11.887  1.00  0.00    -0.271 OA
BRANCH  30  33
HETATM   33  C2  UNL     1       6.832   2.321   9.176  1.00  0.00     0.022 C 
HETATM   34  C1  UNL     1       6.313   3.737   9.101  1.00  0.00     0.037 C 
HETATM   35  C3  UNL     1       7.091   1.805   7.796  1.00  0.00     0.037 C 
HETATM   36  C4  UNL     1       8.143   2.326   9.951  1.00  0.00     0.037 C 
ENDBRANCH  30  33
ENDBRANCH  24  29
ENDBRANCH  22  23
ENDBRANCH  21  22
BRANCH  21  37
HETATM   37  O2  UNL     1       7.647   0.454  13.241  1.00  0.00    -0.392 OA
ATOM     38  H2  UNL     1       7.190   1.089  12.702  1.00  0.00     0.210 HD
ENDBRANCH  21  37
ENDBRANCH   1  21
BRANCH  18  39
HETATM   39  O6  UNL     1       6.130  -2.795  17.405  1.00  0.00    -0.348 OA
ATOM     40  H6  UNL     1       6.984  -3.122  17.660  1.00  0.00     0.219 HD
ENDBRANCH  18  39
BRANCH  17  41
HETATM   41  C26 UNL     1       4.249  -3.926  14.562  1.00  0.00     0.133 C 
BRANCH  41  42
HETATM   42  C27 UNL     1       2.846  -4.252  14.820  1.00  0.00     0.233 C 
HETATM   43  N4  UNL     1       1.995  -3.276  15.391  1.00  0.00    -0.062 NA
HETATM   44  O5  UNL     1       2.384  -5.377  14.549  1.00  0.00    -0.277 OA
ENDBRANCH  41  42
ENDBRANCH  17  41
TORSDOF 9
ENDMDL
