MODEL 1
REMARK VINA RESULT: -10.400600610      0.000      0.000
REMARK  9 active torsions:
REMARK  status: ('A' for Active; 'I' for Inactive)
REMARK    1  A    between atoms: C2_2  and  N1_5 
REMARK       I    between atoms: N1_5  and  C5_7 
REMARK    2  A    between atoms: C5_7  and  C6_9 
REMARK    3  A    between atoms: N2_14  and  C11_15 
REMARK    4  A    between atoms: C11_15  and  C12_16 
REMARK    5  A    between atoms: C12_16  and  O2_17 
REMARK    6  A    between atoms: C12_16  and  C13_19 
REMARK    7  A    between atoms: C25_35  and  C26_36 
REMARK    8  A    between atoms: C26_36  and  C27_37 
REMARK    9  A    between atoms: C28_40  and  O6_41 
ROOT
HETATM    1  C13 UNL     1       5.460  -0.255  14.646  1.00  0.00     0.118 C 
HETATM    2  C14 UNL     1       6.516  -1.059  14.022  1.00  0.00     0.066 C 
HETATM    3  C15 UNL     1       7.043  -2.292  14.682  1.00  0.00    -0.056 A 
HETATM    4  C16 UNL     1       7.640  -2.180  15.913  1.00  0.00     0.010 A 
HETATM    5  C17 UNL     1       8.105  -3.353  16.586  1.00  0.00     0.037 A 
HETATM    6  C18 UNL     1       7.976  -4.600  16.048  1.00  0.00     0.068 A 
HETATM    7  C19 UNL     1       7.389  -4.683  14.821  1.00  0.00     0.037 A 
HETATM    8  C20 UNL     1       6.910  -3.535  14.115  1.00  0.00     0.010 A 
HETATM    9  O3  UNL     1       8.413  -5.752  16.733  1.00  0.00    -0.351 OA
HETATM   10  C21 UNL     1       7.641  -6.563  17.568  1.00  0.00     0.176 C 
HETATM   11  C22 UNL     1       6.452  -5.820  18.122  1.00  0.00     0.036 C 
HETATM   12  C23 UNL     1       5.425  -5.405  17.113  1.00  0.00     0.105 C 
HETATM   13  C24 UNL     1       4.083  -5.055  17.712  1.00  0.00     0.218 C 
HETATM   14  O4  UNL     1       3.743  -5.685  18.724  1.00  0.00    -0.274 OA
HETATM   15  N3  UNL     1       3.287  -4.030  17.093  1.00  0.00    -0.349 N 
ATOM     16  H3  UNL     1       2.362  -3.844  17.480  1.00  0.00     0.163 HD
HETATM   17  C25 UNL     1       3.720  -3.239  15.946  1.00  0.00     0.167 C 
HETATM   18  C28 UNL     1       4.379  -1.981  16.306  1.00  0.00     0.135 C 
HETATM   19  N5  UNL     1       4.586  -0.794  15.627  1.00  0.00    -0.365 N 
ATOM     20  H5  UNL     1       3.904  -0.094  15.919  1.00  0.00     0.161 HD
ENDROOT
BRANCH   1  21
HETATM   21  C12 UNL     1       4.628   0.508  13.562  1.00  0.00     0.158 C 
BRANCH  21  22
HETATM   22  C11 UNL     1       5.134   0.174  12.231  1.00  0.00     0.151 C 
BRANCH  22  23
HETATM   23  N2  UNL     1       5.449   1.238  11.316  1.00  0.00    -0.398 N 
HETATM   24  C6  UNL     1       5.038   2.543  11.718  1.00  0.00     0.171 C 
HETATM   25  C7  UNL     1       5.821   3.537  10.838  1.00  0.00     0.035 C 
HETATM   26  C8  UNL     1       7.269   3.559  11.155  1.00  0.00     0.004 C 
HETATM   27  C9  UNL     1       7.777   2.143  11.267  1.00  0.00     0.019 C 
HETATM   28  C10 UNL     1       6.731   1.217  10.718  1.00  0.00     0.118 C 
BRANCH  24  29
HETATM   29  C5  UNL     1       3.614   2.832  11.345  1.00  0.00     0.240 C 
HETATM   30  N1  UNL     1       2.668   1.848  11.036  1.00  0.00    -0.351 N 
ATOM     31  H1  UNL     1       2.973   0.875  11.054  1.00  0.00     0.163 HD
HETATM   32  O1  UNL     1       3.282   4.029  11.318  1.00  0.00    -0.271 OA
BRANCH  30  33
HETATM   33  C2  UNL     1       1.285   2.116  10.690  1.00  0.00     0.022 C 
HETATM   34  C1  UNL     1       0.591   2.811  11.837  1.00  0.00     0.037 C 
HETATM   35  C3  UNL     1       0.598   0.820  10.396  1.00  0.00     0.037 C 
HETATM   36  C4  UNL     1       1.199   3.008   9.458  1.00  0.00     0.037 C 
ENDBRANCH  30  33
ENDBRANCH  24  29
ENDBRANCH  22  23
ENDBRANCH  21  22
BRANCH  21  37
HETATM   37  O2  UNL     1       3.290   0.285  13.789  1.00  0.00    -0.392 OA
ATOM     38  H2  UNL     1       2.678   0.763  13.242  1.00  0.00     0.210 HD
ENDBRANCH  21  37
ENDBRANCH   1  21
BRANCH  18  39
HETATM   39  O6  UNL     1       4.863  -2.003  17.532  1.00  0.00    -0.348 OA
ATOM     40  H6  UNL     1       5.597  -2.599  17.619  1.00  0.00     0.219 HD
ENDBRANCH  18  39
BRANCH  17  41
HETATM   41  C26 UNL     1       2.529  -3.111  15.038  1.00  0.00     0.133 C 
BRANCH  41  42
HETATM   42  C27 UNL     1       1.724  -4.322  14.867  1.00  0.00     0.233 C 
HETATM   43  N4  UNL     1       0.353  -4.303  15.217  1.00  0.00    -0.062 NA
HETATM   44  O5  UNL     1       2.223  -5.373  14.422  1.00  0.00    -0.277 OA
ENDBRANCH  41  42
ENDBRANCH  17  41
TORSDOF 9
ENDMDL
