MODEL 10
REMARK VINA RESULT: -9.266682870      2.250      9.197
REMARK  9 active torsions:
REMARK  status: ('A' for Active; 'I' for Inactive)
REMARK    1  A    between atoms: C2_2  and  N1_5 
REMARK       I    between atoms: N1_5  and  C5_7 
REMARK    2  A    between atoms: C5_7  and  C6_9 
REMARK    3  A    between atoms: N2_14  and  C11_15 
REMARK    4  A    between atoms: C11_15  and  C12_16 
REMARK    5  A    between atoms: C12_16  and  O2_17 
REMARK    6  A    between atoms: C12_16  and  C13_19 
REMARK    7  A    between atoms: C25_35  and  C26_36 
REMARK    8  A    between atoms: C26_36  and  C27_37 
REMARK    9  A    between atoms: C28_40  and  O6_41 
ROOT
HETATM    1  C13 UNL     1       5.982   0.080  13.542  1.00  0.00     0.118 C 
HETATM    2  C14 UNL     1       7.087   1.023  13.743  1.00  0.00     0.066 C 
HETATM    3  C15 UNL     1       7.562   1.907  12.635  1.00  0.00    -0.056 A 
HETATM    4  C16 UNL     1       8.058   1.327  11.494  1.00  0.00     0.010 A 
HETATM    5  C17 UNL     1       8.470   2.153  10.400  1.00  0.00     0.037 A 
HETATM    6  C18 UNL     1       8.388   3.513  10.445  1.00  0.00     0.068 A 
HETATM    7  C19 UNL     1       7.903   4.064  11.593  1.00  0.00     0.037 A 
HETATM    8  C20 UNL     1       7.479   3.275  12.708  1.00  0.00     0.010 A 
HETATM    9  O3  UNL     1       8.772   4.316   9.351  1.00  0.00    -0.351 OA
HETATM   10  C21 UNL     1       7.937   4.785   8.334  1.00  0.00     0.176 C 
HETATM   11  C22 UNL     1       6.705   3.929   8.184  1.00  0.00     0.036 C 
HETATM   12  C23 UNL     1       5.762   3.951   9.349  1.00  0.00     0.105 C 
HETATM   13  C24 UNL     1       4.375   3.448   9.023  1.00  0.00     0.218 C 
HETATM   14  O4  UNL     1       3.956   3.669   7.878  1.00  0.00    -0.274 OA
HETATM   15  N3  UNL     1       3.629   2.751  10.036  1.00  0.00    -0.349 N 
ATOM     16  H3  UNL     1       2.675   2.465   9.815  1.00  0.00     0.163 HD
HETATM   17  C25 UNL     1       4.151   2.427  11.359  1.00  0.00     0.167 C 
HETATM   18  C28 UNL     1       4.775   1.104  11.444  1.00  0.00     0.135 C 
HETATM   19  N5  UNL     1       5.032   0.246  12.499  1.00  0.00    -0.365 N 
ATOM     20  H5  UNL     1       4.327  -0.489  12.538  1.00  0.00     0.161 HD
ENDROOT
BRANCH   1  21
HETATM   21  C12 UNL     1       5.238  -0.200  14.890  1.00  0.00     0.158 C 
BRANCH  21  22
HETATM   22  C11 UNL     1       5.819  -1.376  15.536  1.00  0.00     0.151 C 
BRANCH  22  23
HETATM   23  N2  UNL     1       5.257  -2.672  15.263  1.00  0.00    -0.398 N 
HETATM   24  C6  UNL     1       5.607  -3.705  16.181  1.00  0.00     0.171 C 
HETATM   25  C7  UNL     1       4.598  -4.848  15.954  1.00  0.00     0.035 C 
HETATM   26  C8  UNL     1       3.228  -4.494  16.397  1.00  0.00     0.004 C 
HETATM   27  C9  UNL     1       2.880  -3.118  15.888  1.00  0.00     0.019 C 
HETATM   28  C10 UNL     1       3.900  -2.717  14.863  1.00  0.00     0.118 C 
BRANCH  24  29
HETATM   29  C5  UNL     1       6.915  -4.354  15.838  1.00  0.00     0.240 C 
HETATM   30  N1  UNL     1       8.025  -4.382  16.690  1.00  0.00    -0.351 N 
ATOM     31  H1  UNL     1       7.939  -3.921  17.596  1.00  0.00     0.163 HD
HETATM   32  O1  UNL     1       6.988  -4.891  14.720  1.00  0.00    -0.271 OA
BRANCH  30  33
HETATM   33  C2  UNL     1       9.288  -5.021  16.374  1.00  0.00     0.022 C 
HETATM   34  C1  UNL     1       9.085  -6.506  16.187  1.00  0.00     0.037 C 
HETATM   35  C3  UNL     1      10.248  -4.782  17.496  1.00  0.00     0.037 C 
HETATM   36  C4  UNL     1       9.879  -4.447  15.093  1.00  0.00     0.037 C 
ENDBRANCH  30  33
ENDBRANCH  24  29
ENDBRANCH  22  23
ENDBRANCH  21  22
BRANCH  21  37
HETATM   37  O2  UNL     1       5.206   0.959  15.629  1.00  0.00    -0.392 OA
ATOM     38  H2  UNL     1       4.362   1.221  15.978  1.00  0.00     0.210 HD
ENDBRANCH  21  37
ENDBRANCH   1  21
BRANCH  18  39
HETATM   39  O6  UNL     1       5.158   0.655  10.266  1.00  0.00    -0.348 OA
ATOM     40  H6  UNL     1       5.949   1.082   9.957  1.00  0.00     0.219 HD
ENDBRANCH  18  39
BRANCH  17  41
HETATM   41  C26 UNL     1       3.037   2.683  12.335  1.00  0.00     0.133 C 
BRANCH  41  42
HETATM   42  C27 UNL     1       1.680   2.577  11.797  1.00  0.00     0.233 C 
HETATM   43  N4  UNL     1       1.138   1.300  11.513  1.00  0.00    -0.062 NA
HETATM   44  O5  UNL     1       0.990   3.591  11.579  1.00  0.00    -0.277 OA
ENDBRANCH  41  42
ENDBRANCH  17  41
TORSDOF 9
ENDMDL
