MODEL 3
REMARK VINA RESULT: -4.642654933      1.528      1.827
REMARK  5 active torsions:
REMARK  status: ('A' for Active; 'I' for Inactive)
REMARK    1  A    between atoms: C1_2  and  C2_4 
REMARK    2  A    between atoms: C2_4  and  C3_5 
REMARK    3  A    between atoms: C3_5  and  C4_6 
REMARK    4  A    between atoms: C4_6  and  N2_7 
REMARK    5  A    between atoms: C4_6  and  C5_11 
ROOT
HETATM    1  C4  UNL     1      23.208  31.351  27.035  1.00  0.00     0.283 C 
ENDROOT
BRANCH   1   2
HETATM    2  C3  UNL     1      24.079  30.125  26.857  1.00  0.00     0.052 C 
BRANCH   2   3
HETATM    3  C2  UNL     1      25.412  30.517  26.311  1.00  0.00     0.102 C 
BRANCH   3   4
HETATM    4  C1  UNL     1      25.395  30.511  24.830  1.00  0.00     0.231 C 
HETATM    5  N1  UNL     1      25.368  31.774  24.136  1.00  0.00    -0.062 NA
HETATM    6  O1  UNL     1      25.405  29.424  24.221  1.00  0.00    -0.277 OA
ENDBRANCH   3   4
ENDBRANCH   2   3
ENDBRANCH   1   2
BRANCH   1   7
HETATM    7  N2  UNL     1      21.912  31.078  26.491  1.00  0.00    -0.065 N 
ATOM      8  H23 UNL     1      21.937  30.367  25.760  1.00  0.00     0.275 HD
ATOM      9  H22 UNL     1      21.309  30.582  27.148  1.00  0.00     0.275 HD
ATOM     10  H21 UNL     1      21.500  31.954  26.169  1.00  0.00     0.275 HD
ENDBRANCH   1   7
BRANCH   1  11
HETATM   11  C5  UNL     1      23.108  31.719  28.475  1.00  0.00     0.204 C 
HETATM   12  O2  UNL     1      23.196  30.823  29.334  1.00  0.00    -0.646 OA
HETATM   13  O3  UNL     1      22.919  33.050  28.852  1.00  0.00    -0.646 OA
ENDBRANCH   1  11
TORSDOF 5
ENDMDL
