MODEL 2
REMARK VINA RESULT: -8.772015526      1.493      1.802
REMARK  5 active torsions:
REMARK  status: ('A' for Active; 'I' for Inactive)
REMARK    1  A    between atoms: C3_6  and  C4_7 
REMARK    2  A    between atoms: C5_10  and  C6_11 
REMARK    3  A    between atoms: C6_11  and  O1_12 
REMARK    4  A    between atoms: C7_14  and  O2_15 
REMARK    5  A    between atoms: C8_17  and  O3_18 
ROOT
HETATM    1  N1  UNL     1     -62.889  93.509  91.613  1.00  0.00    -0.063 NA
HETATM    2  C1  UNL     1     -64.131  93.281  92.225  1.00  0.00     0.195 A 
HETATM    3  N2  UNL     1     -64.415  92.132  92.903  1.00  0.00    -0.328 N 
ATOM      4  H2  UNL     1     -63.704  91.412  93.026  1.00  0.00     0.168 HD
HETATM    5  C2  UNL     1     -65.679  91.965  93.420  1.00  0.00     0.081 A 
HETATM    6  C3  UNL     1     -66.173  90.865  94.037  1.00  0.00     0.034 A 
HETATM    7  C9  UNL     1     -67.529  91.149  94.291  1.00  0.00     0.104 A 
HETATM    8  N4  UNL     1     -67.782  92.401  93.817  1.00  0.00    -0.359 N 
ATOM      9  H4  UNL     1     -68.682  92.879  93.863  1.00  0.00     0.165 HD
HETATM   10  C10 UNL     1     -66.668  92.905  93.285  1.00  0.00     0.129 A 
HETATM   11  C11 UNL     1     -66.341  94.073  92.589  1.00  0.00     0.277 A 
HETATM   12  O4  UNL     1     -67.261  94.934  92.474  1.00  0.00    -0.266 OA
HETATM   13  N5  UNL     1     -65.110  94.201  92.100  1.00  0.00    -0.295 N 
ATOM     14  H5  UNL     1     -64.890  95.058  91.594  1.00  0.00     0.171 HD
ENDROOT
BRANCH   6  15
HETATM   15  C4  UNL     1     -65.458  89.718  94.529  1.00  0.00     0.051 C 
HETATM   16  N3  UNL     1     -65.092  89.565  95.896  1.00  0.00    -0.381 N 
HETATM   17  C5  UNL     1     -64.724  88.121  95.809  1.00  0.00     0.136 C 
ATOM     18  H3  UNL     1     -65.083  90.223  96.675  1.00  0.00     0.160 HD
HETATM   19  C7  UNL     1     -63.640  88.243  94.771  1.00  0.00     0.177 C 
HETATM   20  C8  UNL     1     -64.292  89.203  93.721  1.00  0.00     0.199 C 
BRANCH  17  21
HETATM   21  C6  UNL     1     -64.367  87.518  97.091  1.00  0.00     0.191 C 
BRANCH  21  22
HETATM   22  O1  UNL     1     -63.955  86.192  96.830  1.00  0.00    -0.399 OA
ATOM     23  H1  UNL     1     -64.290  85.649  97.534  1.00  0.00     0.209 HD
ENDBRANCH  21  22
ENDBRANCH  17  21
BRANCH  19  24
HETATM   24  O2  UNL     1     -63.270  87.063  94.210  1.00  0.00    -0.390 OA
ATOM     25  H2  UNL     1     -62.650  87.148  93.495  1.00  0.00     0.210 HD
ENDBRANCH  19  24
BRANCH  20  26
HETATM   26  O3  UNL     1     -64.698  88.444  92.662  1.00  0.00    -0.387 OA
ATOM     27  H3  UNL     1     -65.061  87.610  92.938  1.00  0.00     0.210 HD
ENDBRANCH  20  26
ENDBRANCH   6  15
TORSDOF 5
ENDMDL
