MODEL 5
REMARK VINA RESULT: -7.985276402      2.415      6.174
REMARK  5 active torsions:
REMARK  status: ('A' for Active; 'I' for Inactive)
REMARK    1  A    between atoms: C3_6  and  C4_7 
REMARK    2  A    between atoms: C5_10  and  C6_11 
REMARK    3  A    between atoms: C6_11  and  O1_12 
REMARK    4  A    between atoms: C7_14  and  O2_15 
REMARK    5  A    between atoms: C8_17  and  O3_18 
ROOT
HETATM    1  N1  UNL     1     -63.214  90.954  98.817  1.00  0.00    -0.063 NA
HETATM    2  C1  UNL     1     -63.752  90.040  97.898  1.00  0.00     0.195 A 
HETATM    3  N2  UNL     1     -64.424  90.436  96.778  1.00  0.00    -0.328 N 
ATOM      4  H2  UNL     1     -64.517  91.426  96.550  1.00  0.00     0.168 HD
HETATM    5  C2  UNL     1     -64.974  89.474  95.963  1.00  0.00     0.081 A 
HETATM    6  C3  UNL     1     -65.748  89.671  94.870  1.00  0.00     0.034 A 
HETATM    7  C9  UNL     1     -66.138  88.386  94.443  1.00  0.00     0.104 A 
HETATM    8  N4  UNL     1     -65.580  87.484  95.298  1.00  0.00    -0.359 N 
ATOM      9  H4  UNL     1     -65.685  86.471  95.238  1.00  0.00     0.165 HD
HETATM   10  C10 UNL     1     -64.873  88.132  96.225  1.00  0.00     0.129 A 
HETATM   11  C11 UNL     1     -64.173  87.762  97.377  1.00  0.00     0.277 A 
HETATM   12  O4  UNL     1     -64.084  86.520  97.605  1.00  0.00    -0.266 OA
HETATM   13  N5  UNL     1     -63.657  88.718  98.144  1.00  0.00    -0.295 N 
ATOM     14  H5  UNL     1     -63.151  88.429  98.981  1.00  0.00     0.171 HD
ENDROOT
BRANCH   6  15
HETATM   15  C4  UNL     1     -65.979  90.893  94.146  1.00  0.00     0.051 C 
HETATM   16  N3  UNL     1     -64.958  91.854  93.907  1.00  0.00    -0.381 N 
HETATM   17  C5  UNL     1     -65.706  92.643  92.884  1.00  0.00     0.136 C 
ATOM     18  H3  UNL     1     -64.025  91.967  94.304  1.00  0.00     0.160 HD
HETATM   19  C7  UNL     1     -66.886  93.026  93.737  1.00  0.00     0.177 C 
HETATM   20  C8  UNL     1     -67.232  91.677  94.451  1.00  0.00     0.199 C 
BRANCH  17  21
HETATM   21  C6  UNL     1     -64.931  93.723  92.279  1.00  0.00     0.191 C 
BRANCH  21  22
HETATM   22  O1  UNL     1     -65.840  94.552  91.584  1.00  0.00    -0.399 OA
ATOM     23  H1  UNL     1     -66.190  94.043  90.861  1.00  0.00     0.209 HD
ENDBRANCH  21  22
ENDBRANCH  17  21
BRANCH  19  24
HETATM   24  O2  UNL     1     -67.946  93.509  93.038  1.00  0.00    -0.390 OA
ATOM     25  H2  UNL     1     -68.709  92.942  93.045  1.00  0.00     0.210 HD
ENDBRANCH  19  24
BRANCH  20  26
HETATM   26  O3  UNL     1     -68.330  91.151  93.833  1.00  0.00    -0.387 OA
ATOM     27  H3  UNL     1     -68.374  91.395  92.916  1.00  0.00     0.210 HD
ENDBRANCH  20  26
ENDBRANCH   6  15
TORSDOF 5
ENDMDL
