MODEL 3
REMARK VINA RESULT: -8.479157793      2.060      6.063
REMARK  5 active torsions:
REMARK  status: ('A' for Active; 'I' for Inactive)
REMARK    1  A    between atoms: C3_6  and  C4_7 
REMARK    2  A    between atoms: C5_10  and  C6_11 
REMARK    3  A    between atoms: C6_11  and  O1_12 
REMARK    4  A    between atoms: C7_14  and  O2_15 
REMARK    5  A    between atoms: C8_17  and  O3_18 
ROOT
HETATM    1  N1  UNL     1     -63.987  87.029  90.906  1.00  0.00    -0.063 NA
HETATM    2  C1  UNL     1     -64.434  87.274  92.214  1.00  0.00     0.195 A 
HETATM    3  N2  UNL     1     -64.846  88.507  92.629  1.00  0.00    -0.328 N 
ATOM      4  H2  UNL     1     -64.884  89.289  91.976  1.00  0.00     0.168 HD
HETATM    5  C2  UNL     1     -65.209  88.673  93.945  1.00  0.00     0.081 A 
HETATM    6  C3  UNL     1     -65.553  89.829  94.561  1.00  0.00     0.034 A 
HETATM    7  C9  UNL     1     -65.741  89.497  95.917  1.00  0.00     0.104 A 
HETATM    8  N4  UNL     1     -65.505  88.162  96.048  1.00  0.00    -0.359 N 
ATOM      9  H4  UNL     1     -65.567  87.634  96.919  1.00  0.00     0.165 HD
HETATM   10  C10 UNL     1     -65.179  87.652  94.860  1.00  0.00     0.129 A 
HETATM   11  C11 UNL     1     -64.757  86.401  94.399  1.00  0.00     0.277 A 
HETATM   12  O4  UNL     1     -64.738  85.466  95.252  1.00  0.00    -0.266 OA
HETATM   13  N5  UNL     1     -64.411  86.276  93.121  1.00  0.00    -0.295 N 
ATOM     14  H5  UNL     1     -64.104  85.357  92.803  1.00  0.00     0.171 HD
ENDROOT
BRANCH   6  15
HETATM   15  C4  UNL     1     -65.868  91.100  93.965  1.00  0.00     0.051 C 
HETATM   16  N3  UNL     1     -64.913  92.145  93.823  1.00  0.00    -0.381 N 
HETATM   17  C5  UNL     1     -65.719  92.983  92.887  1.00  0.00     0.136 C 
ATOM     18  H3  UNL     1     -63.985  92.277  94.227  1.00  0.00     0.160 HD
HETATM   19  C7  UNL     1     -66.914  93.201  93.777  1.00  0.00     0.177 C 
HETATM   20  C8  UNL     1     -67.166  91.767  94.352  1.00  0.00     0.199 C 
BRANCH  17  21
HETATM   21  C6  UNL     1     -65.020  94.166  92.393  1.00  0.00     0.191 C 
BRANCH  21  22
HETATM   22  O1  UNL     1     -63.954  93.715  91.582  1.00  0.00    -0.399 OA
ATOM     23  H1  UNL     1     -63.150  93.853  92.070  1.00  0.00     0.209 HD
ENDBRANCH  21  22
ENDBRANCH  17  21
BRANCH  19  24
HETATM   24  O2  UNL     1     -68.008  93.683  93.133  1.00  0.00    -0.390 OA
ATOM     25  H2  UNL     1     -68.472  94.362  93.609  1.00  0.00     0.210 HD
ENDBRANCH  19  24
BRANCH  20  26
HETATM   26  O3  UNL     1     -68.233  91.237  93.686  1.00  0.00    -0.387 OA
ATOM     27  H3  UNL     1     -69.054  91.406  94.134  1.00  0.00     0.210 HD
ENDBRANCH  20  26
ENDBRANCH   6  15
TORSDOF 5
ENDMDL
