MODEL 4
REMARK VINA RESULT: -8.005167935      1.953      6.319
REMARK  5 active torsions:
REMARK  status: ('A' for Active; 'I' for Inactive)
REMARK    1  A    between atoms: C3_6  and  C4_7 
REMARK    2  A    between atoms: C5_10  and  C6_11 
REMARK    3  A    between atoms: C6_11  and  O1_12 
REMARK    4  A    between atoms: C7_14  and  O2_15 
REMARK    5  A    between atoms: C8_17  and  O3_18 
ROOT
HETATM    1  N1  UNL     1     -65.495  85.894  92.628  1.00  0.00    -0.063 NA
HETATM    2  C1  UNL     1     -65.207  86.643  93.779  1.00  0.00     0.195 A 
HETATM    3  N2  UNL     1     -65.331  88.001  93.820  1.00  0.00    -0.328 N 
ATOM      4  H2  UNL     1     -65.686  88.516  93.014  1.00  0.00     0.168 HD
HETATM    5  C2  UNL     1     -64.967  88.663  94.970  1.00  0.00     0.081 A 
HETATM    6  C3  UNL     1     -64.931  90.002  95.169  1.00  0.00     0.034 A 
HETATM    7  C9  UNL     1     -64.404  90.180  96.463  1.00  0.00     0.104 A 
HETATM    8  N4  UNL     1     -64.153  88.944  96.977  1.00  0.00    -0.359 N 
ATOM      9  H4  UNL     1     -63.768  88.758  97.903  1.00  0.00     0.165 HD
HETATM   10  C10 UNL     1     -64.488  88.016  96.080  1.00  0.00     0.129 A 
HETATM   11  C11 UNL     1     -64.379  86.624  96.005  1.00  0.00     0.277 A 
HETATM   12  O4  UNL     1     -63.939  86.039  97.037  1.00  0.00    -0.266 OA
HETATM   13  N5  UNL     1     -64.737  86.017  94.877  1.00  0.00    -0.295 N 
ATOM     14  H5  UNL     1     -64.649  85.001  94.840  1.00  0.00     0.171 HD
ENDROOT
BRANCH   6  15
HETATM   15  C4  UNL     1     -65.489  91.043  94.347  1.00  0.00     0.051 C 
HETATM   16  N3  UNL     1     -64.760  92.208  93.976  1.00  0.00    -0.381 N 
HETATM   17  C5  UNL     1     -65.709  92.669  92.920  1.00  0.00     0.136 C 
ATOM     18  H3  UNL     1     -63.881  92.597  94.318  1.00  0.00     0.160 HD
HETATM   19  C7  UNL     1     -66.931  92.817  93.787  1.00  0.00     0.177 C 
HETATM   20  C8  UNL     1     -66.896  91.503  94.636  1.00  0.00     0.199 C 
BRANCH  17  21
HETATM   21  C6  UNL     1     -65.255  93.847  92.184  1.00  0.00     0.191 C 
BRANCH  21  22
HETATM   22  O1  UNL     1     -66.201  94.872  92.412  1.00  0.00    -0.399 OA
ATOM     23  H1  UNL     1     -66.530  95.146  91.564  1.00  0.00     0.209 HD
ENDBRANCH  21  22
ENDBRANCH  17  21
BRANCH  19  24
HETATM   24  O2  UNL     1     -68.093  92.937  93.095  1.00  0.00    -0.390 OA
ATOM     25  H2  UNL     1     -68.796  92.382  93.414  1.00  0.00     0.210 HD
ENDBRANCH  19  24
BRANCH  20  26
HETATM   26  O3  UNL     1     -67.831  90.652  94.119  1.00  0.00    -0.387 OA
ATOM     27  H3  UNL     1     -68.680  91.067  94.028  1.00  0.00     0.210 HD
ENDBRANCH  20  26
ENDBRANCH   6  15
TORSDOF 5
ENDMDL
