MODEL 6
REMARK VINA RESULT: -7.592590726      1.673      6.334
REMARK  5 active torsions:
REMARK  status: ('A' for Active; 'I' for Inactive)
REMARK    1  A    between atoms: C4_9  and  C5_10 
REMARK    2  A    between atoms: C6_14  and  C7_15 
REMARK    3  A    between atoms: C7_15  and  O2_16 
REMARK    4  A    between atoms: C8_18  and  O3_19 
REMARK    5  A    between atoms: C9_21  and  O4_22 
ROOT
HETATM    1  C5  UNL     1      22.333  88.930  73.169  1.00  0.00     0.254 C 
HETATM    2  N3  UNL     1      23.564  88.275  72.999  1.00  0.00    -0.055 N 
ATOM      3  H31 UNL     1      23.530  87.314  72.660  1.00  0.00     0.278 HD
ATOM      4  H32 UNL     1      24.072  88.025  73.847  1.00  0.00     0.278 HD
HETATM    5  C6  UNL     1      24.211  89.294  72.094  1.00  0.00     0.241 C 
HETATM    6  C8  UNL     1      24.148  90.482  73.054  1.00  0.00     0.182 C 
HETATM    7  C9  UNL     1      22.681  90.399  73.442  1.00  0.00     0.184 C 
ENDROOT
BRANCH   1   8
HETATM    8  C4  UNL     1      21.286  88.460  74.032  1.00  0.00     0.019 A 
HETATM    9  C3  UNL     1      19.945  88.525  73.887  1.00  0.00     0.075 A 
HETATM   10  N2  UNL     1      19.226  88.870  72.792  1.00  0.00    -0.350 N 
HETATM   11  C11 UNL     1      19.340  88.069  75.036  1.00  0.00     0.128 A 
HETATM   12  C2  UNL     1      17.892  88.770  72.807  1.00  0.00     0.184 A 
ATOM     13  H2  UNL     1      19.703  89.207  71.955  1.00  0.00     0.166 HD
HETATM   14  N1  UNL     1      17.271  88.322  73.941  1.00  0.00    -0.318 N 
HETATM   15  C1  UNL     1      17.966  87.976  75.038  1.00  0.00     0.275 A 
ATOM     16  H1  UNL     1      16.253  88.250  73.955  1.00  0.00     0.169 HD
HETATM   17  O1  UNL     1      17.414  87.564  76.092  1.00  0.00    -0.266 OA
HETATM   18  N4  UNL     1      20.323  87.724  75.882  1.00  0.00    -0.359 N 
HETATM   19  C10 UNL     1      21.515  87.944  75.313  1.00  0.00     0.100 A 
ATOM     20  H4  UNL     1      20.184  87.350  76.821  1.00  0.00     0.165 HD
ENDBRANCH   1   8
BRANCH   7  21
HETATM   21  O4  UNL     1      21.916  91.283  72.762  1.00  0.00    -0.390 OA
ATOM     22  H4  UNL     1      21.670  90.994  71.891  1.00  0.00     0.210 HD
ENDBRANCH   7  21
BRANCH   5  23
HETATM   23  C7  UNL     1      25.565  88.927  71.656  1.00  0.00     0.199 C 
BRANCH  23  24
HETATM   24  O2  UNL     1      26.595  89.772  72.100  1.00  0.00    -0.399 OA
ATOM     25  H2  UNL     1      27.456  89.594  71.740  1.00  0.00     0.209 HD
ENDBRANCH  23  24
ENDBRANCH   5  23
BRANCH   6  26
HETATM   26  O3  UNL     1      24.564  91.658  72.553  1.00  0.00    -0.391 OA
ATOM     27  H3  UNL     1      23.976  92.393  72.684  1.00  0.00     0.210 HD
ENDBRANCH   6  26
TORSDOF 5
ENDMDL
