MODEL 5
REMARK VINA RESULT: -7.649113432      2.270      6.053
REMARK  5 active torsions:
REMARK  status: ('A' for Active; 'I' for Inactive)
REMARK    1  A    between atoms: C4_9  and  C5_10 
REMARK    2  A    between atoms: C6_14  and  C7_15 
REMARK    3  A    between atoms: C7_15  and  O2_16 
REMARK    4  A    between atoms: C8_18  and  O3_19 
REMARK    5  A    between atoms: C9_21  and  O4_22 
ROOT
HETATM    1  C5  UNL     1      21.950  89.369  73.079  1.00  0.00     0.254 C 
HETATM    2  N3  UNL     1      22.979  88.433  72.887  1.00  0.00    -0.055 N 
ATOM      3  H31 UNL     1      22.711  87.529  72.495  1.00  0.00     0.278 HD
ATOM      4  H32 UNL     1      23.387  88.021  73.725  1.00  0.00     0.278 HD
HETATM    5  C6  UNL     1      23.883  89.298  72.044  1.00  0.00     0.241 C 
HETATM    6  C8  UNL     1      24.100  90.414  73.065  1.00  0.00     0.182 C 
HETATM    7  C9  UNL     1      22.651  90.686  73.434  1.00  0.00     0.184 C 
ENDROOT
BRANCH   1   8
HETATM    8  C4  UNL     1      20.798  89.138  73.905  1.00  0.00     0.019 A 
HETATM    9  C3  UNL     1      20.694  88.506  75.094  1.00  0.00     0.075 A 
HETATM   10  N2  UNL     1      21.681  88.094  75.925  1.00  0.00    -0.350 N 
HETATM   11  C11 UNL     1      19.365  88.406  75.442  1.00  0.00     0.128 A 
HETATM   12  C2  UNL     1      21.378  87.577  77.121  1.00  0.00     0.184 A 
ATOM     13  H2  UNL     1      22.656  88.178  75.639  1.00  0.00     0.166 HD
HETATM   14  N1  UNL     1      20.063  87.466  77.485  1.00  0.00    -0.318 N 
HETATM   15  C1  UNL     1      19.069  87.868  76.674  1.00  0.00     0.275 A 
ATOM     16  H1  UNL     1      19.831  87.068  78.395  1.00  0.00     0.169 HD
HETATM   17  O1  UNL     1      17.854  87.774  76.988  1.00  0.00    -0.266 OA
HETATM   18  N4  UNL     1      18.662  88.986  74.456  1.00  0.00    -0.359 N 
HETATM   19  C10 UNL     1      19.490  89.442  73.509  1.00  0.00     0.100 A 
ATOM     20  H4  UNL     1      17.645  89.066  74.432  1.00  0.00     0.165 HD
ENDBRANCH   1   8
BRANCH   7  21
HETATM   21  O4  UNL     1      22.149  91.768  72.795  1.00  0.00    -0.390 OA
ATOM     22  H4  UNL     1      22.689  92.547  72.867  1.00  0.00     0.210 HD
ENDBRANCH   7  21
BRANCH   5  23
HETATM   23  C7  UNL     1      25.111  88.622  71.600  1.00  0.00     0.199 C 
BRANCH  23  24
HETATM   24  O2  UNL     1      24.939  87.325  71.092  1.00  0.00    -0.399 OA
ATOM     25  H2  UNL     1      25.631  86.708  71.299  1.00  0.00     0.209 HD
ENDBRANCH  23  24
ENDBRANCH   5  23
BRANCH   6  26
HETATM   26  O3  UNL     1      24.811  91.470  72.632  1.00  0.00    -0.391 OA
ATOM     27  H3  UNL     1      24.500  92.321  72.918  1.00  0.00     0.210 HD
ENDBRANCH   6  26
TORSDOF 5
ENDMDL
