MODEL 4
REMARK VINA RESULT: -7.824144818      1.648      2.415
REMARK  5 active torsions:
REMARK  status: ('A' for Active; 'I' for Inactive)
REMARK    1  A    between atoms: C4_9  and  C5_10 
REMARK    2  A    between atoms: C6_14  and  C7_15 
REMARK    3  A    between atoms: C7_15  and  O2_16 
REMARK    4  A    between atoms: C8_18  and  O3_19 
REMARK    5  A    between atoms: C9_21  and  O4_22 
ROOT
HETATM    1  C5  UNL     1      21.263  89.432  74.665  1.00  0.00     0.254 C 
HETATM    2  N3  UNL     1      21.424  88.698  75.851  1.00  0.00    -0.055 N 
ATOM      3  H31 UNL     1      21.935  89.152  76.608  1.00  0.00     0.278 HD
ATOM      4  H32 UNL     1      22.058  87.900  75.816  1.00  0.00     0.278 HD
HETATM    5  C6  UNL     1      19.966  88.397  76.100  1.00  0.00     0.241 C 
HETATM    6  C8  UNL     1      19.697  87.631  74.805  1.00  0.00     0.182 C 
HETATM    7  C9  UNL     1      20.272  88.629  73.813  1.00  0.00     0.184 C 
ENDROOT
BRANCH   1   8
HETATM    8  C4  UNL     1      22.355  89.937  73.880  1.00  0.00     0.019 A 
HETATM    9  C3  UNL     1      23.288  89.276  73.161  1.00  0.00     0.075 A 
HETATM   10  N2  UNL     1      23.326  87.965  72.823  1.00  0.00    -0.350 N 
HETATM   11  C11 UNL     1      24.219  90.174  72.689  1.00  0.00     0.128 A 
HETATM   12  C2  UNL     1      24.284  87.512  72.007  1.00  0.00     0.184 A 
ATOM     13  H2  UNL     1      22.623  87.324  73.190  1.00  0.00     0.166 HD
HETATM   14  N1  UNL     1      25.222  88.387  71.530  1.00  0.00    -0.318 N 
HETATM   15  C1  UNL     1      25.202  89.691  71.855  1.00  0.00     0.275 A 
ATOM     16  H1  UNL     1      25.955  88.040  70.911  1.00  0.00     0.169 HD
HETATM   17  O1  UNL     1      26.055  90.512  71.428  1.00  0.00    -0.266 OA
HETATM   18  N4  UNL     1      23.844  91.387  73.125  1.00  0.00    -0.359 N 
HETATM   19  C10 UNL     1      22.721  91.288  73.847  1.00  0.00     0.100 A 
ATOM     20  H4  UNL     1      24.342  92.257  72.934  1.00  0.00     0.165 HD
ENDBRANCH   1   8
BRANCH   7  21
HETATM   21  O4  UNL     1      19.315  89.383  73.223  1.00  0.00    -0.390 OA
ATOM     22  H4  UNL     1      18.599  89.621  73.800  1.00  0.00     0.210 HD
ENDBRANCH   7  21
BRANCH   5  23
HETATM   23  C7  UNL     1      19.717  87.632  77.330  1.00  0.00     0.199 C 
BRANCH  23  24
HETATM   24  O2  UNL     1      20.760  87.638  78.270  1.00  0.00    -0.399 OA
ATOM     25  H2  UNL     1      21.158  86.793  78.447  1.00  0.00     0.209 HD
ENDBRANCH  23  24
ENDBRANCH   5  23
BRANCH   6  26
HETATM   26  O3  UNL     1      18.420  87.262  74.602  1.00  0.00    -0.391 OA
ATOM     27  H3  UNL     1      18.176  87.102  73.697  1.00  0.00     0.210 HD
ENDBRANCH   6  26
TORSDOF 5
ENDMDL
