MODEL 7
REMARK VINA RESULT: -7.440417035      3.157      4.840
REMARK  5 active torsions:
REMARK  status: ('A' for Active; 'I' for Inactive)
REMARK    1  A    between atoms: C4_9  and  C5_10 
REMARK    2  A    between atoms: C6_14  and  C7_15 
REMARK    3  A    between atoms: C7_15  and  O2_16 
REMARK    4  A    between atoms: C8_18  and  O3_19 
REMARK    5  A    between atoms: C9_21  and  O4_22 
ROOT
HETATM    1  C5  UNL     1      19.796  88.465  74.132  1.00  0.00     0.254 C 
HETATM    2  N3  UNL     1      18.423  88.208  74.274  1.00  0.00    -0.055 N 
ATOM      3  H31 UNL     1      17.962  88.610  75.091  1.00  0.00     0.278 HD
ATOM      4  H32 UNL     1      18.156  87.254  74.514  1.00  0.00     0.278 HD
HETATM    5  C6  UNL     1      17.982  88.720  72.925  1.00  0.00     0.241 C 
HETATM    6  C8  UNL     1      18.813  87.764  72.068  1.00  0.00     0.182 C 
HETATM    7  C9  UNL     1      20.167  87.967  72.730  1.00  0.00     0.184 C 
ENDROOT
BRANCH   1   8
HETATM    8  C4  UNL     1      20.786  88.101  75.107  1.00  0.00     0.019 A 
HETATM    9  C3  UNL     1      20.650  87.818  76.421  1.00  0.00     0.075 A 
HETATM   10  N2  UNL     1      19.516  87.606  77.129  1.00  0.00    -0.350 N 
HETATM   11  C11 UNL     1      21.896  87.660  76.984  1.00  0.00     0.128 A 
HETATM   12  C2  UNL     1      19.587  87.228  78.411  1.00  0.00     0.184 A 
ATOM     13  H2  UNL     1      18.606  87.734  76.685  1.00  0.00     0.166 HD
HETATM   14  N1  UNL     1      20.816  87.069  78.991  1.00  0.00    -0.318 N 
HETATM   15  C1  UNL     1      21.954  87.276  78.304  1.00  0.00     0.275 A 
ATOM     16  H1  UNL     1      20.871  86.786  79.969  1.00  0.00     0.169 HD
HETATM   17  O1  UNL     1      23.094  87.137  78.819  1.00  0.00    -0.266 OA
HETATM   18  N4  UNL     1      22.793  87.846  76.001  1.00  0.00    -0.359 N 
HETATM   19  C10 UNL     1      22.163  88.113  74.851  1.00  0.00     0.100 A 
ATOM     20  H4  UNL     1      23.805  87.792  76.115  1.00  0.00     0.165 HD
ENDBRANCH   1   8
BRANCH   7  21
HETATM   21  O4  UNL     1      20.961  88.814  72.035  1.00  0.00    -0.390 OA
ATOM     22  H4  UNL     1      21.877  88.564  72.021  1.00  0.00     0.210 HD
ENDBRANCH   7  21
BRANCH   5  23
HETATM   23  C7  UNL     1      16.531  88.641  72.702  1.00  0.00     0.199 C 
BRANCH  23  24
HETATM   24  O2  UNL     1      15.742  88.600  73.862  1.00  0.00    -0.399 OA
ATOM     25  H2  UNL     1      14.854  88.926  73.766  1.00  0.00     0.209 HD
ENDBRANCH  23  24
ENDBRANCH   5  23
BRANCH   6  26
HETATM   26  O3  UNL     1      18.763  87.978  70.742  1.00  0.00    -0.391 OA
ATOM     27  H3  UNL     1      18.784  87.199  70.198  1.00  0.00     0.210 HD
ENDBRANCH   6  26
TORSDOF 5
ENDMDL
