MODEL 3
REMARK VINA RESULT: -8.239637420      1.448      1.803
REMARK  5 active torsions:
REMARK  status: ('A' for Active; 'I' for Inactive)
REMARK    1  A    between atoms: C4_9  and  C5_10 
REMARK    2  A    between atoms: C6_14  and  C7_15 
REMARK    3  A    between atoms: C7_15  and  O2_16 
REMARK    4  A    between atoms: C8_18  and  O3_19 
REMARK    5  A    between atoms: C9_21  and  O4_22 
ROOT
HETATM    1  C5  UNL     1      21.038  89.308  73.784  1.00  0.00     0.254 C 
HETATM    2  N3  UNL     1      20.762  89.025  75.132  1.00  0.00    -0.055 N 
ATOM      3  H31 UNL     1      20.798  89.809  75.783  1.00  0.00     0.278 HD
ATOM      4  H32 UNL     1      21.462  88.486  75.641  1.00  0.00     0.278 HD
HETATM    5  C6  UNL     1      19.417  88.372  74.928  1.00  0.00     0.241 C 
HETATM    6  C8  UNL     1      19.884  87.229  74.028  1.00  0.00     0.182 C 
HETATM    7  C9  UNL     1      20.678  88.033  73.011  1.00  0.00     0.184 C 
ENDROOT
BRANCH   1   8
HETATM    8  C4  UNL     1      22.271  89.882  73.321  1.00  0.00     0.019 A 
HETATM    9  C3  UNL     1      23.357  89.289  72.780  1.00  0.00     0.075 A 
HETATM   10  N2  UNL     1      23.498  88.016  72.341  1.00  0.00    -0.350 N 
HETATM   11  C11 UNL     1      24.354  90.225  72.619  1.00  0.00     0.128 A 
HETATM   12  C2  UNL     1      24.626  87.638  71.731  1.00  0.00     0.184 A 
ATOM     13  H2  UNL     1      22.742  87.344  72.477  1.00  0.00     0.166 HD
HETATM   14  N1  UNL     1      25.631  88.552  71.564  1.00  0.00    -0.318 N 
HETATM   15  C1  UNL     1      25.511  89.820  71.993  1.00  0.00     0.275 A 
ATOM     16  H1  UNL     1      26.494  88.263  71.103  1.00  0.00     0.169 HD
HETATM   17  O1  UNL     1      26.424  90.676  71.852  1.00  0.00    -0.266 OA
HETATM   18  N4  UNL     1      23.865  91.393  73.065  1.00  0.00    -0.359 N 
HETATM   19  C10 UNL     1      22.609  91.230  73.497  1.00  0.00     0.100 A 
ATOM     20  H4  UNL     1      24.376  92.276  73.074  1.00  0.00     0.165 HD
ENDBRANCH   1   8
BRANCH   7  21
HETATM   21  O4  UNL     1      19.984  88.256  71.872  1.00  0.00    -0.390 OA
ATOM     22  H4  UNL     1      20.419  87.948  71.086  1.00  0.00     0.210 HD
ENDBRANCH   7  21
BRANCH   5  23
HETATM   23  C7  UNL     1      18.765  87.947  76.175  1.00  0.00     0.199 C 
BRANCH  23  24
HETATM   24  O2  UNL     1      17.423  87.554  76.054  1.00  0.00    -0.399 OA
ATOM     25  H2  UNL     1      17.035  87.173  76.833  1.00  0.00     0.209 HD
ENDBRANCH  23  24
ENDBRANCH   5  23
BRANCH   6  26
HETATM   26  O3  UNL     1      18.912  86.442  73.534  1.00  0.00    -0.391 OA
ATOM     27  H3  UNL     1      19.184  85.572  73.265  1.00  0.00     0.210 HD
ENDBRANCH   6  26
TORSDOF 5
ENDMDL
