MODEL 1
REMARK VINA RESULT: -11.759998032      0.000      0.000
REMARK  6 active torsions:
REMARK  status: ('A' for Active; 'I' for Inactive)
REMARK    1  A    between atoms: C1_2  and  C2_4 
REMARK    2  A    between atoms: C2_4  and  N1_5 
REMARK    3  A    between atoms: N1_5  and  S1_7 
REMARK    4  A    between atoms: S1_7  and  C3_10 
REMARK    5  A    between atoms: C6_13  and  N2_14 
REMARK    6  A    between atoms: C9_17  and  C10_18 
ROOT
HETATM    1  C3  UNL     1      15.612   7.266  20.791  1.00  0.00     0.079 A 
HETATM    2  C4  UNL     1      15.670   6.807  19.482  1.00  0.00     0.027 A 
HETATM    3  C5  UNL     1      16.212   7.572  18.487  1.00  0.00     0.031 A 
HETATM    4  C6  UNL     1      16.707   8.813  18.789  1.00  0.00     0.030 A 
HETATM    5  C18 UNL     1      16.647   9.276  20.107  1.00  0.00     0.031 A 
HETATM    6  C19 UNL     1      16.105   8.513  21.106  1.00  0.00     0.027 A 
ENDROOT
BRANCH   4   7
HETATM    7  N2  UNL     1      17.274   9.631  17.759  1.00  0.00    -0.381 N 
HETATM    8  C7  UNL     1      17.366   9.060  16.435  1.00  0.00     0.123 C 
HETATM    9  C8  UNL     1      17.761  10.120  15.433  1.00  0.00     0.029 C 
HETATM   10  C9  UNL     1      18.976  10.820  15.964  1.00  0.00     0.021 C 
HETATM   11  C16 UNL     1      18.525  11.675  17.126  1.00  0.00     0.029 C 
HETATM   12  C17 UNL     1      17.711  10.949  18.132  1.00  0.00     0.123 C 
BRANCH  10  13
HETATM   13  C10 UNL     1      19.590  11.742  14.965  1.00  0.00    -0.054 A 
HETATM   14  C11 UNL     1      20.758  12.402  15.175  1.00  0.00     0.007 A 
HETATM   15  C12 UNL     1      21.259  13.249  14.176  1.00  0.00     0.001 A 
HETATM   16  C13 UNL     1      20.586  13.417  12.990  1.00  0.00     0.000 A 
HETATM   17  C14 UNL     1      19.403  12.756  12.762  1.00  0.00     0.001 A 
HETATM   18  C15 UNL     1      18.913  11.916  13.763  1.00  0.00     0.007 A 
ENDBRANCH  10  13
ENDBRANCH   4   7
BRANCH   1  19
HETATM   19  S1  UNL     1      14.909   6.250  22.021  1.00  0.00     0.259 S 
HETATM   20  O3  UNL     1      15.025   4.795  21.705  1.00  0.00    -0.201 OA
HETATM   21  O4  UNL     1      15.588   6.569  23.338  1.00  0.00    -0.201 OA
BRANCH  19  22
HETATM   22  N1  UNL     1      13.244   6.638  22.151  1.00  0.00    -0.305 N 
ATOM     23  H1  UNL     1      12.857   7.527  22.468  1.00  0.00     0.172 HD
BRANCH  22  24
HETATM   24  C2  UNL     1      12.479   5.472  21.728  1.00  0.00     0.245 C 
BRANCH  24  25
HETATM   25  C1  UNL     1      11.773   5.749  20.439  1.00  0.00     0.191 C 
HETATM   26  O1  UNL     1      12.439   5.799  19.391  1.00  0.00    -0.647 OA
HETATM   27  O2  UNL     1      10.411   5.945  20.410  1.00  0.00    -0.647 OA
ENDBRANCH  24  25
ENDBRANCH  22  24
ENDBRANCH  19  22
ENDBRANCH   1  19
TORSDOF 6
ENDMDL
