MODEL 13
REMARK VINA RESULT: -10.164881644      6.525     10.401
REMARK  6 active torsions:
REMARK  status: ('A' for Active; 'I' for Inactive)
REMARK    1  A    between atoms: C1_2  and  C2_4 
REMARK    2  A    between atoms: C2_4  and  N1_5 
REMARK    3  A    between atoms: N1_5  and  S1_7 
REMARK    4  A    between atoms: S1_7  and  C3_10 
REMARK    5  A    between atoms: C6_13  and  N2_14 
REMARK    6  A    between atoms: C9_17  and  C10_18 
ROOT
HETATM    1  C3  UNL     1      19.182  12.380  13.867  1.00  0.00     0.079 A 
HETATM    2  C4  UNL     1      18.448  11.219  13.670  1.00  0.00     0.027 A 
HETATM    3  C5  UNL     1      17.921  10.527  14.725  1.00  0.00     0.031 A 
HETATM    4  C6  UNL     1      18.121  10.990  15.998  1.00  0.00     0.030 A 
HETATM    5  C18 UNL     1      18.862  12.158  16.198  1.00  0.00     0.031 A 
HETATM    6  C19 UNL     1      19.391  12.854  15.144  1.00  0.00     0.027 A 
ENDROOT
BRANCH   4   7
HETATM    7  N2  UNL     1      17.581  10.275  17.116  1.00  0.00    -0.381 N 
HETATM    8  C7  UNL     1      17.882  10.782  18.435  1.00  0.00     0.123 C 
HETATM    9  C8  UNL     1      17.054  10.063  19.475  1.00  0.00     0.029 C 
HETATM   10  C9  UNL     1      17.219   8.590  19.252  1.00  0.00     0.021 C 
HETATM   11  C16 UNL     1      16.463   8.242  17.990  1.00  0.00     0.029 C 
HETATM   12  C17 UNL     1      16.790   9.109  16.831  1.00  0.00     0.123 C 
BRANCH  10  13
HETATM   13  C10 UNL     1      16.624   7.773  20.349  1.00  0.00    -0.054 A 
HETATM   14  C11 UNL     1      16.386   8.254  21.596  1.00  0.00     0.007 A 
HETATM   15  C12 UNL     1      15.823   7.409  22.563  1.00  0.00     0.001 A 
HETATM   16  C13 UNL     1      15.508   6.104  22.265  1.00  0.00     0.000 A 
HETATM   17  C14 UNL     1      15.743   5.603  21.008  1.00  0.00     0.001 A 
HETATM   18  C15 UNL     1      16.304   6.452  20.053  1.00  0.00     0.007 A 
ENDBRANCH  10  13
ENDBRANCH   4   7
BRANCH   1  19
HETATM   19  S1  UNL     1      19.832  13.224  12.488  1.00  0.00     0.259 S 
HETATM   20  O3  UNL     1      18.877  14.220  11.917  1.00  0.00    -0.201 OA
HETATM   21  O4  UNL     1      21.120  13.899  12.913  1.00  0.00    -0.201 OA
BRANCH  19  22
HETATM   22  N1  UNL     1      20.190  12.069  11.272  1.00  0.00    -0.305 N 
ATOM     23  H1  UNL     1      19.605  11.277  11.004  1.00  0.00     0.172 HD
BRANCH  22  24
HETATM   24  C2  UNL     1      21.479  12.419  10.687  1.00  0.00     0.245 C 
BRANCH  24  25
HETATM   25  C1  UNL     1      21.314  12.818   9.256  1.00  0.00     0.191 C 
HETATM   26  O1  UNL     1      20.916  13.968   8.997  1.00  0.00    -0.647 OA
HETATM   27  O2  UNL     1      21.595  11.933   8.241  1.00  0.00    -0.647 OA
ENDBRANCH  24  25
ENDBRANCH  22  24
ENDBRANCH  19  22
ENDBRANCH   1  19
TORSDOF 6
ENDMDL
