MODEL 14
REMARK VINA RESULT: -10.121459557      7.752     11.380
REMARK  6 active torsions:
REMARK  status: ('A' for Active; 'I' for Inactive)
REMARK    1  A    between atoms: C1_2  and  C2_4 
REMARK    2  A    between atoms: C2_4  and  N1_5 
REMARK    3  A    between atoms: N1_5  and  S1_7 
REMARK    4  A    between atoms: S1_7  and  C3_10 
REMARK    5  A    between atoms: C6_13  and  N2_14 
REMARK    6  A    between atoms: C9_17  and  C10_18 
ROOT
HETATM    1  C3  UNL     1      20.463  13.700  12.236  1.00  0.00     0.079 A 
HETATM    2  C4  UNL     1      19.301  12.960  12.064  1.00  0.00     0.027 A 
HETATM    3  C5  UNL     1      18.808  12.172  13.066  1.00  0.00     0.031 A 
HETATM    4  C6  UNL     1      19.474  12.113  14.262  1.00  0.00     0.030 A 
HETATM    5  C18 UNL     1      20.645  12.856  14.436  1.00  0.00     0.031 A 
HETATM    6  C19 UNL     1      21.142  13.647  13.434  1.00  0.00     0.027 A 
ENDROOT
BRANCH   4   7
HETATM    7  N2  UNL     1      18.976  11.289  15.322  1.00  0.00    -0.381 N 
HETATM    8  C7  UNL     1      18.254  10.094  14.950  1.00  0.00     0.123 C 
HETATM    9  C8  UNL     1      18.007   9.229  16.164  1.00  0.00     0.029 C 
HETATM   10  C9  UNL     1      17.399  10.096  17.226  1.00  0.00     0.021 C 
HETATM   11  C16 UNL     1      18.491  11.007  17.737  1.00  0.00     0.029 C 
HETATM   12  C17 UNL     1      19.232  11.723  16.669  1.00  0.00     0.123 C 
BRANCH  10  13
HETATM   13  C10 UNL     1      16.910   9.312  18.397  1.00  0.00    -0.054 A 
HETATM   14  C11 UNL     1      16.949   9.772  19.674  1.00  0.00     0.007 A 
HETATM   15  C12 UNL     1      16.466   8.962  20.711  1.00  0.00     0.001 A 
HETATM   16  C13 UNL     1      15.953   7.713  20.453  1.00  0.00     0.000 A 
HETATM   17  C14 UNL     1      15.906   7.235  19.166  1.00  0.00     0.001 A 
HETATM   18  C15 UNL     1      16.390   8.048  18.141  1.00  0.00     0.007 A 
ENDBRANCH  10  13
ENDBRANCH   4   7
BRANCH   1  19
HETATM   19  S1  UNL     1      21.049  14.688  10.925  1.00  0.00     0.259 S 
HETATM   20  O3  UNL     1      20.824  16.146  11.157  1.00  0.00    -0.201 OA
HETATM   21  O4  UNL     1      22.523  14.395  10.737  1.00  0.00    -0.201 OA
BRANCH  19  22
HETATM   22  N1  UNL     1      20.211  14.239   9.498  1.00  0.00    -0.305 N 
ATOM     23  H1  UNL     1      19.200  14.138   9.401  1.00  0.00     0.172 HD
BRANCH  22  24
HETATM   24  C2  UNL     1      21.198  14.027   8.447  1.00  0.00     0.245 C 
BRANCH  24  25
HETATM   25  C1  UNL     1      21.479  15.307   7.727  1.00  0.00     0.191 C 
HETATM   26  O1  UNL     1      20.546  16.107   7.544  1.00  0.00    -0.647 OA
HETATM   27  O2  UNL     1      22.746  15.596   7.272  1.00  0.00    -0.647 OA
ENDBRANCH  24  25
ENDBRANCH  22  24
ENDBRANCH  19  22
ENDBRANCH   1  19
TORSDOF 6
ENDMDL
