MODEL 7
REMARK VINA RESULT: -10.768396776      1.424      2.344
REMARK  6 active torsions:
REMARK  status: ('A' for Active; 'I' for Inactive)
REMARK    1  A    between atoms: C1_2  and  C2_4 
REMARK    2  A    between atoms: C2_4  and  N1_5 
REMARK    3  A    between atoms: N1_5  and  S1_7 
REMARK    4  A    between atoms: S1_7  and  C3_10 
REMARK    5  A    between atoms: C6_13  and  N2_14 
REMARK    6  A    between atoms: C9_17  and  C10_18 
ROOT
HETATM    1  C3  UNL     1      15.501   7.472  20.443  1.00  0.00     0.079 A 
HETATM    2  C4  UNL     1      15.607   7.038  19.129  1.00  0.00     0.027 A 
HETATM    3  C5  UNL     1      16.307   7.756  18.200  1.00  0.00     0.031 A 
HETATM    4  C6  UNL     1      16.917   8.924  18.575  1.00  0.00     0.030 A 
HETATM    5  C18 UNL     1      16.810   9.363  19.898  1.00  0.00     0.031 A 
HETATM    6  C19 UNL     1      16.109   8.646  20.831  1.00  0.00     0.027 A 
ENDROOT
BRANCH   4   7
HETATM    7  N2  UNL     1      17.651   9.692  17.614  1.00  0.00    -0.381 N 
HETATM    8  C7  UNL     1      18.254  10.923  18.071  1.00  0.00     0.123 C 
HETATM    9  C8  UNL     1      19.175  11.481  17.011  1.00  0.00     0.029 C 
HETATM   10  C9  UNL     1      18.412  11.527  15.721  1.00  0.00     0.021 C 
HETATM   11  C16 UNL     1      18.254  10.101  15.245  1.00  0.00     0.029 C 
HETATM   12  C17 UNL     1      17.721   9.175  16.274  1.00  0.00     0.123 C 
BRANCH  10  13
HETATM   13  C10 UNL     1      19.143  12.260  14.647  1.00  0.00    -0.054 A 
HETATM   14  C11 UNL     1      18.609  12.527  13.427  1.00  0.00     0.007 A 
HETATM   15  C12 UNL     1      19.374  13.223  12.480  1.00  0.00     0.001 A 
HETATM   16  C13 UNL     1      20.651  13.640  12.770  1.00  0.00     0.000 A 
HETATM   17  C14 UNL     1      21.204  13.378  14.000  1.00  0.00     0.001 A 
HETATM   18  C15 UNL     1      20.436  12.684  14.935  1.00  0.00     0.007 A 
ENDBRANCH  10  13
ENDBRANCH   4   7
BRANCH   1  19
HETATM   19  S1  UNL     1      14.596   6.520  21.588  1.00  0.00     0.259 S 
HETATM   20  O3  UNL     1      14.891   6.885  23.005  1.00  0.00    -0.201 OA
HETATM   21  O4  UNL     1      13.121   6.696  21.284  1.00  0.00    -0.201 OA
BRANCH  19  22
HETATM   22  N1  UNL     1      15.012   4.871  21.363  1.00  0.00    -0.305 N 
ATOM     23  H1  UNL     1      15.343   4.448  20.496  1.00  0.00     0.172 HD
BRANCH  22  24
HETATM   24  C2  UNL     1      14.811   4.182  22.632  1.00  0.00     0.245 C 
BRANCH  24  25
HETATM   25  C1  UNL     1      13.592   3.319  22.570  1.00  0.00     0.191 C 
HETATM   26  O1  UNL     1      12.496   3.806  22.900  1.00  0.00    -0.647 OA
HETATM   27  O2  UNL     1      13.676   2.008  22.158  1.00  0.00    -0.647 OA
ENDBRANCH  24  25
ENDBRANCH  22  24
ENDBRANCH  19  22
ENDBRANCH   1  19
TORSDOF 6
ENDMDL
