MODEL 2
REMARK VINA RESULT: -11.647710515      0.729      1.895
REMARK  6 active torsions:
REMARK  status: ('A' for Active; 'I' for Inactive)
REMARK    1  A    between atoms: C1_2  and  C2_4 
REMARK    2  A    between atoms: C2_4  and  N1_5 
REMARK    3  A    between atoms: N1_5  and  S1_7 
REMARK    4  A    between atoms: S1_7  and  C3_10 
REMARK    5  A    between atoms: C6_13  and  N2_14 
REMARK    6  A    between atoms: C9_17  and  C10_18 
ROOT
HETATM    1  C3  UNL     1      15.377   7.153  20.738  1.00  0.00     0.079 A 
HETATM    2  C4  UNL     1      15.959   8.360  21.099  1.00  0.00     0.027 A 
HETATM    3  C5  UNL     1      16.648   9.114  20.191  1.00  0.00     0.031 A 
HETATM    4  C6  UNL     1      16.766   8.668  18.900  1.00  0.00     0.030 A 
HETATM    5  C18 UNL     1      16.181   7.452  18.537  1.00  0.00     0.031 A 
HETATM    6  C19 UNL     1      15.490   6.695  19.444  1.00  0.00     0.027 A 
ENDROOT
BRANCH   4   7
HETATM    7  N2  UNL     1      17.489   9.442  17.936  1.00  0.00    -0.381 N 
HETATM    8  C7  UNL     1      18.115  10.660  18.397  1.00  0.00     0.123 C 
HETATM    9  C8  UNL     1      19.020  11.223  17.327  1.00  0.00     0.029 C 
HETATM   10  C9  UNL     1      18.232  11.296  16.053  1.00  0.00     0.021 C 
HETATM   11  C16 UNL     1      18.048   9.879  15.561  1.00  0.00     0.029 C 
HETATM   12  C17 UNL     1      17.526   8.944  16.588  1.00  0.00     0.123 C 
BRANCH  10  13
HETATM   13  C10 UNL     1      18.949  12.037  14.975  1.00  0.00    -0.054 A 
HETATM   14  C11 UNL     1      18.410  12.288  13.754  1.00  0.00     0.007 A 
HETATM   15  C12 UNL     1      19.162  12.992  12.803  1.00  0.00     0.001 A 
HETATM   16  C13 UNL     1      20.431  13.433  13.091  1.00  0.00     0.000 A 
HETATM   17  C14 UNL     1      20.990  13.187  14.322  1.00  0.00     0.001 A 
HETATM   18  C15 UNL     1      20.234  12.485  15.261  1.00  0.00     0.007 A 
ENDBRANCH  10  13
ENDBRANCH   4   7
BRANCH   1  19
HETATM   19  S1  UNL     1      14.509   6.231  21.936  1.00  0.00     0.259 S 
HETATM   20  O3  UNL     1      14.454   4.773  21.614  1.00  0.00    -0.201 OA
HETATM   21  O4  UNL     1      15.174   6.459  23.278  1.00  0.00    -0.201 OA
BRANCH  19  22
HETATM   22  N1  UNL     1      12.902   6.823  22.008  1.00  0.00    -0.305 N 
ATOM     23  H1  UNL     1      12.620   7.764  22.284  1.00  0.00     0.172 HD
BRANCH  22  24
HETATM   24  C2  UNL     1      12.008   5.744  21.604  1.00  0.00     0.245 C 
BRANCH  24  25
HETATM   25  C1  UNL     1      10.610   6.252  21.451  1.00  0.00     0.191 C 
HETATM   26  O1  UNL     1      10.103   6.898  22.385  1.00  0.00    -0.647 OA
HETATM   27  O2  UNL     1       9.895   6.010  20.300  1.00  0.00    -0.647 OA
ENDBRANCH  24  25
ENDBRANCH  22  24
ENDBRANCH  19  22
ENDBRANCH   1  19
TORSDOF 6
ENDMDL
