MODEL 4
REMARK VINA RESULT: -11.410447226      0.829      1.616
REMARK  6 active torsions:
REMARK  status: ('A' for Active; 'I' for Inactive)
REMARK    1  A    between atoms: C1_2  and  C2_4 
REMARK    2  A    between atoms: C2_4  and  N1_5 
REMARK    3  A    between atoms: N1_5  and  S1_7 
REMARK    4  A    between atoms: S1_7  and  C3_10 
REMARK    5  A    between atoms: C6_13  and  N2_14 
REMARK    6  A    between atoms: C9_17  and  C10_18 
ROOT
HETATM    1  C3  UNL     1      15.700   7.582  20.584  1.00  0.00     0.079 A 
HETATM    2  C4  UNL     1      15.820   7.092  19.291  1.00  0.00     0.027 A 
HETATM    3  C5  UNL     1      16.482   7.797  18.325  1.00  0.00     0.031 A 
HETATM    4  C6  UNL     1      17.037   9.009  18.641  1.00  0.00     0.030 A 
HETATM    5  C18 UNL     1      16.916   9.504  19.942  1.00  0.00     0.031 A 
HETATM    6  C19 UNL     1      16.253   8.801  20.912  1.00  0.00     0.027 A 
ENDROOT
BRANCH   4   7
HETATM    7  N2  UNL     1      17.729   9.765  17.640  1.00  0.00    -0.381 N 
HETATM    8  C7  UNL     1      18.353  11.000  18.055  1.00  0.00     0.123 C 
HETATM    9  C8  UNL     1      19.228  11.544  16.950  1.00  0.00     0.029 C 
HETATM   10  C9  UNL     1      18.410  11.577  15.694  1.00  0.00     0.021 C 
HETATM   11  C16 UNL     1      18.229  10.146  15.242  1.00  0.00     0.029 C 
HETATM   12  C17 UNL     1      17.740   9.232  16.304  1.00  0.00     0.123 C 
BRANCH  10  13
HETATM   13  C10 UNL     1      19.094  12.296  14.581  1.00  0.00    -0.054 A 
HETATM   14  C11 UNL     1      18.505  12.557  13.385  1.00  0.00     0.007 A 
HETATM   15  C12 UNL     1      19.229  13.240  12.397  1.00  0.00     0.001 A 
HETATM   16  C13 UNL     1      20.521  13.650  12.624  1.00  0.00     0.000 A 
HETATM   17  C14 UNL     1      21.129  13.394  13.828  1.00  0.00     0.001 A 
HETATM   18  C15 UNL     1      20.401  12.713  14.804  1.00  0.00     0.007 A 
ENDBRANCH  10  13
ENDBRANCH   4   7
BRANCH   1  19
HETATM   19  S1  UNL     1      14.846   6.643  21.779  1.00  0.00     0.259 S 
HETATM   20  O3  UNL     1      15.272   5.212  21.801  1.00  0.00    -0.201 OA
HETATM   21  O4  UNL     1      15.065   7.291  23.131  1.00  0.00    -0.201 OA
BRANCH  19  22
HETATM   22  N1  UNL     1      13.173   6.696  21.406  1.00  0.00    -0.305 N 
ATOM     23  H1  UNL     1      12.604   7.538  21.312  1.00  0.00     0.172 HD
BRANCH  22  24
HETATM   24  C2  UNL     1      12.706   5.324  21.248  1.00  0.00     0.245 C 
BRANCH  24  25
HETATM   25  C1  UNL     1      12.642   4.957  19.800  1.00  0.00     0.191 C 
HETATM   26  O1  UNL     1      12.754   5.856  18.949  1.00  0.00    -0.647 OA
HETATM   27  O2  UNL     1      12.462   3.648  19.413  1.00  0.00    -0.647 OA
ENDBRANCH  24  25
ENDBRANCH  22  24
ENDBRANCH  19  22
ENDBRANCH   1  19
TORSDOF 6
ENDMDL
