MODEL 15
REMARK VINA RESULT: -10.098886235      7.213     10.940
REMARK  6 active torsions:
REMARK  status: ('A' for Active; 'I' for Inactive)
REMARK    1  A    between atoms: C1_2  and  C2_4 
REMARK    2  A    between atoms: C2_4  and  N1_5 
REMARK    3  A    between atoms: N1_5  and  S1_7 
REMARK    4  A    between atoms: S1_7  and  C3_10 
REMARK    5  A    between atoms: C6_13  and  N2_14 
REMARK    6  A    between atoms: C9_17  and  C10_18 
ROOT
HETATM    1  C3  UNL     1      20.359  13.734  12.030  1.00  0.00     0.079 A 
HETATM    2  C4  UNL     1      21.077  13.641  13.214  1.00  0.00     0.027 A 
HETATM    3  C5  UNL     1      20.638  12.864  14.249  1.00  0.00     0.031 A 
HETATM    4  C6  UNL     1      19.468  12.164  14.113  1.00  0.00     0.030 A 
HETATM    5  C18 UNL     1      18.744  12.258  12.922  1.00  0.00     0.031 A 
HETATM    6  C19 UNL     1      19.181  13.036  11.883  1.00  0.00     0.027 A 
ENDROOT
BRANCH   4   7
HETATM    7  N2  UNL     1      18.989  11.349  15.189  1.00  0.00    -0.381 N 
HETATM    8  C7  UNL     1      18.255  10.154  14.840  1.00  0.00     0.123 C 
HETATM    9  C8  UNL     1      18.031   9.298  16.066  1.00  0.00     0.029 C 
HETATM   10  C9  UNL     1      17.449  10.174  17.134  1.00  0.00     0.021 C 
HETATM   11  C16 UNL     1      18.555  11.085  17.616  1.00  0.00     0.029 C 
HETATM   12  C17 UNL     1      19.275  11.791  16.527  1.00  0.00     0.123 C 
BRANCH  10  13
HETATM   13  C10 UNL     1      16.983   9.400  18.321  1.00  0.00    -0.054 A 
HETATM   14  C11 UNL     1      17.013   9.884  19.589  1.00  0.00     0.007 A 
HETATM   15  C12 UNL     1      16.552   9.081  20.642  1.00  0.00     0.001 A 
HETATM   16  C13 UNL     1      16.070   7.815  20.408  1.00  0.00     0.000 A 
HETATM   17  C14 UNL     1      16.033   7.312  19.130  1.00  0.00     0.001 A 
HETATM   18  C15 UNL     1      16.494   8.119  18.089  1.00  0.00     0.007 A 
ENDBRANCH  10  13
ENDBRANCH   4   7
BRANCH   1  19
HETATM   19  S1  UNL     1      20.963  14.740  10.741  1.00  0.00     0.259 S 
HETATM   20  O3  UNL     1      19.919  15.064   9.723  1.00  0.00    -0.201 OA
HETATM   21  O4  UNL     1      21.526  16.005  11.355  1.00  0.00    -0.201 OA
BRANCH  19  22
HETATM   22  N1  UNL     1      22.233  13.898   9.953  1.00  0.00    -0.305 N 
ATOM     23  H1  UNL     1      23.192  13.806  10.289  1.00  0.00     0.172 HD
BRANCH  22  24
HETATM   24  C2  UNL     1      21.699  13.336   8.718  1.00  0.00     0.245 C 
BRANCH  24  25
HETATM   25  C1  UNL     1      21.785  11.843   8.742  1.00  0.00     0.191 C 
HETATM   26  O1  UNL     1      22.525  11.273   7.921  1.00  0.00    -0.647 OA
HETATM   27  O2  UNL     1      21.061  11.111   9.655  1.00  0.00    -0.647 OA
ENDBRANCH  24  25
ENDBRANCH  22  24
ENDBRANCH  19  22
ENDBRANCH   1  19
TORSDOF 6
ENDMDL
