MODEL 3
REMARK VINA RESULT: -11.646823664      0.178      1.475
REMARK  6 active torsions:
REMARK  status: ('A' for Active; 'I' for Inactive)
REMARK    1  A    between atoms: C1_2  and  C2_4 
REMARK    2  A    between atoms: C2_4  and  N1_5 
REMARK    3  A    between atoms: N1_5  and  S1_7 
REMARK    4  A    between atoms: S1_7  and  C3_10 
REMARK    5  A    between atoms: C6_13  and  N2_14 
REMARK    6  A    between atoms: C9_17  and  C10_18 
ROOT
HETATM    1  C3  UNL     1      15.679   7.336  20.739  1.00  0.00     0.079 A 
HETATM    2  C4  UNL     1      16.162   8.609  21.003  1.00  0.00     0.027 A 
HETATM    3  C5  UNL     1      16.685   9.389  20.008  1.00  0.00     0.031 A 
HETATM    4  C6  UNL     1      16.730   8.902  18.729  1.00  0.00     0.030 A 
HETATM    5  C18 UNL     1      16.245   7.619  18.462  1.00  0.00     0.031 A 
HETATM    6  C19 UNL     1      15.721   6.835  19.456  1.00  0.00     0.027 A 
ENDROOT
BRANCH   4   7
HETATM    7  N2  UNL     1      17.279   9.702  17.675  1.00  0.00    -0.381 N 
HETATM    8  C7  UNL     1      17.383   9.096  16.367  1.00  0.00     0.123 C 
HETATM    9  C8  UNL     1      17.754  10.134  15.335  1.00  0.00     0.029 C 
HETATM   10  C9  UNL     1      18.953  10.877  15.844  1.00  0.00     0.021 C 
HETATM   11  C16 UNL     1      18.483  11.755  16.982  1.00  0.00     0.029 C 
HETATM   12  C17 UNL     1      17.685  11.040  18.008  1.00  0.00     0.123 C 
BRANCH  10  13
HETATM   13  C10 UNL     1      19.546  11.783  14.819  1.00  0.00    -0.054 A 
HETATM   14  C11 UNL     1      18.968  12.032  13.616  1.00  0.00     0.007 A 
HETATM   15  C12 UNL     1      19.602  12.899  12.715  1.00  0.00     0.001 A 
HETATM   16  C13 UNL     1      20.796  13.500  13.033  1.00  0.00     0.000 A 
HETATM   17  C14 UNL     1      21.394  13.258  14.246  1.00  0.00     0.001 A 
HETATM   18  C15 UNL     1      20.755  12.393  15.135  1.00  0.00     0.007 A 
ENDBRANCH  10  13
ENDBRANCH   4   7
BRANCH   1  19
HETATM   19  S1  UNL     1      15.024   6.383  22.043  1.00  0.00     0.259 S 
HETATM   20  O3  UNL     1      15.233   4.917  21.850  1.00  0.00    -0.201 OA
HETATM   21  O4  UNL     1      15.662   6.852  23.335  1.00  0.00    -0.201 OA
BRANCH  19  22
HETATM   22  N1  UNL     1      13.335   6.675  22.125  1.00  0.00    -0.305 N 
ATOM     23  H1  UNL     1      12.889   7.535  22.443  1.00  0.00     0.172 HD
BRANCH  22  24
HETATM   24  C2  UNL     1      12.651   5.475  21.660  1.00  0.00     0.245 C 
BRANCH  24  25
HETATM   25  C1  UNL     1      11.940   5.744  20.372  1.00  0.00     0.191 C 
HETATM   26  O1  UNL     1      10.709   5.921  20.394  1.00  0.00    -0.647 OA
HETATM   27  O2  UNL     1      12.632   5.797  19.183  1.00  0.00    -0.647 OA
ENDBRANCH  24  25
ENDBRANCH  22  24
ENDBRANCH  19  22
ENDBRANCH   1  19
TORSDOF 6
ENDMDL
