MODEL 1
REMARK VINA RESULT: -5.493095126      0.000      0.000
REMARK  2 active torsions:
REMARK  status: ('A' for Active; 'I' for Inactive)
REMARK    1  A    between atoms: N1_1  and  S1_4 
REMARK    2  A    between atoms: S1_4  and  C1_7 
ROOT
HETATM    1  S1  UNL     1      -4.919   0.918  16.040  1.00  0.00     0.327 S 
HETATM    2  O1  UNL     1      -3.556   1.218  16.593  1.00  0.00    -0.197 OA
HETATM    3  O2  UNL     1      -4.880  -0.423  15.372  1.00  0.00    -0.197 OA
ENDROOT
BRANCH   1   4
HETATM    4  N1  UNL     1      -5.339   2.165  14.917  1.00  0.00    -0.321 N 
ATOM      5  H12 UNL     1      -4.965   2.251  13.972  1.00  0.00     0.169 HD
ATOM      6  H11 UNL     1      -6.015   2.785  15.363  1.00  0.00     0.169 HD
ENDBRANCH   1   4
BRANCH   1   7
HETATM    7  C1  UNL     1      -6.158   0.941  17.331  1.00  0.00     0.517 C 
HETATM    8  F1  UNL     1      -7.422   1.004  16.838  1.00  0.00    -0.155 F 
HETATM    9  F2  UNL     1      -5.931   2.074  18.089  1.00  0.00    -0.155 F 
HETATM   10  F3  UNL     1      -6.030  -0.209  18.076  1.00  0.00    -0.155 F 
ENDBRANCH   1   7
TORSDOF 2
ENDMDL
