MODEL 3
REMARK VINA RESULT: -5.399385033      0.137      1.372
REMARK  2 active torsions:
REMARK  status: ('A' for Active; 'I' for Inactive)
REMARK    1  A    between atoms: N1_1  and  S1_4 
REMARK    2  A    between atoms: S1_4  and  C1_7 
ROOT
HETATM    1  S1  UNL     1      -4.957   1.005  15.990  1.00  0.00     0.327 S 
HETATM    2  O1  UNL     1      -3.568   1.228  16.517  1.00  0.00    -0.197 OA
HETATM    3  O2  UNL     1      -4.969  -0.268  15.199  1.00  0.00    -0.197 OA
ENDROOT
BRANCH   1   4
HETATM    4  N1  UNL     1      -5.389   2.359  15.005  1.00  0.00    -0.321 N 
ATOM      5  H12 UNL     1      -4.774   2.811  14.327  1.00  0.00     0.169 HD
ATOM      6  H11 UNL     1      -6.352   2.619  15.219  1.00  0.00     0.169 HD
ENDBRANCH   1   4
BRANCH   1   7
HETATM    7  C1  UNL     1      -6.148   0.928  17.322  1.00  0.00     0.517 C 
HETATM    8  F1  UNL     1      -6.047  -0.217  18.046  1.00  0.00    -0.155 F 
HETATM    9  F2  UNL     1      -7.403   0.967  16.745  1.00  0.00    -0.155 F 
HETATM   10  F3  UNL     1      -5.935   2.001  18.157  1.00  0.00    -0.155 F 
ENDBRANCH   1   7
TORSDOF 2
ENDMDL
