MODEL 5
REMARK VINA RESULT: -5.311387846      1.051      1.883
REMARK  2 active torsions:
REMARK  status: ('A' for Active; 'I' for Inactive)
REMARK    1  A    between atoms: N1_1  and  S1_4 
REMARK    2  A    between atoms: S1_4  and  C1_7 
ROOT
HETATM    1  S1  UNL     1      -4.719   1.069  15.734  1.00  0.00     0.327 S 
HETATM    2  O1  UNL     1      -3.506   1.281  16.594  1.00  0.00    -0.197 OA
HETATM    3  O2  UNL     1      -4.913  -0.404  15.537  1.00  0.00    -0.197 OA
ENDROOT
BRANCH   1   4
HETATM    4  N1  UNL     1      -4.464   1.875  14.225  1.00  0.00    -0.321 N 
ATOM      5  H12 UNL     1      -4.851   1.576  13.329  1.00  0.00     0.169 HD
ATOM      6  H11 UNL     1      -3.870   2.687  14.391  1.00  0.00     0.169 HD
ENDBRANCH   1   4
BRANCH   1   7
HETATM    7  C1  UNL     1      -6.172   1.801  16.477  1.00  0.00     0.517 C 
HETATM    8  F1  UNL     1      -5.945   2.240  17.743  1.00  0.00    -0.155 F 
HETATM    9  F2  UNL     1      -7.141   0.817  16.527  1.00  0.00    -0.155 F 
HETATM   10  F3  UNL     1      -6.565   2.867  15.703  1.00  0.00    -0.155 F 
ENDBRANCH   1   7
TORSDOF 2
ENDMDL
