MODEL 4
REMARK VINA RESULT: -5.355098334      1.057      1.438
REMARK  2 active torsions:
REMARK  status: ('A' for Active; 'I' for Inactive)
REMARK    1  A    between atoms: N1_1  and  S1_4 
REMARK    2  A    between atoms: S1_4  and  C1_7 
ROOT
HETATM    1  S1  UNL     1      -4.707   1.042  15.705  1.00  0.00     0.327 S 
HETATM    2  O1  UNL     1      -3.516   1.256  16.594  1.00  0.00    -0.197 OA
HETATM    3  O2  UNL     1      -4.887  -0.431  15.493  1.00  0.00    -0.197 OA
ENDROOT
BRANCH   1   4
HETATM    4  N1  UNL     1      -4.424   1.861  14.208  1.00  0.00    -0.321 N 
ATOM      5  H12 UNL     1      -3.566   1.798  13.659  1.00  0.00     0.169 HD
ATOM      6  H11 UNL     1      -5.254   2.406  13.978  1.00  0.00     0.169 HD
ENDBRANCH   1   4
BRANCH   1   7
HETATM    7  C1  UNL     1      -6.182   1.758  16.419  1.00  0.00     0.517 C 
HETATM    8  F1  UNL     1      -7.203   0.866  16.510  1.00  0.00    -0.155 F 
HETATM    9  F2  UNL     1      -6.579   2.786  15.584  1.00  0.00    -0.155 F 
HETATM   10  F3  UNL     1      -5.877   2.213  17.681  1.00  0.00    -0.155 F 
ENDBRANCH   1   7
TORSDOF 2
ENDMDL
