MODEL 2
REMARK VINA RESULT: -5.485333318      0.066      1.381
REMARK  2 active torsions:
REMARK  status: ('A' for Active; 'I' for Inactive)
REMARK    1  A    between atoms: N1_1  and  S1_4 
REMARK    2  A    between atoms: S1_4  and  C1_7 
ROOT
HETATM    1  S1  UNL     1      -4.928   0.919  16.058  1.00  0.00     0.327 S 
HETATM    2  O1  UNL     1      -3.564   1.231  16.606  1.00  0.00    -0.197 OA
HETATM    3  O2  UNL     1      -4.881  -0.425  15.397  1.00  0.00    -0.197 OA
ENDROOT
BRANCH   1   4
HETATM    4  N1  UNL     1      -5.358   2.157  14.930  1.00  0.00    -0.321 N 
ATOM      5  H12 UNL     1      -4.720   2.868  14.569  1.00  0.00     0.169 HD
ATOM      6  H11 UNL     1      -6.344   2.050  14.695  1.00  0.00     0.169 HD
ENDBRANCH   1   4
BRANCH   1   7
HETATM    7  C1  UNL     1      -6.163   0.941  17.352  1.00  0.00     0.517 C 
HETATM    8  F1  UNL     1      -6.009   1.990  18.201  1.00  0.00    -0.155 F 
HETATM    9  F2  UNL     1      -6.013  -0.227  18.075  1.00  0.00    -0.155 F 
HETATM   10  F3  UNL     1      -7.404   1.025  16.765  1.00  0.00    -0.155 F 
ENDBRANCH   1   7
TORSDOF 2
ENDMDL
