MODEL 8
REMARK VINA RESULT: -4.498251812      1.141      1.369
REMARK  6 active torsions:
REMARK  status: ('A' for Active; 'I' for Inactive)
REMARK       I    between atoms: C2_2  and  N1_4 
REMARK    1  A    between atoms: N1_4  and  C3_6 
REMARK    2  A    between atoms: C4_7  and  O2_8 
REMARK    3  A    between atoms: C5_11  and  C6_12 
REMARK    4  A    between atoms: C6_12  and  O4_13 
REMARK    5  A    between atoms: C7_15  and  O5_16 
REMARK    6  A    between atoms: C8_18  and  O6_19 
ROOT
HETATM    1  C3  UNL     1      47.328  -3.939  21.656  1.00  0.00     0.170 C 
HETATM    2  C4  UNL     1      48.700  -3.822  21.092  1.00  0.00     0.282 C 
HETATM    3  O3  UNL     1      49.714  -4.349  21.821  1.00  0.00    -0.349 OA
HETATM    4  C5  UNL     1      49.478  -5.506  22.493  1.00  0.00     0.179 C 
HETATM    5  C7  UNL     1      48.166  -6.165  22.186  1.00  0.00     0.180 C 
HETATM    6  C8  UNL     1      47.104  -5.134  22.527  1.00  0.00     0.177 C 
ENDROOT
BRANCH   1   7
HETATM    7  N1  UNL     1      46.927  -2.709  22.316  1.00  0.00    -0.349 N 
HETATM    8  C2  UNL     1      46.212  -1.665  21.692  1.00  0.00     0.214 C 
HETATM    9  C1  UNL     1      45.812  -0.411  22.397  1.00  0.00     0.117 C 
HETATM   10  O1  UNL     1      45.898  -1.797  20.490  1.00  0.00    -0.274 OA
ATOM     11  H1  UNL     1      47.179  -2.592  23.298  1.00  0.00     0.163 HD
ENDBRANCH   1   7
BRANCH   2  12
HETATM   12  O2  UNL     1      48.732  -4.292  19.759  1.00  0.00    -0.369 OA
ATOM     13  H2  UNL     1      49.618  -4.262  19.414  1.00  0.00     0.212 HD
ENDBRANCH   2  12
BRANCH   6  14
HETATM   14  O6  UNL     1      45.822  -5.660  22.408  1.00  0.00    -0.391 OA
ATOM     15  H6  UNL     1      45.462  -5.951  23.238  1.00  0.00     0.210 HD
ENDBRANCH   6  14
BRANCH   5  16
HETATM   16  O5  UNL     1      48.045  -6.578  20.881  1.00  0.00    -0.390 OA
ATOM     17  H5  UNL     1      47.654  -5.929  20.309  1.00  0.00     0.210 HD
ENDBRANCH   5  16
BRANCH   4  18
HETATM   18  C6  UNL     1      50.648  -6.456  22.337  1.00  0.00     0.198 C 
BRANCH  18  19
HETATM   19  O4  UNL     1      50.267  -7.781  22.529  1.00  0.00    -0.398 OA
ATOM     20  H4  UNL     1      50.987  -8.381  22.375  1.00  0.00     0.209 HD
ENDBRANCH  18  19
ENDBRANCH   4  18
TORSDOF 6
ENDMDL
