MODEL 1
REMARK VINA RESULT: -5.323132914      0.000      0.000
REMARK  6 active torsions:
REMARK  status: ('A' for Active; 'I' for Inactive)
REMARK       I    between atoms: C2_2  and  N1_4 
REMARK    1  A    between atoms: N1_4  and  C3_6 
REMARK    2  A    between atoms: C4_7  and  O2_8 
REMARK    3  A    between atoms: C5_11  and  C6_12 
REMARK    4  A    between atoms: C6_12  and  O4_13 
REMARK    5  A    between atoms: C7_15  and  O5_16 
REMARK    6  A    between atoms: C8_18  and  O6_19 
ROOT
HETATM    1  C3  UNL     1      46.697  -3.187  21.904  1.00  0.00     0.170 C 
HETATM    2  C4  UNL     1      47.797  -3.660  21.021  1.00  0.00     0.282 C 
HETATM    3  O3  UNL     1      48.814  -4.337  21.610  1.00  0.00    -0.349 OA
HETATM    4  C5  UNL     1      48.508  -5.181  22.630  1.00  0.00     0.179 C 
HETATM    5  C7  UNL     1      47.042  -5.405  22.854  1.00  0.00     0.180 C 
HETATM    6  C8  UNL     1      46.456  -4.029  23.117  1.00  0.00     0.177 C 
ENDROOT
BRANCH   1   7
HETATM    7  N1  UNL     1      46.867  -1.787  22.247  1.00  0.00    -0.349 N 
HETATM    8  C2  UNL     1      46.167  -0.725  21.635  1.00  0.00     0.214 C 
HETATM    9  C1  UNL     1      46.362   0.707  22.009  1.00  0.00     0.117 C 
HETATM   10  O1  UNL     1      45.344  -0.998  20.736  1.00  0.00    -0.274 OA
ATOM     11  H1  UNL     1      47.537  -1.554  22.980  1.00  0.00     0.163 HD
ENDBRANCH   1   7
BRANCH   2  12
HETATM   12  O2  UNL     1      47.278  -4.378  19.919  1.00  0.00    -0.369 OA
ATOM     13  H2  UNL     1      47.768  -5.181  19.781  1.00  0.00     0.212 HD
ENDBRANCH   2  12
BRANCH   6  14
HETATM   14  O6  UNL     1      45.113  -4.103  23.468  1.00  0.00    -0.391 OA
ATOM     15  H6  UNL     1      44.894  -3.557  24.214  1.00  0.00     0.210 HD
ENDBRANCH   6  14
BRANCH   5  16
HETATM   16  O5  UNL     1      46.407  -6.013  21.797  1.00  0.00    -0.390 OA
ATOM     17  H5  UNL     1      45.988  -6.835  22.024  1.00  0.00     0.210 HD
ENDBRANCH   5  16
BRANCH   4  18
HETATM   18  C6  UNL     1      49.273  -6.480  22.488  1.00  0.00     0.198 C 
BRANCH  18  19
HETATM   19  O4  UNL     1      48.919  -7.164  21.328  1.00  0.00    -0.398 OA
ATOM     20  H4  UNL     1      48.985  -8.105  21.439  1.00  0.00     0.209 HD
ENDBRANCH  18  19
ENDBRANCH   4  18
TORSDOF 6
ENDMDL
