MODEL 3
REMARK VINA RESULT: -4.707425591      1.705      5.049
REMARK  6 active torsions:
REMARK  status: ('A' for Active; 'I' for Inactive)
REMARK       I    between atoms: C2_2  and  N1_4 
REMARK    1  A    between atoms: N1_4  and  C3_6 
REMARK    2  A    between atoms: C4_7  and  O2_8 
REMARK    3  A    between atoms: C5_11  and  C6_12 
REMARK    4  A    between atoms: C6_12  and  O4_13 
REMARK    5  A    between atoms: C7_15  and  O5_16 
REMARK    6  A    between atoms: C8_18  and  O6_19 
ROOT
HETATM    1  C3  UNL     1      47.527  -4.975  21.974  1.00  0.00     0.170 C 
HETATM    2  C4  UNL     1      46.810  -4.385  23.136  1.00  0.00     0.282 C 
HETATM    3  O3  UNL     1      47.134  -3.114  23.482  1.00  0.00    -0.349 OA
HETATM    4  C5  UNL     1      47.408  -2.235  22.483  1.00  0.00     0.179 C 
HETATM    5  C7  UNL     1      47.126  -2.737  21.098  1.00  0.00     0.180 C 
HETATM    6  C8  UNL     1      47.970  -3.989  20.939  1.00  0.00     0.177 C 
ENDROOT
BRANCH   1   7
HETATM    7  N1  UNL     1      48.621  -5.825  22.410  1.00  0.00    -0.349 N 
HETATM    8  C2  UNL     1      49.159  -6.885  21.650  1.00  0.00     0.214 C 
HETATM    9  C1  UNL     1      50.285  -7.743  22.125  1.00  0.00     0.117 C 
HETATM   10  O1  UNL     1      48.668  -7.117  20.525  1.00  0.00    -0.274 OA
ATOM     11  H1  UNL     1      49.028  -5.643  23.328  1.00  0.00     0.163 HD
ENDBRANCH   1   7
BRANCH   2  12
HETATM   12  O2  UNL     1      45.411  -4.530  22.986  1.00  0.00    -0.369 OA
ATOM     13  H2  UNL     1      44.953  -3.804  23.393  1.00  0.00     0.212 HD
ENDBRANCH   2  12
BRANCH   6  14
HETATM   14  O6  UNL     1      47.902  -4.493  19.645  1.00  0.00    -0.391 OA
ATOM     15  H6  UNL     1      47.056  -4.353  19.237  1.00  0.00     0.210 HD
ENDBRANCH   6  14
BRANCH   5  16
HETATM   16  O5  UNL     1      45.799  -3.008  20.866  1.00  0.00    -0.390 OA
ATOM     17  H5  UNL     1      45.387  -2.410  20.254  1.00  0.00     0.210 HD
ENDBRANCH   5  16
BRANCH   4  18
HETATM   18  C6  UNL     1      46.744  -0.901  22.757  1.00  0.00     0.198 C 
BRANCH  18  19
HETATM   19  O4  UNL     1      45.367  -0.961  22.566  1.00  0.00    -0.398 OA
ATOM     20  H4  UNL     1      44.999  -1.769  22.905  1.00  0.00     0.209 HD
ENDBRANCH  18  19
ENDBRANCH   4  18
TORSDOF 6
ENDMDL
