MODEL 2
REMARK VINA RESULT: -4.967926131      1.949      5.228
REMARK  6 active torsions:
REMARK  status: ('A' for Active; 'I' for Inactive)
REMARK       I    between atoms: C2_2  and  N1_4 
REMARK    1  A    between atoms: N1_4  and  C3_6 
REMARK    2  A    between atoms: C4_7  and  O2_8 
REMARK    3  A    between atoms: C5_11  and  C6_12 
REMARK    4  A    between atoms: C6_12  and  O4_13 
REMARK    5  A    between atoms: C7_15  and  O5_16 
REMARK    6  A    between atoms: C8_18  and  O6_19 
ROOT
HETATM    1  C3  UNL     1      48.095  -5.699  21.778  1.00  0.00     0.170 C 
HETATM    2  C4  UNL     1      47.089  -5.389  22.829  1.00  0.00     0.282 C 
HETATM    3  O3  UNL     1      47.105  -4.137  23.349  1.00  0.00    -0.349 OA
HETATM    4  C5  UNL     1      47.379  -3.104  22.509  1.00  0.00     0.179 C 
HETATM    5  C7  UNL     1      47.442  -3.465  21.055  1.00  0.00     0.180 C 
HETATM    6  C8  UNL     1      48.520  -4.530  20.946  1.00  0.00     0.177 C 
ENDROOT
BRANCH   1   7
HETATM    7  N1  UNL     1      49.236  -6.404  22.337  1.00  0.00    -0.349 N 
HETATM    8  C2  UNL     1      49.922  -7.451  21.687  1.00  0.00     0.214 C 
HETATM    9  C1  UNL     1      51.092  -8.158  22.287  1.00  0.00     0.117 C 
HETATM   10  O1  UNL     1      49.530  -7.805  20.555  1.00  0.00    -0.274 OA
ATOM     11  H1  UNL     1      49.563  -6.122  23.261  1.00  0.00     0.163 HD
ENDBRANCH   1   7
BRANCH   2  12
HETATM   12  O2  UNL     1      45.791  -5.745  22.396  1.00  0.00    -0.369 OA
ATOM     13  H2  UNL     1      45.167  -5.668  23.110  1.00  0.00     0.212 HD
ENDBRANCH   2  12
BRANCH   6  14
HETATM   14  O6  UNL     1      48.774  -4.869  19.622  1.00  0.00    -0.391 OA
ATOM     15  H6  UNL     1      49.345  -4.250  19.184  1.00  0.00     0.210 HD
ENDBRANCH   6  14
BRANCH   5  16
HETATM   16  O5  UNL     1      46.250  -3.922  20.545  1.00  0.00    -0.390 OA
ATOM     17  H5  UNL     1      46.347  -4.633  19.923  1.00  0.00     0.210 HD
ENDBRANCH   5  16
BRANCH   4  18
HETATM   18  C6  UNL     1      46.440  -1.945  22.773  1.00  0.00     0.198 C 
BRANCH  18  19
HETATM   19  O4  UNL     1      45.926  -1.418  21.592  1.00  0.00    -0.398 OA
ATOM     20  H4  UNL     1      46.166  -0.505  21.480  1.00  0.00     0.209 HD
ENDBRANCH  18  19
ENDBRANCH   4  18
TORSDOF 6
ENDMDL
