MODEL 5
REMARK VINA RESULT: -4.616240752      1.952      5.051
REMARK  6 active torsions:
REMARK  status: ('A' for Active; 'I' for Inactive)
REMARK       I    between atoms: C2_2  and  N1_4 
REMARK    1  A    between atoms: N1_4  and  C3_6 
REMARK    2  A    between atoms: C4_7  and  O2_8 
REMARK    3  A    between atoms: C5_11  and  C6_12 
REMARK    4  A    between atoms: C6_12  and  O4_13 
REMARK    5  A    between atoms: C7_15  and  O5_16 
REMARK    6  A    between atoms: C8_18  and  O6_19 
ROOT
HETATM    1  C3  UNL     1      48.160  -5.408  22.319  1.00  0.00     0.170 C 
HETATM    2  C4  UNL     1      48.932  -4.210  21.894  1.00  0.00     0.282 C 
HETATM    3  O3  UNL     1      48.314  -3.345  21.051  1.00  0.00    -0.349 OA
HETATM    4  C5  UNL     1      46.985  -3.126  21.229  1.00  0.00     0.179 C 
HETATM    5  C7  UNL     1      46.400  -3.730  22.471  1.00  0.00     0.180 C 
HETATM    6  C8  UNL     1      46.676  -5.219  22.368  1.00  0.00     0.177 C 
ENDROOT
BRANCH   1   7
HETATM    7  N1  UNL     1      48.528  -6.574  21.535  1.00  0.00    -0.349 N 
HETATM    8  C2  UNL     1      49.683  -7.353  21.758  1.00  0.00     0.214 C 
HETATM    9  C1  UNL     1      50.036  -8.547  20.934  1.00  0.00     0.117 C 
HETATM   10  O1  UNL     1      50.448  -7.026  22.690  1.00  0.00    -0.274 OA
ATOM     11  H1  UNL     1      47.910  -6.848  20.771  1.00  0.00     0.163 HD
ENDBRANCH   1   7
BRANCH   2  12
HETATM   12  O2  UNL     1      49.464  -3.535  23.016  1.00  0.00    -0.369 OA
ATOM     13  H2  UNL     1      49.533  -2.602  22.845  1.00  0.00     0.212 HD
ENDBRANCH   2  12
BRANCH   6  14
HETATM   14  O6  UNL     1      46.073  -5.926  23.402  1.00  0.00    -0.391 OA
ATOM     15  H6  UNL     1      45.993  -5.418  24.201  1.00  0.00     0.210 HD
ENDBRANCH   6  14
BRANCH   5  16
HETATM   16  O5  UNL     1      46.919  -3.215  23.634  1.00  0.00    -0.390 OA
ATOM     17  H5  UNL     1      47.113  -3.873  24.291  1.00  0.00     0.210 HD
ENDBRANCH   5  16
BRANCH   4  18
HETATM   18  C6  UNL     1      46.672  -1.649  21.106  1.00  0.00     0.198 C 
BRANCH  18  19
HETATM   19  O4  UNL     1      45.708  -1.246  22.025  1.00  0.00    -0.398 OA
ATOM     20  H4  UNL     1      45.443  -0.344  21.887  1.00  0.00     0.209 HD
ENDBRANCH  18  19
ENDBRANCH   4  18
TORSDOF 6
ENDMDL
