MODEL 9
REMARK VINA RESULT: -6.548465040      2.275      6.314
REMARK  0 active torsions:
REMARK  status: ('A' for Active; 'I' for Inactive)
ROOT
HETATM    1  N1  UNL     1       5.258  22.127  57.013  1.00  0.00    -0.102 NA
HETATM    2  C1  UNL     1       5.864  21.310  56.038  1.00  0.00     0.048 A 
HETATM    3  C2  UNL     1       5.764  19.929  56.037  1.00  0.00     0.027 A 
HETATM    4  C3  UNL     1       6.384  19.192  55.048  1.00  0.00     0.015 A 
HETATM    5  C4  UNL     1       7.120  19.781  54.033  1.00  0.00    -0.009 A 
HETATM    6  C5  UNL     1       7.723  19.001  53.066  1.00  0.00     0.027 A 
HETATM    7  C6  UNL     1       8.451  19.603  52.064  1.00  0.00    -0.009 A 
HETATM    8  C7  UNL     1       9.080  18.890  51.066  1.00  0.00     0.015 A 
HETATM    9  C8  UNL     1       9.791  19.562  50.094  1.00  0.00     0.027 A 
HETATM   10  C9  UNL     1       9.903  20.938  50.077  1.00  0.00     0.048 A 
HETATM   11  N2  UNL     1      10.637  21.628  49.076  1.00  0.00    -0.102 NA
HETATM   12  C10 UNL     1       9.266  21.620  51.086  1.00  0.00     0.056 A 
HETATM   13  C11 UNL     1       8.541  20.979  52.078  1.00  0.00     0.044 A 
HETATM   14  N3  UNL     1       7.934  21.725  53.049  1.00  0.00    -0.355 N 
ATOM     15  H3  UNL     1       8.025  22.740  53.025  1.00  0.00     0.166 HD
HETATM   16  C12 UNL     1       7.219  21.157  54.036  1.00  0.00     0.044 A 
HETATM   17  C13 UNL     1       6.597  21.893  55.025  1.00  0.00     0.056 A 
ENDROOT
TORSDOF 0
ENDMDL
