MODEL 8
REMARK VINA RESULT: -6.565655319      2.229      3.781
REMARK  0 active torsions:
REMARK  status: ('A' for Active; 'I' for Inactive)
ROOT
HETATM    1  N1  UNL     1      10.640  21.742  49.069  1.00  0.00    -0.102 NA
HETATM    2  C1  UNL     1       9.925  21.029  50.050  1.00  0.00     0.048 A 
HETATM    3  C2  UNL     1       9.838  19.647  50.071  1.00  0.00     0.027 A 
HETATM    4  C3  UNL     1       9.119  19.014  51.067  1.00  0.00     0.015 A 
HETATM    5  C4  UNL     1       8.465  19.712  52.068  1.00  0.00    -0.009 A 
HETATM    6  C5  UNL     1       7.758  19.035  53.042  1.00  0.00     0.027 A 
HETATM    7  C6  UNL     1       7.114  19.745  54.032  1.00  0.00    -0.009 A 
HETATM    8  C7  UNL     1       6.391  19.136  55.035  1.00  0.00     0.015 A 
HETATM    9  C8  UNL     1       5.772  19.912  55.993  1.00  0.00     0.027 A 
HETATM   10  C9  UNL     1       5.846  21.291  55.990  1.00  0.00     0.048 A 
HETATM   11  N2  UNL     1       5.208  22.089  56.977  1.00  0.00    -0.102 NA
HETATM   12  C10 UNL     1       6.575  21.867  54.976  1.00  0.00     0.056 A 
HETATM   13  C11 UNL     1       7.210  21.119  53.998  1.00  0.00     0.044 A 
HETATM   14  N3  UNL     1       7.917  21.762  53.021  1.00  0.00    -0.355 N 
ATOM     15  H3  UNL     1       7.963  22.781  53.030  1.00  0.00     0.166 HD
HETATM   16  C12 UNL     1       8.553  21.088  52.047  1.00  0.00     0.044 A 
HETATM   17  C13 UNL     1       9.273  21.720  51.051  1.00  0.00     0.056 A 
ENDROOT
TORSDOF 0
ENDMDL
