MODEL 12
REMARK VINA RESULT: -6.150124172      4.732      7.083
REMARK  0 active torsions:
REMARK  status: ('A' for Active; 'I' for Inactive)
ROOT
HETATM    1  N1  UNL     1       7.887  22.052  54.531  1.00  0.00    -0.102 NA
HETATM    2  C1  UNL     1       6.667  21.598  53.995  1.00  0.00     0.048 A 
HETATM    3  C2  UNL     1       5.521  21.425  54.754  1.00  0.00     0.027 A 
HETATM    4  C3  UNL     1       4.359  20.976  54.159  1.00  0.00     0.015 A 
HETATM    5  C4  UNL     1       4.282  20.681  52.808  1.00  0.00    -0.009 A 
HETATM    6  C5  UNL     1       3.096  20.234  52.258  1.00  0.00     0.027 A 
HETATM    7  C6  UNL     1       3.037  19.946  50.912  1.00  0.00    -0.009 A 
HETATM    8  C7  UNL     1       1.890  19.496  50.296  1.00  0.00     0.015 A 
HETATM    9  C8  UNL     1       1.905  19.228  48.943  1.00  0.00     0.027 A 
HETATM   10  C9  UNL     1       3.036  19.393  48.168  1.00  0.00     0.048 A 
HETATM   11  N2  UNL     1       3.050  19.116  46.775  1.00  0.00    -0.102 NA
HETATM   12  C10 UNL     1       4.164  19.843  48.813  1.00  0.00     0.056 A 
HETATM   13  C11 UNL     1       4.185  20.123  50.170  1.00  0.00     0.044 A 
HETATM   14  N3  UNL     1       5.344  20.567  50.742  1.00  0.00    -0.355 N 
ATOM     15  H3  UNL     1       6.172  20.683  50.159  1.00  0.00     0.166 HD
HETATM   16  C12 UNL     1       5.423  20.854  52.053  1.00  0.00     0.044 A 
HETATM   17  C13 UNL     1       6.585  21.304  52.649  1.00  0.00     0.056 A 
ENDROOT
TORSDOF 0
ENDMDL
