MODEL 3
REMARK VINA RESULT: -7.055814490      1.761      2.597
REMARK  0 active torsions:
REMARK  status: ('A' for Active; 'I' for Inactive)
ROOT
HETATM    1  N1  UNL     1      11.006  23.629  46.889  1.00  0.00    -0.102 NA
HETATM    2  C1  UNL     1      10.330  23.066  47.988  1.00  0.00     0.048 A 
HETATM    3  C2  UNL     1       9.345  23.733  48.697  1.00  0.00     0.027 A 
HETATM    4  C3  UNL     1       8.724  23.116  49.765  1.00  0.00     0.015 A 
HETATM    5  C4  UNL     1       9.047  21.833  50.173  1.00  0.00    -0.009 A 
HETATM    6  C5  UNL     1       8.399  21.258  51.248  1.00  0.00     0.027 A 
HETATM    7  C6  UNL     1       8.733  19.981  51.640  1.00  0.00    -0.009 A 
HETATM    8  C7  UNL     1       8.128  19.345  52.703  1.00  0.00     0.015 A 
HETATM    9  C8  UNL     1       8.514  18.063  53.037  1.00  0.00     0.027 A 
HETATM   10  C9  UNL     1       9.495  17.381  52.344  1.00  0.00     0.048 A 
HETATM   11  N2  UNL     1       9.892  16.062  52.691  1.00  0.00    -0.102 NA
HETATM   12  C10 UNL     1      10.078  18.043  51.291  1.00  0.00     0.056 A 
HETATM   13  C11 UNL     1       9.715  19.330  50.925  1.00  0.00     0.044 A 
HETATM   14  N3  UNL     1      10.340  19.924  49.865  1.00  0.00    -0.355 N 
ATOM     15  H3  UNL     1      11.063  19.409  49.363  1.00  0.00     0.166 HD
HETATM   16  C12 UNL     1      10.029  21.170  49.466  1.00  0.00     0.044 A 
HETATM   17  C13 UNL     1      10.649  21.787  48.398  1.00  0.00     0.056 A 
ENDROOT
TORSDOF 0
ENDMDL
