MODEL 4
REMARK VINA RESULT: -7.022829279      1.850      6.026
REMARK  0 active torsions:
REMARK  status: ('A' for Active; 'I' for Inactive)
ROOT
HETATM    1  N1  UNL     1       9.950  15.856  52.438  1.00  0.00    -0.102 NA
HETATM    2  C1  UNL     1       9.574  17.186  52.171  1.00  0.00     0.048 A 
HETATM    3  C2  UNL     1       8.649  17.881  52.933  1.00  0.00     0.027 A 
HETATM    4  C3  UNL     1       8.330  19.186  52.612  1.00  0.00     0.015 A 
HETATM    5  C4  UNL     1       8.901  19.848  51.539  1.00  0.00    -0.009 A 
HETATM    6  C5  UNL     1       8.549  21.153  51.257  1.00  0.00     0.027 A 
HETATM    7  C6  UNL     1       9.128  21.797  50.186  1.00  0.00    -0.009 A 
HETATM    8  C7  UNL     1       8.825  23.098  49.845  1.00  0.00     0.015 A 
HETATM    9  C8  UNL     1       9.445  23.678  48.758  1.00  0.00     0.027 A 
HETATM   10  C9  UNL     1      10.369  23.003  47.985  1.00  0.00     0.048 A 
HETATM   11  N2  UNL     1      11.006  23.602  46.866  1.00  0.00    -0.102 NA
HETATM   12  C10 UNL     1      10.648  21.708  48.351  1.00  0.00     0.056 A 
HETATM   13  C11 UNL     1      10.046  21.093  49.437  1.00  0.00     0.044 A 
HETATM   14  N3  UNL     1      10.374  19.801  49.740  1.00  0.00    -0.355 N 
ATOM     15  H3  UNL     1      11.058  19.314  49.160  1.00  0.00     0.166 HD
HETATM   16  C12 UNL     1       9.822  19.155  50.781  1.00  0.00     0.044 A 
HETATM   17  C13 UNL     1      10.142  17.851  51.103  1.00  0.00     0.056 A 
ENDROOT
TORSDOF 0
ENDMDL
