MODEL 7
REMARK VINA RESULT: -6.580169467      2.484      3.423
REMARK  0 active torsions:
REMARK  status: ('A' for Active; 'I' for Inactive)
ROOT
HETATM    1  N1  UNL     1      10.296  23.653  47.786  1.00  0.00    -0.102 NA
HETATM    2  C1  UNL     1       9.963  22.766  48.828  1.00  0.00     0.048 A 
HETATM    3  C2  UNL     1       9.395  23.177  50.022  1.00  0.00     0.027 A 
HETATM    4  C3  UNL     1       9.093  22.250  51.000  1.00  0.00     0.015 A 
HETATM    5  C4  UNL     1       9.339  20.896  50.841  1.00  0.00    -0.009 A 
HETATM    6  C5  UNL     1       9.021  20.007  51.848  1.00  0.00     0.027 A 
HETATM    7  C6  UNL     1       9.272  18.664  51.673  1.00  0.00    -0.009 A 
HETATM    8  C7  UNL     1       8.982  17.719  52.634  1.00  0.00     0.015 A 
HETATM    9  C8  UNL     1       9.261  16.391  52.388  1.00  0.00     0.027 A 
HETATM   10  C9  UNL     1       9.828  15.960  51.205  1.00  0.00     0.048 A 
HETATM   11  N2  UNL     1      10.115  14.592  50.954  1.00  0.00    -0.102 NA
HETATM   12  C10 UNL     1      10.106  16.927  50.268  1.00  0.00     0.056 A 
HETATM   13  C11 UNL     1       9.838  18.270  50.479  1.00  0.00     0.044 A 
HETATM   14  N3  UNL     1      10.143  19.174  49.501  1.00  0.00    -0.355 N 
ATOM     15  H3  UNL     1      10.561  18.842  48.632  1.00  0.00     0.166 HD
HETATM   16  C12 UNL     1       9.905  20.488  49.651  1.00  0.00     0.044 A 
HETATM   17  C13 UNL     1      10.205  21.417  48.674  1.00  0.00     0.056 A 
ENDROOT
TORSDOF 0
ENDMDL
