MODEL 1
REMARK VINA RESULT: -9.581349867      0.000      0.000
REMARK  15 active torsions:
REMARK  status: ('A' for Active; 'I' for Inactive)
REMARK    1  A    between atoms: C2_2  and  C4_4 
REMARK    2  A    between atoms: C4_4  and  N1_5 
REMARK    3  A    between atoms: C4_4  and  C29_38 
REMARK       I    between atoms: N1_5  and  C5_7 
REMARK    4  A    between atoms: C5_7  and  C6_9 
REMARK    5  A    between atoms: C6_9  and  C7_10 
REMARK    6  A    between atoms: C6_9  and  C14_17 
REMARK    7  A    between atoms: C7_10  and  C8_11 
REMARK    8  A    between atoms: C14_17  and  C15_18 
REMARK    9  A    between atoms: C15_18  and  O2_19 
REMARK   10  A    between atoms: C15_18  and  C16_21 
REMARK   11  A    between atoms: C16_21  and  C17_22 
REMARK   12  A    between atoms: C16_21  and  N2_29 
REMARK   13  A    between atoms: C17_22  and  C18_23 
REMARK       I    between atoms: N2_29  and  C24_31 
REMARK   14  A    between atoms: C24_31  and  O4_33 
REMARK   15  A    between atoms: O4_33  and  C25_34 
ROOT
HETATM    1  C6  UNL     1      -8.345  17.523  26.655  1.00  0.00     0.084 C 
ENDROOT
BRANCH   1   2
HETATM    2  C5  UNL     1      -8.231  16.706  25.460  1.00  0.00     0.222 C 
HETATM    3  N1  UNL     1      -8.410  17.327  24.168  1.00  0.00    -0.349 N 
ATOM      4  H1  UNL     1      -8.583  18.332  24.147  1.00  0.00     0.163 HD
HETATM    5  O1  UNL     1      -8.021  15.479  25.493  1.00  0.00    -0.273 OA
BRANCH   3   6
HETATM    6  C4  UNL     1      -8.362  16.635  22.913  1.00  0.00     0.155 C 
BRANCH   6   7
HETATM    7  C2  UNL     1      -9.638  16.648  22.155  1.00  0.00     0.007 C 
HETATM    8  C1  UNL     1     -10.722  15.885  22.884  1.00  0.00     0.012 C 
HETATM    9  C3  UNL     1      -9.450  15.955  20.811  1.00  0.00     0.012 C 
ENDBRANCH   6   7
BRANCH   6  10
HETATM   10  C29 UNL     1      -7.210  17.182  22.053  1.00  0.00     0.104 A 
HETATM   11  N3  UNL     1      -6.467  16.524  21.169  1.00  0.00    -0.353 N 
HETATM   12  C30 UNL     1      -5.550  17.389  20.642  1.00  0.00     0.106 A 
ATOM     13  H3  UNL     1      -6.565  15.539  20.925  1.00  0.00     0.166 HD
HETATM   14  C31 UNL     1      -5.740  18.618  21.231  1.00  0.00     0.106 A 
HETATM   15  N4  UNL     1      -6.754  18.449  22.086  1.00  0.00    -0.353 N 
ATOM     16  H4  UNL     1      -7.132  19.183  22.685  1.00  0.00     0.166 HD
ENDBRANCH   6  10
ENDBRANCH   3   6
ENDBRANCH   1   2
BRANCH   1  17
HETATM   17  C7  UNL     1      -7.054  18.072  27.215  1.00  0.00     0.052 C 
BRANCH  17  18
HETATM   18  C8  UNL     1      -5.837  17.900  26.471  1.00  0.00    -0.057 A 
HETATM   19  C9  UNL     1      -4.982  16.831  26.577  1.00  0.00     0.007 A 
HETATM   20  C10 UNL     1      -3.830  16.682  25.826  1.00  0.00     0.001 A 
HETATM   21  C11 UNL     1      -3.467  17.643  24.888  1.00  0.00     0.000 A 
HETATM   22  C12 UNL     1      -4.318  18.741  24.759  1.00  0.00     0.001 A 
HETATM   23  C13 UNL     1      -5.447  18.859  25.519  1.00  0.00     0.007 A 
ENDBRANCH  17  18
ENDBRANCH   1  17
BRANCH   1  24
HETATM   24  C14 UNL     1      -9.139  16.885  27.785  1.00  0.00     0.048 C 
BRANCH  24  25
HETATM   25  C15 UNL     1     -10.615  16.837  27.606  1.00  0.00     0.142 C 
BRANCH  25  26
HETATM   26  O2  UNL     1     -11.177  18.059  28.032  1.00  0.00    -0.393 OA
ATOM     27  H2  UNL     1     -12.120  18.026  27.922  1.00  0.00     0.210 HD
ENDBRANCH  25  26
BRANCH  25  28
HETATM   28  C16 UNL     1     -11.206  15.783  28.557  1.00  0.00     0.119 C 
BRANCH  28  29
HETATM   29  C17 UNL     1     -12.656  15.492  28.270  1.00  0.00     0.066 C 
BRANCH  29  30
HETATM   30  C18 UNL     1     -13.098  14.292  28.999  1.00  0.00    -0.056 A 
HETATM   31  C19 UNL     1     -12.591  13.048  28.665  1.00  0.00     0.007 A 
HETATM   32  C20 UNL     1     -12.988  11.914  29.320  1.00  0.00     0.001 A 
HETATM   33  C21 UNL     1     -13.918  11.980  30.354  1.00  0.00     0.000 A 
HETATM   34  C22 UNL     1     -14.419  13.222  30.685  1.00  0.00     0.001 A 
HETATM   35  C23 UNL     1     -14.014  14.373  30.015  1.00  0.00     0.007 A 
ENDBRANCH  29  30
ENDBRANCH  28  29
BRANCH  28  36
HETATM   36  N2  UNL     1     -10.990  16.222  29.897  1.00  0.00    -0.329 N 
HETATM   37  C24 UNL     1     -10.298  15.515  30.906  1.00  0.00     0.361 C 
HETATM   38  O3  UNL     1      -9.812  14.383  30.566  1.00  0.00    -0.238 OA
ATOM     39  H2  UNL     1     -11.370  17.134  30.151  1.00  0.00     0.165 HD
BRANCH  37  40
HETATM   40  O4  UNL     1     -10.126  15.957  32.181  1.00  0.00    -0.294 OA
BRANCH  40  41
HETATM   41  C25 UNL     1     -10.528  15.319  33.371  1.00  0.00     0.061 C 
HETATM   42  C26 UNL     1     -11.927  14.758  33.213  1.00  0.00     0.046 C 
HETATM   43  C27 UNL     1     -10.573  16.349  34.504  1.00  0.00     0.046 C 
HETATM   44  C28 UNL     1      -9.599  14.242  33.819  1.00  0.00     0.046 C 
ENDBRANCH  40  41
ENDBRANCH  37  40
ENDBRANCH  28  36
ENDBRANCH  25  28
ENDBRANCH  24  25
ENDBRANCH   1  24
TORSDOF 15
ENDMDL
