MODEL 16
REMARK VINA RESULT: -8.782142505      1.480      1.763
REMARK  15 active torsions:
REMARK  status: ('A' for Active; 'I' for Inactive)
REMARK    1  A    between atoms: C2_2  and  C4_4 
REMARK    2  A    between atoms: C4_4  and  N1_5 
REMARK    3  A    between atoms: C4_4  and  C29_38 
REMARK       I    between atoms: N1_5  and  C5_7 
REMARK    4  A    between atoms: C5_7  and  C6_9 
REMARK    5  A    between atoms: C6_9  and  C7_10 
REMARK    6  A    between atoms: C6_9  and  C14_17 
REMARK    7  A    between atoms: C7_10  and  C8_11 
REMARK    8  A    between atoms: C14_17  and  C15_18 
REMARK    9  A    between atoms: C15_18  and  O2_19 
REMARK   10  A    between atoms: C15_18  and  C16_21 
REMARK   11  A    between atoms: C16_21  and  C17_22 
REMARK   12  A    between atoms: C16_21  and  N2_29 
REMARK   13  A    between atoms: C17_22  and  C18_23 
REMARK       I    between atoms: N2_29  and  C24_31 
REMARK   14  A    between atoms: C24_31  and  O4_33 
REMARK   15  A    between atoms: O4_33  and  C25_34 
ROOT
HETATM    1  C6  UNL     1      -8.546  17.136  25.999  1.00  0.00     0.084 C 
ENDROOT
BRANCH   1   2
HETATM    2  C5  UNL     1      -8.191  16.647  24.679  1.00  0.00     0.222 C 
HETATM    3  N1  UNL     1      -8.150  15.221  24.449  1.00  0.00    -0.349 N 
ATOM      4  H1  UNL     1      -8.402  14.609  25.225  1.00  0.00     0.163 HD
HETATM    5  O1  UNL     1      -7.882  17.399  23.735  1.00  0.00    -0.273 OA
BRANCH   3   6
HETATM    6  C4  UNL     1      -7.780  14.601  23.209  1.00  0.00     0.155 C 
BRANCH   6   7
HETATM    7  C2  UNL     1      -8.269  13.209  23.048  1.00  0.00     0.007 C 
HETATM    8  C1  UNL     1      -7.668  12.289  24.088  1.00  0.00     0.012 C 
HETATM    9  C3  UNL     1      -7.844  12.663  21.691  1.00  0.00     0.012 C 
ENDBRANCH   6   7
BRANCH   6  10
HETATM   10  C29 UNL     1      -8.229  15.477  22.027  1.00  0.00     0.104 A 
HETATM   11  N3  UNL     1      -9.469  15.786  21.664  1.00  0.00    -0.353 N 
HETATM   12  C30 UNL     1      -9.412  16.577  20.552  1.00  0.00     0.106 A 
ATOM     13  H3  UNL     1     -10.320  15.483  22.137  1.00  0.00     0.166 HD
HETATM   14  C31 UNL     1      -8.088  16.752  20.224  1.00  0.00     0.106 A 
HETATM   15  N4  UNL     1      -7.400  16.063  21.141  1.00  0.00    -0.353 N 
ATOM     16  H4  UNL     1      -6.384  15.991  21.166  1.00  0.00     0.166 HD
ENDBRANCH   6  10
ENDBRANCH   3   6
ENDBRANCH   1   2
BRANCH   1  17
HETATM   17  C7  UNL     1      -7.416  17.702  26.827  1.00  0.00     0.052 C 
BRANCH  17  18
HETATM   18  C8  UNL     1      -6.078  17.676  26.301  1.00  0.00    -0.057 A 
HETATM   19  C9  UNL     1      -5.183  16.646  26.450  1.00  0.00     0.007 A 
HETATM   20  C10 UNL     1      -3.911  16.639  25.908  1.00  0.00     0.001 A 
HETATM   21  C11 UNL     1      -3.457  17.717  25.154  1.00  0.00     0.000 A 
HETATM   22  C12 UNL     1      -4.347  18.779  24.986  1.00  0.00     0.001 A 
HETATM   23  C13 UNL     1      -5.596  18.754  25.538  1.00  0.00     0.007 A 
ENDBRANCH  17  18
ENDBRANCH   1  17
BRANCH   1  24
HETATM   24  C14 UNL     1      -9.333  16.151  26.850  1.00  0.00     0.048 C 
BRANCH  24  25
HETATM   25  C15 UNL     1     -10.744  16.521  27.147  1.00  0.00     0.142 C 
BRANCH  25  26
HETATM   26  O2  UNL     1     -10.777  17.804  27.731  1.00  0.00    -0.393 OA
ATOM     27  H2  UNL     1     -10.543  17.736  28.649  1.00  0.00     0.210 HD
ENDBRANCH  25  26
BRANCH  25  28
HETATM   28  C16 UNL     1     -11.294  15.582  28.233  1.00  0.00     0.119 C 
BRANCH  28  29
HETATM   29  C17 UNL     1     -12.774  15.339  28.092  1.00  0.00     0.066 C 
BRANCH  29  30
HETATM   30  C18 UNL     1     -13.192  14.194  28.917  1.00  0.00    -0.056 A 
HETATM   31  C19 UNL     1     -12.704  12.927  28.648  1.00  0.00     0.007 A 
HETATM   32  C20 UNL     1     -13.080  11.842  29.393  1.00  0.00     0.001 A 
HETATM   33  C21 UNL     1     -13.968  11.984  30.456  1.00  0.00     0.000 A 
HETATM   34  C22 UNL     1     -14.451  13.248  30.722  1.00  0.00     0.001 A 
HETATM   35  C23 UNL     1     -14.068  14.349  29.959  1.00  0.00     0.007 A 
ENDBRANCH  29  30
ENDBRANCH  28  29
BRANCH  28  36
HETATM   36  N2  UNL     1     -10.945  16.122  29.506  1.00  0.00    -0.329 N 
HETATM   37  C24 UNL     1     -10.212  15.465  30.519  1.00  0.00     0.361 C 
HETATM   38  O3  UNL     1      -9.817  14.280  30.248  1.00  0.00    -0.238 OA
ATOM     39  H2  UNL     1     -11.254  17.074  29.703  1.00  0.00     0.165 HD
BRANCH  37  40
HETATM   40  O4  UNL     1      -9.912  16.005  31.732  1.00  0.00    -0.294 OA
BRANCH  40  41
HETATM   41  C25 UNL     1     -10.349  15.566  32.997  1.00  0.00     0.061 C 
HETATM   42  C26 UNL     1     -11.850  15.354  32.984  1.00  0.00     0.046 C 
HETATM   43  C27 UNL     1     -10.050  16.651  34.037  1.00  0.00     0.046 C 
HETATM   44  C28 UNL     1      -9.666  14.329  33.473  1.00  0.00     0.046 C 
ENDBRANCH  40  41
ENDBRANCH  37  40
ENDBRANCH  28  36
ENDBRANCH  25  28
ENDBRANCH  24  25
ENDBRANCH   1  24
TORSDOF 15
ENDMDL
