MODEL 7
REMARK VINA RESULT: -9.106470700      1.842      9.092
REMARK  15 active torsions:
REMARK  status: ('A' for Active; 'I' for Inactive)
REMARK    1  A    between atoms: C2_2  and  C4_4 
REMARK    2  A    between atoms: C4_4  and  N1_5 
REMARK    3  A    between atoms: C4_4  and  C29_38 
REMARK       I    between atoms: N1_5  and  C5_7 
REMARK    4  A    between atoms: C5_7  and  C6_9 
REMARK    5  A    between atoms: C6_9  and  C7_10 
REMARK    6  A    between atoms: C6_9  and  C14_17 
REMARK    7  A    between atoms: C7_10  and  C8_11 
REMARK    8  A    between atoms: C14_17  and  C15_18 
REMARK    9  A    between atoms: C15_18  and  O2_19 
REMARK   10  A    between atoms: C15_18  and  C16_21 
REMARK   11  A    between atoms: C16_21  and  C17_22 
REMARK   12  A    between atoms: C16_21  and  N2_29 
REMARK   13  A    between atoms: C17_22  and  C18_23 
REMARK       I    between atoms: N2_29  and  C24_31 
REMARK   14  A    between atoms: C24_31  and  O4_33 
REMARK   15  A    between atoms: O4_33  and  C25_34 
ROOT
HETATM    1  C6  UNL     1     -11.655  15.765  28.031  1.00  0.00     0.084 C 
ENDROOT
BRANCH   1   2
HETATM    2  C5  UNL     1     -10.652  15.255  28.948  1.00  0.00     0.222 C 
HETATM    3  N1  UNL     1     -10.529  15.856  30.256  1.00  0.00    -0.349 N 
ATOM      4  H1  UNL     1     -11.179  16.605  30.496  1.00  0.00     0.163 HD
HETATM    5  O1  UNL     1      -9.860  14.341  28.649  1.00  0.00    -0.273 OA
BRANCH   3   6
HETATM    6  C4  UNL     1      -9.560  15.477  31.244  1.00  0.00     0.155 C 
BRANCH   6   7
HETATM    7  C2  UNL     1      -8.451  16.448  31.421  1.00  0.00     0.007 C 
HETATM    8  C1  UNL     1      -8.894  17.654  32.219  1.00  0.00     0.012 C 
HETATM    9  C3  UNL     1      -7.998  16.971  30.063  1.00  0.00     0.012 C 
ENDBRANCH   6   7
BRANCH   6  10
HETATM   10  C29 UNL     1     -10.257  15.195  32.585  1.00  0.00     0.104 A 
HETATM   11  N3  UNL     1      -9.748  14.605  33.662  1.00  0.00    -0.353 N 
HETATM   12  C30 UNL     1     -10.716  14.547  34.624  1.00  0.00     0.106 A 
ATOM     13  H3  UNL     1      -8.795  14.255  33.754  1.00  0.00     0.166 HD
HETATM   14  C31 UNL     1     -11.858  15.118  34.112  1.00  0.00     0.106 A 
HETATM   15  N4  UNL     1     -11.540  15.494  32.869  1.00  0.00    -0.353 N 
ATOM     16  H4  UNL     1     -12.183  15.948  32.221  1.00  0.00     0.166 HD
ENDBRANCH   6  10
ENDBRANCH   3   6
ENDBRANCH   1   2
BRANCH   1  17
HETATM   17  C7  UNL     1     -12.845  14.870  27.777  1.00  0.00     0.052 C 
BRANCH  17  18
HETATM   18  C8  UNL     1     -13.216  13.897  28.768  1.00  0.00    -0.057 A 
HETATM   19  C9  UNL     1     -12.927  12.556  28.715  1.00  0.00     0.007 A 
HETATM   20  C10 UNL     1     -13.275  11.649  29.699  1.00  0.00     0.001 A 
HETATM   21  C11 UNL     1     -13.960  12.064  30.836  1.00  0.00     0.000 A 
HETATM   22  C12 UNL     1     -14.267  13.423  30.916  1.00  0.00     0.001 A 
HETATM   23  C13 UNL     1     -13.911  14.293  29.925  1.00  0.00     0.007 A 
ENDBRANCH  17  18
ENDBRANCH   1  17
BRANCH   1  24
HETATM   24  C14 UNL     1     -11.108  16.245  26.695  1.00  0.00     0.048 C 
BRANCH  24  25
HETATM   25  C15 UNL     1      -9.896  17.106  26.753  1.00  0.00     0.142 C 
BRANCH  25  26
HETATM   26  O2  UNL     1     -10.286  18.461  26.758  1.00  0.00    -0.393 OA
ATOM     27  H2  UNL     1     -10.759  18.649  27.560  1.00  0.00     0.210 HD
ENDBRANCH  25  26
BRANCH  25  28
HETATM   28  C16 UNL     1      -9.092  16.935  25.453  1.00  0.00     0.119 C 
BRANCH  28  29
HETATM   29  C17 UNL     1      -9.258  15.565  24.848  1.00  0.00     0.066 C 
BRANCH  29  30
HETATM   30  C18 UNL     1      -9.197  15.637  23.379  1.00  0.00    -0.056 A 
HETATM   31  C19 UNL     1     -10.232  16.217  22.666  1.00  0.00     0.007 A 
HETATM   32  C20 UNL     1     -10.207  16.292  21.300  1.00  0.00     0.001 A 
HETATM   33  C21 UNL     1      -9.127  15.788  20.581  1.00  0.00     0.000 A 
HETATM   34  C22 UNL     1      -8.096  15.213  21.295  1.00  0.00     0.001 A 
HETATM   35  C23 UNL     1      -8.127  15.136  22.685  1.00  0.00     0.007 A 
ENDBRANCH  29  30
ENDBRANCH  28  29
BRANCH  28  36
HETATM   36  N2  UNL     1      -7.729  17.251  25.728  1.00  0.00    -0.329 N 
HETATM   37  C24 UNL     1      -6.819  16.458  26.461  1.00  0.00     0.361 C 
HETATM   38  O3  UNL     1      -7.271  15.346  26.901  1.00  0.00    -0.238 OA
ATOM     39  H2  UNL     1      -7.378  18.135  25.359  1.00  0.00     0.165 HD
BRANCH  37  40
HETATM   40  O4  UNL     1      -5.528  16.800  26.720  1.00  0.00    -0.294 OA
BRANCH  40  41
HETATM   41  C25 UNL     1      -4.994  18.098  26.844  1.00  0.00     0.061 C 
HETATM   42  C26 UNL     1      -4.500  18.588  25.498  1.00  0.00     0.046 C 
HETATM   43  C27 UNL     1      -3.786  18.056  27.787  1.00  0.00     0.046 C 
HETATM   44  C28 UNL     1      -5.947  19.086  27.426  1.00  0.00     0.046 C 
ENDBRANCH  40  41
ENDBRANCH  37  40
ENDBRANCH  28  36
ENDBRANCH  25  28
ENDBRANCH  24  25
ENDBRANCH   1  24
TORSDOF 15
ENDMDL
