MODEL 2
REMARK VINA RESULT: -9.558018550      0.080      1.217
REMARK  15 active torsions:
REMARK  status: ('A' for Active; 'I' for Inactive)
REMARK    1  A    between atoms: C2_2  and  C4_4 
REMARK    2  A    between atoms: C4_4  and  N1_5 
REMARK    3  A    between atoms: C4_4  and  C29_38 
REMARK       I    between atoms: N1_5  and  C5_7 
REMARK    4  A    between atoms: C5_7  and  C6_9 
REMARK    5  A    between atoms: C6_9  and  C7_10 
REMARK    6  A    between atoms: C6_9  and  C14_17 
REMARK    7  A    between atoms: C7_10  and  C8_11 
REMARK    8  A    between atoms: C14_17  and  C15_18 
REMARK    9  A    between atoms: C15_18  and  O2_19 
REMARK   10  A    between atoms: C15_18  and  C16_21 
REMARK   11  A    between atoms: C16_21  and  C17_22 
REMARK   12  A    between atoms: C16_21  and  N2_29 
REMARK   13  A    between atoms: C17_22  and  C18_23 
REMARK       I    between atoms: N2_29  and  C24_31 
REMARK   14  A    between atoms: C24_31  and  O4_33 
REMARK   15  A    between atoms: O4_33  and  C25_34 
ROOT
HETATM    1  C6  UNL     1      -8.344  17.503  26.654  1.00  0.00     0.084 C 
ENDROOT
BRANCH   1   2
HETATM    2  C5  UNL     1      -8.248  16.691  25.455  1.00  0.00     0.222 C 
HETATM    3  N1  UNL     1      -8.449  17.318  24.168  1.00  0.00    -0.349 N 
ATOM      4  H1  UNL     1      -8.625  18.323  24.154  1.00  0.00     0.163 HD
HETATM    5  O1  UNL     1      -8.035  15.464  25.479  1.00  0.00    -0.273 OA
BRANCH   3   6
HETATM    6  C4  UNL     1      -8.420  16.631  22.909  1.00  0.00     0.155 C 
BRANCH   6   7
HETATM    7  C2  UNL     1      -9.712  16.632  22.178  1.00  0.00     0.007 C 
HETATM    8  C1  UNL     1     -10.770  15.851  22.926  1.00  0.00     0.012 C 
HETATM    9  C3  UNL     1      -9.544  15.950  20.827  1.00  0.00     0.012 C 
ENDBRANCH   6   7
BRANCH   6  10
HETATM   10  C29 UNL     1      -7.293  17.194  22.027  1.00  0.00     0.104 A 
HETATM   11  N3  UNL     1      -6.857  18.447  21.961  1.00  0.00    -0.353 N 
HETATM   12  C30 UNL     1      -5.851  18.510  21.038  1.00  0.00     0.106 A 
ATOM     13  H3  UNL     1      -7.213  19.231  22.507  1.00  0.00     0.166 HD
HETATM   14  C31 UNL     1      -5.673  17.248  20.520  1.00  0.00     0.106 A 
HETATM   15  N4  UNL     1      -6.572  16.478  21.143  1.00  0.00    -0.353 N 
ATOM     16  H4  UNL     1      -6.696  15.480  20.971  1.00  0.00     0.166 HD
ENDBRANCH   6  10
ENDBRANCH   3   6
ENDBRANCH   1   2
BRANCH   1  17
HETATM   17  C7  UNL     1      -7.044  18.038  27.205  1.00  0.00     0.052 C 
BRANCH  17  18
HETATM   18  C8  UNL     1      -5.847  17.923  26.418  1.00  0.00    -0.057 A 
HETATM   19  C9  UNL     1      -5.434  18.815  25.460  1.00  0.00     0.007 A 
HETATM   20  C10 UNL     1      -4.261  18.690  24.738  1.00  0.00     0.001 A 
HETATM   21  C11 UNL     1      -3.407  17.614  24.955  1.00  0.00     0.000 A 
HETATM   22  C12 UNL     1      -3.802  16.691  25.924  1.00  0.00     0.001 A 
HETATM   23  C13 UNL     1      -4.969  16.842  26.617  1.00  0.00     0.007 A 
ENDBRANCH  17  18
ENDBRANCH   1  17
BRANCH   1  24
HETATM   24  C14 UNL     1      -9.133  16.866  27.789  1.00  0.00     0.048 C 
BRANCH  24  25
HETATM   25  C15 UNL     1     -10.610  16.814  27.614  1.00  0.00     0.142 C 
BRANCH  25  26
HETATM   26  O2  UNL     1     -11.174  18.032  28.045  1.00  0.00    -0.393 OA
ATOM     27  H2  UNL     1     -11.011  18.702  27.391  1.00  0.00     0.210 HD
ENDBRANCH  25  26
BRANCH  25  28
HETATM   28  C16 UNL     1     -11.193  15.755  28.565  1.00  0.00     0.119 C 
BRANCH  28  29
HETATM   29  C17 UNL     1     -12.640  15.452  28.274  1.00  0.00     0.066 C 
BRANCH  29  30
HETATM   30  C18 UNL     1     -13.069  14.239  28.990  1.00  0.00    -0.056 A 
HETATM   31  C19 UNL     1     -13.999  14.326  30.012  1.00  0.00     0.007 A 
HETATM   32  C20 UNL     1     -14.412  13.216  30.700  1.00  0.00     0.001 A 
HETATM   33  C21 UNL     1     -13.908  11.957  30.385  1.00  0.00     0.000 A 
HETATM   34  C22 UNL     1     -12.983  11.875  29.365  1.00  0.00     0.001 A 
HETATM   35  C23 UNL     1     -12.564  13.006  28.669  1.00  0.00     0.007 A 
ENDBRANCH  29  30
ENDBRANCH  28  29
BRANCH  28  36
HETATM   36  N2  UNL     1     -10.985  16.198  29.905  1.00  0.00    -0.329 N 
HETATM   37  C24 UNL     1     -10.300  15.493  30.920  1.00  0.00     0.361 C 
HETATM   38  O3  UNL     1      -9.813  14.360  30.586  1.00  0.00    -0.238 OA
ATOM     39  H2  UNL     1     -11.367  17.110  30.154  1.00  0.00     0.165 HD
BRANCH  37  40
HETATM   40  O4  UNL     1     -10.135  15.938  32.195  1.00  0.00    -0.294 OA
BRANCH  40  41
HETATM   41  C25 UNL     1     -10.530  15.295  33.385  1.00  0.00     0.061 C 
HETATM   42  C26 UNL     1     -11.928  14.731  33.232  1.00  0.00     0.046 C 
HETATM   43  C27 UNL     1     -10.573  16.322  34.521  1.00  0.00     0.046 C 
HETATM   44  C28 UNL     1      -9.595  14.221  33.826  1.00  0.00     0.046 C 
ENDBRANCH  40  41
ENDBRANCH  37  40
ENDBRANCH  28  36
ENDBRANCH  25  28
ENDBRANCH  24  25
ENDBRANCH   1  24
TORSDOF 15
ENDMDL
