MODEL 13
REMARK VINA RESULT: -8.862278010      1.941      4.829
REMARK  15 active torsions:
REMARK  status: ('A' for Active; 'I' for Inactive)
REMARK    1  A    between atoms: C2_2  and  C4_4 
REMARK    2  A    between atoms: C4_4  and  N1_5 
REMARK    3  A    between atoms: C4_4  and  C29_38 
REMARK       I    between atoms: N1_5  and  C5_7 
REMARK    4  A    between atoms: C5_7  and  C6_9 
REMARK    5  A    between atoms: C6_9  and  C7_10 
REMARK    6  A    between atoms: C6_9  and  C14_17 
REMARK    7  A    between atoms: C7_10  and  C8_11 
REMARK    8  A    between atoms: C14_17  and  C15_18 
REMARK    9  A    between atoms: C15_18  and  O2_19 
REMARK   10  A    between atoms: C15_18  and  C16_21 
REMARK   11  A    between atoms: C16_21  and  C17_22 
REMARK   12  A    between atoms: C16_21  and  N2_29 
REMARK   13  A    between atoms: C17_22  and  C18_23 
REMARK       I    between atoms: N2_29  and  C24_31 
REMARK   14  A    between atoms: C24_31  and  O4_33 
REMARK   15  A    between atoms: O4_33  and  C25_34 
ROOT
HETATM    1  C6  UNL     1     -10.256  16.377  26.065  1.00  0.00     0.084 C 
ENDROOT
BRANCH   1   2
HETATM    2  C5  UNL     1      -9.199  17.370  26.127  1.00  0.00     0.222 C 
HETATM    3  N1  UNL     1      -7.996  17.162  25.354  1.00  0.00    -0.349 N 
ATOM      4  H1  UNL     1      -7.950  16.329  24.766  1.00  0.00     0.163 HD
HETATM    5  O1  UNL     1      -9.261  18.385  26.847  1.00  0.00    -0.273 OA
BRANCH   3   6
HETATM    6  C4  UNL     1      -6.862  18.040  25.351  1.00  0.00     0.155 C 
BRANCH   6   7
HETATM    7  C2  UNL     1      -5.794  17.668  26.312  1.00  0.00     0.007 C 
HETATM    8  C1  UNL     1      -6.052  16.309  26.925  1.00  0.00     0.012 C 
HETATM    9  C3  UNL     1      -5.763  18.664  27.464  1.00  0.00     0.012 C 
ENDBRANCH   6   7
BRANCH   6  10
HETATM   10  C29 UNL     1      -6.296  18.165  23.926  1.00  0.00     0.104 A 
HETATM   11  N3  UNL     1      -5.117  17.750  23.477  1.00  0.00    -0.353 N 
HETATM   12  C30 UNL     1      -5.016  18.075  22.154  1.00  0.00     0.106 A 
ATOM     13  H3  UNL     1      -4.405  17.270  24.028  1.00  0.00     0.166 HD
HETATM   14  C31 UNL     1      -6.176  18.716  21.786  1.00  0.00     0.106 A 
HETATM   15  N4  UNL     1      -6.926  18.756  22.892  1.00  0.00    -0.353 N 
ATOM     16  H4  UNL     1      -7.852  19.179  22.947  1.00  0.00     0.166 HD
ENDBRANCH   6  10
ENDBRANCH   3   6
ENDBRANCH   1   2
BRANCH   1  17
HETATM   17  C7  UNL     1     -10.981  16.255  24.745  1.00  0.00     0.052 C 
BRANCH  17  18
HETATM   18  C8  UNL     1     -10.238  15.914  23.564  1.00  0.00    -0.057 A 
HETATM   19  C9  UNL     1     -10.386  16.500  22.332  1.00  0.00     0.007 A 
HETATM   20  C10 UNL     1      -9.635  16.169  21.219  1.00  0.00     0.001 A 
HETATM   21  C11 UNL     1      -8.652  15.188  21.295  1.00  0.00     0.000 A 
HETATM   22  C12 UNL     1      -8.478  14.574  22.537  1.00  0.00     0.001 A 
HETATM   23  C13 UNL     1      -9.240  14.924  23.615  1.00  0.00     0.007 A 
ENDBRANCH  17  18
ENDBRANCH   1  17
BRANCH   1  24
HETATM   24  C14 UNL     1     -11.283  16.473  27.183  1.00  0.00     0.048 C 
BRANCH  24  25
HETATM   25  C15 UNL     1     -12.135  15.272  27.398  1.00  0.00     0.142 C 
BRANCH  25  26
HETATM   26  O2  UNL     1     -13.490  15.628  27.247  1.00  0.00    -0.393 OA
ATOM     27  H2  UNL     1     -13.951  14.929  26.799  1.00  0.00     0.210 HD
ENDBRANCH  25  26
BRANCH  25  28
HETATM   28  C16 UNL     1     -12.010  14.820  28.862  1.00  0.00     0.119 C 
BRANCH  28  29
HETATM   29  C17 UNL     1     -10.668  14.205  29.165  1.00  0.00     0.066 C 
BRANCH  29  30
HETATM   30  C18 UNL     1      -9.878  15.088  30.038  1.00  0.00    -0.056 A 
HETATM   31  C19 UNL     1      -8.881  15.886  29.504  1.00  0.00     0.007 A 
HETATM   32  C20 UNL     1      -8.126  16.712  30.293  1.00  0.00     0.001 A 
HETATM   33  C21 UNL     1      -8.344  16.778  31.666  1.00  0.00     0.000 A 
HETATM   34  C22 UNL     1      -9.341  15.984  32.194  1.00  0.00     0.001 A 
HETATM   35  C23 UNL     1     -10.105  15.142  31.389  1.00  0.00     0.007 A 
ENDBRANCH  29  30
ENDBRANCH  28  29
BRANCH  28  36
HETATM   36  N2  UNL     1     -13.094  13.939  29.150  1.00  0.00    -0.329 N 
HETATM   37  C24 UNL     1     -13.832  13.890  30.353  1.00  0.00     0.361 C 
HETATM   38  O3  UNL     1     -13.496  14.731  31.254  1.00  0.00    -0.238 OA
ATOM     39  H2  UNL     1     -13.361  13.282  28.417  1.00  0.00     0.165 HD
BRANCH  37  40
HETATM   40  O4  UNL     1     -14.851  13.022  30.601  1.00  0.00    -0.294 OA
BRANCH  40  41
HETATM   41  C25 UNL     1     -14.755  11.706  31.096  1.00  0.00     0.061 C 
HETATM   42  C26 UNL     1     -16.042  10.953  30.826  1.00  0.00     0.046 C 
HETATM   43  C27 UNL     1     -14.564  11.754  32.615  1.00  0.00     0.046 C 
HETATM   44  C28 UNL     1     -13.596  10.942  30.551  1.00  0.00     0.046 C 
ENDBRANCH  40  41
ENDBRANCH  37  40
ENDBRANCH  28  36
ENDBRANCH  25  28
ENDBRANCH  24  25
ENDBRANCH   1  24
TORSDOF 15
ENDMDL
