MODEL 4
REMARK VINA RESULT: -9.350156360      1.689      9.886
REMARK  15 active torsions:
REMARK  status: ('A' for Active; 'I' for Inactive)
REMARK    1  A    between atoms: C2_2  and  C4_4 
REMARK    2  A    between atoms: C4_4  and  N1_5 
REMARK    3  A    between atoms: C4_4  and  C29_38 
REMARK       I    between atoms: N1_5  and  C5_7 
REMARK    4  A    between atoms: C5_7  and  C6_9 
REMARK    5  A    between atoms: C6_9  and  C7_10 
REMARK    6  A    between atoms: C6_9  and  C14_17 
REMARK    7  A    between atoms: C7_10  and  C8_11 
REMARK    8  A    between atoms: C14_17  and  C15_18 
REMARK    9  A    between atoms: C15_18  and  O2_19 
REMARK   10  A    between atoms: C15_18  and  C16_21 
REMARK   11  A    between atoms: C16_21  and  C17_22 
REMARK   12  A    between atoms: C16_21  and  N2_29 
REMARK   13  A    between atoms: C17_22  and  C18_23 
REMARK       I    between atoms: N2_29  and  C24_31 
REMARK   14  A    between atoms: C24_31  and  O4_33 
REMARK   15  A    between atoms: O4_33  and  C25_34 
ROOT
HETATM    1  C6  UNL     1     -11.352  15.859  28.403  1.00  0.00     0.084 C 
ENDROOT
BRANCH   1   2
HETATM    2  C5  UNL     1     -10.499  15.277  29.424  1.00  0.00     0.222 C 
HETATM    3  N1  UNL     1     -10.673  15.686  30.798  1.00  0.00    -0.349 N 
ATOM      4  H1  UNL     1     -11.417  16.354  31.002  1.00  0.00     0.163 HD
HETATM    5  O1  UNL     1      -9.591  14.463  29.168  1.00  0.00    -0.273 OA
BRANCH   3   6
HETATM    6  C4  UNL     1      -9.878  15.223  31.898  1.00  0.00     0.155 C 
BRANCH   6   7
HETATM    7  C2  UNL     1      -8.882  16.205  32.393  1.00  0.00     0.007 C 
HETATM    8  C1  UNL     1      -9.418  16.991  33.570  1.00  0.00     0.012 C 
HETATM    9  C3  UNL     1      -8.567  17.220  31.302  1.00  0.00     0.012 C 
ENDBRANCH   6   7
BRANCH   6  10
HETATM   10  C29 UNL     1     -10.788  14.744  33.042  1.00  0.00     0.104 A 
HETATM   11  N3  UNL     1     -12.094  14.941  33.184  1.00  0.00    -0.353 N 
HETATM   12  C30 UNL     1     -12.498  14.356  34.350  1.00  0.00     0.106 A 
ATOM     13  H3  UNL     1     -12.694  15.445  32.531  1.00  0.00     0.166 HD
HETATM   14  C31 UNL     1     -11.395  13.786  34.943  1.00  0.00     0.106 A 
HETATM   15  N4  UNL     1     -10.375  14.049  34.120  1.00  0.00    -0.353 N 
ATOM     16  H4  UNL     1      -9.410  13.761  34.286  1.00  0.00     0.166 HD
ENDBRANCH   6  10
ENDBRANCH   3   6
ENDBRANCH   1   2
BRANCH   1  17
HETATM   17  C7  UNL     1     -12.455  14.975  27.872  1.00  0.00     0.052 C 
BRANCH  17  18
HETATM   18  C8  UNL     1     -13.031  13.976  28.730  1.00  0.00    -0.057 A 
HETATM   19  C9  UNL     1     -12.780  12.629  28.665  1.00  0.00     0.007 A 
HETATM   20  C10 UNL     1     -13.329  11.695  29.525  1.00  0.00     0.001 A 
HETATM   21  C11 UNL     1     -14.195  12.089  30.539  1.00  0.00     0.000 A 
HETATM   22  C12 UNL     1     -14.468  13.455  30.629  1.00  0.00     0.001 A 
HETATM   23  C13 UNL     1     -13.911  14.350  29.762  1.00  0.00     0.007 A 
ENDBRANCH  17  18
ENDBRANCH   1  17
BRANCH   1  24
HETATM   24  C14 UNL     1     -10.606  16.474  27.228  1.00  0.00     0.048 C 
BRANCH  24  25
HETATM   25  C15 UNL     1      -9.691  17.602  27.549  1.00  0.00     0.142 C 
BRANCH  25  26
HETATM   26  O2  UNL     1     -10.187  18.785  26.962  1.00  0.00    -0.393 OA
ATOM     27  H2  UNL     1     -10.752  19.230  27.583  1.00  0.00     0.210 HD
ENDBRANCH  25  26
BRANCH  25  28
HETATM   28  C16 UNL     1      -8.336  17.364  26.863  1.00  0.00     0.119 C 
BRANCH  28  29
HETATM   29  C17 UNL     1      -7.247  18.249  27.411  1.00  0.00     0.066 C 
BRANCH  29  30
HETATM   30  C18 UNL     1      -5.990  18.042  26.674  1.00  0.00    -0.056 A 
HETATM   31  C19 UNL     1      -5.227  16.910  26.902  1.00  0.00     0.007 A 
HETATM   32  C20 UNL     1      -4.050  16.693  26.236  1.00  0.00     0.001 A 
HETATM   33  C21 UNL     1      -3.586  17.611  25.298  1.00  0.00     0.000 A 
HETATM   34  C22 UNL     1      -4.351  18.737  25.072  1.00  0.00     0.001 A 
HETATM   35  C23 UNL     1      -5.545  18.955  25.753  1.00  0.00     0.007 A 
ENDBRANCH  29  30
ENDBRANCH  28  29
BRANCH  28  36
HETATM   36  N2  UNL     1      -8.515  17.522  25.457  1.00  0.00    -0.329 N 
HETATM   37  C24 UNL     1      -8.161  16.585  24.460  1.00  0.00     0.361 C 
HETATM   38  O3  UNL     1      -7.648  15.491  24.874  1.00  0.00    -0.238 OA
ATOM     39  H2  UNL     1      -8.938  18.394  25.141  1.00  0.00     0.165 HD
BRANCH  37  40
HETATM   40  O4  UNL     1      -8.330  16.777  23.123  1.00  0.00    -0.294 OA
BRANCH  40  41
HETATM   41  C25 UNL     1      -9.199  16.080  22.260  1.00  0.00     0.061 C 
HETATM   42  C26 UNL     1      -8.565  14.772  21.830  1.00  0.00     0.046 C 
HETATM   43  C27 UNL     1      -9.429  16.914  20.997  1.00  0.00     0.046 C 
HETATM   44  C28 UNL     1     -10.547  15.822  22.845  1.00  0.00     0.046 C 
ENDBRANCH  40  41
ENDBRANCH  37  40
ENDBRANCH  28  36
ENDBRANCH  25  28
ENDBRANCH  24  25
ENDBRANCH   1  24
TORSDOF 15
ENDMDL
