MODEL 3
REMARK VINA RESULT: -8.235424327      1.998      4.396
REMARK  2 active torsions:
REMARK  status: ('A' for Active; 'I' for Inactive)
REMARK    1  A    between atoms: C14_17  and  O3_18 
REMARK    2  A    between atoms: C16_21  and  O4_22 
ROOT
HETATM    1  C1  UNL     1      18.283  -2.438  -0.969  1.00  0.00     0.040 C 
HETATM    2  C2  UNL     1      17.191  -2.520  -2.008  1.00  0.00     0.130 C 
HETATM    3  C3  UNL     1      15.881  -2.203  -1.390  1.00  0.00     0.067 C 
HETATM    4  C4  UNL     1      14.746  -3.103  -1.718  1.00  0.00     0.157 A 
HETATM    5  O1  UNL     1      13.510  -2.603  -1.060  1.00  0.00    -0.371 OA
HETATM    6  C5  UNL     1      13.644  -2.661  -2.470  1.00  0.00     0.174 A 
HETATM    7  C6  UNL     1      12.952  -3.777  -3.148  1.00  0.00     0.007 C 
HETATM    8  C7  UNL     1      12.463  -3.827  -4.365  1.00  0.00    -0.001 C 
HETATM    9  C8  UNL     1      12.453  -2.825  -5.404  1.00  0.00     0.003 C 
HETATM   10  C9  UNL     1      13.421  -2.360  -6.156  1.00  0.00     0.050 C 
HETATM   11  C10 UNL     1      14.822  -2.762  -6.127  1.00  0.00     0.153 C 
HETATM   12  O2  UNL     1      15.317  -3.349  -7.164  1.00  0.00    -0.293 OA
HETATM   13  C11 UNL     1      15.776  -2.574  -5.025  1.00  0.00     0.124 C 
HETATM   14  C12 UNL     1      17.175  -2.493  -5.529  1.00  0.00    -0.007 A 
HETATM   15  C13 UNL     1      17.400  -1.686  -6.614  1.00  0.00     0.075 A 
HETATM   16 CL1  UNL     1      16.159  -0.726  -7.382  1.00  0.00    -0.081 Cl
HETATM   17  C14 UNL     1      18.682  -1.578  -7.148  1.00  0.00     0.090 A 
HETATM   18  C15 UNL     1      19.687  -2.289  -6.567  1.00  0.00     0.076 A 
HETATM   19  C16 UNL     1      19.452  -3.102  -5.469  1.00  0.00     0.085 A 
HETATM   20  C17 UNL     1      18.192  -3.222  -4.923  1.00  0.00     0.081 A 
HETATM   21  C18 UNL     1      18.014  -4.064  -3.758  1.00  0.00     0.297 C 
HETATM   22  O5  UNL     1      18.682  -5.149  -3.737  1.00  0.00    -0.259 OA
HETATM   23  O6  UNL     1      17.163  -3.747  -2.682  1.00  0.00    -0.312 OA
ENDROOT
BRANCH  17  24
HETATM   24  O3  UNL     1      18.919  -0.751  -8.265  1.00  0.00    -0.359 OA
ATOM     25  H3  UNL     1      19.785  -0.709  -8.653  1.00  0.00     0.217 HD
ENDBRANCH  17  24
BRANCH  19  26
HETATM   26  O4  UNL     1      20.546  -3.799  -4.935  1.00  0.00    -0.360 OA
ATOM     27  H4  UNL     1      21.040  -3.375  -4.243  1.00  0.00     0.217 HD
ENDBRANCH  19  26
TORSDOF 2
ENDMDL
