MODEL 2
REMARK VINA RESULT: -8.309420624      2.057      5.494
REMARK  2 active torsions:
REMARK  status: ('A' for Active; 'I' for Inactive)
REMARK    1  A    between atoms: C14_17  and  O3_18 
REMARK    2  A    between atoms: C16_21  and  O4_22 
ROOT
HETATM    1  C1  UNL     1      16.184  -3.080  -8.364  1.00  0.00     0.040 C 
HETATM    2  C2  UNL     1      16.435  -3.052  -6.876  1.00  0.00     0.130 C 
HETATM    3  C3  UNL     1      17.847  -2.690  -6.608  1.00  0.00     0.067 C 
HETATM    4  C4  UNL     1      18.574  -3.508  -5.604  1.00  0.00     0.157 A 
HETATM    5  O1  UNL     1      19.948  -2.969  -5.425  1.00  0.00    -0.371 OA
HETATM    6  C5  UNL     1      18.995  -2.971  -4.376  1.00  0.00     0.174 A 
HETATM    7  C6  UNL     1      19.161  -4.013  -3.343  1.00  0.00     0.007 C 
HETATM    8  C7  UNL     1      18.822  -3.981  -2.074  1.00  0.00    -0.001 C 
HETATM    9  C8  UNL     1      18.189  -2.934  -1.310  1.00  0.00     0.003 C 
HETATM   10  C9  UNL     1      16.954  -2.491  -1.321  1.00  0.00     0.050 C 
HETATM   11  C10 UNL     1      15.859  -2.972  -2.154  1.00  0.00     0.153 C 
HETATM   12  O2  UNL     1      14.851  -3.539  -1.580  1.00  0.00    -0.293 OA
HETATM   13  C11 UNL     1      15.754  -2.889  -3.617  1.00  0.00     0.124 C 
HETATM   14  C12 UNL     1      14.332  -2.865  -4.057  1.00  0.00    -0.007 A 
HETATM   15  C13 UNL     1      13.486  -2.024  -3.382  1.00  0.00     0.075 A 
HETATM   16 CL1  UNL     1      13.999  -0.961  -2.094  1.00  0.00    -0.081 Cl
HETATM   17  C14 UNL     1      12.139  -1.965  -3.730  1.00  0.00     0.090 A 
HETATM   18  C15 UNL     1      11.698  -2.758  -4.746  1.00  0.00     0.076 A 
HETATM   19  C16 UNL     1      12.560  -3.605  -5.424  1.00  0.00     0.085 A 
HETATM   20  C17 UNL     1      13.897  -3.678  -5.098  1.00  0.00     0.081 A 
HETATM   21  C18 UNL     1      14.754  -4.559  -5.862  1.00  0.00     0.297 C 
HETATM   22  O5  UNL     1      14.253  -5.681  -6.203  1.00  0.00    -0.259 OA
HETATM   23  O6  UNL     1      16.075  -4.244  -6.235  1.00  0.00    -0.312 OA
ENDROOT
BRANCH  17  24
HETATM   24  O3  UNL     1      11.263  -1.104  -3.039  1.00  0.00    -0.359 OA
ATOM     25  H3  UNL     1      10.329  -1.277  -3.030  1.00  0.00     0.217 HD
ENDBRANCH  17  24
BRANCH  19  26
HETATM   26  O4  UNL     1      12.018  -4.386  -6.457  1.00  0.00    -0.360 OA
ATOM     27  H4  UNL     1      12.607  -4.671  -7.145  1.00  0.00     0.217 HD
ENDBRANCH  19  26
TORSDOF 2
ENDMDL
