MODEL 4
REMARK VINA RESULT: -7.885817009      2.302      6.376
REMARK  2 active torsions:
REMARK  status: ('A' for Active; 'I' for Inactive)
REMARK    1  A    between atoms: C14_17  and  O3_18 
REMARK    2  A    between atoms: C16_21  and  O4_22 
ROOT
HETATM    1  C1  UNL     1      17.643  -3.036  -1.335  1.00  0.00     0.040 C 
HETATM    2  C2  UNL     1      17.073  -3.159  -2.727  1.00  0.00     0.130 C 
HETATM    3  C3  UNL     1      18.158  -3.446  -3.695  1.00  0.00     0.067 C 
HETATM    4  C4  UNL     1      18.163  -2.659  -4.955  1.00  0.00     0.157 A 
HETATM    5  O1  UNL     1      19.279  -3.118  -5.822  1.00  0.00    -0.371 OA
HETATM    6  C5  UNL     1      17.921  -3.259  -6.203  1.00  0.00     0.174 A 
HETATM    7  C6  UNL     1      17.416  -2.288  -7.195  1.00  0.00     0.007 C 
HETATM    8  C7  UNL     1      16.463  -2.439  -8.087  1.00  0.00    -0.001 C 
HETATM    9  C8  UNL     1      15.626  -3.581  -8.366  1.00  0.00     0.003 C 
HETATM   10  C9  UNL     1      14.633  -4.103  -7.687  1.00  0.00     0.050 C 
HETATM   11  C10 UNL     1      14.102  -3.634  -6.413  1.00  0.00     0.153 C 
HETATM   12  O2  UNL     1      12.895  -3.181  -6.378  1.00  0.00    -0.293 OA
HETATM   13  C11 UNL     1      14.794  -3.613  -5.117  1.00  0.00     0.124 C 
HETATM   14  C12 UNL     1      13.828  -3.698  -3.986  1.00  0.00    -0.007 A 
HETATM   15  C13 UNL     1      12.840  -4.643  -4.083  1.00  0.00     0.075 A 
HETATM   16 CL1  UNL     1      12.695  -5.763  -5.415  1.00  0.00    -0.081 Cl
HETATM   17  C14 UNL     1      11.892  -4.765  -3.070  1.00  0.00     0.090 A 
HETATM   18  C15 UNL     1      11.979  -3.928  -1.999  1.00  0.00     0.076 A 
HETATM   19  C16 UNL     1      12.983  -2.977  -1.908  1.00  0.00     0.085 A 
HETATM   20  C17 UNL     1      13.932  -2.840  -2.898  1.00  0.00     0.081 A 
HETATM   21  C18 UNL     1      14.973  -1.848  -2.733  1.00  0.00     0.297 C 
HETATM   22  O5  UNL     1      14.622  -0.739  -2.210  1.00  0.00    -0.259 OA
HETATM   23  O6  UNL     1      16.316  -2.046  -3.112  1.00  0.00    -0.312 OA
ENDROOT
BRANCH  17  24
HETATM   24  O3  UNL     1      10.872  -5.733  -3.163  1.00  0.00    -0.359 OA
ATOM     25  H3  UNL     1      10.184  -5.642  -3.813  1.00  0.00     0.217 HD
ENDBRANCH  17  24
BRANCH  19  26
HETATM   26  O4  UNL     1      12.995  -2.157  -0.768  1.00  0.00    -0.360 OA
ATOM     27  H4  UNL     1      12.589  -2.498   0.020  1.00  0.00     0.217 HD
ENDBRANCH  19  26
TORSDOF 2
ENDMDL
