MODEL 5
REMARK VINA RESULT: -7.745344765      3.046      8.177
REMARK  9 active torsions:
REMARK  status: ('A' for Active; 'I' for Inactive)
REMARK    1  A    between atoms: N3_4  and  C2_6 
REMARK    2  A    between atoms: C2_6  and  C3_7 
REMARK    3  A    between atoms: C3_7  and  C4_8 
REMARK    4  A    between atoms: C4_8  and  N4_9 
REMARK       I    between atoms: N4_9  and  C5_11 
REMARK    5  A    between atoms: C5_11  and  C6_13 
REMARK    6  A    between atoms: C11_19  and  N5_20 
REMARK    7  A    between atoms: N5_20  and  S2_22 
REMARK    8  A    between atoms: S2_22  and  C12_25 
REMARK    9  A    between atoms: C12_25  and  C13_26 
ROOT
HETATM    1  C6  UNL     1      19.353 -14.782  21.976  1.00  0.00     0.190 C 
HETATM    2  C7  UNL     1      20.116 -14.945  20.670  1.00  0.00     0.111 C 
HETATM    3  S1  UNL     1      20.118 -13.190  20.125  1.00  0.00    -0.141 SA
HETATM    4  C8  UNL     1      18.552 -12.758  20.980  1.00  0.00     0.150 C 
HETATM    5  C9  UNL     1      17.549 -12.483  19.873  1.00  0.00     0.039 C 
HETATM    6  C10 UNL     1      16.382 -13.445  19.949  1.00  0.00     0.038 C 
HETATM    7  C11 UNL     1      15.842 -13.354  21.352  1.00  0.00     0.185 C 
HETATM    8  C19 UNL     1      16.869 -14.072  22.189  1.00  0.00     0.245 C 
HETATM    9  O4  UNL     1      16.575 -14.749  23.198  1.00  0.00    -0.271 OA
HETATM   10  N6  UNL     1      18.222 -13.937  21.763  1.00  0.00    -0.323 N 
ENDROOT
BRANCH   1  11
HETATM   11  C5  UNL     1      20.234 -14.397  23.089  1.00  0.00     0.241 C 
HETATM   12  N4  UNL     1      19.760 -14.092  24.394  1.00  0.00    -0.359 N 
ATOM     13  H4  UNL     1      18.756 -14.145  24.568  1.00  0.00     0.162 HD
HETATM   14  O1  UNL     1      21.480 -14.319  22.919  1.00  0.00    -0.271 OA
BRANCH  12  15
HETATM   15  C4  UNL     1      20.629 -13.711  25.490  1.00  0.00     0.124 C 
BRANCH  15  16
HETATM   16  C3  UNL     1      20.653 -14.745  26.589  1.00  0.00     0.039 C 
BRANCH  16  17
HETATM   17  C2  UNL     1      21.520 -15.916  26.264  1.00  0.00     0.123 C 
BRANCH  17  18
HETATM   18  N3  UNL     1      22.733 -15.532  25.560  1.00  0.00    -0.367 N 
HETATM   19  C1  UNL     1      23.337 -16.314  24.746  1.00  0.00     0.196 C 
HETATM   20  N1  UNL     1      22.819 -17.606  24.511  1.00  0.00    -0.067 NA
HETATM   21  N2  UNL     1      24.506 -15.897  24.091  1.00  0.00    -0.067 NA
ATOM     22  H3  UNL     1      23.119 -14.601  25.721  1.00  0.00     0.161 HD
ENDBRANCH  17  18
ENDBRANCH  16  17
ENDBRANCH  15  16
ENDBRANCH  12  15
ENDBRANCH   1  11
BRANCH   7  23
HETATM   23  N5  UNL     1      14.559 -13.852  21.426  1.00  0.00    -0.305 N 
ATOM     24  H5  UNL     1      14.387 -14.613  22.084  1.00  0.00     0.173 HD
BRANCH  23  25
HETATM   25  S2  UNL     1      13.279 -13.316  20.536  1.00  0.00     0.231 S 
HETATM   26  O2  UNL     1      13.720 -13.297  19.063  1.00  0.00    -0.206 OA
HETATM   27  O3  UNL     1      12.077 -14.229  20.510  1.00  0.00    -0.206 OA
BRANCH  25  28
HETATM   28  C12 UNL     1      12.825 -11.654  20.878  1.00  0.00     0.201 C 
BRANCH  28  29
HETATM   29  C13 UNL     1      12.279 -11.422  22.219  1.00  0.00    -0.043 A 
HETATM   30  C14 UNL     1      11.517 -12.325  22.924  1.00  0.00     0.008 A 
HETATM   31  C15 UNL     1      11.073 -11.999  24.187  1.00  0.00     0.001 A 
HETATM   32  C16 UNL     1      11.363 -10.797  24.775  1.00  0.00     0.000 A 
HETATM   33  C17 UNL     1      12.125  -9.874  24.089  1.00  0.00     0.001 A 
HETATM   34  C18 UNL     1      12.567 -10.207  22.824  1.00  0.00     0.008 A 
ENDBRANCH  28  29
ENDBRANCH  25  28
ENDBRANCH  23  25
ENDBRANCH   7  23
TORSDOF 9
ENDMDL
