MODEL 9
REMARK VINA RESULT: -7.574256325      2.835      7.782
REMARK  9 active torsions:
REMARK  status: ('A' for Active; 'I' for Inactive)
REMARK    1  A    between atoms: N3_4  and  C2_6 
REMARK    2  A    between atoms: C2_6  and  C3_7 
REMARK    3  A    between atoms: C3_7  and  C4_8 
REMARK    4  A    between atoms: C4_8  and  N4_9 
REMARK       I    between atoms: N4_9  and  C5_11 
REMARK    5  A    between atoms: C5_11  and  C6_13 
REMARK    6  A    between atoms: C11_19  and  N5_20 
REMARK    7  A    between atoms: N5_20  and  S2_22 
REMARK    8  A    between atoms: S2_22  and  C12_25 
REMARK    9  A    between atoms: C12_25  and  C13_26 
ROOT
HETATM    1  C6  UNL     1      19.189 -14.985  21.159  1.00  0.00     0.190 C 
HETATM    2  C7  UNL     1      20.092 -14.571  20.008  1.00  0.00     0.111 C 
HETATM    3  S1  UNL     1      19.630 -12.795  19.912  1.00  0.00    -0.141 SA
HETATM    4  C8  UNL     1      17.929 -13.040  20.557  1.00  0.00     0.150 C 
HETATM    5  C9  UNL     1      17.006 -12.733  19.391  1.00  0.00     0.039 C 
HETATM    6  C10 UNL     1      16.174 -13.944  19.025  1.00  0.00     0.038 C 
HETATM    7  C11 UNL     1      15.493 -14.394  20.292  1.00  0.00     0.185 C 
HETATM    8  C19 UNL     1      16.598 -15.029  21.097  1.00  0.00     0.245 C 
HETATM    9  O4  UNL     1      16.418 -16.015  21.844  1.00  0.00    -0.271 OA
HETATM   10  N6  UNL     1      17.886 -14.435  20.961  1.00  0.00    -0.323 N 
ENDROOT
BRANCH   1  11
HETATM   11  C5  UNL     1      19.801 -14.715  22.469  1.00  0.00     0.241 C 
HETATM   12  N4  UNL     1      19.095 -14.817  23.699  1.00  0.00    -0.359 N 
ATOM     13  H4  UNL     1      18.113 -15.094  23.672  1.00  0.00     0.162 HD
HETATM   14  O1  UNL     1      21.010 -14.371  22.550  1.00  0.00    -0.271 OA
BRANCH  12  15
HETATM   15  C4  UNL     1      19.698 -14.549  24.990  1.00  0.00     0.124 C 
BRANCH  15  16
HETATM   16  C3  UNL     1      20.095 -15.814  25.711  1.00  0.00     0.039 C 
BRANCH  16  17
HETATM   17  C2  UNL     1      21.568 -16.058  25.686  1.00  0.00     0.123 C 
BRANCH  17  18
HETATM   18  N3  UNL     1      22.331 -14.831  25.520  1.00  0.00    -0.367 N 
HETATM   19  C1  UNL     1      23.382 -14.765  24.791  1.00  0.00     0.196 C 
HETATM   20  N1  UNL     1      23.832 -15.920  24.115  1.00  0.00    -0.067 NA
HETATM   21  N2  UNL     1      24.086 -13.558  24.663  1.00  0.00    -0.067 NA
ATOM     22  H3  UNL     1      22.017 -13.990  26.004  1.00  0.00     0.161 HD
ENDBRANCH  17  18
ENDBRANCH  16  17
ENDBRANCH  15  16
ENDBRANCH  12  15
ENDBRANCH   1  11
BRANCH   7  23
HETATM   23  N5  UNL     1      14.414 -15.207  20.016  1.00  0.00    -0.305 N 
ATOM     24  H5  UNL     1      14.478 -15.811  19.197  1.00  0.00     0.173 HD
BRANCH  23  25
HETATM   25  S2  UNL     1      13.028 -15.279  20.907  1.00  0.00     0.231 S 
HETATM   26  O2  UNL     1      11.966 -14.444  20.172  1.00  0.00    -0.206 OA
HETATM   27  O3  UNL     1      12.379 -16.639  20.990  1.00  0.00    -0.206 OA
BRANCH  25  28
HETATM   28  C12 UNL     1      13.162 -14.524  22.487  1.00  0.00     0.201 C 
BRANCH  28  29
HETATM   29  C13 UNL     1      12.799 -13.104  22.530  1.00  0.00    -0.043 A 
HETATM   30  C14 UNL     1      11.663 -12.601  23.124  1.00  0.00     0.008 A 
HETATM   31  C15 UNL     1      11.438 -11.242  23.114  1.00  0.00     0.001 A 
HETATM   32  C16 UNL     1      12.310 -10.361  22.530  1.00  0.00     0.000 A 
HETATM   33  C17 UNL     1      13.454 -10.840  21.929  1.00  0.00     0.001 A 
HETATM   34  C18 UNL     1      13.675 -12.203  21.941  1.00  0.00     0.008 A 
ENDBRANCH  28  29
ENDBRANCH  25  28
ENDBRANCH  23  25
ENDBRANCH   7  23
TORSDOF 9
ENDMDL
