MODEL 15
REMARK VINA RESULT: -7.457856400      3.051      4.349
REMARK  9 active torsions:
REMARK  status: ('A' for Active; 'I' for Inactive)
REMARK    1  A    between atoms: N3_4  and  C2_6 
REMARK    2  A    between atoms: C2_6  and  C3_7 
REMARK    3  A    between atoms: C3_7  and  C4_8 
REMARK    4  A    between atoms: C4_8  and  N4_9 
REMARK       I    between atoms: N4_9  and  C5_11 
REMARK    5  A    between atoms: C5_11  and  C6_13 
REMARK    6  A    between atoms: C11_19  and  N5_20 
REMARK    7  A    between atoms: N5_20  and  S2_22 
REMARK    8  A    between atoms: S2_22  and  C12_25 
REMARK    9  A    between atoms: C12_25  and  C13_26 
ROOT
HETATM    1  C6  UNL     1      17.601 -12.704  21.283  1.00  0.00     0.190 C 
HETATM    2  C7  UNL     1      18.872 -12.077  20.732  1.00  0.00     0.111 C 
HETATM    3  S1  UNL     1      19.338 -13.391  19.535  1.00  0.00    -0.141 SA
HETATM    4  C8  UNL     1      18.545 -14.752  20.479  1.00  0.00     0.150 C 
HETATM    5  C9  UNL     1      19.688 -15.621  20.973  1.00  0.00     0.039 C 
HETATM    6  C10 UNL     1      19.714 -15.672  22.486  1.00  0.00     0.038 C 
HETATM    7  C11 UNL     1      18.338 -16.099  22.924  1.00  0.00     0.185 C 
HETATM    8  C19 UNL     1      17.483 -14.881  22.686  1.00  0.00     0.245 C 
HETATM    9  O4  UNL     1      16.521 -14.568  23.421  1.00  0.00    -0.271 OA
HETATM   10  N6  UNL     1      17.833 -14.086  21.556  1.00  0.00    -0.323 N 
ENDROOT
BRANCH   1  11
HETATM   11  C5  UNL     1      16.428 -12.411  20.444  1.00  0.00     0.241 C 
HETATM   12  N4  UNL     1      15.144 -12.977  20.668  1.00  0.00    -0.359 N 
ATOM     13  H4  UNL     1      15.028 -13.619  21.452  1.00  0.00     0.162 HD
HETATM   14  O1  UNL     1      16.525 -11.623  19.466  1.00  0.00    -0.271 OA
BRANCH  12  15
HETATM   15  C4  UNL     1      13.989 -12.688  19.840  1.00  0.00     0.124 C 
BRANCH  15  16
HETATM   16  C3  UNL     1      13.145 -11.570  20.402  1.00  0.00     0.039 C 
BRANCH  16  17
HETATM   17  C2  UNL     1      12.601 -11.880  21.757  1.00  0.00     0.123 C 
BRANCH  17  18
HETATM   18  N3  UNL     1      12.552 -10.708  22.618  1.00  0.00    -0.367 N 
HETATM   19  C1  UNL     1      11.888 -10.682  23.713  1.00  0.00     0.196 C 
HETATM   20  N1  UNL     1      11.168 -11.828  24.115  1.00  0.00    -0.067 NA
HETATM   21  N2  UNL     1      11.872  -9.527  24.509  1.00  0.00    -0.067 NA
ATOM     22  H3  UNL     1      13.067  -9.874  22.337  1.00  0.00     0.161 HD
ENDBRANCH  17  18
ENDBRANCH  16  17
ENDBRANCH  15  16
ENDBRANCH  12  15
ENDBRANCH   1  11
BRANCH   7  23
HETATM   23  N5  UNL     1      18.351 -16.574  24.218  1.00  0.00    -0.305 N 
ATOM     24  H5  UNL     1      17.847 -16.035  24.922  1.00  0.00     0.173 HD
BRANCH  23  25
HETATM   25  S2  UNL     1      19.116 -17.946  24.718  1.00  0.00     0.231 S 
HETATM   26  O2  UNL     1      18.095 -18.778  25.513  1.00  0.00    -0.206 OA
HETATM   27  O3  UNL     1      19.533 -18.895  23.621  1.00  0.00    -0.206 OA
BRANCH  25  28
HETATM   28  C12 UNL     1      20.422 -17.654  25.856  1.00  0.00     0.201 C 
BRANCH  28  29
HETATM   29  C13 UNL     1      20.919 -16.274  25.891  1.00  0.00    -0.043 A 
HETATM   30  C14 UNL     1      21.996 -15.809  25.172  1.00  0.00     0.008 A 
HETATM   31  C15 UNL     1      22.359 -14.484  25.275  1.00  0.00     0.001 A 
HETATM   32  C16 UNL     1      21.683 -13.601  26.075  1.00  0.00     0.000 A 
HETATM   33  C17 UNL     1      20.601 -14.043  26.806  1.00  0.00     0.001 A 
HETATM   34  C18 UNL     1      20.241 -15.372  26.699  1.00  0.00     0.008 A 
ENDBRANCH  28  29
ENDBRANCH  25  28
ENDBRANCH  23  25
ENDBRANCH   7  23
TORSDOF 9
ENDMDL
