MODEL 10
REMARK VINA RESULT: -7.574173429      2.890      7.455
REMARK  9 active torsions:
REMARK  status: ('A' for Active; 'I' for Inactive)
REMARK    1  A    between atoms: N3_4  and  C2_6 
REMARK    2  A    between atoms: C2_6  and  C3_7 
REMARK    3  A    between atoms: C3_7  and  C4_8 
REMARK    4  A    between atoms: C4_8  and  N4_9 
REMARK       I    between atoms: N4_9  and  C5_11 
REMARK    5  A    between atoms: C5_11  and  C6_13 
REMARK    6  A    between atoms: C11_19  and  N5_20 
REMARK    7  A    between atoms: N5_20  and  S2_22 
REMARK    8  A    between atoms: S2_22  and  C12_25 
REMARK    9  A    between atoms: C12_25  and  C13_26 
ROOT
HETATM    1  C6  UNL     1      17.790 -16.260  22.679  1.00  0.00     0.190 C 
HETATM    2  C7  UNL     1      18.388 -17.265  21.708  1.00  0.00     0.111 C 
HETATM    3  S1  UNL     1      19.956 -16.387  21.325  1.00  0.00    -0.141 SA
HETATM    4  C8  UNL     1      19.272 -14.709  21.616  1.00  0.00     0.150 C 
HETATM    5  C9  UNL     1      19.254 -14.036  20.255  1.00  0.00     0.039 C 
HETATM    6  C10 UNL     1      17.842 -13.663  19.854  1.00  0.00     0.038 C 
HETATM    7  C11 UNL     1      17.277 -12.848  20.988  1.00  0.00     0.185 C 
HETATM    8  C19 UNL     1      17.016 -13.861  22.073  1.00  0.00     0.245 C 
HETATM    9  O4  UNL     1      16.054 -13.777  22.868  1.00  0.00    -0.271 OA
HETATM   10  N6  UNL     1      17.941 -14.941  22.151  1.00  0.00    -0.323 N 
ENDROOT
BRANCH   1  11
HETATM   11  C5  UNL     1      18.280 -16.454  24.052  1.00  0.00     0.241 C 
HETATM   12  N4  UNL     1      19.322 -15.678  24.629  1.00  0.00    -0.359 N 
ATOM     13  H4  UNL     1      19.752 -14.948  24.061  1.00  0.00     0.162 HD
HETATM   14  O1  UNL     1      17.778 -17.344  24.789  1.00  0.00    -0.271 OA
BRANCH  12  15
HETATM   15  C4  UNL     1      19.806 -15.872  25.982  1.00  0.00     0.124 C 
BRANCH  15  16
HETATM   16  C3  UNL     1      20.144 -14.568  26.662  1.00  0.00     0.039 C 
BRANCH  16  17
HETATM   17  C2  UNL     1      21.115 -13.742  25.884  1.00  0.00     0.123 C 
BRANCH  17  18
HETATM   18  N3  UNL     1      22.387 -14.419  25.687  1.00  0.00    -0.367 N 
HETATM   19  C1  UNL     1      22.869 -14.661  24.525  1.00  0.00     0.196 C 
HETATM   20  N1  UNL     1      22.148 -14.262  23.379  1.00  0.00    -0.067 NA
HETATM   21  N2  UNL     1      24.101 -15.317  24.387  1.00  0.00    -0.067 NA
ATOM     22  H3  UNL     1      22.917 -14.713  26.507  1.00  0.00     0.161 HD
ENDBRANCH  17  18
ENDBRANCH  16  17
ENDBRANCH  15  16
ENDBRANCH  12  15
ENDBRANCH   1  11
BRANCH   7  23
HETATM   23  N5  UNL     1      16.182 -12.117  20.579  1.00  0.00    -0.305 N 
ATOM     24  H5  UNL     1      16.155 -11.129  20.834  1.00  0.00     0.173 HD
BRANCH  23  25
HETATM   25  S2  UNL     1      14.913 -12.711  19.711  1.00  0.00     0.231 S 
HETATM   26  O2  UNL     1      15.295 -12.627  18.223  1.00  0.00    -0.206 OA
HETATM   27  O3  UNL     1      14.631 -14.182  19.896  1.00  0.00    -0.206 OA
BRANCH  25  28
HETATM   28  C12 UNL     1      13.451 -11.747  19.842  1.00  0.00     0.201 C 
BRANCH  28  29
HETATM   29  C13 UNL     1      12.853 -11.703  21.180  1.00  0.00    -0.043 A 
HETATM   30  C14 UNL     1      12.208 -12.758  21.787  1.00  0.00     0.008 A 
HETATM   31  C15 UNL     1      11.700 -12.601  23.057  1.00  0.00     0.001 A 
HETATM   32  C16 UNL     1      11.810 -11.425  23.749  1.00  0.00     0.000 A 
HETATM   33  C17 UNL     1      12.451 -10.353  23.163  1.00  0.00     0.001 A 
HETATM   34  C18 UNL     1      12.959 -10.516  21.889  1.00  0.00     0.008 A 
ENDBRANCH  28  29
ENDBRANCH  25  28
ENDBRANCH  23  25
ENDBRANCH   7  23
TORSDOF 9
ENDMDL
