MODEL 12
REMARK VINA RESULT: -6.947704150      3.653      8.696
REMARK  3 active torsions:
REMARK  status: ('A' for Active; 'I' for Inactive)
REMARK    1  A    between atoms: C1_2  and  C2_6 
REMARK    2  A    between atoms: C5_9  and  N3_10 
REMARK       I    between atoms: N3_10  and  C6_12 
REMARK       I    between atoms: C6_12  and  N4_14 
REMARK    3  A    between atoms: N4_14  and  C7_16 
ROOT
HETATM    1  N3  UNL     1      -0.787  17.726  22.098  1.00  0.00    -0.309 N 
ATOM      2  H3  UNL     1      -0.031  18.351  21.815  1.00  0.00     0.170 HD
HETATM    3  C6  UNL     1      -1.161  16.737  21.166  1.00  0.00     0.325 C 
HETATM    4  O1  UNL     1      -2.066  15.961  21.461  1.00  0.00    -0.247 OA
HETATM    5  N4  UNL     1      -0.521  16.613  19.895  1.00  0.00    -0.309 N 
ATOM      6  H4  UNL     1       0.223  17.282  19.694  1.00  0.00     0.170 HD
ENDROOT
BRANCH   1   7
HETATM    7  C5  UNL     1      -1.339  17.950  23.380  1.00  0.00     0.036 A 
HETATM    8  C4  UNL     1      -0.601  17.542  24.496  1.00  0.00     0.030 A 
HETATM    9  C3  UNL     1      -1.059  17.720  25.773  1.00  0.00     0.017 A 
HETATM   10  C2  UNL     1      -2.271  18.309  26.026  1.00  0.00     0.005 A 
HETATM   11  C14 UNL     1      -2.988  18.706  24.914  1.00  0.00     0.017 A 
HETATM   12  C13 UNL     1      -2.541  18.534  23.640  1.00  0.00     0.030 A 
BRANCH  10  13
HETATM   13  C1  UNL     1      -2.796  18.517  27.360  1.00  0.00     0.120 C 
HETATM   14  N1  UNL     1      -2.151  19.498  28.186  1.00  0.00    -0.082 NA
HETATM   15  N2  UNL     1      -3.792  17.876  27.832  1.00  0.00    -0.387 N 
ATOM     16  H22 UNL     1      -4.162  18.023  28.771  1.00  0.00     0.157 HD
ATOM     17  H21 UNL     1      -4.250  17.179  27.245  1.00  0.00     0.157 HD
ENDBRANCH  10  13
ENDBRANCH   1   7
BRANCH   5  18
HETATM   18  C7  UNL     1      -0.801  15.680  18.899  1.00  0.00     0.036 A 
HETATM   19  C8  UNL     1      -1.512  16.167  17.776  1.00  0.00     0.031 A 
HETATM   20  C9  UNL     1      -1.829  15.340  16.747  1.00  0.00     0.026 A 
HETATM   21  C10 UNL     1      -1.471  14.006  16.766  1.00  0.00     0.034 A 
HETATM   22 CL1  UNL     1      -1.901  12.969  15.414  1.00  0.00    -0.084 Cl
HETATM   23  C11 UNL     1      -0.784  13.552  17.859  1.00  0.00     0.026 A 
HETATM   24  C12 UNL     1      -0.437  14.358  18.934  1.00  0.00     0.031 A 
ENDBRANCH   5  18
TORSDOF 3
ENDMDL
