MODEL 11
REMARK VINA RESULT: -6.973328740      3.660      8.623
REMARK  3 active torsions:
REMARK  status: ('A' for Active; 'I' for Inactive)
REMARK    1  A    between atoms: C1_2  and  C2_6 
REMARK    2  A    between atoms: C5_9  and  N3_10 
REMARK       I    between atoms: N3_10  and  C6_12 
REMARK       I    between atoms: C6_12  and  N4_14 
REMARK    3  A    between atoms: N4_14  and  C7_16 
ROOT
HETATM    1  N3  UNL     1      -0.778  17.679  22.130  1.00  0.00    -0.309 N 
ATOM      2  H3  UNL     1      -0.062  18.342  21.831  1.00  0.00     0.170 HD
HETATM    3  C6  UNL     1      -1.148  16.695  21.192  1.00  0.00     0.325 C 
HETATM    4  O1  UNL     1      -2.007  15.874  21.505  1.00  0.00    -0.247 OA
HETATM    5  N4  UNL     1      -0.556  16.624  19.894  1.00  0.00    -0.309 N 
ATOM      6  H4  UNL     1       0.151  17.328  19.678  1.00  0.00     0.170 HD
ENDROOT
BRANCH   1   7
HETATM    7  C5  UNL     1      -1.287  17.853  23.437  1.00  0.00     0.036 A 
HETATM    8  C4  UNL     1      -2.540  18.457  23.582  1.00  0.00     0.030 A 
HETATM    9  C3  UNL     1      -3.109  18.664  24.809  1.00  0.00     0.017 A 
HETATM   10  C2  UNL     1      -2.476  18.289  25.965  1.00  0.00     0.005 A 
HETATM   11  C14 UNL     1      -1.240  17.694  25.808  1.00  0.00     0.017 A 
HETATM   12  C13 UNL     1      -0.666  17.483  24.591  1.00  0.00     0.030 A 
BRANCH  10  13
HETATM   13  C1  UNL     1      -3.039  18.489  27.285  1.00  0.00     0.120 C 
HETATM   14  N1  UNL     1      -2.544  19.589  28.063  1.00  0.00    -0.082 NA
HETATM   15  N2  UNL     1      -3.944  17.742  27.786  1.00  0.00    -0.387 N 
ATOM     16  H22 UNL     1      -4.340  17.883  28.715  1.00  0.00     0.157 HD
ATOM     17  H21 UNL     1      -4.295  16.961  27.233  1.00  0.00     0.157 HD
ENDBRANCH  10  13
ENDBRANCH   1   7
BRANCH   5  18
HETATM   18  C7  UNL     1      -0.836  15.700  18.889  1.00  0.00     0.036 A 
HETATM   19  C8  UNL     1      -1.549  16.197  17.772  1.00  0.00     0.031 A 
HETATM   20  C9  UNL     1      -1.867  15.380  16.736  1.00  0.00     0.026 A 
HETATM   21  C10 UNL     1      -1.508  14.046  16.741  1.00  0.00     0.034 A 
HETATM   22 CL1  UNL     1      -1.938  13.022  15.380  1.00  0.00    -0.084 Cl
HETATM   23  C11 UNL     1      -0.818  13.582  17.829  1.00  0.00     0.026 A 
HETATM   24  C12 UNL     1      -0.470  14.378  18.912  1.00  0.00     0.031 A 
ENDBRANCH   5  18
TORSDOF 3
ENDMDL
