MODEL 9
REMARK VINA RESULT: -7.148291536      4.033      4.505
REMARK  3 active torsions:
REMARK  status: ('A' for Active; 'I' for Inactive)
REMARK    1  A    between atoms: C1_2  and  C2_6 
REMARK    2  A    between atoms: C5_9  and  N3_10 
REMARK       I    between atoms: N3_10  and  C6_12 
REMARK       I    between atoms: C6_12  and  N4_14 
REMARK    3  A    between atoms: N4_14  and  C7_16 
ROOT
HETATM    1  N3  UNL     1      -0.737  17.565  19.931  1.00  0.00    -0.309 N 
ATOM      2  H3  UNL     1      -1.483  17.891  20.546  1.00  0.00     0.170 HD
HETATM    3  C6  UNL     1       0.526  18.165  20.109  1.00  0.00     0.325 C 
HETATM    4  O1  UNL     1       1.456  17.804  19.392  1.00  0.00    -0.247 OA
HETATM    5  N4  UNL     1       0.754  19.174  21.094  1.00  0.00    -0.309 N 
ATOM      6  H4  UNL     1      -0.049  19.442  21.663  1.00  0.00     0.170 HD
ENDROOT
BRANCH   1   7
HETATM    7  C5  UNL     1      -1.087  16.562  18.998  1.00  0.00     0.036 A 
HETATM    8  C4  UNL     1      -1.343  16.950  17.679  1.00  0.00     0.030 A 
HETATM    9  C3  UNL     1      -1.687  16.047  16.711  1.00  0.00     0.017 A 
HETATM   10  C2  UNL     1      -1.800  14.708  16.986  1.00  0.00     0.005 A 
HETATM   11  C14 UNL     1      -1.545  14.340  18.292  1.00  0.00     0.017 A 
HETATM   12  C13 UNL     1      -1.201  15.231  19.262  1.00  0.00     0.030 A 
BRANCH  10  13
HETATM   13  C1  UNL     1      -2.163  13.717  15.994  1.00  0.00     0.120 C 
HETATM   14  N1  UNL     1      -1.402  12.499  15.957  1.00  0.00    -0.082 NA
HETATM   15  N2  UNL     1      -3.115  13.870  15.159  1.00  0.00    -0.387 N 
ATOM     16  H22 UNL     1      -3.370  13.172  14.461  1.00  0.00     0.157 HD
ATOM     17  H21 UNL     1      -3.655  14.735  15.186  1.00  0.00     0.157 HD
ENDBRANCH  10  13
ENDBRANCH   1   7
BRANCH   5  18
HETATM   18  C7  UNL     1       1.951  19.834  21.362  1.00  0.00     0.036 A 
HETATM   19  C8  UNL     1       1.941  20.706  22.477  1.00  0.00     0.031 A 
HETATM   20  C9  UNL     1       3.059  21.392  22.828  1.00  0.00     0.026 A 
HETATM   21  C10 UNL     1       4.232  21.262  22.110  1.00  0.00     0.034 A 
HETATM   22 CL1  UNL     1       5.657  22.167  22.597  1.00  0.00    -0.084 Cl
HETATM   23  C11 UNL     1       4.224  20.414  21.035  1.00  0.00     0.026 A 
HETATM   24  C12 UNL     1       3.108  19.691  20.638  1.00  0.00     0.031 A 
ENDBRANCH   5  18
TORSDOF 3
ENDMDL
