MODEL 16
REMARK VINA RESULT: -6.520297202      5.523      8.749
REMARK  3 active torsions:
REMARK  status: ('A' for Active; 'I' for Inactive)
REMARK    1  A    between atoms: C1_2  and  C2_6 
REMARK    2  A    between atoms: C5_9  and  N3_10 
REMARK       I    between atoms: N3_10  and  C6_12 
REMARK       I    between atoms: C6_12  and  N4_14 
REMARK    3  A    between atoms: N4_14  and  C7_16 
ROOT
HETATM    1  N3  UNL     1       0.942  18.631  20.806  1.00  0.00    -0.309 N 
ATOM      2  H3  UNL     1       0.554  18.384  21.716  1.00  0.00     0.170 HD
HETATM    3  C6  UNL     1       0.593  17.792  19.728  1.00  0.00     0.325 C 
HETATM    4  O1  UNL     1       1.037  18.050  18.612  1.00  0.00    -0.247 OA
HETATM    5  N4  UNL     1      -0.258  16.657  19.897  1.00  0.00    -0.309 N 
ATOM      6  H4  UNL     1      -0.600  16.482  20.842  1.00  0.00     0.170 HD
ENDROOT
BRANCH   1   7
HETATM    7  C5  UNL     1       1.770  19.776  20.768  1.00  0.00     0.036 A 
HETATM    8  C4  UNL     1       3.156  19.587  20.759  1.00  0.00     0.030 A 
HETATM    9  C3  UNL     1       4.032  20.638  20.722  1.00  0.00     0.017 A 
HETATM   10  C2  UNL     1       3.594  21.937  20.694  1.00  0.00     0.005 A 
HETATM   11  C14 UNL     1       2.223  22.108  20.703  1.00  0.00     0.017 A 
HETATM   12  C13 UNL     1       1.344  21.069  20.739  1.00  0.00     0.030 A 
BRANCH  10  13
HETATM   13  C1  UNL     1       4.483  23.080  20.656  1.00  0.00     0.120 C 
HETATM   14  N1  UNL     1       3.895  24.378  20.477  1.00  0.00    -0.082 NA
HETATM   15  N2  UNL     1       5.750  22.991  20.771  1.00  0.00    -0.387 N 
ATOM     16  H22 UNL     1       6.375  23.796  20.744  1.00  0.00     0.157 HD
ATOM     17  H21 UNL     1       6.167  22.069  20.898  1.00  0.00     0.157 HD
ENDBRANCH  10  13
ENDBRANCH   1   7
BRANCH   5  18
HETATM   18  C7  UNL     1      -0.673  15.762  18.913  1.00  0.00     0.036 A 
HETATM   19  C8  UNL     1      -1.390  16.322  17.829  1.00  0.00     0.031 A 
HETATM   20  C9  UNL     1      -1.834  15.536  16.814  1.00  0.00     0.026 A 
HETATM   21  C10 UNL     1      -1.601  14.175  16.811  1.00  0.00     0.034 A 
HETATM   22 CL1  UNL     1      -2.192  13.193  15.478  1.00  0.00    -0.084 Cl
HETATM   23  C11 UNL     1      -0.905  13.650  17.867  1.00  0.00     0.026 A 
HETATM   24  C12 UNL     1      -0.432  14.412  18.926  1.00  0.00     0.031 A 
ENDBRANCH   5  18
TORSDOF 3
ENDMDL
