MODEL 4
REMARK VINA RESULT: -7.556768520      4.444      5.025
REMARK  3 active torsions:
REMARK  status: ('A' for Active; 'I' for Inactive)
REMARK    1  A    between atoms: C1_2  and  C2_6 
REMARK    2  A    between atoms: C5_9  and  N3_10 
REMARK       I    between atoms: N3_10  and  C6_12 
REMARK       I    between atoms: C6_12  and  N4_14 
REMARK    3  A    between atoms: N4_14  and  C7_16 
ROOT
HETATM    1  N3  UNL     1      -0.050  16.956  20.008  1.00  0.00    -0.309 N 
ATOM      2  H3  UNL     1      -0.315  16.762  20.974  1.00  0.00     0.170 HD
HETATM    3  C6  UNL     1       0.773  18.081  19.798  1.00  0.00     0.325 C 
HETATM    4  O1  UNL     1       1.117  18.354  18.652  1.00  0.00    -0.247 OA
HETATM    5  N4  UNL     1       1.215  18.907  20.876  1.00  0.00    -0.309 N 
ATOM      6  H4  UNL     1       0.901  18.642  21.810  1.00  0.00     0.170 HD
ENDROOT
BRANCH   1   7
HETATM    7  C5  UNL     1      -0.551  16.065  19.031  1.00  0.00     0.036 A 
HETATM    8  C4  UNL     1      -1.216  16.606  17.925  1.00  0.00     0.030 A 
HETATM    9  C3  UNL     1      -1.732  15.819  16.932  1.00  0.00     0.017 A 
HETATM   10  C2  UNL     1      -1.624  14.453  16.970  1.00  0.00     0.005 A 
HETATM   11  C14 UNL     1      -0.965  13.933  18.067  1.00  0.00     0.017 A 
HETATM   12  C13 UNL     1      -0.448  14.708  19.060  1.00  0.00     0.030 A 
BRANCH  10  13
HETATM   13  C1  UNL     1      -2.155  13.580  15.943  1.00  0.00     0.120 C 
HETATM   14  N1  UNL     1      -1.524  12.303  15.760  1.00  0.00    -0.082 NA
HETATM   15  N2  UNL     1      -3.145  13.887  15.200  1.00  0.00    -0.387 N 
ATOM     16  H22 UNL     1      -3.518  13.273  14.477  1.00  0.00     0.157 HD
ATOM     17  H21 UNL     1      -3.592  14.795  15.331  1.00  0.00     0.157 HD
ENDBRANCH  10  13
ENDBRANCH   1   7
BRANCH   5  18
HETATM   18  C7  UNL     1       2.027  20.036  20.794  1.00  0.00     0.036 A 
HETATM   19  C8  UNL     1       3.422  19.801  20.853  1.00  0.00     0.031 A 
HETATM   20  C9  UNL     1       4.300  20.833  20.775  1.00  0.00     0.026 A 
HETATM   21  C10 UNL     1       3.862  22.136  20.637  1.00  0.00     0.034 A 
HETATM   22 CL1  UNL     1       5.032  23.443  20.540  1.00  0.00    -0.084 Cl
HETATM   23  C11 UNL     1       2.510  22.345  20.581  1.00  0.00     0.026 A 
HETATM   24  C12 UNL     1       1.574  21.323  20.656  1.00  0.00     0.031 A 
ENDBRANCH   5  18
TORSDOF 3
ENDMDL
