MODEL 5
REMARK VINA RESULT: -7.490640228      4.488      5.058
REMARK  3 active torsions:
REMARK  status: ('A' for Active; 'I' for Inactive)
REMARK    1  A    between atoms: C1_2  and  C2_6 
REMARK    2  A    between atoms: C5_9  and  N3_10 
REMARK       I    between atoms: N3_10  and  C6_12 
REMARK       I    between atoms: C6_12  and  N4_14 
REMARK    3  A    between atoms: N4_14  and  C7_16 
ROOT
HETATM    1  N3  UNL     1      -0.064  17.143  19.893  1.00  0.00    -0.309 N 
ATOM      2  H3  UNL     1      -0.381  16.958  20.845  1.00  0.00     0.170 HD
HETATM    3  C6  UNL     1       0.863  18.193  19.736  1.00  0.00     0.325 C 
HETATM    4  O1  UNL     1       1.275  18.453  18.608  1.00  0.00    -0.247 OA
HETATM    5  N4  UNL     1       1.335  18.959  20.846  1.00  0.00    -0.309 N 
ATOM      6  H4  UNL     1       0.963  18.708  21.762  1.00  0.00     0.170 HD
ENDROOT
BRANCH   1   7
HETATM    7  C5  UNL     1      -0.603  16.316  18.881  1.00  0.00     0.036 A 
HETATM    8  C4  UNL     1      -0.502  14.930  19.038  1.00  0.00     0.030 A 
HETATM    9  C3  UNL     1      -0.996  14.056  18.109  1.00  0.00     0.017 A 
HETATM   10  C2  UNL     1      -1.618  14.496  16.969  1.00  0.00     0.005 A 
HETATM   11  C14 UNL     1      -1.711  15.867  16.827  1.00  0.00     0.017 A 
HETATM   12  C13 UNL     1      -1.223  16.745  17.747  1.00  0.00     0.030 A 
BRANCH  10  13
HETATM   13  C1  UNL     1      -2.156  13.608  15.958  1.00  0.00     0.120 C 
HETATM   14  N1  UNL     1      -1.524  12.330  15.787  1.00  0.00    -0.082 NA
HETATM   15  N2  UNL     1      -3.153  13.903  15.220  1.00  0.00    -0.387 N 
ATOM     16  H22 UNL     1      -3.531  13.278  14.509  1.00  0.00     0.157 HD
ATOM     17  H21 UNL     1      -3.601  14.811  15.342  1.00  0.00     0.157 HD
ENDBRANCH  10  13
ENDBRANCH   1   7
BRANCH   5  18
HETATM   18  C7  UNL     1       2.246  20.012  20.815  1.00  0.00     0.036 A 
HETATM   19  C8  UNL     1       1.690  21.312  20.754  1.00  0.00     0.031 A 
HETATM   20  C9  UNL     1       2.492  22.407  20.727  1.00  0.00     0.026 A 
HETATM   21  C10 UNL     1       3.868  22.286  20.755  1.00  0.00     0.034 A 
HETATM   22 CL1  UNL     1       4.871  23.728  20.718  1.00  0.00    -0.084 Cl
HETATM   23  C11 UNL     1       4.389  21.021  20.814  1.00  0.00     0.026 A 
HETATM   24  C12 UNL     1       3.611  19.872  20.844  1.00  0.00     0.031 A 
ENDBRANCH   5  18
TORSDOF 3
ENDMDL
