MODEL 3
REMARK VINA RESULT: -7.564013071      4.421      4.889
REMARK  3 active torsions:
REMARK  status: ('A' for Active; 'I' for Inactive)
REMARK    1  A    between atoms: C1_2  and  C2_6 
REMARK    2  A    between atoms: C5_9  and  N3_10 
REMARK       I    between atoms: N3_10  and  C6_12 
REMARK       I    between atoms: C6_12  and  N4_14 
REMARK    3  A    between atoms: N4_14  and  C7_16 
ROOT
HETATM    1  N3  UNL     1      -0.063  16.989  20.017  1.00  0.00    -0.309 N 
ATOM      2  H3  UNL     1      -0.393  16.842  20.971  1.00  0.00     0.170 HD
HETATM    3  C6  UNL     1       0.836  18.057  19.823  1.00  0.00     0.325 C 
HETATM    4  O1  UNL     1       1.261  18.272  18.691  1.00  0.00    -0.247 OA
HETATM    5  N4  UNL     1       1.266  18.890  20.901  1.00  0.00    -0.309 N 
ATOM      6  H4  UNL     1       0.884  18.674  21.822  1.00  0.00     0.170 HD
ENDROOT
BRANCH   1   7
HETATM    7  C5  UNL     1      -0.560  16.098  19.038  1.00  0.00     0.036 A 
HETATM    8  C4  UNL     1      -1.226  16.638  17.933  1.00  0.00     0.030 A 
HETATM    9  C3  UNL     1      -1.739  15.850  16.938  1.00  0.00     0.017 A 
HETATM   10  C2  UNL     1      -1.627  14.484  16.975  1.00  0.00     0.005 A 
HETATM   11  C14 UNL     1      -0.967  13.965  18.072  1.00  0.00     0.017 A 
HETATM   12  C13 UNL     1      -0.453  14.741  19.067  1.00  0.00     0.030 A 
BRANCH  10  13
HETATM   13  C1  UNL     1      -2.154  13.611  15.947  1.00  0.00     0.120 C 
HETATM   14  N1  UNL     1      -1.525  12.332  15.768  1.00  0.00    -0.082 NA
HETATM   15  N2  UNL     1      -3.140  13.919  15.198  1.00  0.00    -0.387 N 
ATOM     16  H22 UNL     1      -3.511  13.304  14.474  1.00  0.00     0.157 HD
ATOM     17  H21 UNL     1      -3.586  14.828  15.325  1.00  0.00     0.157 HD
ENDBRANCH  10  13
ENDBRANCH   1   7
BRANCH   5  18
HETATM   18  C7  UNL     1       2.148  19.967  20.833  1.00  0.00     0.036 A 
HETATM   19  C8  UNL     1       1.555  21.250  20.759  1.00  0.00     0.031 A 
HETATM   20  C9  UNL     1       2.327  22.365  20.695  1.00  0.00     0.026 A 
HETATM   21  C10 UNL     1       3.706  22.281  20.699  1.00  0.00     0.034 A 
HETATM   22 CL1  UNL     1       4.668  23.749  20.616  1.00  0.00    -0.084 Cl
HETATM   23  C11 UNL     1       4.262  21.032  20.772  1.00  0.00     0.026 A 
HETATM   24  C12 UNL     1       3.516  19.864  20.839  1.00  0.00     0.031 A 
ENDBRANCH   5  18
TORSDOF 3
ENDMDL
