MODEL 7
REMARK VINA RESULT: -7.467917838      4.425      5.095
REMARK  3 active torsions:
REMARK  status: ('A' for Active; 'I' for Inactive)
REMARK    1  A    between atoms: C1_2  and  C2_6 
REMARK    2  A    between atoms: C5_9  and  N3_10 
REMARK       I    between atoms: N3_10  and  C6_12 
REMARK       I    between atoms: C6_12  and  N4_14 
REMARK    3  A    between atoms: N4_14  and  C7_16 
ROOT
HETATM    1  N3  UNL     1      -0.042  17.030  19.941  1.00  0.00    -0.309 N 
ATOM      2  H3  UNL     1      -0.257  16.752  20.899  1.00  0.00     0.170 HD
HETATM    3  C6  UNL     1       0.766  18.175  19.789  1.00  0.00     0.325 C 
HETATM    4  O1  UNL     1       1.051  18.548  18.654  1.00  0.00    -0.247 OA
HETATM    5  N4  UNL     1       1.260  18.908  20.911  1.00  0.00    -0.309 N 
ATOM      6  H4  UNL     1       0.994  18.561  21.832  1.00  0.00     0.170 HD
ENDROOT
BRANCH   1   7
HETATM    7  C5  UNL     1      -0.589  16.223  18.917  1.00  0.00     0.036 A 
HETATM    8  C4  UNL     1      -0.481  14.835  19.043  1.00  0.00     0.030 A 
HETATM    9  C3  UNL     1      -0.982  13.979  18.100  1.00  0.00     0.017 A 
HETATM   10  C2  UNL     1      -1.617  14.441  16.977  1.00  0.00     0.005 A 
HETATM   11  C14 UNL     1      -1.717  15.814  16.866  1.00  0.00     0.017 A 
HETATM   12  C13 UNL     1      -1.222  16.674  17.799  1.00  0.00     0.030 A 
BRANCH  10  13
HETATM   13  C1  UNL     1      -2.162  13.574  15.952  1.00  0.00     0.120 C 
HETATM   14  N1  UNL     1      -1.536  12.297  15.755  1.00  0.00    -0.082 NA
HETATM   15  N2  UNL     1      -3.161  13.885  15.223  1.00  0.00    -0.387 N 
ATOM     16  H22 UNL     1      -3.544  13.274  14.502  1.00  0.00     0.157 HD
ATOM     17  H21 UNL     1      -3.606  14.793  15.364  1.00  0.00     0.157 HD
ENDBRANCH  10  13
ENDBRANCH   1   7
BRANCH   5  18
HETATM   18  C7  UNL     1       2.064  20.046  20.885  1.00  0.00     0.036 A 
HETATM   19  C8  UNL     1       3.460  19.817  20.877  1.00  0.00     0.031 A 
HETATM   20  C9  UNL     1       4.331  20.859  20.846  1.00  0.00     0.026 A 
HETATM   21  C10 UNL     1       3.882  22.165  20.825  1.00  0.00     0.034 A 
HETATM   22 CL1  UNL     1       5.042  23.484  20.785  1.00  0.00    -0.084 Cl
HETATM   23  C11 UNL     1       2.528  22.367  20.833  1.00  0.00     0.026 A 
HETATM   24  C12 UNL     1       1.600  21.337  20.863  1.00  0.00     0.031 A 
ENDBRANCH   5  18
TORSDOF 3
ENDMDL
