MODEL 1
REMARK VINA RESULT: -8.652087907      0.000      0.000
REMARK  5 active torsions:
REMARK  status: ('A' for Active; 'I' for Inactive)
REMARK    1  A    between atoms: C1_2  and  C2_6 
REMARK    2  A    between atoms: C5_9  and  N3_10 
REMARK       I    between atoms: N3_10  and  C6_12 
REMARK       I    between atoms: C6_12  and  N4_14 
REMARK    3  A    between atoms: N4_14  and  C7_16 
REMARK    4  A    between atoms: C10_19  and  O2_20 
REMARK    5  A    between atoms: O2_20  and  C11_21 
ROOT
HETATM    1  N3  UNL     1      -0.435  16.885  19.563  1.00  0.00    -0.309 N 
ATOM      2  H3  UNL     1       0.302  17.550  19.329  1.00  0.00     0.170 HD
HETATM    3  C6  UNL     1      -0.949  16.957  20.873  1.00  0.00     0.325 C 
HETATM    4  O1  UNL     1      -1.848  16.173  21.227  1.00  0.00    -0.247 OA
HETATM    5  N4  UNL     1      -0.481  17.899  21.826  1.00  0.00    -0.309 N 
ATOM      6  H4  UNL     1       0.252  18.538  21.518  1.00  0.00     0.170 HD
ENDROOT
BRANCH   1   7
HETATM    7  C5  UNL     1      -0.828  15.997  18.537  1.00  0.00     0.036 A 
HETATM    8  C4  UNL     1      -0.553  14.659  18.599  1.00  0.00     0.030 A 
HETATM    9  C3  UNL     1      -0.951  13.821  17.545  1.00  0.00     0.017 A 
HETATM   10  C2  UNL     1      -1.611  14.272  16.439  1.00  0.00     0.005 A 
HETATM   11  C20 UNL     1      -1.872  15.653  16.418  1.00  0.00     0.017 A 
HETATM   12  C19 UNL     1      -1.504  16.502  17.420  1.00  0.00     0.030 A 
BRANCH  10  13
HETATM   13  C1  UNL     1      -2.043  13.446  15.324  1.00  0.00     0.120 C 
HETATM   14  N1  UNL     1      -1.386  12.191  15.040  1.00  0.00    -0.082 NA
HETATM   15  N2  UNL     1      -3.002  13.797  14.570  1.00  0.00    -0.387 N 
ATOM     16  H22 UNL     1      -3.305  13.217  13.788  1.00  0.00     0.157 HD
ATOM     17  H21 UNL     1      -3.467  14.682  14.770  1.00  0.00     0.157 HD
ENDBRANCH  10  13
ENDBRANCH   1   7
BRANCH   5  18
HETATM   18  C7  UNL     1      -0.932  18.043  23.160  1.00  0.00     0.036 A 
HETATM   19  C8  UNL     1      -2.013  18.925  23.349  1.00  0.00     0.032 A 
HETATM   20  C9  UNL     1      -2.509  19.136  24.603  1.00  0.00     0.039 A 
HETATM   21  C10 UNL     1      -1.995  18.514  25.722  1.00  0.00     0.076 A 
HETATM   22  C17 UNL     1      -0.940  17.656  25.508  1.00  0.00     0.039 A 
HETATM   23  C18 UNL     1      -0.406  17.415  24.250  1.00  0.00     0.032 A 
BRANCH  21  24
HETATM   24  O2  UNL     1      -2.512  18.739  26.989  1.00  0.00    -0.311 OA
BRANCH  24  25
HETATM   25  C11 UNL     1      -3.752  18.184  27.269  1.00  0.00     0.076 A 
HETATM   26  C12 UNL     1      -4.247  17.163  26.489  1.00  0.00     0.037 A 
HETATM   27  C13 UNL     1      -5.499  16.652  26.828  1.00  0.00     0.003 A 
HETATM   28  C14 UNL     1      -6.201  17.165  27.910  1.00  0.00     0.000 A 
HETATM   29  C15 UNL     1      -5.693  18.185  28.681  1.00  0.00     0.003 A 
HETATM   30  C16 UNL     1      -4.456  18.686  28.344  1.00  0.00     0.037 A 
ENDBRANCH  24  25
ENDBRANCH  21  24
ENDBRANCH   5  18
TORSDOF 5
ENDMDL
