MODEL 3
REMARK VINA RESULT: -8.370551376      2.290      3.279
REMARK  5 active torsions:
REMARK  status: ('A' for Active; 'I' for Inactive)
REMARK    1  A    between atoms: C1_2  and  C2_6 
REMARK    2  A    between atoms: C5_9  and  N3_10 
REMARK       I    between atoms: N3_10  and  C6_12 
REMARK       I    between atoms: C6_12  and  N4_14 
REMARK    3  A    between atoms: N4_14  and  C7_16 
REMARK    4  A    between atoms: C10_19  and  O2_20 
REMARK    5  A    between atoms: O2_20  and  C11_21 
ROOT
HETATM    1  N3  UNL     1      -0.386  17.225  19.240  1.00  0.00    -0.309 N 
ATOM      2  H3  UNL     1       0.267  17.954  18.956  1.00  0.00     0.170 HD
HETATM    3  C6  UNL     1      -0.750  17.207  20.602  1.00  0.00     0.325 C 
HETATM    4  O1  UNL     1      -1.541  16.341  21.017  1.00  0.00    -0.247 OA
HETATM    5  N4  UNL     1      -0.249  18.149  21.537  1.00  0.00    -0.309 N 
ATOM      6  H4  UNL     1       0.394  18.855  21.179  1.00  0.00     0.170 HD
ENDROOT
BRANCH   1   7
HETATM    7  C5  UNL     1      -0.825  16.346  18.225  1.00  0.00     0.036 A 
HETATM    8  C4  UNL     1      -1.468  16.800  17.108  1.00  0.00     0.030 A 
HETATM    9  C3  UNL     1      -1.899  15.883  16.135  1.00  0.00     0.017 A 
HETATM   10  C2  UNL     1      -1.708  14.535  16.242  1.00  0.00     0.005 A 
HETATM   11  C20 UNL     1      -1.043  14.114  17.406  1.00  0.00     0.017 A 
HETATM   12  C19 UNL     1      -0.609  14.970  18.374  1.00  0.00     0.030 A 
BRANCH  10  13
HETATM   13  C1  UNL     1      -2.135  13.548  15.264  1.00  0.00     0.120 C 
HETATM   14  N1  UNL     1      -1.450  12.281  15.152  1.00  0.00    -0.082 NA
HETATM   15  N2  UNL     1      -3.113  13.765  14.485  1.00  0.00    -0.387 N 
ATOM     16  H22 UNL     1      -3.412  13.072  13.799  1.00  0.00     0.157 HD
ATOM     17  H21 UNL     1      -3.597  14.659  14.564  1.00  0.00     0.157 HD
ENDBRANCH  10  13
ENDBRANCH   1   7
BRANCH   5  18
HETATM   18  C7  UNL     1      -0.554  18.207  22.919  1.00  0.00     0.036 A 
HETATM   19  C8  UNL     1      -0.379  19.463  23.531  1.00  0.00     0.032 A 
HETATM   20  C9  UNL     1      -0.637  19.613  24.863  1.00  0.00     0.039 A 
HETATM   21  C10 UNL     1      -1.072  18.573  25.660  1.00  0.00     0.076 A 
HETATM   22  C17 UNL     1      -1.235  17.358  25.034  1.00  0.00     0.039 A 
HETATM   23  C18 UNL     1      -0.983  17.164  23.684  1.00  0.00     0.032 A 
BRANCH  21  24
HETATM   24  O2  UNL     1      -1.330  18.744  27.012  1.00  0.00    -0.311 OA
BRANCH  24  25
HETATM   25  C11 UNL     1      -0.266  19.143  27.808  1.00  0.00     0.076 A 
HETATM   26  C12 UNL     1       0.968  18.549  27.666  1.00  0.00     0.037 A 
HETATM   27  C13 UNL     1       1.991  18.999  28.499  1.00  0.00     0.003 A 
HETATM   28  C14 UNL     1       1.756  20.005  29.426  1.00  0.00     0.000 A 
HETATM   29  C15 UNL     1       0.517  20.589  29.558  1.00  0.00     0.003 A 
HETATM   30  C16 UNL     1      -0.491  20.142  28.732  1.00  0.00     0.037 A 
ENDBRANCH  24  25
ENDBRANCH  21  24
ENDBRANCH   5  18
TORSDOF 5
ENDMDL
