MODEL 9
REMARK VINA RESULT: -7.363717092      5.775      7.545
REMARK  5 active torsions:
REMARK  status: ('A' for Active; 'I' for Inactive)
REMARK    1  A    between atoms: C1_2  and  C2_6 
REMARK    2  A    between atoms: C5_9  and  N3_10 
REMARK       I    between atoms: N3_10  and  C6_12 
REMARK       I    between atoms: C6_12  and  N4_14 
REMARK    3  A    between atoms: N4_14  and  C7_16 
REMARK    4  A    between atoms: C10_19  and  O2_20 
REMARK    5  A    between atoms: O2_20  and  C11_21 
ROOT
HETATM    1  N3  UNL     1      -0.428  16.755  19.484  1.00  0.00    -0.309 N 
ATOM      2  H3  UNL     1      -0.842  16.594  20.402  1.00  0.00     0.170 HD
HETATM    3  C6  UNL     1       0.490  17.820  19.390  1.00  0.00     0.325 C 
HETATM    4  O1  UNL     1       1.030  18.075  18.299  1.00  0.00    -0.247 OA
HETATM    5  N4  UNL     1       0.837  18.629  20.504  1.00  0.00    -0.309 N 
ATOM      6  H4  UNL     1       0.389  18.403  21.392  1.00  0.00     0.170 HD
ENDROOT
BRANCH   1   7
HETATM    7  C5  UNL     1      -0.840  15.887  18.449  1.00  0.00     0.036 A 
HETATM    8  C4  UNL     1      -0.630  14.537  18.516  1.00  0.00     0.030 A 
HETATM    9  C3  UNL     1      -1.044  13.719  17.453  1.00  0.00     0.017 A 
HETATM   10  C2  UNL     1      -1.658  14.201  16.332  1.00  0.00     0.005 A 
HETATM   11  C20 UNL     1      -1.853  15.592  16.307  1.00  0.00     0.017 A 
HETATM   12  C19 UNL     1      -1.466  16.423  17.317  1.00  0.00     0.030 A 
BRANCH  10  13
HETATM   13  C1  UNL     1      -2.104  13.395  15.207  1.00  0.00     0.120 C 
HETATM   14  N1  UNL     1      -1.438  12.155  14.881  1.00  0.00    -0.082 NA
HETATM   15  N2  UNL     1      -3.082  13.752  14.482  1.00  0.00    -0.387 N 
ATOM     16  H22 UNL     1      -3.395  13.187  13.693  1.00  0.00     0.157 HD
ATOM     17  H21 UNL     1      -3.553  14.627  14.712  1.00  0.00     0.157 HD
ENDBRANCH  10  13
ENDBRANCH   1   7
BRANCH   5  18
HETATM   18  C7  UNL     1       1.742  19.717  20.505  1.00  0.00     0.036 A 
HETATM   19  C8  UNL     1       3.056  19.420  20.094  1.00  0.00     0.032 A 
HETATM   20  C9  UNL     1       4.002  20.405  20.073  1.00  0.00     0.039 A 
HETATM   21  C10 UNL     1       3.731  21.706  20.442  1.00  0.00     0.076 A 
HETATM   22  C17 UNL     1       2.439  21.968  20.838  1.00  0.00     0.039 A 
HETATM   23  C18 UNL     1       1.449  20.997  20.874  1.00  0.00     0.032 A 
BRANCH  21  24
HETATM   24  O2  UNL     1       4.705  22.694  20.414  1.00  0.00    -0.311 OA
BRANCH  24  25
HETATM   25  C11 UNL     1       5.317  23.005  21.619  1.00  0.00     0.076 A 
HETATM   26  C12 UNL     1       5.260  24.288  22.116  1.00  0.00     0.037 A 
HETATM   27  C13 UNL     1       5.896  24.530  23.332  1.00  0.00     0.003 A 
HETATM   28  C14 UNL     1       6.556  23.507  23.999  1.00  0.00     0.000 A 
HETATM   29  C15 UNL     1       6.605  22.229  23.491  1.00  0.00     0.003 A 
HETATM   30  C16 UNL     1       5.974  21.995  22.290  1.00  0.00     0.037 A 
ENDBRANCH  24  25
ENDBRANCH  21  24
ENDBRANCH   5  18
TORSDOF 5
ENDMDL
