MODEL 2
REMARK VINA RESULT: -8.479747766      0.181      1.336
REMARK  5 active torsions:
REMARK  status: ('A' for Active; 'I' for Inactive)
REMARK    1  A    between atoms: C1_2  and  C2_6 
REMARK    2  A    between atoms: C5_9  and  N3_10 
REMARK       I    between atoms: N3_10  and  C6_12 
REMARK       I    between atoms: C6_12  and  N4_14 
REMARK    3  A    between atoms: N4_14  and  C7_16 
REMARK    4  A    between atoms: C10_19  and  O2_20 
REMARK    5  A    between atoms: O2_20  and  C11_21 
ROOT
HETATM    1  N3  UNL     1      -0.284  16.980  19.547  1.00  0.00    -0.309 N 
ATOM      2  H3  UNL     1       0.518  17.578  19.350  1.00  0.00     0.170 HD
HETATM    3  C6  UNL     1      -0.827  17.067  20.844  1.00  0.00     0.325 C 
HETATM    4  O1  UNL     1      -1.805  16.363  21.152  1.00  0.00    -0.247 OA
HETATM    5  N4  UNL     1      -0.303  17.940  21.833  1.00  0.00    -0.309 N 
ATOM      6  H4  UNL     1       0.495  18.515  21.562  1.00  0.00     0.170 HD
ENDROOT
BRANCH   1   7
HETATM    7  C5  UNL     1      -0.726  16.156  18.487  1.00  0.00     0.036 A 
HETATM    8  C4  UNL     1      -1.381  16.669  17.402  1.00  0.00     0.030 A 
HETATM    9  C3  UNL     1      -1.814  15.805  16.383  1.00  0.00     0.017 A 
HETATM   10  C2  UNL     1      -1.615  14.455  16.412  1.00  0.00     0.005 A 
HETATM   11  C20 UNL     1      -0.938  13.973  17.545  1.00  0.00     0.017 A 
HETATM   12  C19 UNL     1      -0.500  14.776  18.557  1.00  0.00     0.030 A 
BRANCH  10  13
HETATM   13  C1  UNL     1      -2.044  13.521  15.384  1.00  0.00     0.120 C 
HETATM   14  N1  UNL     1      -1.344  12.273  15.186  1.00  0.00    -0.082 NA
HETATM   15  N2  UNL     1      -3.036  13.771  14.633  1.00  0.00    -0.387 N 
ATOM     16  H22 UNL     1      -3.337  13.116  13.912  1.00  0.00     0.157 HD
ATOM     17  H21 UNL     1      -3.531  14.652  14.773  1.00  0.00     0.157 HD
ENDBRANCH  10  13
ENDBRANCH   1   7
BRANCH   5  18
HETATM   18  C7  UNL     1      -0.779  18.093  23.158  1.00  0.00     0.036 A 
HETATM   19  C8  UNL     1      -1.785  19.061  23.338  1.00  0.00     0.032 A 
HETATM   20  C9  UNL     1      -2.296  19.287  24.584  1.00  0.00     0.039 A 
HETATM   21  C10 UNL     1      -1.870  18.599  25.701  1.00  0.00     0.076 A 
HETATM   22  C17 UNL     1      -0.887  17.658  25.494  1.00  0.00     0.039 A 
HETATM   23  C18 UNL     1      -0.340  17.399  24.246  1.00  0.00     0.032 A 
BRANCH  21  24
HETATM   24  O2  UNL     1      -2.402  18.841  26.959  1.00  0.00    -0.311 OA
BRANCH  24  25
HETATM   25  C11 UNL     1      -3.649  18.297  27.228  1.00  0.00     0.076 A 
HETATM   26  C12 UNL     1      -4.391  18.756  28.294  1.00  0.00     0.037 A 
HETATM   27  C13 UNL     1      -5.636  18.165  28.505  1.00  0.00     0.003 A 
HETATM   28  C14 UNL     1      -6.090  17.157  27.666  1.00  0.00     0.000 A 
HETATM   29  C15 UNL     1      -5.338  16.708  26.604  1.00  0.00     0.003 A 
HETATM   30  C16 UNL     1      -4.110  17.296  26.399  1.00  0.00     0.037 A 
ENDBRANCH  24  25
ENDBRANCH  21  24
ENDBRANCH   5  18
TORSDOF 5
ENDMDL
