MODEL 3
REMARK VINA RESULT: -9.361406456      2.035      4.713
REMARK  10 active torsions:
REMARK  status: ('A' for Active; 'I' for Inactive)
REMARK    1  A    between atoms: N4_17  and  C9_18 
REMARK    2  A    between atoms: C9_18  and  C10_19 
REMARK    3  A    between atoms: C10_19  and  O3_20 
REMARK    4  A    between atoms: C10_19  and  C11_22 
REMARK    5  A    between atoms: C11_22  and  O4_23 
REMARK    6  A    between atoms: C11_22  and  C12_25 
REMARK    7  A    between atoms: C12_25  and  O5_26 
REMARK    8  A    between atoms: C12_25  and  C13_28 
REMARK    9  A    between atoms: C13_28  and  O6_29 
REMARK   10  A    between atoms: O6_29  and  P1_30 
ROOT
HETATM    1  C1  UNL     1      -4.667  -5.231   4.632  1.00  0.00     0.049 C 
HETATM    2  C2  UNL     1      -4.815  -4.438   5.876  1.00  0.00    -0.054 A 
HETATM    3  C3  UNL     1      -3.858  -3.518   6.247  1.00  0.00     0.039 A 
HETATM    4  C4  UNL     1      -3.971  -2.764   7.405  1.00  0.00     0.060 A 
HETATM    5  N1  UNL     1      -3.009  -1.877   7.713  1.00  0.00    -0.347 N 
ATOM      6  H1  UNL     1      -2.204  -1.770   7.095  1.00  0.00     0.166 HD
HETATM    7  C5  UNL     1      -3.095  -1.131   8.822  1.00  0.00     0.146 A 
HETATM    8  C6  UNL     1      -2.121  -0.194   9.188  1.00  0.00     0.280 A 
HETATM    9  O1  UNL     1      -1.137  -0.059   8.438  1.00  0.00    -0.265 OA
HETATM   10  N2  UNL     1      -2.274   0.526  10.326  1.00  0.00    -0.273 N 
ATOM     11  H2  UNL     1      -1.567   1.210  10.597  1.00  0.00     0.173 HD
HETATM   12  C7  UNL     1      -3.359   0.340  11.100  1.00  0.00     0.328 A 
HETATM   13  O2  UNL     1      -3.440   1.041  12.142  1.00  0.00    -0.247 OA
HETATM   14  N3  UNL     1      -4.333  -0.563  10.781  1.00  0.00    -0.292 N 
ATOM     15  H3  UNL     1      -5.137  -0.669  11.399  1.00  0.00     0.172 HD
HETATM   16  C8  UNL     1      -4.253  -1.313   9.672  1.00  0.00     0.145 A 
HETATM   17  N4  UNL     1      -5.207  -2.228   9.318  1.00  0.00    -0.327 N 
HETATM   18  C14 UNL     1      -5.105  -2.967   8.202  1.00  0.00     0.063 A 
HETATM   19  C15 UNL     1      -6.069  -3.887   7.837  1.00  0.00     0.039 A 
HETATM   20  C16 UNL     1      -5.926  -4.623   6.676  1.00  0.00    -0.054 A 
HETATM   21  C17 UNL     1      -6.951  -5.616   6.269  1.00  0.00     0.049 C 
ENDROOT
BRANCH  17  22
HETATM   22  C9  UNL     1      -6.344  -2.369  10.202  1.00  0.00     0.165 C 
BRANCH  22  23
HETATM   23  C10 UNL     1      -5.931  -3.299  11.351  1.00  0.00     0.167 C 
BRANCH  23  24
HETATM   24  O3  UNL     1      -6.230  -4.615  11.137  1.00  0.00    -0.391 OA
ATOM     25  H3  UNL     1      -5.723  -5.018  10.441  1.00  0.00     0.210 HD
ENDBRANCH  23  24
BRANCH  23  26
HETATM   26  C11 UNL     1      -6.338  -2.829  12.673  1.00  0.00     0.179 C 
BRANCH  26  27
HETATM   27  O4  UNL     1      -5.416  -1.900  13.165  1.00  0.00    -0.390 OA
ATOM     28  H4  UNL     1      -5.809  -1.036  13.209  1.00  0.00     0.210 HD
ENDBRANCH  26  27
BRANCH  26  29
HETATM   29  C12 UNL     1      -6.763  -3.735  13.742  1.00  0.00     0.173 C 
BRANCH  29  30
HETATM   30  O5  UNL     1      -8.110  -4.110  13.377  1.00  0.00    -0.391 OA
ATOM     31  H5  UNL     1      -8.362  -4.749  14.034  1.00  0.00     0.210 HD
ENDBRANCH  29  30
BRANCH  29  32
HETATM   32  C13 UNL     1      -6.982  -3.101  15.112  1.00  0.00     0.217 C 
BRANCH  32  33
HETATM   33  O6  UNL     1      -7.522  -4.090  15.988  1.00  0.00    -0.280 OA
BRANCH  33  34
HETATM   34  P1  UNL     1      -9.154  -3.787  16.258  1.00  0.00     0.422 P 
HETATM   35  O7  UNL     1      -9.528  -2.522  15.559  1.00  0.00    -0.617 OA
HETATM   36  O8  UNL     1      -9.504  -3.626  17.902  1.00  0.00    -0.617 OA
HETATM   37  O9  UNL     1     -10.128  -5.034  15.641  1.00  0.00    -0.617 OA
ENDBRANCH  33  34
ENDBRANCH  32  33
ENDBRANCH  29  32
ENDBRANCH  26  29
ENDBRANCH  23  26
ENDBRANCH  22  23
ENDBRANCH  17  22
TORSDOF 10
ENDMDL
