MODEL 8
REMARK VINA RESULT: -9.070627404      2.782      5.530
REMARK  10 active torsions:
REMARK  status: ('A' for Active; 'I' for Inactive)
REMARK    1  A    between atoms: N4_17  and  C9_18 
REMARK    2  A    between atoms: C9_18  and  C10_19 
REMARK    3  A    between atoms: C10_19  and  O3_20 
REMARK    4  A    between atoms: C10_19  and  C11_22 
REMARK    5  A    between atoms: C11_22  and  O4_23 
REMARK    6  A    between atoms: C11_22  and  C12_25 
REMARK    7  A    between atoms: C12_25  and  O5_26 
REMARK    8  A    between atoms: C12_25  and  C13_28 
REMARK    9  A    between atoms: C13_28  and  O6_29 
REMARK   10  A    between atoms: O6_29  and  P1_30 
ROOT
HETATM    1  C1  UNL     1      -3.738  -6.867   3.328  1.00  0.00     0.049 C 
HETATM    2  C2  UNL     1      -3.820  -5.798   4.352  1.00  0.00    -0.054 A 
HETATM    3  C3  UNL     1      -2.716  -5.039   4.674  1.00  0.00     0.039 A 
HETATM    4  C4  UNL     1      -2.765  -4.033   5.627  1.00  0.00     0.060 A 
HETATM    5  N1  UNL     1      -1.656  -3.321   5.896  1.00  0.00    -0.347 N 
ATOM      6  H1  UNL     1      -0.790  -3.530   5.399  1.00  0.00     0.166 HD
HETATM    7  C5  UNL     1      -1.676  -2.341   6.807  1.00  0.00     0.146 A 
HETATM    8  C6  UNL     1      -0.551  -1.571   7.123  1.00  0.00     0.280 A 
HETATM    9  O1  UNL     1       0.510  -1.821   6.521  1.00  0.00    -0.265 OA
HETATM   10  N2  UNL     1      -0.645  -0.593   8.058  1.00  0.00    -0.273 N 
ATOM     11  H2  UNL     1       0.174  -0.030   8.292  1.00  0.00     0.173 HD
HETATM   12  C7  UNL     1      -1.816  -0.365   8.678  1.00  0.00     0.328 A 
HETATM   13  O2  UNL     1      -1.835   0.557   9.535  1.00  0.00    -0.247 OA
HETATM   14  N3  UNL     1      -2.939  -1.092   8.401  1.00  0.00    -0.292 N 
ATOM     15  H3  UNL     1      -3.805  -0.883   8.897  1.00  0.00     0.172 HD
HETATM   16  C8  UNL     1      -2.926  -2.076   7.489  1.00  0.00     0.145 A 
HETATM   17  N4  UNL     1      -4.029  -2.826   7.183  1.00  0.00    -0.327 N 
HETATM   18  C14 UNL     1      -3.990  -3.806   6.265  1.00  0.00     0.063 A 
HETATM   19  C15 UNL     1      -5.103  -4.561   5.949  1.00  0.00     0.039 A 
HETATM   20  C16 UNL     1      -5.020  -5.556   4.994  1.00  0.00    -0.054 A 
HETATM   21  C17 UNL     1      -6.205  -6.378   4.641  1.00  0.00     0.049 C 
ENDROOT
BRANCH  17  22
HETATM   22  C9  UNL     1      -5.252  -2.519   7.893  1.00  0.00     0.165 C 
BRANCH  22  23
HETATM   23  C10 UNL     1      -5.277  -3.368   9.171  1.00  0.00     0.167 C 
BRANCH  23  24
HETATM   24  O3  UNL     1      -6.180  -4.393   9.141  1.00  0.00    -0.391 OA
ATOM     25  H3  UNL     1      -6.049  -5.045   9.820  1.00  0.00     0.210 HD
ENDBRANCH  23  24
BRANCH  23  26
HETATM   26  C11 UNL     1      -5.339  -2.587  10.404  1.00  0.00     0.179 C 
BRANCH  26  27
HETATM   27  O4  UNL     1      -4.052  -2.269  10.846  1.00  0.00    -0.390 OA
ATOM     28  H4  UNL     1      -3.904  -1.332  10.790  1.00  0.00     0.210 HD
ENDBRANCH  26  27
BRANCH  26  29
HETATM   29  C12 UNL     1      -6.186  -2.960  11.539  1.00  0.00     0.173 C 
BRANCH  29  30
HETATM   30  O5  UNL     1      -7.528  -2.649  11.101  1.00  0.00    -0.391 OA
ATOM     31  H5  UNL     1      -8.086  -3.177  11.660  1.00  0.00     0.210 HD
ENDBRANCH  29  30
BRANCH  29  32
HETATM   32  C13 UNL     1      -6.060  -2.091  12.786  1.00  0.00     0.217 C 
BRANCH  32  33
HETATM   33  O6  UNL     1      -5.795  -2.937  13.904  1.00  0.00    -0.280 OA
BRANCH  33  34
HETATM   34  P1  UNL     1      -7.210  -3.192  14.777  1.00  0.00     0.422 P 
HETATM   35  O7  UNL     1      -7.794  -1.867  15.139  1.00  0.00    -0.617 OA
HETATM   36  O8  UNL     1      -6.931  -4.071  16.191  1.00  0.00    -0.617 OA
HETATM   37  O9  UNL     1      -8.363  -4.038  13.860  1.00  0.00    -0.617 OA
ENDBRANCH  33  34
ENDBRANCH  32  33
ENDBRANCH  29  32
ENDBRANCH  26  29
ENDBRANCH  23  26
ENDBRANCH  22  23
ENDBRANCH  17  22
TORSDOF 10
ENDMDL
