MODEL 7
REMARK VINA RESULT: -9.081534426      2.829      6.084
REMARK  10 active torsions:
REMARK  status: ('A' for Active; 'I' for Inactive)
REMARK    1  A    between atoms: N4_17  and  C9_18 
REMARK    2  A    between atoms: C9_18  and  C10_19 
REMARK    3  A    between atoms: C10_19  and  O3_20 
REMARK    4  A    between atoms: C10_19  and  C11_22 
REMARK    5  A    between atoms: C11_22  and  O4_23 
REMARK    6  A    between atoms: C11_22  and  C12_25 
REMARK    7  A    between atoms: C12_25  and  O5_26 
REMARK    8  A    between atoms: C12_25  and  C13_28 
REMARK    9  A    between atoms: C13_28  and  O6_29 
REMARK   10  A    between atoms: O6_29  and  P1_30 
ROOT
HETATM    1  C1  UNL     1      -1.636   3.125  10.642  1.00  0.00     0.049 C 
HETATM    2  C2  UNL     1      -2.156   1.772  10.325  1.00  0.00    -0.054 A 
HETATM    3  C3  UNL     1      -2.997   1.116  11.198  1.00  0.00     0.039 A 
HETATM    4  C4  UNL     1      -3.498  -0.149  10.927  1.00  0.00     0.060 A 
HETATM    5  N1  UNL     1      -4.320  -0.739  11.813  1.00  0.00    -0.347 N 
ATOM      6  H1  UNL     1      -4.563  -0.253  12.676  1.00  0.00     0.166 HD
HETATM    7  C5  UNL     1      -4.822  -1.956  11.575  1.00  0.00     0.146 A 
HETATM    8  C6  UNL     1      -5.681  -2.613  12.464  1.00  0.00     0.280 A 
HETATM    9  O1  UNL     1      -5.982  -2.026  13.519  1.00  0.00    -0.265 OA
HETATM   10  N2  UNL     1      -6.152  -3.848  12.157  1.00  0.00    -0.273 N 
ATOM     11  H2  UNL     1      -6.778  -4.330  12.802  1.00  0.00     0.173 HD
HETATM   12  C7  UNL     1      -5.794  -4.436  11.002  1.00  0.00     0.328 A 
HETATM   13  O2  UNL     1      -6.267  -5.581  10.778  1.00  0.00    -0.247 OA
HETATM   14  N3  UNL     1      -4.959  -3.832  10.106  1.00  0.00    -0.292 N 
ATOM     15  H3  UNL     1      -4.716  -4.318   9.243  1.00  0.00     0.172 HD
HETATM   16  C8  UNL     1      -4.452  -2.612  10.338  1.00  0.00     0.145 A 
HETATM   17  N4  UNL     1      -3.613  -1.973   9.466  1.00  0.00    -0.327 N 
HETATM   18  C14 UNL     1      -3.119  -0.751   9.721  1.00  0.00     0.063 A 
HETATM   19  C15 UNL     1      -2.276  -0.100   8.841  1.00  0.00     0.039 A 
HETATM   20  C16 UNL     1      -1.795   1.161   9.140  1.00  0.00    -0.054 A 
HETATM   21  C17 UNL     1      -0.889   1.875   8.207  1.00  0.00     0.049 C 
ENDROOT
BRANCH  17  22
HETATM   22  C9  UNL     1      -3.276  -2.671   8.245  1.00  0.00     0.165 C 
BRANCH  22  23
HETATM   23  C10 UNL     1      -4.152  -2.099   7.121  1.00  0.00     0.167 C 
BRANCH  23  24
HETATM   24  O3  UNL     1      -5.487  -2.082   7.411  1.00  0.00    -0.391 OA
ATOM     25  H3  UNL     1      -5.862  -2.943   7.558  1.00  0.00     0.210 HD
ENDBRANCH  23  24
BRANCH  23  26
HETATM   26  C11 UNL     1      -3.860  -2.648   5.799  1.00  0.00     0.179 C 
BRANCH  26  27
HETATM   27  O4  UNL     1      -4.784  -2.178   4.862  1.00  0.00    -0.390 OA
ATOM     28  H4  UNL     1      -5.496  -2.800   4.759  1.00  0.00     0.210 HD
ENDBRANCH  26  27
BRANCH  26  29
HETATM   29  C12 UNL     1      -3.585  -4.068   5.572  1.00  0.00     0.173 C 
BRANCH  29  30
HETATM   30  O5  UNL     1      -3.885  -4.271   4.174  1.00  0.00    -0.391 OA
ATOM     31  H5  UNL     1      -3.170  -4.810   3.856  1.00  0.00     0.210 HD
ENDBRANCH  29  30
BRANCH  29  32
HETATM   32  C13 UNL     1      -4.541  -5.052   6.238  1.00  0.00     0.217 C 
BRANCH  32  33
HETATM   33  O6  UNL     1      -5.870  -4.752   5.811  1.00  0.00    -0.280 OA
BRANCH  33  34
HETATM   34  P1  UNL     1      -6.974  -5.252   6.978  1.00  0.00     0.422 P 
HETATM   35  O7  UNL     1      -6.340  -6.317   7.810  1.00  0.00    -0.617 OA
HETATM   36  O8  UNL     1      -8.388  -5.865   6.289  1.00  0.00    -0.617 OA
HETATM   37  O9  UNL     1      -7.410  -3.973   8.008  1.00  0.00    -0.617 OA
ENDBRANCH  33  34
ENDBRANCH  32  33
ENDBRANCH  29  32
ENDBRANCH  26  29
ENDBRANCH  23  26
ENDBRANCH  22  23
ENDBRANCH  17  22
TORSDOF 10
ENDMDL
