MODEL 1
REMARK VINA RESULT: -10.518385663      0.000      0.000
REMARK  10 active torsions:
REMARK  status: ('A' for Active; 'I' for Inactive)
REMARK    1  A    between atoms: N4_17  and  C9_18 
REMARK    2  A    between atoms: C9_18  and  C10_19 
REMARK    3  A    between atoms: C10_19  and  O3_20 
REMARK    4  A    between atoms: C10_19  and  C11_22 
REMARK    5  A    between atoms: C11_22  and  O4_23 
REMARK    6  A    between atoms: C11_22  and  C12_25 
REMARK    7  A    between atoms: C12_25  and  O5_26 
REMARK    8  A    between atoms: C12_25  and  C13_28 
REMARK    9  A    between atoms: C13_28  and  O6_29 
REMARK   10  A    between atoms: O6_29  and  P1_30 
ROOT
HETATM    1  C1  UNL     1      -1.314   1.919  10.292  1.00  0.00     0.049 C 
HETATM    2  C2  UNL     1      -2.408   0.928  10.148  1.00  0.00    -0.054 A 
HETATM    3  C3  UNL     1      -2.687   0.352   8.928  1.00  0.00     0.039 A 
HETATM    4  C4  UNL     1      -3.704  -0.576   8.766  1.00  0.00     0.060 A 
HETATM    5  N1  UNL     1      -3.926  -1.109   7.551  1.00  0.00    -0.347 N 
ATOM      6  H1  UNL     1      -3.348  -0.822   6.761  1.00  0.00     0.166 HD
HETATM    7  C5  UNL     1      -4.897  -2.012   7.367  1.00  0.00     0.146 A 
HETATM    8  C6  UNL     1      -5.169  -2.596   6.124  1.00  0.00     0.280 A 
HETATM    9  O1  UNL     1      -4.467  -2.250   5.156  1.00  0.00    -0.265 OA
HETATM   10  N2  UNL     1      -6.170  -3.504   6.012  1.00  0.00    -0.273 N 
ATOM     11  H2  UNL     1      -6.371  -3.932   5.107  1.00  0.00     0.173 HD
HETATM   12  C7  UNL     1      -6.897  -3.841   7.091  1.00  0.00     0.328 A 
HETATM   13  O2  UNL     1      -7.810  -4.690   6.919  1.00  0.00    -0.247 OA
HETATM   14  N3  UNL     1      -6.667  -3.296   8.322  1.00  0.00    -0.292 N 
ATOM     15  H3  UNL     1      -7.245  -3.583   9.112  1.00  0.00     0.172 HD
HETATM   16  C8  UNL     1      -5.695  -2.392   8.514  1.00  0.00     0.145 A 
HETATM   17  N4  UNL     1      -5.433  -1.823   9.731  1.00  0.00    -0.327 N 
HETATM   18  C14 UNL     1      -4.453  -0.919   9.898  1.00  0.00     0.063 A 
HETATM   19  C15 UNL     1      -4.181  -0.347  11.125  1.00  0.00     0.039 A 
HETATM   20  C16 UNL     1      -3.160   0.575  11.253  1.00  0.00    -0.054 A 
HETATM   21  C17 UNL     1      -2.853   1.200  12.564  1.00  0.00     0.049 C 
ENDROOT
BRANCH  17  22
HETATM   22  C9  UNL     1      -6.258  -2.238  10.844  1.00  0.00     0.165 C 
BRANCH  22  23
HETATM   23  C10 UNL     1      -5.482  -3.304  11.630  1.00  0.00     0.167 C 
BRANCH  23  24
HETATM   24  O3  UNL     1      -4.693  -4.105  10.853  1.00  0.00    -0.391 OA
ATOM     25  H3  UNL     1      -5.047  -4.975  10.709  1.00  0.00     0.210 HD
ENDBRANCH  23  24
BRANCH  23  26
HETATM   26  C11 UNL     1      -6.298  -4.055  12.581  1.00  0.00     0.179 C 
BRANCH  26  27
HETATM   27  O4  UNL     1      -7.626  -3.624  12.531  1.00  0.00    -0.390 OA
ATOM     28  H4  UNL     1      -8.161  -4.129  13.132  1.00  0.00     0.210 HD
ENDBRANCH  26  27
BRANCH  26  29
HETATM   29  C12 UNL     1      -5.891  -4.284  13.969  1.00  0.00     0.173 C 
BRANCH  29  30
HETATM   30  O5  UNL     1      -4.796  -5.221  13.871  1.00  0.00    -0.391 OA
ATOM     31  H5  UNL     1      -4.918  -5.803  14.612  1.00  0.00     0.210 HD
ENDBRANCH  29  30
BRANCH  29  32
HETATM   32  C13 UNL     1      -6.878  -5.055  14.840  1.00  0.00     0.217 C 
BRANCH  32  33
HETATM   33  O6  UNL     1      -7.122  -4.301  16.027  1.00  0.00    -0.280 OA
BRANCH  33  34
HETATM   34  P1  UNL     1      -8.415  -3.253  15.785  1.00  0.00     0.422 P 
HETATM   35  O7  UNL     1      -9.021  -2.930  17.110  1.00  0.00    -0.617 OA
HETATM   36  O8  UNL     1      -9.600  -3.930  14.792  1.00  0.00    -0.617 OA
HETATM   37  O9  UNL     1      -7.910  -1.797  15.071  1.00  0.00    -0.617 OA
ENDBRANCH  33  34
ENDBRANCH  32  33
ENDBRANCH  29  32
ENDBRANCH  26  29
ENDBRANCH  23  26
ENDBRANCH  22  23
ENDBRANCH  17  22
TORSDOF 10
ENDMDL
