MODEL 4
REMARK VINA RESULT: -9.247933643      1.112      1.565
REMARK  10 active torsions:
REMARK  status: ('A' for Active; 'I' for Inactive)
REMARK    1  A    between atoms: N4_17  and  C9_18 
REMARK    2  A    between atoms: C9_18  and  C10_19 
REMARK    3  A    between atoms: C10_19  and  O3_20 
REMARK    4  A    between atoms: C10_19  and  C11_22 
REMARK    5  A    between atoms: C11_22  and  O4_23 
REMARK    6  A    between atoms: C11_22  and  C12_25 
REMARK    7  A    between atoms: C12_25  and  O5_26 
REMARK    8  A    between atoms: C12_25  and  C13_28 
REMARK    9  A    between atoms: C13_28  and  O6_29 
REMARK   10  A    between atoms: O6_29  and  P1_30 
ROOT
HETATM    1  C1  UNL     1      -1.663   2.404  10.051  1.00  0.00     0.049 C 
HETATM    2  C2  UNL     1      -2.467   1.162   9.963  1.00  0.00    -0.054 A 
HETATM    3  C3  UNL     1      -2.825   0.634   8.741  1.00  0.00     0.039 A 
HETATM    4  C4  UNL     1      -3.577  -0.526   8.631  1.00  0.00     0.060 A 
HETATM    5  N1  UNL     1      -3.891  -0.997   7.412  1.00  0.00    -0.347 N 
ATOM      6  H1  UNL     1      -3.578  -0.495   6.581  1.00  0.00     0.166 HD
HETATM    7  C5  UNL     1      -4.610  -2.118   7.275  1.00  0.00     0.146 A 
HETATM    8  C6  UNL     1      -4.964  -2.650   6.030  1.00  0.00     0.280 A 
HETATM    9  O1  UNL     1      -4.585  -2.042   5.012  1.00  0.00    -0.265 OA
HETATM   10  N2  UNL     1      -5.695  -3.790   5.968  1.00  0.00    -0.273 N 
ATOM     11  H2  UNL     1      -5.956  -4.181   5.062  1.00  0.00     0.173 HD
HETATM   12  C7  UNL     1      -6.079  -4.406   7.100  1.00  0.00     0.328 A 
HETATM   13  O2  UNL     1      -6.755  -5.460   6.972  1.00  0.00    -0.247 OA
HETATM   14  N3  UNL     1      -5.756  -3.923   8.336  1.00  0.00    -0.292 N 
ATOM     15  H3  UNL     1      -6.069  -4.425   9.166  1.00  0.00     0.172 HD
HETATM   16  C8  UNL     1      -5.035  -2.800   8.480  1.00  0.00     0.145 A 
HETATM   17  N4  UNL     1      -4.692  -2.284   9.700  1.00  0.00    -0.327 N 
HETATM   18  C14 UNL     1      -3.969  -1.158   9.818  1.00  0.00     0.063 A 
HETATM   19  C15 UNL     1      -3.615  -0.637  11.047  1.00  0.00     0.039 A 
HETATM   20  C16 UNL     1      -2.864   0.521  11.122  1.00  0.00    -0.054 A 
HETATM   21  C17 UNL     1      -2.474   1.096  12.434  1.00  0.00     0.049 C 
ENDROOT
BRANCH  17  22
HETATM   22  C9  UNL     1      -5.141  -3.005  10.871  1.00  0.00     0.165 C 
BRANCH  22  23
HETATM   23  C10 UNL     1      -6.594  -2.594  11.146  1.00  0.00     0.167 C 
BRANCH  23  24
HETATM   24  O3  UNL     1      -7.039  -1.567  10.361  1.00  0.00    -0.391 OA
ATOM     25  H3  UNL     1      -7.024  -0.719  10.788  1.00  0.00     0.210 HD
ENDBRANCH  23  24
BRANCH  23  26
HETATM   26  C11 UNL     1      -6.903  -2.407  12.561  1.00  0.00     0.179 C 
BRANCH  26  27
HETATM   27  O4  UNL     1      -6.956  -1.045  12.873  1.00  0.00    -0.390 OA
ATOM     28  H4  UNL     1      -6.471  -0.869  13.671  1.00  0.00     0.210 HD
ENDBRANCH  26  27
BRANCH  26  29
HETATM   29  C12 UNL     1      -6.221  -3.144  13.627  1.00  0.00     0.173 C 
BRANCH  29  30
HETATM   30  O5  UNL     1      -6.733  -4.491  13.514  1.00  0.00    -0.391 OA
ATOM     31  H5  UNL     1      -5.976  -5.044  13.666  1.00  0.00     0.210 HD
ENDBRANCH  29  30
BRANCH  29  32
HETATM   32  C13 UNL     1      -6.619  -2.783  15.054  1.00  0.00     0.217 C 
BRANCH  32  33
HETATM   33  O6  UNL     1      -7.995  -2.403  15.059  1.00  0.00    -0.280 OA
BRANCH  33  34
HETATM   34  P1  UNL     1      -8.890  -3.501  15.965  1.00  0.00     0.422 P 
HETATM   35  O7  UNL     1     -10.122  -3.859  15.202  1.00  0.00    -0.617 OA
HETATM   36  O8  UNL     1      -9.340  -2.867  17.463  1.00  0.00    -0.617 OA
HETATM   37  O9  UNL     1      -8.017  -4.931  16.249  1.00  0.00    -0.617 OA
ENDBRANCH  33  34
ENDBRANCH  32  33
ENDBRANCH  29  32
ENDBRANCH  26  29
ENDBRANCH  23  26
ENDBRANCH  22  23
ENDBRANCH  17  22
TORSDOF 10
ENDMDL
