MODEL 2
REMARK VINA RESULT: -9.516734441      1.169      1.301
REMARK  10 active torsions:
REMARK  status: ('A' for Active; 'I' for Inactive)
REMARK    1  A    between atoms: N4_17  and  C9_18 
REMARK    2  A    between atoms: C9_18  and  C10_19 
REMARK    3  A    between atoms: C10_19  and  O3_20 
REMARK    4  A    between atoms: C10_19  and  C11_22 
REMARK    5  A    between atoms: C11_22  and  O4_23 
REMARK    6  A    between atoms: C11_22  and  C12_25 
REMARK    7  A    between atoms: C12_25  and  O5_26 
REMARK    8  A    between atoms: C12_25  and  C13_28 
REMARK    9  A    between atoms: C13_28  and  O6_29 
REMARK   10  A    between atoms: O6_29  and  P1_30 
ROOT
HETATM    1  C1  UNL     1      -1.671   2.556   9.901  1.00  0.00     0.049 C 
HETATM    2  C2  UNL     1      -2.450   1.295   9.884  1.00  0.00    -0.054 A 
HETATM    3  C3  UNL     1      -2.861   0.732   8.695  1.00  0.00     0.039 A 
HETATM    4  C4  UNL     1      -3.591  -0.446   8.651  1.00  0.00     0.060 A 
HETATM    5  N1  UNL     1      -3.960  -0.951   7.460  1.00  0.00    -0.347 N 
ATOM      6  H1  UNL     1      -3.703  -0.461   6.603  1.00  0.00     0.166 HD
HETATM    7  C5  UNL     1      -4.659  -2.090   7.387  1.00  0.00     0.146 A 
HETATM    8  C6  UNL     1      -5.067  -2.658   6.174  1.00  0.00     0.280 A 
HETATM    9  O1  UNL     1      -4.758  -2.065   5.125  1.00  0.00    -0.265 OA
HETATM   10  N2  UNL     1      -5.774  -3.815   6.176  1.00  0.00    -0.273 N 
ATOM     11  H2  UNL     1      -6.074  -4.231   5.295  1.00  0.00     0.173 HD
HETATM   12  C7  UNL     1      -6.082  -4.414   7.341  1.00  0.00     0.328 A 
HETATM   13  O2  UNL     1      -6.739  -5.485   7.272  1.00  0.00    -0.247 OA
HETATM   14  N3  UNL     1      -5.704  -3.895   8.547  1.00  0.00    -0.292 N 
ATOM     15  H3  UNL     1      -5.960  -4.386   9.404  1.00  0.00     0.172 HD
HETATM   16  C8  UNL     1      -5.003  -2.755   8.627  1.00  0.00     0.145 A 
HETATM   17  N4  UNL     1      -4.606  -2.203   9.815  1.00  0.00    -0.327 N 
HETATM   18  C14 UNL     1      -3.904  -1.060   9.870  1.00  0.00     0.063 A 
HETATM   19  C15 UNL     1      -3.496  -0.503  11.066  1.00  0.00     0.039 A 
HETATM   20  C16 UNL     1      -2.769   0.672  11.076  1.00  0.00    -0.054 A 
HETATM   21  C17 UNL     1      -2.323   1.285  12.352  1.00  0.00     0.049 C 
ENDROOT
BRANCH  17  22
HETATM   22  C9  UNL     1      -4.974  -2.908  11.024  1.00  0.00     0.165 C 
BRANCH  22  23
HETATM   23  C10 UNL     1      -6.461  -2.634  11.291  1.00  0.00     0.167 C 
BRANCH  23  24
HETATM   24  O3  UNL     1      -6.829  -1.332  11.102  1.00  0.00    -0.391 OA
ATOM     25  H3  UNL     1      -7.539  -1.045  11.665  1.00  0.00     0.210 HD
ENDBRANCH  23  24
BRANCH  23  26
HETATM   26  C11 UNL     1      -6.953  -3.191  12.549  1.00  0.00     0.179 C 
BRANCH  26  27
HETATM   27  O4  UNL     1      -7.013  -2.197  13.531  1.00  0.00    -0.390 OA
ATOM     28  H4  UNL     1      -7.849  -2.228  13.982  1.00  0.00     0.210 HD
ENDBRANCH  26  27
BRANCH  26  29
HETATM   29  C12 UNL     1      -6.440  -4.437  13.121  1.00  0.00     0.173 C 
BRANCH  29  30
HETATM   30  O5  UNL     1      -6.902  -5.463  12.214  1.00  0.00    -0.391 OA
ATOM     31  H5  UNL     1      -6.275  -6.169  12.318  1.00  0.00     0.210 HD
ENDBRANCH  29  30
BRANCH  29  32
HETATM   32  C13 UNL     1      -7.071  -4.883  14.436  1.00  0.00     0.217 C 
BRANCH  32  33
HETATM   33  O6  UNL     1      -8.488  -4.908  14.273  1.00  0.00    -0.280 OA
BRANCH  33  34
HETATM   34  P1  UNL     1      -9.228  -4.135  15.571  1.00  0.00     0.422 P 
HETATM   35  O7  UNL     1      -8.488  -4.483  16.820  1.00  0.00    -0.617 OA
HETATM   36  O8  UNL     1     -10.842  -4.597  15.746  1.00  0.00    -0.617 OA
HETATM   37  O9  UNL     1      -9.189  -2.446  15.393  1.00  0.00    -0.617 OA
ENDBRANCH  33  34
ENDBRANCH  32  33
ENDBRANCH  29  32
ENDBRANCH  26  29
ENDBRANCH  23  26
ENDBRANCH  22  23
ENDBRANCH  17  22
TORSDOF 10
ENDMDL
