MODEL 2
REMARK VINA RESULT: -8.335764289      3.238      4.033
REMARK  4 active torsions:
REMARK  status: ('A' for Active; 'I' for Inactive)
REMARK    1  A    between atoms: C1_2  and  C2_4 
REMARK    2  A    between atoms: C7_9  and  N1_10 
REMARK    3  A    between atoms: N1_10  and  C8_12 
REMARK    4  A    between atoms: C12_16  and  C13_17 
ROOT
HETATM    1  N1  UNL     1      22.552  43.564   6.519  1.00  0.00    -0.355 N 
ATOM      2  H1  UNL     1      23.133  44.384   6.693  1.00  0.00     0.166 HD
ENDROOT
BRANCH   1   3
HETATM    3  C7  UNL     1      22.035  42.781   7.586  1.00  0.00     0.049 A 
HETATM    4  C2  UNL     1      21.208  43.320   8.574  1.00  0.00     0.067 A 
HETATM    5  C3  UNL     1      20.636  42.539   9.540  1.00  0.00     0.021 A 
HETATM    6  C4  UNL     1      20.897  41.156   9.515  1.00  0.00     0.001 A 
HETATM    7  C5  UNL     1      21.700  40.595   8.553  1.00  0.00     0.002 A 
HETATM    8  C6  UNL     1      22.278  41.402   7.586  1.00  0.00     0.030 A 
BRANCH   4   9
HETATM    9  C1  UNL     1      20.949  44.756   8.570  1.00  0.00     0.211 C 
HETATM   10  O1  UNL     1      20.328  45.286   7.575  1.00  0.00    -0.644 OA
HETATM   11  O2  UNL     1      21.352  45.605   9.591  1.00  0.00    -0.644 OA
ENDBRANCH   4   9
ENDBRANCH   1   3
BRANCH   1  12
HETATM   12  C8  UNL     1      22.214  43.140   5.162  1.00  0.00     0.033 A 
HETATM   13  C9  UNL     1      22.850  43.569   4.055  1.00  0.00     0.029 A 
HETATM   14  C10 UNL     1      22.324  43.190   2.809  1.00  0.00     0.003 A 
HETATM   15  C11 UNL     1      21.174  42.391   2.759  1.00  0.00     0.016 A 
HETATM   16  C12 UNL     1      20.551  41.968   3.905  1.00  0.00     0.050 A 
HETATM   17  C14 UNL     1      21.057  42.330   5.102  1.00  0.00     0.045 A 
BRANCH  16  18
HETATM   18  C13 UNL     1      19.343  41.129   3.779  1.00  0.00     0.417 C 
HETATM   19  F1  UNL     1      18.404  41.870   3.078  1.00  0.00    -0.166 F 
HETATM   20  F2  UNL     1      18.828  40.796   5.039  1.00  0.00    -0.166 F 
HETATM   21  F3  UNL     1      19.700  40.021   3.075  1.00  0.00    -0.166 F 
ENDBRANCH  16  18
ENDBRANCH   1  12
TORSDOF 4
ENDMDL
