MODEL 1
REMARK VINA RESULT: -8.337469696      0.000      0.000
REMARK  4 active torsions:
REMARK  status: ('A' for Active; 'I' for Inactive)
REMARK    1  A    between atoms: C1_2  and  C2_4 
REMARK    2  A    between atoms: C7_9  and  N1_10 
REMARK    3  A    between atoms: N1_10  and  C8_12 
REMARK    4  A    between atoms: C12_16  and  C13_17 
ROOT
HETATM    1  N1  UNL     1      20.649  41.837   6.497  1.00  0.00    -0.355 N 
ATOM      2  H1  UNL     1      20.063  41.018   6.660  1.00  0.00     0.166 HD
ENDROOT
BRANCH   1   3
HETATM    3  C7  UNL     1      21.148  42.619   7.574  1.00  0.00     0.049 A 
HETATM    4  C2  UNL     1      21.989  42.088   8.555  1.00  0.00     0.067 A 
HETATM    5  C3  UNL     1      22.542  42.871   9.530  1.00  0.00     0.021 A 
HETATM    6  C4  UNL     1      22.247  44.247   9.523  1.00  0.00     0.001 A 
HETATM    7  C5  UNL     1      21.429  44.800   8.569  1.00  0.00     0.002 A 
HETATM    8  C6  UNL     1      20.870  43.991   7.592  1.00  0.00     0.030 A 
BRANCH   4   9
HETATM    9  C1  UNL     1      22.284  40.659   8.531  1.00  0.00     0.211 C 
HETATM   10  O1  UNL     1      22.949  40.164   7.547  1.00  0.00    -0.644 OA
HETATM   11  O2  UNL     1      21.871  39.781   9.523  1.00  0.00    -0.644 OA
ENDBRANCH   4   9
ENDBRANCH   1   3
BRANCH   1  12
HETATM   12  C8  UNL     1      21.015  42.260   5.147  1.00  0.00     0.033 A 
HETATM   13  C9  UNL     1      20.399  41.831   4.028  1.00  0.00     0.029 A 
HETATM   14  C10 UNL     1      20.950  42.210   2.792  1.00  0.00     0.003 A 
HETATM   15  C11 UNL     1      22.102  43.006   2.764  1.00  0.00     0.016 A 
HETATM   16  C12 UNL     1      22.703  43.430   3.922  1.00  0.00     0.050 A 
HETATM   17  C14 UNL     1      22.173  43.068   5.109  1.00  0.00     0.045 A 
BRANCH  16  18
HETATM   18  C13 UNL     1      23.914  44.267   3.820  1.00  0.00     0.417 C 
HETATM   19  F1  UNL     1      24.841  43.553   3.075  1.00  0.00    -0.166 F 
HETATM   20  F2  UNL     1      24.446  44.541   5.087  1.00  0.00    -0.166 F 
HETATM   21  F3  UNL     1      23.556  45.407   3.171  1.00  0.00    -0.166 F 
ENDBRANCH  16  18
ENDBRANCH   1  12
TORSDOF 4
ENDMDL
