MODEL 11
REMARK VINA RESULT: -7.660393245      3.919      6.300
REMARK  4 active torsions:
REMARK  status: ('A' for Active; 'I' for Inactive)
REMARK    1  A    between atoms: C1_2  and  C2_4 
REMARK    2  A    between atoms: C7_9  and  N1_10 
REMARK    3  A    between atoms: N1_10  and  C8_12 
REMARK    4  A    between atoms: C12_16  and  C13_17 
ROOT
HETATM    1  N1  UNL     1      21.513  41.793   5.416  1.00  0.00    -0.355 N 
ATOM      2  H1  UNL     1      22.470  41.605   5.116  1.00  0.00     0.166 HD
ENDROOT
BRANCH   1   3
HETATM    3  C7  UNL     1      20.405  41.536   4.565  1.00  0.00     0.049 A 
HETATM    4  C2  UNL     1      20.412  41.871   3.209  1.00  0.00     0.067 A 
HETATM    5  C3  UNL     1      19.381  41.531   2.377  1.00  0.00     0.021 A 
HETATM    6  C4  UNL     1      18.296  40.819   2.923  1.00  0.00     0.001 A 
HETATM    7  C5  UNL     1      18.263  40.470   4.250  1.00  0.00     0.002 A 
HETATM    8  C6  UNL     1      19.312  40.829   5.081  1.00  0.00     0.030 A 
BRANCH   4   9
HETATM    9  C1  UNL     1      21.555  42.602   2.669  1.00  0.00     0.211 C 
HETATM   10  O1  UNL     1      21.691  42.714   1.395  1.00  0.00    -0.644 OA
HETATM   11  O2  UNL     1      22.531  43.182   3.466  1.00  0.00    -0.644 OA
ENDBRANCH   4   9
ENDBRANCH   1   3
BRANCH   1  12
HETATM   12  C8  UNL     1      21.220  42.339   6.739  1.00  0.00     0.033 A 
HETATM   13  C9  UNL     1      21.062  43.652   6.998  1.00  0.00     0.029 A 
HETATM   14  C10 UNL     1      20.928  44.042   8.341  1.00  0.00     0.003 A 
HETATM   15  C11 UNL     1      20.962  43.071   9.349  1.00  0.00     0.016 A 
HETATM   16  C12 UNL     1      21.120  41.742   9.053  1.00  0.00     0.050 A 
HETATM   17  C14 UNL     1      21.248  41.365   7.763  1.00  0.00     0.045 A 
BRANCH  16  18
HETATM   18  C13 UNL     1      21.148  40.771  10.165  1.00  0.00     0.417 C 
HETATM   19  F1  UNL     1      21.816  39.646   9.707  1.00  0.00    -0.166 F 
HETATM   20  F2  UNL     1      19.851  40.416  10.556  1.00  0.00    -0.166 F 
HETATM   21  F3  UNL     1      21.836  41.354  11.184  1.00  0.00    -0.166 F 
ENDBRANCH  16  18
ENDBRANCH   1  12
TORSDOF 4
ENDMDL
