MODEL 3
REMARK VINA RESULT: -8.265189775      0.175      1.160
REMARK  4 active torsions:
REMARK  status: ('A' for Active; 'I' for Inactive)
REMARK    1  A    between atoms: C1_2  and  C2_4 
REMARK    2  A    between atoms: C7_9  and  N1_10 
REMARK    3  A    between atoms: N1_10  and  C8_12 
REMARK    4  A    between atoms: C12_16  and  C13_17 
ROOT
HETATM    1  N1  UNL     1      20.557  41.730   6.546  1.00  0.00    -0.355 N 
ATOM      2  H1  UNL     1      19.964  40.921   6.729  1.00  0.00     0.166 HD
ENDROOT
BRANCH   1   3
HETATM    3  C7  UNL     1      21.092  42.513   7.604  1.00  0.00     0.049 A 
HETATM    4  C2  UNL     1      21.958  41.981   8.561  1.00  0.00     0.067 A 
HETATM    5  C3  UNL     1      22.545  42.764   9.516  1.00  0.00     0.021 A 
HETATM    6  C4  UNL     1      22.258  44.142   9.512  1.00  0.00     0.001 A 
HETATM    7  C5  UNL     1      21.416  44.696   8.580  1.00  0.00     0.002 A 
HETATM    8  C6  UNL     1      20.823  43.887   7.624  1.00  0.00     0.030 A 
BRANCH   4   9
HETATM    9  C1  UNL     1      22.244  40.550   8.536  1.00  0.00     0.211 C 
HETATM   10  O1  UNL     1      21.898  39.816   9.534  1.00  0.00    -0.644 OA
HETATM   11  O2  UNL     1      22.894  39.924   7.482  1.00  0.00    -0.644 OA
ENDBRANCH   4   9
ENDBRANCH   1   3
BRANCH   1  12
HETATM   12  C8  UNL     1      20.895  42.137   5.183  1.00  0.00     0.033 A 
HETATM   13  C9  UNL     1      20.259  41.693   4.082  1.00  0.00     0.029 A 
HETATM   14  C10 UNL     1      20.785  42.058   2.831  1.00  0.00     0.003 A 
HETATM   15  C11 UNL     1      21.933  42.858   2.772  1.00  0.00     0.016 A 
HETATM   16  C12 UNL     1      22.555  43.297   3.912  1.00  0.00     0.050 A 
HETATM   17  C14 UNL     1      22.050  42.948   5.114  1.00  0.00     0.045 A 
BRANCH  16  18
HETATM   18  C13 UNL     1      23.762  44.136   3.777  1.00  0.00     0.417 C 
HETATM   19  F1  UNL     1      24.188  44.447   5.059  1.00  0.00    -0.166 F 
HETATM   20  F2  UNL     1      23.478  45.318   3.081  1.00  0.00    -0.166 F 
HETATM   21  F3  UNL     1      24.696  43.387   3.131  1.00  0.00    -0.166 F 
ENDBRANCH  16  18
ENDBRANCH   1  12
TORSDOF 4
ENDMDL
