MODEL 13
REMARK VINA RESULT: -7.417304293      3.874      6.251
REMARK  4 active torsions:
REMARK  status: ('A' for Active; 'I' for Inactive)
REMARK    1  A    between atoms: C1_2  and  C2_4 
REMARK    2  A    between atoms: C7_9  and  N1_10 
REMARK    3  A    between atoms: N1_10  and  C8_12 
REMARK    4  A    between atoms: C12_16  and  C13_17 
ROOT
HETATM    1  N1  UNL     1      22.402  42.833   5.749  1.00  0.00    -0.355 N 
ATOM      2  H1  UNL     1      23.407  43.003   5.706  1.00  0.00     0.166 HD
ENDROOT
BRANCH   1   3
HETATM    3  C7  UNL     1      21.661  42.460   4.595  1.00  0.00     0.049 A 
HETATM    4  C2  UNL     1      22.016  42.885   3.313  1.00  0.00     0.067 A 
HETATM    5  C3  UNL     1      21.357  42.442   2.200  1.00  0.00     0.021 A 
HETATM    6  C4  UNL     1      20.300  41.529   2.374  1.00  0.00     0.001 A 
HETATM    7  C5  UNL     1      19.933  41.087   3.621  1.00  0.00     0.002 A 
HETATM    8  C6  UNL     1      20.606  41.552   4.739  1.00  0.00     0.030 A 
BRANCH   4   9
HETATM    9  C1  UNL     1      23.122  43.825   3.162  1.00  0.00     0.211 C 
HETATM   10  O1  UNL     1      24.333  43.399   3.242  1.00  0.00    -0.644 OA
HETATM   11  O2  UNL     1      22.940  45.184   2.946  1.00  0.00    -0.644 OA
ENDBRANCH   4   9
ENDBRANCH   1   3
BRANCH   1  12
HETATM   12  C8  UNL     1      21.658  42.961   7.001  1.00  0.00     0.033 A 
HETATM   13  C9  UNL     1      21.078  44.102   7.422  1.00  0.00     0.029 A 
HETATM   14  C10 UNL     1      20.521  44.115   8.712  1.00  0.00     0.003 A 
HETATM   15  C11 UNL     1      20.586  42.961   9.504  1.00  0.00     0.016 A 
HETATM   16  C12 UNL     1      21.180  41.814   9.044  1.00  0.00     0.050 A 
HETATM   17  C14 UNL     1      21.713  41.800   7.805  1.00  0.00     0.045 A 
BRANCH  16  18
HETATM   18  C13 UNL     1      21.213  40.635   9.932  1.00  0.00     0.417 C 
HETATM   19  F1  UNL     1      21.986  40.975  11.032  1.00  0.00    -0.166 F 
HETATM   20  F2  UNL     1      21.785  39.533   9.283  1.00  0.00    -0.166 F 
HETATM   21  F3  UNL     1      19.930  40.384  10.308  1.00  0.00    -0.166 F 
ENDBRANCH  16  18
ENDBRANCH   1  12
TORSDOF 4
ENDMDL
