MODEL 2
REMARK VINA RESULT: -8.273500254      1.073      1.744
REMARK  12 active torsions:
REMARK  status: ('A' for Active; 'I' for Inactive)
REMARK    1  A    between atoms: C2_2  and  C4_4 
REMARK    2  A    between atoms: C4_4  and  C5_5 
REMARK    3  A    between atoms: C5_5  and  N1_6 
REMARK    4  A    between atoms: C5_5  and  C8_14 
REMARK       I    between atoms: N1_6  and  C6_8 
REMARK    5  A    between atoms: C6_8  and  C7_10 
REMARK       I    between atoms: C8_14  and  N2_16 
REMARK    6  A    between atoms: N2_16  and  N3_18 
REMARK    7  A    between atoms: N3_18  and  C10_20 
REMARK    8  A    between atoms: N3_18  and  C21_34 
REMARK    9  A    between atoms: C10_20  and  C11_21 
REMARK       I    between atoms: C11_21  and  N4_23 
REMARK   10  A    between atoms: N4_23  and  C12_25 
REMARK   11  A    between atoms: C15_28  and  C16_29 
REMARK   12  A    between atoms: C21_34  and  C22_35 
ROOT
HETATM    1  N3  UNL     1      39.284  18.415  37.901  1.00  0.00     0.059 N 
HETATM    2  C9  UNL     1      39.436  18.458  39.355  1.00  0.00     0.315 C 
ENDROOT
BRANCH   1   3
HETATM    3  N2  UNL     1      40.183  19.387  37.429  1.00  0.00    -0.175 N 
HETATM    4  C8  UNL     1      39.991  20.765  37.560  1.00  0.00     0.265 C 
HETATM    5  O2  UNL     1      38.946  21.174  38.125  1.00  0.00    -0.269 OA
ATOM      6  H2  UNL     1      41.030  19.066  36.961  1.00  0.00     0.198 HD
BRANCH   4   7
HETATM    7  C5  UNL     1      41.003  21.771  37.045  1.00  0.00     0.179 C 
BRANCH   7   8
HETATM    8  C4  UNL     1      42.240  20.999  36.697  1.00  0.00     0.038 C 
BRANCH   8   9
HETATM    9  C2  UNL     1      42.707  21.049  35.301  1.00  0.00    -0.020 C 
HETATM   10  C1  UNL     1      41.893  20.322  34.279  1.00  0.00     0.009 C 
HETATM   11  C3  UNL     1      44.146  20.596  35.117  1.00  0.00     0.009 C 
ENDBRANCH   8   9
ENDBRANCH   7   8
BRANCH   7  12
HETATM   12  N1  UNL     1      41.241  22.681  38.155  1.00  0.00    -0.340 N 
HETATM   13  C6  UNL     1      40.900  24.046  38.082  1.00  0.00     0.326 C 
HETATM   14  O1  UNL     1      40.380  24.522  37.056  1.00  0.00    -0.263 OA
ATOM     15  H1  UNL     1      41.667  22.320  39.009  1.00  0.00     0.163 HD
BRANCH  13  16
HETATM   16  C7  UNL     1      41.164  24.913  39.244  1.00  0.00     0.472 C 
HETATM   17  F1  UNL     1      42.201  24.446  40.018  1.00  0.00    -0.162 F 
HETATM   18  F2  UNL     1      40.029  25.179  39.972  1.00  0.00    -0.162 F 
HETATM   19  F3  UNL     1      41.640  26.120  38.702  1.00  0.00    -0.162 F 
ENDBRANCH  13  16
ENDBRANCH   7  12
ENDBRANCH   4   7
ENDBRANCH   1   3
BRANCH   1  20
HETATM   20  C10 UNL     1      37.958  18.521  37.474  1.00  0.00     0.308 C 
BRANCH  20  21
HETATM   21  C11 UNL     1      36.902  17.852  38.310  1.00  0.00     0.272 C 
HETATM   22  O3  UNL     1      36.696  16.617  38.315  1.00  0.00    -0.267 OA
HETATM   23  N4  UNL     1      36.072  18.631  39.157  1.00  0.00    -0.322 N 
ATOM     24  H4  UNL     1      36.233  19.638  39.160  1.00  0.00     0.169 HD
BRANCH  23  25
HETATM   25  C12 UNL     1      35.051  18.150  39.991  1.00  0.00     0.035 A 
HETATM   26  C13 UNL     1      35.235  17.697  41.266  1.00  0.00     0.030 A 
HETATM   27  C14 UNL     1      34.167  17.279  42.051  1.00  0.00     0.010 A 
HETATM   28  C15 UNL     1      32.883  17.300  41.590  1.00  0.00    -0.055 A 
HETATM   29  C19 UNL     1      32.667  17.758  40.288  1.00  0.00     0.010 A 
HETATM   30  C20 UNL     1      33.719  18.167  39.521  1.00  0.00     0.030 A 
BRANCH  28  31
HETATM   31  C16 UNL     1      31.714  16.874  42.423  1.00  0.00     0.010 C 
HETATM   32  C17 UNL     1      31.747  15.349  42.522  1.00  0.00     0.015 C 
HETATM   33  C18 UNL     1      30.392  17.252  41.814  1.00  0.00     0.015 C 
ENDBRANCH  28  31
ENDBRANCH  23  25
ENDBRANCH  20  21
ENDBRANCH   1  20
BRANCH   1  34
HETATM   34  C21 UNL     1      39.774  17.092  37.534  1.00  0.00     0.246 C 
BRANCH  34  35
HETATM   35  C22 UNL     1      41.074  17.053  36.899  1.00  0.00    -0.010 A 
HETATM   36  C23 UNL     1      42.279  17.252  37.512  1.00  0.00     0.013 A 
HETATM   37  C24 UNL     1      43.483  17.203  36.818  1.00  0.00     0.001 A 
HETATM   38  C25 UNL     1      43.495  16.945  35.467  1.00  0.00     0.000 A 
HETATM   39  C26 UNL     1      42.284  16.737  34.820  1.00  0.00     0.001 A 
HETATM   40  C27 UNL     1      41.103  16.792  35.529  1.00  0.00     0.013 A 
ENDBRANCH  34  35
ENDBRANCH   1  34
TORSDOF 12
ENDMDL
