MODEL 1
REMARK VINA RESULT: -8.448141760      0.000      0.000
REMARK  12 active torsions:
REMARK  status: ('A' for Active; 'I' for Inactive)
REMARK    1  A    between atoms: C2_2  and  C4_4 
REMARK    2  A    between atoms: C4_4  and  C5_5 
REMARK    3  A    between atoms: C5_5  and  N1_6 
REMARK    4  A    between atoms: C5_5  and  C8_14 
REMARK       I    between atoms: N1_6  and  C6_8 
REMARK    5  A    between atoms: C6_8  and  C7_10 
REMARK       I    between atoms: C8_14  and  N2_16 
REMARK    6  A    between atoms: N2_16  and  N3_18 
REMARK    7  A    between atoms: N3_18  and  C10_20 
REMARK    8  A    between atoms: N3_18  and  C21_34 
REMARK    9  A    between atoms: C10_20  and  C11_21 
REMARK       I    between atoms: C11_21  and  N4_23 
REMARK   10  A    between atoms: N4_23  and  C12_25 
REMARK   11  A    between atoms: C15_28  and  C16_29 
REMARK   12  A    between atoms: C21_34  and  C22_35 
ROOT
HETATM    1  N3  UNL     1      38.970  18.513  37.852  1.00  0.00     0.059 N 
HETATM    2  C9  UNL     1      39.133  18.486  39.306  1.00  0.00     0.315 C 
ENDROOT
BRANCH   1   3
HETATM    3  N2  UNL     1      39.965  19.402  37.408  1.00  0.00    -0.175 N 
HETATM    4  C8  UNL     1      39.903  20.790  37.560  1.00  0.00     0.265 C 
HETATM    5  O2  UNL     1      38.894  21.288  38.118  1.00  0.00    -0.269 OA
ATOM      6  H2  UNL     1      40.785  19.008  36.946  1.00  0.00     0.198 HD
BRANCH   4   7
HETATM    7  C5  UNL     1      41.014  21.703  37.075  1.00  0.00     0.179 C 
BRANCH   7   8
HETATM    8  C4  UNL     1      42.210  20.834  36.831  1.00  0.00     0.038 C 
BRANCH   8   9
HETATM    9  C2  UNL     1      42.820  20.870  35.490  1.00  0.00    -0.020 C 
HETATM   10  C1  UNL     1      43.372  22.178  35.022  1.00  0.00     0.009 C 
HETATM   11  C3  UNL     1      41.908  20.361  34.386  1.00  0.00     0.009 C 
ENDBRANCH   8   9
ENDBRANCH   7   8
BRANCH   7  12
HETATM   12  N1  UNL     1      41.251  22.634  38.167  1.00  0.00    -0.340 N 
HETATM   13  C6  UNL     1      40.908  23.997  38.066  1.00  0.00     0.326 C 
HETATM   14  O1  UNL     1      40.387  24.452  37.031  1.00  0.00    -0.263 OA
ATOM     15  H1  UNL     1      41.677  22.292  39.028  1.00  0.00     0.163 HD
BRANCH  13  16
HETATM   16  C7  UNL     1      41.170  24.889  39.211  1.00  0.00     0.472 C 
HETATM   17  F1  UNL     1      42.197  24.430  40.003  1.00  0.00    -0.162 F 
HETATM   18  F2  UNL     1      40.032  25.180  39.923  1.00  0.00    -0.162 F 
HETATM   19  F3  UNL     1      41.660  26.079  38.645  1.00  0.00    -0.162 F 
ENDBRANCH  13  16
ENDBRANCH   7  12
ENDBRANCH   4   7
ENDBRANCH   1   3
BRANCH   1  20
HETATM   20  C10 UNL     1      37.661  18.774  37.441  1.00  0.00     0.308 C 
BRANCH  20  21
HETATM   21  C11 UNL     1      36.547  18.107  38.200  1.00  0.00     0.272 C 
HETATM   22  O3  UNL     1      36.212  16.912  38.038  1.00  0.00    -0.267 OA
HETATM   23  N4  UNL     1      35.811  18.841  39.166  1.00  0.00    -0.322 N 
ATOM     24  H4  UNL     1      36.078  19.815  39.305  1.00  0.00     0.169 HD
BRANCH  23  25
HETATM   25  C12 UNL     1      34.752  18.355  39.948  1.00  0.00     0.035 A 
HETATM   26  C13 UNL     1      33.443  18.330  39.558  1.00  0.00     0.030 A 
HETATM   27  C14 UNL     1      32.453  17.789  40.368  1.00  0.00     0.010 A 
HETATM   28  C15 UNL     1      32.735  17.255  41.592  1.00  0.00    -0.055 A 
HETATM   29  C19 UNL     1      34.066  17.269  42.016  1.00  0.00     0.010 A 
HETATM   30  C20 UNL     1      35.036  17.802  41.216  1.00  0.00     0.030 A 
BRANCH  28  31
HETATM   31  C16 UNL     1      31.688  16.649  42.474  1.00  0.00     0.010 C 
HETATM   32  C17 UNL     1      31.673  15.144  42.209  1.00  0.00     0.015 C 
HETATM   33  C18 UNL     1      30.306  17.166  42.183  1.00  0.00     0.015 C 
ENDBRANCH  28  31
ENDBRANCH  23  25
ENDBRANCH  20  21
ENDBRANCH   1  20
BRANCH   1  34
HETATM   34  C21 UNL     1      39.316  17.161  37.433  1.00  0.00     0.246 C 
BRANCH  34  35
HETATM   35  C22 UNL     1      40.377  16.519  38.180  1.00  0.00    -0.010 A 
HETATM   36  C23 UNL     1      41.684  16.916  38.231  1.00  0.00     0.013 A 
HETATM   37  C24 UNL     1      42.641  16.231  38.972  1.00  0.00     0.001 A 
HETATM   38  C25 UNL     1      42.291  15.113  39.692  1.00  0.00     0.000 A 
HETATM   39  C26 UNL     1      40.969  14.690  39.660  1.00  0.00     0.001 A 
HETATM   40  C27 UNL     1      40.038  15.384  38.917  1.00  0.00     0.013 A 
ENDBRANCH  34  35
ENDBRANCH   1  34
TORSDOF 12
ENDMDL
