MODEL 3
REMARK VINA RESULT: -8.049116636      1.363      2.273
REMARK  12 active torsions:
REMARK  status: ('A' for Active; 'I' for Inactive)
REMARK    1  A    between atoms: C2_2  and  C4_4 
REMARK    2  A    between atoms: C4_4  and  C5_5 
REMARK    3  A    between atoms: C5_5  and  N1_6 
REMARK    4  A    between atoms: C5_5  and  C8_14 
REMARK       I    between atoms: N1_6  and  C6_8 
REMARK    5  A    between atoms: C6_8  and  C7_10 
REMARK       I    between atoms: C8_14  and  N2_16 
REMARK    6  A    between atoms: N2_16  and  N3_18 
REMARK    7  A    between atoms: N3_18  and  C10_20 
REMARK    8  A    between atoms: N3_18  and  C21_34 
REMARK    9  A    between atoms: C10_20  and  C11_21 
REMARK       I    between atoms: C11_21  and  N4_23 
REMARK   10  A    between atoms: N4_23  and  C12_25 
REMARK   11  A    between atoms: C15_28  and  C16_29 
REMARK   12  A    between atoms: C21_34  and  C22_35 
ROOT
HETATM    1  N3  UNL     1      40.948  18.107  38.863  1.00  0.00     0.059 N 
HETATM    2  C9  UNL     1      40.339  18.631  40.086  1.00  0.00     0.315 C 
ENDROOT
BRANCH   1   3
HETATM    3  N2  UNL     1      41.419  19.249  38.192  1.00  0.00    -0.175 N 
HETATM    4  C8  UNL     1      40.625  20.351  37.865  1.00  0.00     0.265 C 
HETATM    5  O2  UNL     1      39.408  20.328  38.176  1.00  0.00    -0.269 OA
ATOM      6  H2  UNL     1      42.403  19.274  37.927  1.00  0.00     0.198 HD
BRANCH   4   7
HETATM    7  C5  UNL     1      41.189  21.566  37.153  1.00  0.00     0.179 C 
BRANCH   7   8
HETATM    8  C4  UNL     1      42.481  21.137  36.526  1.00  0.00     0.038 C 
BRANCH   8   9
HETATM    9  C2  UNL     1      42.660  21.389  35.086  1.00  0.00    -0.020 C 
HETATM   10  C1  UNL     1      42.754  20.198  34.187  1.00  0.00     0.009 C 
HETATM   11  C3  UNL     1      43.850  22.277  34.760  1.00  0.00     0.009 C 
ENDBRANCH   8   9
ENDBRANCH   7   8
BRANCH   7  12
HETATM   12  N1  UNL     1      41.409  22.556  38.196  1.00  0.00    -0.340 N 
HETATM   13  C6  UNL     1      40.985  23.892  38.052  1.00  0.00     0.326 C 
HETATM   14  O1  UNL     1      40.404  24.272  37.019  1.00  0.00    -0.263 OA
ATOM     15  H1  UNL     1      41.884  22.276  39.054  1.00  0.00     0.163 HD
BRANCH  13  16
HETATM   16  C7  UNL     1      41.236  24.845  39.148  1.00  0.00     0.472 C 
HETATM   17  F1  UNL     1      42.238  24.420  39.989  1.00  0.00    -0.162 F 
HETATM   18  F2  UNL     1      40.086  25.193  39.816  1.00  0.00    -0.162 F 
HETATM   19  F3  UNL     1      41.755  25.993  38.526  1.00  0.00    -0.162 F 
ENDBRANCH  13  16
ENDBRANCH   7  12
ENDBRANCH   4   7
ENDBRANCH   1   3
BRANCH   1  20
HETATM   20  C10 UNL     1      40.109  17.252  38.143  1.00  0.00     0.308 C 
BRANCH  20  21
HETATM   21  C11 UNL     1      38.731  17.004  38.693  1.00  0.00     0.272 C 
HETATM   22  O3  UNL     1      38.377  15.928  39.225  1.00  0.00    -0.267 OA
HETATM   23  N4  UNL     1      37.748  18.025  38.624  1.00  0.00    -0.322 N 
ATOM     24  H4  UNL     1      38.028  18.906  38.193  1.00  0.00     0.169 HD
BRANCH  23  25
HETATM   25  C12 UNL     1      36.428  17.939  39.093  1.00  0.00     0.035 A 
HETATM   26  C13 UNL     1      36.033  18.235  40.366  1.00  0.00     0.030 A 
HETATM   27  C14 UNL     1      34.698  18.174  40.746  1.00  0.00     0.010 A 
HETATM   28  C15 UNL     1      33.715  17.816  39.870  1.00  0.00    -0.055 A 
HETATM   29  C19 UNL     1      34.093  17.508  38.561  1.00  0.00     0.010 A 
HETATM   30  C20 UNL     1      35.406  17.570  38.192  1.00  0.00     0.030 A 
BRANCH  28  31
HETATM   31  C16 UNL     1      32.268  17.762  40.250  1.00  0.00     0.010 C 
HETATM   32  C17 UNL     1      31.714  16.419  39.775  1.00  0.00     0.015 C 
HETATM   33  C18 UNL     1      31.449  18.839  39.593  1.00  0.00     0.015 C 
ENDBRANCH  28  31
ENDBRANCH  23  25
ENDBRANCH  20  21
ENDBRANCH   1  20
BRANCH   1  34
HETATM   34  C21 UNL     1      42.085  17.330  39.341  1.00  0.00     0.246 C 
BRANCH  34  35
HETATM   35  C22 UNL     1      42.524  16.255  38.477  1.00  0.00    -0.010 A 
HETATM   36  C23 UNL     1      42.197  14.934  38.599  1.00  0.00     0.013 A 
HETATM   37  C24 UNL     1      42.675  13.966  37.722  1.00  0.00     0.001 A 
HETATM   38  C25 UNL     1      43.506  14.319  36.685  1.00  0.00     0.000 A 
HETATM   39  C26 UNL     1      43.852  15.655  36.537  1.00  0.00     0.001 A 
HETATM   40  C27 UNL     1      43.367  16.597  37.419  1.00  0.00     0.013 A 
ENDBRANCH  34  35
ENDBRANCH   1  34
TORSDOF 12
ENDMDL
