MODEL 7
REMARK VINA RESULT: -7.780979902      3.021      5.115
REMARK  12 active torsions:
REMARK  status: ('A' for Active; 'I' for Inactive)
REMARK    1  A    between atoms: C2_2  and  C4_4 
REMARK    2  A    between atoms: C4_4  and  C5_5 
REMARK    3  A    between atoms: C5_5  and  N1_6 
REMARK    4  A    between atoms: C5_5  and  C8_14 
REMARK       I    between atoms: N1_6  and  C6_8 
REMARK    5  A    between atoms: C6_8  and  C7_10 
REMARK       I    between atoms: C8_14  and  N2_16 
REMARK    6  A    between atoms: N2_16  and  N3_18 
REMARK    7  A    between atoms: N3_18  and  C10_20 
REMARK    8  A    between atoms: N3_18  and  C21_34 
REMARK    9  A    between atoms: C10_20  and  C11_21 
REMARK       I    between atoms: C11_21  and  N4_23 
REMARK   10  A    between atoms: N4_23  and  C12_25 
REMARK   11  A    between atoms: C15_28  and  C16_29 
REMARK   12  A    between atoms: C21_34  and  C22_35 
ROOT
HETATM    1  N3  UNL     1      38.132  19.416  34.505  1.00  0.00     0.059 N 
HETATM    2  C9  UNL     1      38.534  18.179  33.836  1.00  0.00     0.315 C 
ENDROOT
BRANCH   1   3
HETATM    3  N2  UNL     1      39.101  19.599  35.508  1.00  0.00    -0.175 N 
HETATM    4  C8  UNL     1      39.151  20.707  36.359  1.00  0.00     0.265 C 
HETATM    5  O2  UNL     1      38.288  21.609  36.221  1.00  0.00    -0.269 OA
ATOM      6  H2  UNL     1      39.812  18.877  35.623  1.00  0.00     0.198 HD
BRANCH   4   7
HETATM    7  C5  UNL     1      40.211  20.847  37.436  1.00  0.00     0.179 C 
BRANCH   7   8
HETATM    8  C4  UNL     1      39.868  19.859  38.509  1.00  0.00     0.038 C 
BRANCH   8   9
HETATM    9  C2  UNL     1      40.909  18.898  38.912  1.00  0.00    -0.020 C 
HETATM   10  C1  UNL     1      42.064  18.706  37.982  1.00  0.00     0.009 C 
HETATM   11  C3  UNL     1      40.376  17.512  39.237  1.00  0.00     0.009 C 
ENDBRANCH   8   9
ENDBRANCH   7   8
BRANCH   7  12
HETATM   12  N1  UNL     1      40.092  22.214  37.917  1.00  0.00    -0.340 N 
HETATM   13  C6  UNL     1      40.986  23.224  37.509  1.00  0.00     0.326 C 
HETATM   14  O1  UNL     1      41.913  22.977  36.717  1.00  0.00    -0.263 OA
ATOM     15  H1  UNL     1      39.343  22.448  38.568  1.00  0.00     0.163 HD
BRANCH  13  16
HETATM   16  C7  UNL     1      40.808  24.592  38.031  1.00  0.00     0.472 C 
HETATM   17  F1  UNL     1      39.792  25.265  37.392  1.00  0.00    -0.162 F 
HETATM   18  F2  UNL     1      41.984  25.301  38.063  1.00  0.00    -0.162 F 
HETATM   19  F3  UNL     1      40.351  24.425  39.349  1.00  0.00    -0.162 F 
ENDBRANCH  13  16
ENDBRANCH   7  12
ENDBRANCH   4   7
ENDBRANCH   1   3
BRANCH   1  20
HETATM   20  C10 UNL     1      36.795  19.424  34.910  1.00  0.00     0.308 C 
BRANCH  20  21
HETATM   21  C11 UNL     1      36.434  18.629  36.135  1.00  0.00     0.272 C 
HETATM   22  O3  UNL     1      36.399  17.378  36.168  1.00  0.00    -0.267 OA
HETATM   23  N4  UNL     1      36.109  19.299  37.342  1.00  0.00    -0.322 N 
ATOM     24  H4  UNL     1      36.136  20.319  37.324  1.00  0.00     0.169 HD
BRANCH  23  25
HETATM   25  C12 UNL     1      35.755  18.695  38.558  1.00  0.00     0.035 A 
HETATM   26  C13 UNL     1      36.633  18.375  39.554  1.00  0.00     0.030 A 
HETATM   27  C14 UNL     1      36.203  17.821  40.753  1.00  0.00     0.010 A 
HETATM   28  C15 UNL     1      34.885  17.568  40.998  1.00  0.00    -0.055 A 
HETATM   29  C19 UNL     1      33.965  17.884  39.995  1.00  0.00     0.010 A 
HETATM   30  C20 UNL     1      34.393  18.429  38.818  1.00  0.00     0.030 A 
BRANCH  28  31
HETATM   31  C16 UNL     1      34.395  16.990  42.289  1.00  0.00     0.010 C 
HETATM   32  C17 UNL     1      35.605  16.428  43.034  1.00  0.00     0.015 C 
HETATM   33  C18 UNL     1      33.428  15.854  42.092  1.00  0.00     0.015 C 
ENDBRANCH  28  31
ENDBRANCH  23  25
ENDBRANCH  20  21
ENDBRANCH   1  20
BRANCH   1  34
HETATM   34  C21 UNL     1      38.303  20.441  33.483  1.00  0.00     0.246 C 
BRANCH  34  35
HETATM   35  C22 UNL     1      37.084  20.985  32.923  1.00  0.00    -0.010 A 
HETATM   36  C23 UNL     1      36.280  21.927  33.499  1.00  0.00     0.013 A 
HETATM   37  C24 UNL     1      35.118  22.387  32.888  1.00  0.00     0.001 A 
HETATM   38  C25 UNL     1      34.740  21.897  31.660  1.00  0.00     0.000 A 
HETATM   39  C26 UNL     1      35.540  20.940  31.052  1.00  0.00     0.001 A 
HETATM   40  C27 UNL     1      36.687  20.498  31.677  1.00  0.00     0.013 A 
ENDBRANCH  34  35
ENDBRANCH   1  34
TORSDOF 12
ENDMDL
