MODEL 2
REMARK VINA RESULT: -7.845103984      0.048      1.042
REMARK  6 active torsions:
REMARK  status: ('A' for Active; 'I' for Inactive)
REMARK    1  A    between atoms: C5_5  and  C6_6 
REMARK    2  A    between atoms: C6_6  and  N1_7 
REMARK    3  A    between atoms: N1_7  and  S1_9 
REMARK    4  A    between atoms: S1_9  and  C7_12 
REMARK    5  A    between atoms: C10_15  and  S2_16 
REMARK    6  A    between atoms: S2_16  and  N2_17 
ROOT
HETATM    1  S1  UNL     1      -4.429   5.049  13.456  1.00  0.00     0.265 S 
HETATM    2  O1  UNL     1      -5.708   5.514  12.821  1.00  0.00    -0.200 OA
HETATM    3  O2  UNL     1      -3.797   6.193  14.183  1.00  0.00    -0.200 OA
ENDROOT
BRANCH   1   4
HETATM    4  N1  UNL     1      -3.338   4.448  12.277  1.00  0.00    -0.311 N 
ATOM      5  H1  UNL     1      -2.327   4.574  12.296  1.00  0.00     0.172 HD
BRANCH   4   6
HETATM    6  C6  UNL     1      -4.059   3.742  11.263  1.00  0.00     0.170 C 
BRANCH   6   7
HETATM    7  C5  UNL     1      -3.802   2.274  11.318  1.00  0.00    -0.040 A 
HETATM    8  C4  UNL     1      -2.525   1.770  11.225  1.00  0.00     0.009 A 
HETATM    9  C3  UNL     1      -2.283   0.401  11.276  1.00  0.00     0.007 A 
HETATM   10  C2  UNL     1      -3.346  -0.446  11.421  1.00  0.00    -0.062 A 
HETATM   11  C1  UNL     1      -3.139  -1.905  11.480  1.00  0.00     0.048 C 
HETATM   12  C12 UNL     1      -4.634   0.038  11.516  1.00  0.00     0.007 A 
HETATM   13  C11 UNL     1      -4.867   1.416  11.464  1.00  0.00     0.009 A 
ENDBRANCH   6   7
ENDBRANCH   4   6
ENDBRANCH   1   4
BRANCH   1  14
HETATM   14  C7  UNL     1      -4.788   3.755  14.590  1.00  0.00     0.121 A 
HETATM   15  C8  UNL     1      -3.897   2.805  15.010  1.00  0.00     0.035 A 
HETATM   16  C9  UNL     1      -4.351   1.881  15.890  1.00  0.00     0.035 A 
HETATM   17  C10 UNL     1      -5.661   1.984  16.276  1.00  0.00     0.121 A 
HETATM   18  S3  UNL     1      -6.214   3.344  15.416  1.00  0.00    -0.063 SA
BRANCH  17  19
HETATM   19  S2  UNL     1      -6.539   0.933  17.405  1.00  0.00     0.263 S 
HETATM   20  O3  UNL     1      -7.969   0.922  16.913  1.00  0.00    -0.200 OA
HETATM   21  O4  UNL     1      -5.940  -0.416  17.314  1.00  0.00    -0.200 OA
BRANCH  19  22
HETATM   22  N2  UNL     1      -6.497   1.621  18.968  1.00  0.00    -0.324 N 
ATOM     23  H22 UNL     1      -7.172   2.300  19.319  1.00  0.00     0.169 HD
ATOM     24  H21 UNL     1      -5.700   1.245  19.482  1.00  0.00     0.169 HD
ENDBRANCH  19  22
ENDBRANCH  17  19
ENDBRANCH   1  14
TORSDOF 6
ENDMDL
