MODEL 5
REMARK VINA RESULT: -7.019918478      4.151      6.054
REMARK  6 active torsions:
REMARK  status: ('A' for Active; 'I' for Inactive)
REMARK    1  A    between atoms: C5_5  and  C6_6 
REMARK    2  A    between atoms: C6_6  and  N1_7 
REMARK    3  A    between atoms: N1_7  and  S1_9 
REMARK    4  A    between atoms: S1_9  and  C7_12 
REMARK    5  A    between atoms: C10_15  and  S2_16 
REMARK    6  A    between atoms: S2_16  and  N2_17 
ROOT
HETATM    1  S1  UNL     1      -4.960   5.754  12.360  1.00  0.00     0.265 S 
HETATM    2  O1  UNL     1      -4.928   5.157  10.982  1.00  0.00    -0.200 OA
HETATM    3  O2  UNL     1      -6.127   6.684  12.465  1.00  0.00    -0.200 OA
ENDROOT
BRANCH   1   4
HETATM    4  N1  UNL     1      -3.513   6.612  12.693  1.00  0.00    -0.311 N 
ATOM      5  H1  UNL     1      -2.933   7.075  11.994  1.00  0.00     0.172 HD
BRANCH   4   6
HETATM    6  C6  UNL     1      -3.241   6.580  14.097  1.00  0.00     0.170 C 
BRANCH   6   7
HETATM    7  C5  UNL     1      -2.278   7.646  14.500  1.00  0.00    -0.040 A 
HETATM    8  C4  UNL     1      -2.492   8.413  15.622  1.00  0.00     0.009 A 
HETATM    9  C3  UNL     1      -1.596   9.407  16.000  1.00  0.00     0.007 A 
HETATM   10  C2  UNL     1      -0.486   9.613  15.230  1.00  0.00    -0.062 A 
HETATM   11  C1  UNL     1       0.493  10.656  15.592  1.00  0.00     0.048 C 
HETATM   12  C12 UNL     1      -0.251   8.856  14.102  1.00  0.00     0.007 A 
HETATM   13  C11 UNL     1      -1.158   7.858  13.730  1.00  0.00     0.009 A 
ENDBRANCH   6   7
ENDBRANCH   4   6
ENDBRANCH   1   4
BRANCH   1  14
HETATM   14  C7  UNL     1      -5.125   4.464  13.541  1.00  0.00     0.121 A 
HETATM   15  C8  UNL     1      -6.042   4.436  14.555  1.00  0.00     0.035 A 
HETATM   16  C9  UNL     1      -6.024   3.357  15.374  1.00  0.00     0.035 A 
HETATM   17  C10 UNL     1      -5.086   2.395  15.110  1.00  0.00     0.121 A 
HETATM   18  S3  UNL     1      -4.270   3.010  13.749  1.00  0.00    -0.063 SA
BRANCH  17  19
HETATM   19  S2  UNL     1      -4.815   0.880  15.994  1.00  0.00     0.263 S 
HETATM   20  O3  UNL     1      -4.919  -0.214  14.955  1.00  0.00    -0.200 OA
HETATM   21  O4  UNL     1      -3.452   0.936  16.565  1.00  0.00    -0.200 OA
BRANCH  19  22
HETATM   22  N2  UNL     1      -6.056   0.668  17.148  1.00  0.00    -0.324 N 
ATOM     23  H22 UNL     1      -5.940   0.802  18.152  1.00  0.00     0.169 HD
ATOM     24  H21 UNL     1      -6.915   0.391  16.674  1.00  0.00     0.169 HD
ENDBRANCH  19  22
ENDBRANCH  17  19
ENDBRANCH   1  14
TORSDOF 6
ENDMDL
