MODEL 6
REMARK VINA RESULT: -7.018278628      4.265      6.275
REMARK  6 active torsions:
REMARK  status: ('A' for Active; 'I' for Inactive)
REMARK    1  A    between atoms: C5_5  and  C6_6 
REMARK    2  A    between atoms: C6_6  and  N1_7 
REMARK    3  A    between atoms: N1_7  and  S1_9 
REMARK    4  A    between atoms: S1_9  and  C7_12 
REMARK    5  A    between atoms: C10_15  and  S2_16 
REMARK    6  A    between atoms: S2_16  and  N2_17 
ROOT
HETATM    1  S1  UNL     1      -5.050   5.817  12.425  1.00  0.00     0.265 S 
HETATM    2  O1  UNL     1      -5.068   5.256  11.032  1.00  0.00    -0.200 OA
HETATM    3  O2  UNL     1      -6.203   6.755  12.591  1.00  0.00    -0.200 OA
ENDROOT
BRANCH   1   4
HETATM    4  N1  UNL     1      -3.584   6.650  12.735  1.00  0.00    -0.311 N 
ATOM      5  H1  UNL     1      -2.927   6.965  12.022  1.00  0.00     0.172 HD
BRANCH   4   6
HETATM    6  C6  UNL     1      -3.420   6.839  14.143  1.00  0.00     0.170 C 
BRANCH   6   7
HETATM    7  C5  UNL     1      -2.560   8.018  14.449  1.00  0.00    -0.040 A 
HETATM    8  C4  UNL     1      -2.080   8.830  13.447  1.00  0.00     0.009 A 
HETATM    9  C3  UNL     1      -1.278   9.930  13.730  1.00  0.00     0.007 A 
HETATM   10  C2  UNL     1      -0.970  10.197  15.034  1.00  0.00    -0.062 A 
HETATM   11  C1  UNL     1      -0.123  11.353  15.383  1.00  0.00     0.048 C 
HETATM   12  C12 UNL     1      -1.440   9.397  16.054  1.00  0.00     0.007 A 
HETATM   13  C11 UNL     1      -2.246   8.292  15.760  1.00  0.00     0.009 A 
ENDBRANCH   6   7
ENDBRANCH   4   6
ENDBRANCH   1   4
BRANCH   1  14
HETATM   14  C7  UNL     1      -5.192   4.497  13.577  1.00  0.00     0.121 A 
HETATM   15  C8  UNL     1      -6.151   4.398  14.548  1.00  0.00     0.035 A 
HETATM   16  C9  UNL     1      -6.106   3.307  15.349  1.00  0.00     0.035 A 
HETATM   17  C10 UNL     1      -5.104   2.404  15.112  1.00  0.00     0.121 A 
HETATM   18  S3  UNL     1      -4.266   3.091  13.799  1.00  0.00    -0.063 SA
BRANCH  17  19
HETATM   19  S2  UNL     1      -4.786   0.892  15.983  1.00  0.00     0.263 S 
HETATM   20  O3  UNL     1      -4.870  -0.198  14.937  1.00  0.00    -0.200 OA
HETATM   21  O4  UNL     1      -3.419   0.979  16.542  1.00  0.00    -0.200 OA
BRANCH  19  22
HETATM   22  N2  UNL     1      -6.010   0.639  17.146  1.00  0.00    -0.324 N 
ATOM     23  H22 UNL     1      -5.889   0.104  18.005  1.00  0.00     0.169 HD
ATOM     24  H21 UNL     1      -6.866   1.104  16.843  1.00  0.00     0.169 HD
ENDBRANCH  19  22
ENDBRANCH  17  19
ENDBRANCH   1  14
TORSDOF 6
ENDMDL
