MODEL 3
REMARK VINA RESULT: -7.672990467      1.126      1.357
REMARK  6 active torsions:
REMARK  status: ('A' for Active; 'I' for Inactive)
REMARK    1  A    between atoms: C5_5  and  C6_6 
REMARK    2  A    between atoms: C6_6  and  N1_7 
REMARK    3  A    between atoms: N1_7  and  S1_9 
REMARK    4  A    between atoms: S1_9  and  C7_12 
REMARK    5  A    between atoms: C10_15  and  S2_16 
REMARK    6  A    between atoms: S2_16  and  N2_17 
ROOT
HETATM    1  S1  UNL     1      -2.961   4.456  13.831  1.00  0.00     0.265 S 
HETATM    2  O1  UNL     1      -3.579   5.666  13.192  1.00  0.00    -0.200 OA
HETATM    3  O2  UNL     1      -1.863   4.892  14.749  1.00  0.00    -0.200 OA
ENDROOT
BRANCH   1   4
HETATM    4  N1  UNL     1      -2.328   3.389  12.647  1.00  0.00    -0.311 N 
ATOM      5  H1  UNL     1      -1.343   3.149  12.542  1.00  0.00     0.172 HD
BRANCH   4   6
HETATM    6  C6  UNL     1      -3.389   2.888  11.828  1.00  0.00     0.170 C 
BRANCH   6   7
HETATM    7  C5  UNL     1      -3.364   1.399  11.737  1.00  0.00    -0.040 A 
HETATM    8  C4  UNL     1      -4.437   0.642  12.146  1.00  0.00     0.009 A 
HETATM    9  C3  UNL     1      -4.416  -0.746  12.063  1.00  0.00     0.007 A 
HETATM   10  C2  UNL     1      -3.299  -1.354  11.563  1.00  0.00    -0.062 A 
HETATM   11  C1  UNL     1      -3.231  -2.824  11.455  1.00  0.00     0.048 C 
HETATM   12  C12 UNL     1      -2.212  -0.615  11.147  1.00  0.00     0.007 A 
HETATM   13  C11 UNL     1      -2.242   0.781  11.235  1.00  0.00     0.009 A 
ENDBRANCH   6   7
ENDBRANCH   4   6
ENDBRANCH   1   4
BRANCH   1  14
HETATM   14  C7  UNL     1      -4.192   3.600  14.748  1.00  0.00     0.121 A 
HETATM   15  C8  UNL     1      -5.517   3.938  14.795  1.00  0.00     0.035 A 
HETATM   16  C9  UNL     1      -6.325   3.162  15.556  1.00  0.00     0.035 A 
HETATM   17  C10 UNL     1      -5.738   2.110  16.209  1.00  0.00     0.121 A 
HETATM   18  S3  UNL     1      -4.103   2.230  15.749  1.00  0.00    -0.063 SA
BRANCH  17  19
HETATM   19  S2  UNL     1      -6.523   0.924  17.270  1.00  0.00     0.263 S 
HETATM   20  O3  UNL     1      -7.985   0.946  16.882  1.00  0.00    -0.200 OA
HETATM   21  O4  UNL     1      -5.923  -0.397  16.982  1.00  0.00    -0.200 OA
BRANCH  19  22
HETATM   22  N2  UNL     1      -6.374   1.430  18.894  1.00  0.00    -0.324 N 
ATOM     23  H22 UNL     1      -6.795   2.276  19.277  1.00  0.00     0.169 HD
ATOM     24  H21 UNL     1      -5.804   0.757  19.407  1.00  0.00     0.169 HD
ENDBRANCH  19  22
ENDBRANCH  17  19
ENDBRANCH   1  14
TORSDOF 6
ENDMDL
