MODEL 14
REMARK VINA RESULT: -6.694279740      3.965      6.017
REMARK  6 active torsions:
REMARK  status: ('A' for Active; 'I' for Inactive)
REMARK    1  A    between atoms: C5_5  and  C6_6 
REMARK    2  A    between atoms: C6_6  and  N1_7 
REMARK    3  A    between atoms: N1_7  and  S1_9 
REMARK    4  A    between atoms: S1_9  and  C7_12 
REMARK    5  A    between atoms: C10_15  and  S2_16 
REMARK    6  A    between atoms: S2_16  and  N2_17 
ROOT
HETATM    1  S1  UNL     1      -3.901   4.260  13.087  1.00  0.00     0.265 S 
HETATM    2  O1  UNL     1      -2.518   3.675  13.096  1.00  0.00    -0.200 OA
HETATM    3  O2  UNL     1      -4.533   4.005  11.755  1.00  0.00    -0.200 OA
ENDROOT
BRANCH   1   4
HETATM    4  N1  UNL     1      -3.858   5.948  13.387  1.00  0.00    -0.311 N 
ATOM      5  H1  UNL     1      -4.373   6.650  12.857  1.00  0.00     0.172 HD
BRANCH   4   6
HETATM    6  C6  UNL     1      -2.992   6.224  14.491  1.00  0.00     0.170 C 
BRANCH   6   7
HETATM    7  C5  UNL     1      -2.518   7.638  14.485  1.00  0.00    -0.040 A 
HETATM    8  C4  UNL     1      -2.075   8.246  15.637  1.00  0.00     0.009 A 
HETATM    9  C3  UNL     1      -1.633   9.565  15.634  1.00  0.00     0.007 A 
HETATM   10  C2  UNL     1      -1.644  10.256  14.456  1.00  0.00    -0.062 A 
HETATM   11  C1  UNL     1      -1.184  11.656  14.403  1.00  0.00     0.048 C 
HETATM   12  C12 UNL     1      -2.083   9.666  13.289  1.00  0.00     0.007 A 
HETATM   13  C11 UNL     1      -2.526   8.339  13.302  1.00  0.00     0.009 A 
ENDBRANCH   6   7
ENDBRANCH   4   6
ENDBRANCH   1   4
BRANCH   1  14
HETATM   14  C7  UNL     1      -4.855   3.496  14.350  1.00  0.00     0.121 A 
HETATM   15  C8  UNL     1      -5.984   4.025  14.913  1.00  0.00     0.035 A 
HETATM   16  C9  UNL     1      -6.593   3.294  15.877  1.00  0.00     0.035 A 
HETATM   17  C10 UNL     1      -6.018   2.092  16.199  1.00  0.00     0.121 A 
HETATM   18  S3  UNL     1      -4.669   2.017  15.164  1.00  0.00    -0.063 SA
BRANCH  17  19
HETATM   19  S2  UNL     1      -6.575   0.920  17.409  1.00  0.00     0.263 S 
HETATM   20  O3  UNL     1      -8.052   0.738  17.140  1.00  0.00    -0.200 OA
HETATM   21  O4  UNL     1      -5.839  -0.342  17.177  1.00  0.00    -0.200 OA
BRANCH  19  22
HETATM   22  N2  UNL     1      -6.373   1.579  18.971  1.00  0.00    -0.324 N 
ATOM     23  H22 UNL     1      -6.438   2.572  19.192  1.00  0.00     0.169 HD
ATOM     24  H21 UNL     1      -6.180   0.827  19.633  1.00  0.00     0.169 HD
ENDBRANCH  19  22
ENDBRANCH  17  19
ENDBRANCH   1  14
TORSDOF 6
ENDMDL
