MODEL 1
REMARK VINA RESULT: -7.845267718      0.000      0.000
REMARK  6 active torsions:
REMARK  status: ('A' for Active; 'I' for Inactive)
REMARK    1  A    between atoms: C5_5  and  C6_6 
REMARK    2  A    between atoms: C6_6  and  N1_7 
REMARK    3  A    between atoms: N1_7  and  S1_9 
REMARK    4  A    between atoms: S1_9  and  C7_12 
REMARK    5  A    between atoms: C10_15  and  S2_16 
REMARK    6  A    between atoms: S2_16  and  N2_17 
ROOT
HETATM    1  S1  UNL     1      -4.387   5.014  13.454  1.00  0.00     0.265 S 
HETATM    2  O1  UNL     1      -5.664   5.500  12.828  1.00  0.00    -0.200 OA
HETATM    3  O2  UNL     1      -3.730   6.149  14.173  1.00  0.00    -0.200 OA
ENDROOT
BRANCH   1   4
HETATM    4  N1  UNL     1      -3.318   4.391  12.267  1.00  0.00    -0.311 N 
ATOM      5  H1  UNL     1      -2.304   4.502  12.275  1.00  0.00     0.172 HD
BRANCH   4   6
HETATM    6  C6  UNL     1      -4.059   3.693  11.262  1.00  0.00     0.170 C 
BRANCH   6   7
HETATM    7  C5  UNL     1      -3.823   2.221  11.321  1.00  0.00    -0.040 A 
HETATM    8  C4  UNL     1      -4.868   1.337  11.469  1.00  0.00     0.009 A 
HETATM    9  C3  UNL     1      -4.650  -0.035  11.524  1.00  0.00     0.007 A 
HETATM   10  C2  UNL     1      -3.368  -0.499  11.428  1.00  0.00    -0.062 A 
HETATM   11  C1  UNL     1      -3.088  -1.946  11.480  1.00  0.00     0.048 C 
HETATM   12  C12 UNL     1      -2.307   0.369  11.279  1.00  0.00     0.007 A 
HETATM   13  C11 UNL     1      -2.535   1.748  11.225  1.00  0.00     0.009 A 
ENDBRANCH   6   7
ENDBRANCH   4   6
ENDBRANCH   1   4
BRANCH   1  14
HETATM   14  C7  UNL     1      -4.760   3.729  14.593  1.00  0.00     0.121 A 
HETATM   15  C8  UNL     1      -3.875   2.781  15.029  1.00  0.00     0.035 A 
HETATM   16  C9  UNL     1      -4.338   1.864  15.912  1.00  0.00     0.035 A 
HETATM   17  C10 UNL     1      -5.652   1.972  16.284  1.00  0.00     0.121 A 
HETATM   18  S3  UNL     1      -6.195   3.326  15.409  1.00  0.00    -0.063 SA
BRANCH  17  19
HETATM   19  S2  UNL     1      -6.542   0.931  17.412  1.00  0.00     0.263 S 
HETATM   20  O3  UNL     1      -7.970   0.926  16.912  1.00  0.00    -0.200 OA
HETATM   21  O4  UNL     1      -5.951  -0.423  17.329  1.00  0.00    -0.200 OA
BRANCH  19  22
HETATM   22  N2  UNL     1      -6.504   1.623  18.972  1.00  0.00    -0.324 N 
ATOM     23  H22 UNL     1      -5.864   2.363  19.261  1.00  0.00     0.169 HD
ATOM     24  H21 UNL     1      -7.216   1.183  19.556  1.00  0.00     0.169 HD
ENDBRANCH  19  22
ENDBRANCH  17  19
ENDBRANCH   1  14
TORSDOF 6
ENDMDL
