MODEL 4
REMARK VINA RESULT: -7.210060223      1.117      1.117
REMARK  4 active torsions:
REMARK  status: ('A' for Active; 'I' for Inactive)
REMARK    1  A    between atoms: O1_2  and  C2_3 
REMARK    2  A    between atoms: C6_7  and  N1_8 
REMARK    3  A    between atoms: C11_13  and  S1_14 
REMARK    4  A    between atoms: S1_14  and  N2_15 
ROOT
HETATM    1  N1  UNL     1      -5.027   6.363  11.708  1.00  0.00    -0.246 N 
HETATM    2  C7  UNL     1      -5.654   6.598  12.928  1.00  0.00     0.111 A 
HETATM    3  C8  UNL     1      -5.760   5.753  13.912  1.00  0.00     0.032 A 
HETATM    4  C9  UNL     1      -5.211   4.367  13.883  1.00  0.00    -0.003 A 
HETATM    5  C10 UNL     1      -5.332   3.494  14.936  1.00  0.00     0.046 A 
HETATM    6  C11 UNL     1      -4.781   2.260  14.774  1.00  0.00     0.122 A 
HETATM    7  S2  UNL     1      -4.114   2.293  13.222  1.00  0.00    -0.062 SA
HETATM    8  C12 UNL     1      -4.548   3.887  12.792  1.00  0.00     0.132 A 
HETATM    9  S3  UNL     1      -4.302   4.862  11.360  1.00  0.00     0.276 S 
HETATM   10  O4  UNL     1      -4.939   4.153  10.202  1.00  0.00    -0.199 OA
HETATM   11  O5  UNL     1      -2.806   4.989  11.166  1.00  0.00    -0.199 OA
ENDROOT
BRANCH   1  12
HETATM   12  C6  UNL     1      -4.963   7.342  10.726  1.00  0.00     0.052 A 
HETATM   13  C5  UNL     1      -3.842   8.180  10.709  1.00  0.00     0.031 A 
HETATM   14  C4  UNL     1      -3.719   9.173   9.760  1.00  0.00     0.005 A 
HETATM   15  C3  UNL     1      -4.706   9.346   8.814  1.00  0.00     0.037 A 
HETATM   16  C2  UNL     1      -5.822   8.541   8.799  1.00  0.00     0.070 A 
HETATM   17  C13 UNL     1      -5.911   7.562   9.760  1.00  0.00     0.067 A 
BRANCH  16  18
HETATM   18  O1  UNL     1      -6.833   8.712   7.836  1.00  0.00    -0.356 OA
HETATM   19  C1  UNL     1      -8.123   9.122   8.180  1.00  0.00     0.210 C 
ENDBRANCH  16  18
ENDBRANCH   1  12
BRANCH   6  20
HETATM   20  S1  UNL     1      -4.753   0.908  15.912  1.00  0.00     0.263 S 
HETATM   21  O2  UNL     1      -4.918  -0.396  15.158  1.00  0.00    -0.200 OA
HETATM   22  O3  UNL     1      -3.415   0.825  16.600  1.00  0.00    -0.200 OA
BRANCH  20  23
HETATM   23  N2  UNL     1      -6.035   1.031  17.035  1.00  0.00    -0.324 N 
ATOM     24  H22 UNL     1      -6.759   0.321  17.148  1.00  0.00     0.169 HD
ATOM     25  H21 UNL     1      -5.973   1.900  17.563  1.00  0.00     0.169 HD
ENDBRANCH  20  23
ENDBRANCH   6  20
TORSDOF 4
ENDMDL
