MODEL 5
REMARK VINA RESULT: -7.181155336      1.999      2.462
REMARK  4 active torsions:
REMARK  status: ('A' for Active; 'I' for Inactive)
REMARK    1  A    between atoms: O1_2  and  C2_3 
REMARK    2  A    between atoms: C6_7  and  N1_8 
REMARK    3  A    between atoms: C11_13  and  S1_14 
REMARK    4  A    between atoms: S1_14  and  N2_15 
ROOT
HETATM    1  N1  UNL     1      -4.558   5.386  10.649  1.00  0.00    -0.246 N 
HETATM    2  C7  UNL     1      -4.354   4.073  10.235  1.00  0.00     0.111 A 
HETATM    3  C8  UNL     1      -4.323   3.023  11.001  1.00  0.00     0.032 A 
HETATM    4  C9  UNL     1      -4.507   3.063  12.480  1.00  0.00    -0.003 A 
HETATM    5  C10 UNL     1      -4.474   1.939  13.268  1.00  0.00     0.046 A 
HETATM    6  C11 UNL     1      -4.661   2.122  14.603  1.00  0.00     0.122 A 
HETATM    7  S2  UNL     1      -4.876   3.789  14.777  1.00  0.00    -0.062 SA
HETATM    8  C12 UNL     1      -4.724   4.238  13.138  1.00  0.00     0.132 A 
HETATM    9  S3  UNL     1      -4.795   5.768  12.292  1.00  0.00     0.276 S 
HETATM   10  O4  UNL     1      -3.725   6.658  12.852  1.00  0.00    -0.199 OA
HETATM   11  O5  UNL     1      -6.172   6.346  12.545  1.00  0.00    -0.199 OA
ENDROOT
BRANCH   1  12
HETATM   12  C6  UNL     1      -4.582   6.437   9.744  1.00  0.00     0.052 A 
HETATM   13  C5  UNL     1      -3.357   6.917   9.264  1.00  0.00     0.031 A 
HETATM   14  C4  UNL     1      -3.313   7.960   8.365  1.00  0.00     0.005 A 
HETATM   15  C3  UNL     1      -4.483   8.542   7.928  1.00  0.00     0.037 A 
HETATM   16  C2  UNL     1      -5.706   8.099   8.377  1.00  0.00     0.070 A 
HETATM   17  C13 UNL     1      -5.712   7.056   9.273  1.00  0.00     0.067 A 
BRANCH  16  18
HETATM   18  O1  UNL     1      -6.904   8.688   7.936  1.00  0.00    -0.356 OA
HETATM   19  C1  UNL     1      -8.131   8.420   8.546  1.00  0.00     0.210 C 
ENDBRANCH  16  18
ENDBRANCH   1  12
BRANCH   6  20
HETATM   20  S1  UNL     1      -4.680   0.910  15.890  1.00  0.00     0.263 S 
HETATM   21  O2  UNL     1      -4.881  -0.467  15.289  1.00  0.00    -0.200 OA
HETATM   22  O3  UNL     1      -3.349   0.867  16.595  1.00  0.00    -0.200 OA
BRANCH  20  23
HETATM   23  N2  UNL     1      -5.965   1.199  16.978  1.00  0.00    -0.324 N 
ATOM     24  H22 UNL     1      -6.917   1.418  16.686  1.00  0.00     0.169 HD
ATOM     25  H21 UNL     1      -5.647   1.123  17.944  1.00  0.00     0.169 HD
ENDBRANCH  20  23
ENDBRANCH   6  20
TORSDOF 4
ENDMDL
