MODEL 1
REMARK VINA RESULT: -7.958693960      0.000      0.000
REMARK  4 active torsions:
REMARK  status: ('A' for Active; 'I' for Inactive)
REMARK    1  A    between atoms: O1_2  and  C2_3 
REMARK    2  A    between atoms: C6_7  and  N1_8 
REMARK    3  A    between atoms: C11_13  and  S1_14 
REMARK    4  A    between atoms: S1_14  and  N2_15 
ROOT
HETATM    1  N1  UNL     1      -5.836   6.629  12.444  1.00  0.00    -0.246 N 
HETATM    2  C7  UNL     1      -6.657   6.518  13.562  1.00  0.00     0.111 A 
HETATM    3  C8  UNL     1      -6.667   5.531  14.410  1.00  0.00     0.032 A 
HETATM    4  C9  UNL     1      -5.779   4.339  14.313  1.00  0.00    -0.003 A 
HETATM    5  C10 UNL     1      -5.806   3.311  15.224  1.00  0.00     0.046 A 
HETATM    6  C11 UNL     1      -4.937   2.285  15.015  1.00  0.00     0.122 A 
HETATM    7  S2  UNL     1      -4.104   2.714  13.609  1.00  0.00    -0.062 SA
HETATM    8  C12 UNL     1      -4.876   4.204  13.300  1.00  0.00     0.132 A 
HETATM    9  S3  UNL     1      -4.706   5.417  12.050  1.00  0.00     0.276 S 
HETATM   10  O4  UNL     1      -4.979   4.762  10.728  1.00  0.00    -0.199 OA
HETATM   11  O5  UNL     1      -3.282   5.926  12.123  1.00  0.00    -0.199 OA
ENDROOT
BRANCH   1  12
HETATM   12  C6  UNL     1      -5.899   7.733  11.605  1.00  0.00     0.052 A 
HETATM   13  C5  UNL     1      -4.878   8.686  11.698  1.00  0.00     0.031 A 
HETATM   14  C4  UNL     1      -4.884   9.806  10.894  1.00  0.00     0.005 A 
HETATM   15  C3  UNL     1      -5.903   9.995   9.986  1.00  0.00     0.037 A 
HETATM   16  C2  UNL     1      -6.924   9.080   9.865  1.00  0.00     0.070 A 
HETATM   17  C13 UNL     1      -6.885   7.975  10.683  1.00  0.00     0.067 A 
BRANCH  16  18
HETATM   18  O1  UNL     1      -7.967   9.266   8.940  1.00  0.00    -0.356 OA
HETATM   19  C1  UNL     1      -8.893   8.261   8.655  1.00  0.00     0.210 C 
ENDBRANCH  16  18
ENDBRANCH   1  12
BRANCH   6  20
HETATM   20  S1  UNL     1      -4.708   0.821  15.979  1.00  0.00     0.263 S 
HETATM   21  O2  UNL     1      -4.814  -0.399  15.086  1.00  0.00    -0.200 OA
HETATM   22  O3  UNL     1      -3.321   0.787  16.567  1.00  0.00    -0.200 OA
BRANCH  20  23
HETATM   23  N2  UNL     1      -5.911   0.693  17.186  1.00  0.00    -0.324 N 
ATOM     24  H22 UNL     1      -6.875   0.418  16.998  1.00  0.00     0.169 HD
ATOM     25  H21 UNL     1      -5.531   0.928  18.103  1.00  0.00     0.169 HD
ENDBRANCH  20  23
ENDBRANCH   6  20
TORSDOF 4
ENDMDL
