MODEL 3
REMARK VINA RESULT: -7.604941639      1.179      1.776
REMARK  7 active torsions:
REMARK  status: ('A' for Active; 'I' for Inactive)
REMARK    1  A    between atoms: O1_2  and  C2_3 
REMARK    2  A    between atoms: C5_6  and  C6_7 
REMARK    3  A    between atoms: C6_7  and  N1_8 
REMARK    4  A    between atoms: N1_8  and  S1_10 
REMARK    5  A    between atoms: S1_10  and  C7_13 
REMARK    6  A    between atoms: C10_16  and  S2_17 
REMARK    7  A    between atoms: S2_17  and  N2_18 
ROOT
HETATM    1  S1  UNL     1      -4.245   4.949  13.515  1.00  0.00     0.265 S 
HETATM    2  O2  UNL     1      -5.485   5.221  12.711  1.00  0.00    -0.200 OA
HETATM    3  O3  UNL     1      -3.870   6.131  14.365  1.00  0.00    -0.200 OA
ENDROOT
BRANCH   1   4
HETATM    4  N1  UNL     1      -2.969   4.633  12.450  1.00  0.00    -0.311 N 
ATOM      5  H1  UNL     1      -1.997   4.805  12.709  1.00  0.00     0.172 HD
BRANCH   4   6
HETATM    6  C6  UNL     1      -3.326   4.112  11.170  1.00  0.00     0.170 C 
BRANCH   6   7
HETATM    7  C5  UNL     1      -3.475   2.643  11.284  1.00  0.00    -0.040 A 
HETATM    8  C4  UNL     1      -4.731   2.097  11.269  1.00  0.00     0.011 A 
HETATM    9  C3  UNL     1      -4.928   0.719  11.374  1.00  0.00     0.037 A 
HETATM   10  C2  UNL     1      -3.841  -0.123  11.495  1.00  0.00     0.068 A 
HETATM   11  C12 UNL     1      -2.573   0.443  11.508  1.00  0.00     0.037 A 
HETATM   12  C11 UNL     1      -2.389   1.819  11.403  1.00  0.00     0.011 A 
BRANCH  10  13
HETATM   13  O1  UNL     1      -4.025  -1.495  11.600  1.00  0.00    -0.356 OA
HETATM   14  C1  UNL     1      -2.933  -2.358  11.471  1.00  0.00     0.210 C 
ENDBRANCH  10  13
ENDBRANCH   6   7
ENDBRANCH   4   6
ENDBRANCH   1   4
BRANCH   1  15
HETATM   15  C7  UNL     1      -4.589   3.630  14.636  1.00  0.00     0.121 A 
HETATM   16  C8  UNL     1      -3.789   2.635  15.116  1.00  0.00     0.035 A 
HETATM   17  C9  UNL     1      -4.318   1.769  15.993  1.00  0.00     0.035 A 
HETATM   18  C10 UNL     1      -5.627   1.950  16.342  1.00  0.00     0.121 A 
HETATM   19  S3  UNL     1      -6.086   3.315  15.444  1.00  0.00    -0.063 SA
BRANCH  18  20
HETATM   20  S2  UNL     1      -6.597   0.984  17.463  1.00  0.00     0.263 S 
HETATM   21  O4  UNL     1      -6.087  -0.402  17.555  1.00  0.00    -0.200 OA
HETATM   22  O5  UNL     1      -8.015   0.939  16.942  1.00  0.00    -0.200 OA
BRANCH  20  23
HETATM   23  N2  UNL     1      -6.610   1.811  18.978  1.00  0.00    -0.324 N 
ATOM     24  H22 UNL     1      -6.170   2.711  19.166  1.00  0.00     0.169 HD
ATOM     25  H21 UNL     1      -7.134   1.234  19.635  1.00  0.00     0.169 HD
ENDBRANCH  20  23
ENDBRANCH  18  20
ENDBRANCH   1  15
TORSDOF 7
ENDMDL
