MODEL 17
REMARK VINA RESULT: -6.508623115      3.958      6.865
REMARK  7 active torsions:
REMARK  status: ('A' for Active; 'I' for Inactive)
REMARK    1  A    between atoms: O1_2  and  C2_3 
REMARK    2  A    between atoms: C5_6  and  C6_7 
REMARK    3  A    between atoms: C6_7  and  N1_8 
REMARK    4  A    between atoms: N1_8  and  S1_10 
REMARK    5  A    between atoms: S1_10  and  C7_13 
REMARK    6  A    between atoms: C10_16  and  S2_17 
REMARK    7  A    between atoms: S2_17  and  N2_18 
ROOT
HETATM    1  S1  UNL     1      -3.787   4.091  12.947  1.00  0.00     0.265 S 
HETATM    2  O2  UNL     1      -2.609   3.164  12.830  1.00  0.00    -0.200 OA
HETATM    3  O3  UNL     1      -4.640   4.054  11.710  1.00  0.00    -0.200 OA
ENDROOT
BRANCH   1   4
HETATM    4  N1  UNL     1      -3.213   5.669  13.152  1.00  0.00    -0.311 N 
ATOM      5  H1  UNL     1      -3.151   6.324  12.372  1.00  0.00     0.172 HD
BRANCH   4   6
HETATM    6  C6  UNL     1      -2.823   6.035  14.476  1.00  0.00     0.170 C 
BRANCH   6   7
HETATM    7  C5  UNL     1      -2.446   7.467  14.478  1.00  0.00    -0.040 A 
HETATM    8  C4  UNL     1      -2.488   8.169  13.302  1.00  0.00     0.011 A 
HETATM    9  C3  UNL     1      -2.141   9.520  13.247  1.00  0.00     0.037 A 
HETATM   10  C2  UNL     1      -1.746  10.175  14.396  1.00  0.00     0.068 A 
HETATM   11  C12 UNL     1      -1.708   9.453  15.581  1.00  0.00     0.037 A 
HETATM   12  C11 UNL     1      -2.056   8.105  15.624  1.00  0.00     0.011 A 
BRANCH  10  13
HETATM   13  O1  UNL     1      -1.400  11.519  14.353  1.00  0.00    -0.356 OA
HETATM   14  C1  UNL     1      -2.326  12.465  13.904  1.00  0.00     0.210 C 
ENDBRANCH  10  13
ENDBRANCH   6   7
ENDBRANCH   4   6
ENDBRANCH   1   4
BRANCH   1  15
HETATM   15  C7  UNL     1      -4.812   3.521  14.265  1.00  0.00     0.121 A 
HETATM   16  C8  UNL     1      -5.900   4.091  14.861  1.00  0.00     0.035 A 
HETATM   17  C9  UNL     1      -6.511   3.408  15.838  1.00  0.00     0.035 A 
HETATM   18  C10 UNL     1      -5.998   2.186  16.168  1.00  0.00     0.121 A 
HETATM   19  S3  UNL     1      -4.680   2.017  15.112  1.00  0.00    -0.063 SA
BRANCH  18  20
HETATM   20  S2  UNL     1      -6.578   1.058  17.402  1.00  0.00     0.263 S 
HETATM   21  O4  UNL     1      -5.819  -0.211  17.367  1.00  0.00    -0.200 OA
HETATM   22  O5  UNL     1      -8.032   0.756  17.120  1.00  0.00    -0.200 OA
BRANCH  20  23
HETATM   23  N2  UNL     1      -6.487   1.868  18.924  1.00  0.00    -0.324 N 
ATOM     24  H22 UNL     1      -6.774   2.831  19.101  1.00  0.00     0.169 HD
ATOM     25  H21 UNL     1      -6.096   1.209  19.597  1.00  0.00     0.169 HD
ENDBRANCH  20  23
ENDBRANCH  18  20
ENDBRANCH   1  15
TORSDOF 7
ENDMDL
