MODEL 1
REMARK VINA RESULT: -7.630347125      0.000      0.000
REMARK  7 active torsions:
REMARK  status: ('A' for Active; 'I' for Inactive)
REMARK    1  A    between atoms: O1_2  and  C2_3 
REMARK    2  A    between atoms: C5_6  and  C6_7 
REMARK    3  A    between atoms: C6_7  and  N1_8 
REMARK    4  A    between atoms: N1_8  and  S1_10 
REMARK    5  A    between atoms: S1_10  and  C7_13 
REMARK    6  A    between atoms: C10_16  and  S2_17 
REMARK    7  A    between atoms: S2_17  and  N2_18 
ROOT
HETATM    1  S1  UNL     1      -3.196   4.410  13.525  1.00  0.00     0.265 S 
HETATM    2  O2  UNL     1      -3.374   5.902  13.527  1.00  0.00    -0.200 OA
HETATM    3  O3  UNL     1      -1.871   4.014  14.116  1.00  0.00    -0.200 OA
ENDROOT
BRANCH   1   4
HETATM    4  N1  UNL     1      -3.250   3.862  11.925  1.00  0.00    -0.311 N 
ATOM      5  H1  UNL     1      -2.526   4.105  11.249  1.00  0.00     0.172 HD
BRANCH   4   6
HETATM    6  C6  UNL     1      -4.364   3.040  11.574  1.00  0.00     0.170 C 
BRANCH   6   7
HETATM    7  C5  UNL     1      -3.919   1.628  11.551  1.00  0.00    -0.040 A 
HETATM    8  C4  UNL     1      -2.586   1.350  11.398  1.00  0.00     0.011 A 
HETATM    9  C3  UNL     1      -2.114   0.037  11.369  1.00  0.00     0.037 A 
HETATM   10  C2  UNL     1      -2.999  -1.014  11.498  1.00  0.00     0.068 A 
HETATM   11  C12 UNL     1      -4.347  -0.720  11.652  1.00  0.00     0.037 A 
HETATM   12  C11 UNL     1      -4.807   0.594  11.680  1.00  0.00     0.011 A 
BRANCH  10  13
HETATM   13  O1  UNL     1      -2.539  -2.324  11.470  1.00  0.00    -0.356 OA
HETATM   14  C1  UNL     1      -3.451  -3.384  11.473  1.00  0.00     0.210 C 
ENDBRANCH  10  13
ENDBRANCH   6   7
ENDBRANCH   4   6
ENDBRANCH   1   4
BRANCH   1  15
HETATM   15  C7  UNL     1      -4.429   3.702  14.570  1.00  0.00     0.121 A 
HETATM   16  C8  UNL     1      -5.691   4.122  14.872  1.00  0.00     0.035 A 
HETATM   17  C9  UNL     1      -6.429   3.358  15.690  1.00  0.00     0.035 A 
HETATM   18  C10 UNL     1      -5.859   2.210  16.162  1.00  0.00     0.121 A 
HETATM   19  S3  UNL     1      -4.315   2.221  15.459  1.00  0.00    -0.063 SA
BRANCH  18  20
HETATM   20  S2  UNL     1      -6.573   1.007  17.247  1.00  0.00     0.263 S 
HETATM   21  O4  UNL     1      -6.001  -0.336  17.008  1.00  0.00    -0.200 OA
HETATM   22  O5  UNL     1      -8.059   0.951  16.978  1.00  0.00    -0.200 OA
BRANCH  20  23
HETATM   23  N2  UNL     1      -6.344   1.571  18.863  1.00  0.00    -0.324 N 
ATOM     24  H22 UNL     1      -6.425   2.540  19.170  1.00  0.00     0.169 HD
ATOM     25  H21 UNL     1      -6.116   0.761  19.438  1.00  0.00     0.169 HD
ENDBRANCH  20  23
ENDBRANCH  18  20
ENDBRANCH   1  15
TORSDOF 7
ENDMDL
