MODEL 2
REMARK VINA RESULT: -7.622263926      0.061      1.012
REMARK  7 active torsions:
REMARK  status: ('A' for Active; 'I' for Inactive)
REMARK    1  A    between atoms: O1_2  and  C2_3 
REMARK    2  A    between atoms: C5_6  and  C6_7 
REMARK    3  A    between atoms: C6_7  and  N1_8 
REMARK    4  A    between atoms: N1_8  and  S1_10 
REMARK    5  A    between atoms: S1_10  and  C7_13 
REMARK    6  A    between atoms: C10_16  and  S2_17 
REMARK    7  A    between atoms: S2_17  and  N2_18 
ROOT
HETATM    1  S1  UNL     1      -3.256   4.426  13.542  1.00  0.00     0.265 S 
HETATM    2  O2  UNL     1      -3.432   5.918  13.586  1.00  0.00    -0.200 OA
HETATM    3  O3  UNL     1      -1.921   4.014  14.097  1.00  0.00    -0.200 OA
ENDROOT
BRANCH   1   4
HETATM    4  N1  UNL     1      -3.343   3.919  11.931  1.00  0.00    -0.311 N 
ATOM      5  H1  UNL     1      -2.664   4.226  11.233  1.00  0.00     0.172 HD
BRANCH   4   6
HETATM    6  C6  UNL     1      -4.417   3.038  11.600  1.00  0.00     0.170 C 
BRANCH   6   7
HETATM    7  C5  UNL     1      -3.894   1.653  11.560  1.00  0.00    -0.040 A 
HETATM    8  C4  UNL     1      -4.771   0.605  11.664  1.00  0.00     0.011 A 
HETATM    9  C3  UNL     1      -4.332  -0.719  11.632  1.00  0.00     0.037 A 
HETATM   10  C2  UNL     1      -2.986  -0.993  11.494  1.00  0.00     0.068 A 
HETATM   11  C12 UNL     1      -2.108   0.077  11.390  1.00  0.00     0.037 A 
HETATM   12  C11 UNL     1      -2.557   1.394  11.422  1.00  0.00     0.011 A 
BRANCH  10  13
HETATM   13  O1  UNL     1      -2.538  -2.307  11.461  1.00  0.00    -0.356 OA
HETATM   14  C1  UNL     1      -3.458  -3.359  11.487  1.00  0.00     0.210 C 
ENDBRANCH  10  13
ENDBRANCH   6   7
ENDBRANCH   4   6
ENDBRANCH   1   4
BRANCH   1  15
HETATM   15  C7  UNL     1      -4.469   3.694  14.593  1.00  0.00     0.121 A 
HETATM   16  C8  UNL     1      -5.742   4.082  14.894  1.00  0.00     0.035 A 
HETATM   17  C9  UNL     1      -6.460   3.305  15.717  1.00  0.00     0.035 A 
HETATM   18  C10 UNL     1      -5.859   2.175  16.197  1.00  0.00     0.121 A 
HETATM   19  S3  UNL     1      -4.316   2.223  15.492  1.00  0.00    -0.063 SA
BRANCH  18  20
HETATM   20  S2  UNL     1      -6.540   0.962  17.291  1.00  0.00     0.263 S 
HETATM   21  O4  UNL     1      -5.960  -0.375  17.035  1.00  0.00    -0.200 OA
HETATM   22  O5  UNL     1      -8.030   0.892  17.051  1.00  0.00    -0.200 OA
BRANCH  20  23
HETATM   23  N2  UNL     1      -6.284   1.521  18.904  1.00  0.00    -0.324 N 
ATOM     24  H22 UNL     1      -6.296   2.496  19.202  1.00  0.00     0.169 HD
ATOM     25  H21 UNL     1      -6.122   0.701  19.488  1.00  0.00     0.169 HD
ENDBRANCH  20  23
ENDBRANCH  18  20
ENDBRANCH   1  15
TORSDOF 7
ENDMDL
