MODEL 5
REMARK VINA RESULT: -7.168622101      2.444      3.365
REMARK  4 active torsions:
REMARK  status: ('A' for Active; 'I' for Inactive)
REMARK    1  A    between atoms: O1_2  and  C2_3 
REMARK    2  A    between atoms: C6_7  and  N1_8 
REMARK    3  A    between atoms: C11_13  and  S1_14 
REMARK    4  A    between atoms: S1_14  and  N2_15 
ROOT
HETATM    1  N1  UNL     1      -4.805   5.630  10.808  1.00  0.00    -0.271 N 
HETATM    2  C7  UNL     1      -4.286   4.309  10.538  1.00  0.00     0.146 C 
HETATM    3  C8  UNL     1      -3.280   3.996  11.594  1.00  0.00     0.061 C 
HETATM    4  C9  UNL     1      -4.014   3.564  12.861  1.00  0.00    -0.024 A 
HETATM    5  C10 UNL     1      -3.886   2.423  13.579  1.00  0.00     0.042 A 
HETATM    6  C11 UNL     1      -4.674   2.290  14.690  1.00  0.00     0.121 A 
HETATM    7  S2  UNL     1      -5.565   3.734  14.715  1.00  0.00    -0.062 SA
HETATM    8  C12 UNL     1      -4.929   4.477  13.326  1.00  0.00     0.128 A 
HETATM    9  S3  UNL     1      -5.175   6.008  12.448  1.00  0.00     0.272 S 
HETATM   10  O4  UNL     1      -6.575   6.473  12.615  1.00  0.00    -0.199 OA
HETATM   11  O5  UNL     1      -4.248   7.035  13.009  1.00  0.00    -0.199 OA
ENDROOT
BRANCH   1  12
HETATM   12  C6  UNL     1      -5.010   6.583   9.807  1.00  0.00     0.047 A 
HETATM   13  C5  UNL     1      -3.889   7.158   9.214  1.00  0.00     0.030 A 
HETATM   14  C4  UNL     1      -3.957   8.099   8.227  1.00  0.00     0.005 A 
HETATM   15  C3  UNL     1      -5.215   8.485   7.813  1.00  0.00     0.037 A 
HETATM   16  C2  UNL     1      -6.346   7.942   8.373  1.00  0.00     0.070 A 
HETATM   17  C13 UNL     1      -6.243   6.990   9.372  1.00  0.00     0.067 A 
BRANCH  16  18
HETATM   18  O1  UNL     1      -7.587   8.357   7.928  1.00  0.00    -0.356 OA
HETATM   19  C1  UNL     1      -8.740   8.041   8.669  1.00  0.00     0.210 C 
ENDBRANCH  16  18
ENDBRANCH   1  12
BRANCH   6  20
HETATM   20  S1  UNL     1      -4.716   0.912  15.812  1.00  0.00     0.263 S 
HETATM   21  O2  UNL     1      -4.846  -0.322  14.965  1.00  0.00    -0.200 OA
HETATM   22  O3  UNL     1      -3.444   0.820  16.589  1.00  0.00    -0.200 OA
BRANCH  20  23
HETATM   23  N2  UNL     1      -6.085   1.011  16.832  1.00  0.00    -0.324 N 
ATOM     24  H22 UNL     1      -7.031   0.760  16.543  1.00  0.00     0.169 HD
ATOM     25  H21 UNL     1      -5.819   1.352  17.756  1.00  0.00     0.169 HD
ENDBRANCH  20  23
ENDBRANCH   6  20
TORSDOF 4
ENDMDL
