MODEL 3
REMARK VINA RESULT: -7.248372295      4.327      5.175
REMARK  4 active torsions:
REMARK  status: ('A' for Active; 'I' for Inactive)
REMARK    1  A    between atoms: O1_2  and  C2_3 
REMARK    2  A    between atoms: C6_7  and  N1_8 
REMARK    3  A    between atoms: C11_13  and  S1_14 
REMARK    4  A    between atoms: S1_14  and  N2_15 
ROOT
HETATM    1  N1  UNL     1      -2.279   3.296  12.288  1.00  0.00    -0.271 N 
HETATM    2  C7  UNL     1      -2.508   4.154  13.426  1.00  0.00     0.146 C 
HETATM    3  C8  UNL     1      -3.981   4.216  13.655  1.00  0.00     0.061 C 
HETATM    4  C9  UNL     1      -4.418   2.950  14.388  1.00  0.00    -0.024 A 
HETATM    5  C10 UNL     1      -5.086   2.824  15.559  1.00  0.00     0.042 A 
HETATM    6  C11 UNL     1      -5.358   1.556  15.992  1.00  0.00     0.121 A 
HETATM    7  S2  UNL     1      -4.689   0.575  14.780  1.00  0.00    -0.062 SA
HETATM    8  C12 UNL     1      -4.080   1.781  13.752  1.00  0.00     0.128 A 
HETATM    9  S3  UNL     1      -3.194   1.839  12.206  1.00  0.00     0.272 S 
HETATM   10  O4  UNL     1      -2.331   0.640  12.067  1.00  0.00    -0.199 OA
HETATM   11  O5  UNL     1      -4.184   1.861  11.089  1.00  0.00    -0.199 OA
ENDROOT
BRANCH   1  12
HETATM   12  C6  UNL     1      -1.363   3.604  11.279  1.00  0.00     0.047 A 
HETATM   13  C5  UNL     1      -0.083   4.003  11.657  1.00  0.00     0.030 A 
HETATM   14  C4  UNL     1       0.899   4.329  10.768  1.00  0.00     0.005 A 
HETATM   15  C3  UNL     1       0.584   4.253   9.427  1.00  0.00     0.037 A 
HETATM   16  C2  UNL     1      -0.667   3.865   9.012  1.00  0.00     0.070 A 
HETATM   17  C13 UNL     1      -1.642   3.540   9.939  1.00  0.00     0.067 A 
BRANCH  16  18
HETATM   18  O1  UNL     1      -0.941   3.801   7.658  1.00  0.00    -0.356 OA
HETATM   19  C1  UNL     1       0.111   3.853   6.726  1.00  0.00     0.210 C 
ENDBRANCH  16  18
ENDBRANCH   1  12
BRANCH   6  20
HETATM   20  S1  UNL     1      -6.214   1.095  17.481  1.00  0.00     0.263 S 
HETATM   21  O2  UNL     1      -7.516   0.482  17.051  1.00  0.00    -0.200 OA
HETATM   22  O3  UNL     1      -5.440   0.073  18.245  1.00  0.00    -0.200 OA
BRANCH  20  23
HETATM   23  N2  UNL     1      -6.558   2.479  18.427  1.00  0.00    -0.324 N 
ATOM     24  H22 UNL     1      -5.927   2.856  19.134  1.00  0.00     0.169 HD
ATOM     25  H21 UNL     1      -7.471   2.862  18.182  1.00  0.00     0.169 HD
ENDBRANCH  20  23
ENDBRANCH   6  20
TORSDOF 4
ENDMDL
