MODEL 2
REMARK VINA RESULT: -7.262912323      4.257      4.936
REMARK  4 active torsions:
REMARK  status: ('A' for Active; 'I' for Inactive)
REMARK    1  A    between atoms: O1_2  and  C2_3 
REMARK    2  A    between atoms: C6_7  and  N1_8 
REMARK    3  A    between atoms: C11_13  and  S1_14 
REMARK    4  A    between atoms: S1_14  and  N2_15 
ROOT
HETATM    1  N1  UNL     1      -2.474   3.424  12.172  1.00  0.00    -0.271 N 
HETATM    2  C7  UNL     1      -2.810   4.315  13.257  1.00  0.00     0.146 C 
HETATM    3  C8  UNL     1      -4.285   4.236  13.466  1.00  0.00     0.061 C 
HETATM    4  C9  UNL     1      -4.601   2.973  14.265  1.00  0.00    -0.024 A 
HETATM    5  C10 UNL     1      -5.273   2.844  15.433  1.00  0.00     0.042 A 
HETATM    6  C11 UNL     1      -5.419   1.580  15.935  1.00  0.00     0.121 A 
HETATM    7  S2  UNL     1      -4.632   0.608  14.789  1.00  0.00    -0.062 SA
HETATM    8  C12 UNL     1      -4.133   1.812  13.700  1.00  0.00     0.128 A 
HETATM    9  S3  UNL     1      -3.233   1.877  12.163  1.00  0.00     0.272 S 
HETATM   10  O4  UNL     1      -2.247   0.768  12.102  1.00  0.00    -0.199 OA
HETATM   11  O5  UNL     1      -4.200   1.733  11.036  1.00  0.00    -0.199 OA
ENDROOT
BRANCH   1  12
HETATM   12  C6  UNL     1      -1.578   3.769  11.157  1.00  0.00     0.047 A 
HETATM   13  C5  UNL     1      -2.099   4.265   9.965  1.00  0.00     0.030 A 
HETATM   14  C4  UNL     1      -1.329   4.637   8.902  1.00  0.00     0.005 A 
HETATM   15  C3  UNL     1       0.037   4.503   9.038  1.00  0.00     0.037 A 
HETATM   16  C2  UNL     1       0.592   4.017  10.196  1.00  0.00     0.070 A 
HETATM   17  C13 UNL     1      -0.217   3.648  11.258  1.00  0.00     0.067 A 
BRANCH  16  18
HETATM   18  O1  UNL     1       1.966   3.899  10.291  1.00  0.00    -0.356 OA
HETATM   19  C1  UNL     1       2.779   4.267   9.204  1.00  0.00     0.210 C 
ENDBRANCH  16  18
ENDBRANCH   1  12
BRANCH   6  20
HETATM   20  S1  UNL     1      -6.249   1.116  17.438  1.00  0.00     0.263 S 
HETATM   21  O2  UNL     1      -7.527   0.444  17.028  1.00  0.00    -0.200 OA
HETATM   22  O3  UNL     1      -5.430   0.140  18.217  1.00  0.00    -0.200 OA
BRANCH  20  23
HETATM   23  N2  UNL     1      -6.641   2.503  18.359  1.00  0.00    -0.324 N 
ATOM     24  H22 UNL     1      -7.413   3.132  18.140  1.00  0.00     0.169 HD
ATOM     25  H21 UNL     1      -5.998   2.605  19.144  1.00  0.00     0.169 HD
ENDBRANCH  20  23
ENDBRANCH   6  20
TORSDOF 4
ENDMDL
