MODEL 6
REMARK VINA RESULT: -6.148275074      2.661      6.668
REMARK  7 active torsions:
REMARK  status: ('A' for Active; 'I' for Inactive)
REMARK    1  A    between atoms: C2_2  and  N1_3 
REMARK    2  A    between atoms: N1_3  and  C3_6 
REMARK    3  A    between atoms: N2_8  and  C5_9 
REMARK    4  A    between atoms: C5_9  and  C6_10 
REMARK    5  A    between atoms: C6_10  and  O1_11 
REMARK    6  A    between atoms: C9_18  and  S3_19 
REMARK    7  A    between atoms: S3_19  and  N3_20 
ROOT
HETATM    1  C3  UNL     1      -4.936   1.859  12.304  1.00  0.00     0.260 C 
HETATM    2  C4  UNL     1      -4.438   1.483  13.639  1.00  0.00     0.114 C 
HETATM    3  N2  UNL     1      -4.483   2.432  14.669  1.00  0.00    -0.281 N 
HETATM    4  S1  UNL     1      -4.466   4.059  14.170  1.00  0.00     0.271 S 
HETATM    5  O2  UNL     1      -5.798   4.735  14.331  1.00  0.00    -0.199 OA
HETATM    6  O3  UNL     1      -3.479   4.794  15.058  1.00  0.00    -0.199 OA
HETATM    7  C8  UNL     1      -3.935   4.067  12.508  1.00  0.00     0.130 A 
HETATM    8  S2  UNL     1      -3.093   5.152  11.512  1.00  0.00    -0.062 SA
HETATM    9  C9  UNL     1      -3.076   4.249  10.067  1.00  0.00     0.121 A 
HETATM   10  C10 UNL     1      -3.741   3.102  10.409  1.00  0.00     0.044 A 
HETATM   11  C11 UNL     1      -4.187   3.014  11.688  1.00  0.00     0.010 A 
ENDROOT
BRANCH   9  12
HETATM   12  S3  UNL     1      -2.359   4.722   8.526  1.00  0.00     0.263 S 
HETATM   13  O4  UNL     1      -3.472   4.832   7.532  1.00  0.00    -0.200 OA
HETATM   14  O5  UNL     1      -1.308   3.736   8.101  1.00  0.00    -0.200 OA
BRANCH  12  15
HETATM   15  N3  UNL     1      -1.686   6.319   8.696  1.00  0.00    -0.324 N 
ATOM     16  H32 UNL     1      -1.665   6.854   9.563  1.00  0.00     0.169 HD
ATOM     17  H31 UNL     1      -1.325   6.617   7.789  1.00  0.00     0.169 HD
ENDBRANCH  12  15
ENDBRANCH   9  12
BRANCH   1  18
HETATM   18  N1  UNL     1      -4.876   0.688  11.454  1.00  0.00    -0.063 N 
ATOM     19  H12 UNL     1      -4.486   0.886  10.532  1.00  0.00     0.278 HD
ATOM     20  H11 UNL     1      -5.797   0.375  11.145  1.00  0.00     0.278 HD
BRANCH  18  21
HETATM   21  C2  UNL     1      -4.139  -0.340  12.171  1.00  0.00     0.229 C 
HETATM   22  C1  UNL     1      -3.314  -1.075  11.116  1.00  0.00     0.034 C 
ENDBRANCH  18  21
ENDBRANCH   1  18
BRANCH   3  23
HETATM   23  C5  UNL     1      -5.377   2.148  15.748  1.00  0.00     0.166 C 
BRANCH  23  24
HETATM   24  C6  UNL     1      -5.149   0.850  16.438  1.00  0.00     0.188 C 
BRANCH  24  25
HETATM   25  O1  UNL     1      -6.354   0.203  16.638  1.00  0.00    -0.394 OA
HETATM   26  C7  UNL     1      -7.319   0.928  17.296  1.00  0.00     0.201 C 
ENDBRANCH  24  25
ENDBRANCH  23  24
ENDBRANCH   3  23
TORSDOF 7
ENDMDL
