MODEL 7
REMARK VINA RESULT: -6.130033266      2.484      6.649
REMARK  7 active torsions:
REMARK  status: ('A' for Active; 'I' for Inactive)
REMARK    1  A    between atoms: C2_2  and  N1_3 
REMARK    2  A    between atoms: N1_3  and  C3_6 
REMARK    3  A    between atoms: N2_8  and  C5_9 
REMARK    4  A    between atoms: C5_9  and  C6_10 
REMARK    5  A    between atoms: C6_10  and  O1_11 
REMARK    6  A    between atoms: C9_18  and  S3_19 
REMARK    7  A    between atoms: S3_19  and  N3_20 
ROOT
HETATM    1  C3  UNL     1      -5.022   1.911  12.354  1.00  0.00     0.260 C 
HETATM    2  C4  UNL     1      -4.370   1.588  13.635  1.00  0.00     0.114 C 
HETATM    3  N2  UNL     1      -4.492   2.487  14.702  1.00  0.00    -0.281 N 
HETATM    4  S1  UNL     1      -4.781   4.108  14.267  1.00  0.00     0.271 S 
HETATM    5  O2  UNL     1      -6.190   4.547  14.548  1.00  0.00    -0.199 OA
HETATM    6  O3  UNL     1      -3.864   4.973  15.112  1.00  0.00    -0.199 OA
HETATM    7  C8  UNL     1      -4.386   4.249  12.573  1.00  0.00     0.130 A 
HETATM    8  S2  UNL     1      -3.813   5.486  11.564  1.00  0.00    -0.062 SA
HETATM    9  C9  UNL     1      -3.757   4.637  10.087  1.00  0.00     0.121 A 
HETATM   10  C10 UNL     1      -4.197   3.387  10.430  1.00  0.00     0.044 A 
HETATM   11  C11 UNL     1      -4.523   3.191  11.732  1.00  0.00     0.010 A 
ENDROOT
BRANCH   9  12
HETATM   12  S3  UNL     1      -3.247   5.265   8.519  1.00  0.00     0.263 S 
HETATM   13  O4  UNL     1      -2.208   4.330   7.983  1.00  0.00    -0.200 OA
HETATM   14  O5  UNL     1      -2.738   6.672   8.647  1.00  0.00    -0.200 OA
BRANCH  12  15
HETATM   15  N3  UNL     1      -4.598   5.185   7.424  1.00  0.00    -0.324 N 
ATOM     16  H32 UNL     1      -5.095   4.331   7.172  1.00  0.00     0.169 HD
ATOM     17  H31 UNL     1      -4.798   6.126   7.087  1.00  0.00     0.169 HD
ENDBRANCH  12  15
ENDBRANCH   9  12
BRANCH   1  18
HETATM   18  N1  UNL     1      -4.836   0.790  11.456  1.00  0.00    -0.063 N 
ATOM     19  H12 UNL     1      -4.354   1.047  10.595  1.00  0.00     0.278 HD
ATOM     20  H11 UNL     1      -5.707   0.472  11.032  1.00  0.00     0.278 HD
BRANCH  18  21
HETATM   21  C2  UNL     1      -4.151  -0.258  12.197  1.00  0.00     0.229 C 
HETATM   22  C1  UNL     1      -3.416  -1.096  11.151  1.00  0.00     0.034 C 
ENDBRANCH  18  21
ENDBRANCH   1  18
BRANCH   3  23
HETATM   23  C5  UNL     1      -5.242   2.029  15.829  1.00  0.00     0.166 C 
BRANCH  23  24
HETATM   24  C6  UNL     1      -4.892   0.668  16.315  1.00  0.00     0.188 C 
BRANCH  24  25
HETATM   25  O1  UNL     1      -6.032   0.008  16.736  1.00  0.00    -0.394 OA
HETATM   26  C7  UNL     1      -6.950   0.774  17.413  1.00  0.00     0.201 C 
ENDBRANCH  24  25
ENDBRANCH  23  24
ENDBRANCH   3  23
TORSDOF 7
ENDMDL
