MODEL 8
REMARK VINA RESULT: -6.043590134      3.110      7.039
REMARK  7 active torsions:
REMARK  status: ('A' for Active; 'I' for Inactive)
REMARK    1  A    between atoms: C2_2  and  N1_3 
REMARK    2  A    between atoms: N1_3  and  C3_6 
REMARK    3  A    between atoms: N2_8  and  C5_9 
REMARK    4  A    between atoms: C5_9  and  C6_10 
REMARK    5  A    between atoms: C6_10  and  O1_11 
REMARK    6  A    between atoms: C9_18  and  S3_19 
REMARK    7  A    between atoms: S3_19  and  N3_20 
ROOT
HETATM    1  C3  UNL     1      -4.821   4.628  14.870  1.00  0.00     0.260 C 
HETATM    2  C4  UNL     1      -6.050   3.896  15.221  1.00  0.00     0.114 C 
HETATM    3  N2  UNL     1      -5.944   2.578  15.683  1.00  0.00    -0.281 N 
HETATM    4  S1  UNL     1      -4.551   1.734  15.184  1.00  0.00     0.271 S 
HETATM    5  O2  UNL     1      -3.552   1.546  16.290  1.00  0.00    -0.199 OA
HETATM    6  O3  UNL     1      -4.995   0.353  14.739  1.00  0.00    -0.199 OA
HETATM    7  C8  UNL     1      -3.875   2.633  13.849  1.00  0.00     0.130 A 
HETATM    8  S2  UNL     1      -2.968   2.248  12.469  1.00  0.00    -0.062 SA
HETATM    9  C9  UNL     1      -2.801   3.807  11.801  1.00  0.00     0.121 A 
HETATM   10  C10 UNL     1      -3.472   4.601  12.692  1.00  0.00     0.044 A 
HETATM   11  C11 UNL     1      -4.031   3.979  13.761  1.00  0.00     0.010 A 
ENDROOT
BRANCH   9  12
HETATM   12  S3  UNL     1      -1.958   4.242  10.314  1.00  0.00     0.263 S 
HETATM   13  O4  UNL     1      -1.663   5.708  10.382  1.00  0.00    -0.200 OA
HETATM   14  O5  UNL     1      -2.777   3.879   9.109  1.00  0.00    -0.200 OA
BRANCH  12  15
HETATM   15  N3  UNL     1      -0.418   3.428  10.292  1.00  0.00    -0.324 N 
ATOM     16  H32 UNL     1      -0.091   2.818   9.543  1.00  0.00     0.169 HD
ATOM     17  H31 UNL     1       0.087   3.666  11.146  1.00  0.00     0.169 HD
ENDBRANCH  12  15
ENDBRANCH   9  12
BRANCH   1  18
HETATM   18  N1  UNL     1      -5.187   5.985  14.522  1.00  0.00    -0.063 N 
ATOM     19  H12 UNL     1      -6.173   6.080  14.276  1.00  0.00     0.278 HD
ATOM     20  H11 UNL     1      -4.797   6.284  13.628  1.00  0.00     0.278 HD
BRANCH  18  21
HETATM   21  C2  UNL     1      -4.795   6.845  15.627  1.00  0.00     0.229 C 
HETATM   22  C1  UNL     1      -3.461   7.468  15.218  1.00  0.00     0.034 C 
ENDBRANCH  18  21
ENDBRANCH   1  18
BRANCH   3  23
HETATM   23  C5  UNL     1      -6.319   2.356  17.045  1.00  0.00     0.166 C 
BRANCH  23  24
HETATM   24  C6  UNL     1      -7.528   1.513  17.242  1.00  0.00     0.188 C 
BRANCH  24  25
HETATM   25  O1  UNL     1      -7.168   0.179  17.311  1.00  0.00    -0.394 OA
HETATM   26  C7  UNL     1      -6.078  -0.105  18.098  1.00  0.00     0.201 C 
ENDBRANCH  24  25
ENDBRANCH  23  24
ENDBRANCH   3  23
TORSDOF 7
ENDMDL
