MODEL 1
REMARK VINA RESULT: -7.092684945      0.000      0.000
REMARK  5 active torsions:
REMARK  status: ('A' for Active; 'I' for Inactive)
REMARK    1  A    between atoms: O1_2  and  C2_3 
REMARK    2  A    between atoms: C5_6  and  N1_7 
REMARK    3  A    between atoms: C7_9  and  O2_10 
REMARK    4  A    between atoms: C10_14  and  S1_15 
REMARK    5  A    between atoms: S1_15  and  N2_16 
ROOT
HETATM    1  N1  UNL     1      -2.962   3.707  13.703  1.00  0.00    -0.269 N 
HETATM    2  C6  UNL     1      -1.878   4.605  14.111  1.00  0.00     0.178 C 
HETATM    3  C7  UNL     1      -1.660   5.546  12.945  1.00  0.00     0.172 C 
HETATM    4  C8  UNL     1      -0.732   4.823  11.990  1.00  0.00     0.004 A 
HETATM    5  C9  UNL     1       0.476   5.196  11.545  1.00  0.00     0.044 A 
HETATM    6  C10 UNL     1       1.119   4.357  10.678  1.00  0.00     0.121 A 
HETATM    7  S2  UNL     1       0.000   3.061  10.513  1.00  0.00    -0.062 SA
HETATM    8  C11 UNL     1      -1.228   3.630  11.543  1.00  0.00     0.131 A 
HETATM    9  S3  UNL     1      -2.824   3.073  12.091  1.00  0.00     0.272 S 
HETATM   10  O5  UNL     1      -2.889   1.592  12.063  1.00  0.00    -0.199 OA
HETATM   11  O6  UNL     1      -3.891   3.612  11.193  1.00  0.00    -0.199 OA
ENDROOT
BRANCH   1  12
HETATM   12  C5  UNL     1      -4.047   3.381  14.562  1.00  0.00     0.045 A 
HETATM   13  C4  UNL     1      -5.253   4.053  14.550  1.00  0.00     0.033 A 
HETATM   14  C3  UNL     1      -6.291   3.717  15.396  1.00  0.00     0.039 A 
HETATM   15  C2  UNL     1      -6.169   2.683  16.299  1.00  0.00     0.068 A 
HETATM   16  C13 UNL     1      -4.972   2.001  16.323  1.00  0.00     0.039 A 
HETATM   17  C12 UNL     1      -3.926   2.345  15.467  1.00  0.00     0.033 A 
BRANCH  15  18
HETATM   18  O1  UNL     1      -7.208   2.326  17.163  1.00  0.00    -0.356 OA
HETATM   19  C1  UNL     1      -7.515   1.010  17.497  1.00  0.00     0.210 C 
ENDBRANCH  15  18
ENDBRANCH   1  12
BRANCH   3  20
HETATM   20  O2  UNL     1      -2.863   5.788  12.280  1.00  0.00    -0.389 OA
ATOM     21  H2  UNL     1      -2.730   6.393  11.559  1.00  0.00     0.210 HD
ENDBRANCH   3  20
BRANCH   6  22
HETATM   22  S1  UNL     1       2.706   4.546   9.912  1.00  0.00     0.263 S 
HETATM   23  O3  UNL     1       3.767   4.759  10.953  1.00  0.00    -0.200 OA
HETATM   24  O4  UNL     1       2.980   3.265   9.178  1.00  0.00    -0.200 OA
BRANCH  22  25
HETATM   25  N2  UNL     1       2.584   5.889   8.839  1.00  0.00    -0.324 N 
ATOM     26  H22 UNL     1       2.766   5.870   7.836  1.00  0.00     0.169 HD
ATOM     27  H21 UNL     1       2.299   6.690   9.402  1.00  0.00     0.169 HD
ENDBRANCH  22  25
ENDBRANCH   6  22
TORSDOF 5
ENDMDL
