MODEL 9
REMARK VINA RESULT: -6.479939665      4.113      8.217
REMARK  5 active torsions:
REMARK  status: ('A' for Active; 'I' for Inactive)
REMARK    1  A    between atoms: O1_2  and  C2_3 
REMARK    2  A    between atoms: C5_6  and  N1_7 
REMARK    3  A    between atoms: C7_9  and  O2_10 
REMARK    4  A    between atoms: C10_14  and  S1_15 
REMARK    5  A    between atoms: S1_15  and  N2_16 
ROOT
HETATM    1  N1  UNL     1      -3.643   6.495  13.778  1.00  0.00    -0.269 N 
HETATM    2  C6  UNL     1      -2.865   5.838  14.832  1.00  0.00     0.178 C 
HETATM    3  C7  UNL     1      -2.820   4.370  14.459  1.00  0.00     0.172 C 
HETATM    4  C8  UNL     1      -4.101   3.763  14.993  1.00  0.00     0.004 A 
HETATM    5  C9  UNL     1      -4.256   2.762  15.871  1.00  0.00     0.044 A 
HETATM    6  C10 UNL     1      -5.532   2.394  16.195  1.00  0.00     0.121 A 
HETATM    7  S2  UNL     1      -6.482   3.473  15.251  1.00  0.00    -0.062 SA
HETATM    8  C11 UNL     1      -5.233   4.340  14.489  1.00  0.00     0.131 A 
HETATM    9  S3  UNL     1      -5.103   5.672  13.320  1.00  0.00     0.272 S 
HETATM   10  O5  UNL     1      -6.294   6.551  13.408  1.00  0.00    -0.199 OA
HETATM   11  O6  UNL     1      -5.017   5.127  11.930  1.00  0.00    -0.199 OA
ENDROOT
BRANCH   1  12
HETATM   12  C5  UNL     1      -3.231   7.715  13.175  1.00  0.00     0.045 A 
HETATM   13  C4  UNL     1      -3.478   8.028  11.853  1.00  0.00     0.033 A 
HETATM   14  C3  UNL     1      -3.067   9.221  11.291  1.00  0.00     0.039 A 
HETATM   15  C2  UNL     1      -2.387  10.162  12.032  1.00  0.00     0.068 A 
HETATM   16  C13 UNL     1      -2.135   9.865  13.353  1.00  0.00     0.039 A 
HETATM   17  C12 UNL     1      -2.551   8.659  13.917  1.00  0.00     0.033 A 
BRANCH  15  18
HETATM   18  O1  UNL     1      -1.965  11.375  11.482  1.00  0.00    -0.356 OA
HETATM   19  C1  UNL     1      -1.308  12.364  12.209  1.00  0.00     0.210 C 
ENDBRANCH  15  18
ENDBRANCH   1  12
BRANCH   3  20
HETATM   20  O2  UNL     1      -2.815   4.219  13.071  1.00  0.00    -0.389 OA
ATOM     21  H2  UNL     1      -3.412   3.528  12.809  1.00  0.00     0.210 HD
ENDBRANCH   3  20
BRANCH   6  22
HETATM   22  S1  UNL     1      -6.081   1.128  17.307  1.00  0.00     0.263 S 
HETATM   23  O3  UNL     1      -7.353   0.507  16.806  1.00  0.00    -0.200 OA
HETATM   24  O4  UNL     1      -4.998   0.089  17.336  1.00  0.00    -0.200 OA
BRANCH  22  25
HETATM   25  N2  UNL     1      -6.297   1.875  18.844  1.00  0.00    -0.324 N 
ATOM     26  H22 UNL     1      -6.925   2.653  19.047  1.00  0.00     0.169 HD
ATOM     27  H21 UNL     1      -5.681   1.390  19.497  1.00  0.00     0.169 HD
ENDBRANCH  22  25
ENDBRANCH   6  22
TORSDOF 5
ENDMDL
