MODEL 4
REMARK VINA RESULT: -6.744606039      1.115      1.132
REMARK  5 active torsions:
REMARK  status: ('A' for Active; 'I' for Inactive)
REMARK    1  A    between atoms: O1_2  and  C2_3 
REMARK    2  A    between atoms: C5_6  and  N1_7 
REMARK    3  A    between atoms: C7_9  and  O2_10 
REMARK    4  A    between atoms: C10_14  and  S1_15 
REMARK    5  A    between atoms: S1_15  and  N2_16 
ROOT
HETATM    1  N1  UNL     1      -3.312   3.546  13.263  1.00  0.00    -0.269 N 
HETATM    2  C6  UNL     1      -2.085   4.295  13.550  1.00  0.00     0.178 C 
HETATM    3  C7  UNL     1      -1.945   5.305  12.431  1.00  0.00     0.172 C 
HETATM    4  C8  UNL     1      -1.262   4.577  11.292  1.00  0.00     0.004 A 
HETATM    5  C9  UNL     1      -0.103   4.865  10.683  1.00  0.00     0.044 A 
HETATM    6  C10 UNL     1       0.302   4.043   9.668  1.00  0.00     0.121 A 
HETATM    7  S2  UNL     1      -0.966   2.883   9.600  1.00  0.00    -0.062 SA
HETATM    8  C11 UNL     1      -1.950   3.481  10.851  1.00  0.00     0.131 A 
HETATM    9  S3  UNL     1      -3.494   3.040  11.611  1.00  0.00     0.272 S 
HETATM   10  O5  UNL     1      -3.727   1.581  11.493  1.00  0.00    -0.199 OA
HETATM   11  O6  UNL     1      -4.621   3.756  10.936  1.00  0.00    -0.199 OA
ENDROOT
BRANCH   1  12
HETATM   12  C5  UNL     1      -4.280   3.257  14.263  1.00  0.00     0.045 A 
HETATM   13  C4  UNL     1      -5.326   4.104  14.573  1.00  0.00     0.033 A 
HETATM   14  C3  UNL     1      -6.254   3.799  15.549  1.00  0.00     0.039 A 
HETATM   15  C2  UNL     1      -6.178   2.625  16.265  1.00  0.00     0.068 A 
HETATM   16  C13 UNL     1      -5.140   1.768  15.966  1.00  0.00     0.039 A 
HETATM   17  C12 UNL     1      -4.205   2.080  14.980  1.00  0.00     0.033 A 
BRANCH  15  18
HETATM   18  O1  UNL     1      -7.107   2.298  17.256  1.00  0.00    -0.356 OA
HETATM   19  C1  UNL     1      -7.561   1.003  17.490  1.00  0.00     0.210 C 
ENDBRANCH  15  18
ENDBRANCH   1  12
BRANCH   3  20
HETATM   20  O2  UNL     1      -3.203   5.721  11.987  1.00  0.00    -0.389 OA
ATOM     21  H2  UNL     1      -3.450   5.251  11.199  1.00  0.00     0.210 HD
ENDBRANCH   3  20
BRANCH   6  22
HETATM   22  S1  UNL     1       1.763   4.139   8.670  1.00  0.00     0.263 S 
HETATM   23  O3  UNL     1       2.360   5.515   8.747  1.00  0.00    -0.200 OA
HETATM   24  O4  UNL     1       2.733   3.144   9.238  1.00  0.00    -0.200 OA
BRANCH  22  25
HETATM   25  N2  UNL     1       1.295   3.735   7.062  1.00  0.00    -0.324 N 
ATOM     26  H22 UNL     1       0.638   3.001   6.798  1.00  0.00     0.169 HD
ATOM     27  H21 UNL     1       1.799   4.367   6.440  1.00  0.00     0.169 HD
ENDBRANCH  22  25
ENDBRANCH   6  22
TORSDOF 5
ENDMDL
