MODEL 3
REMARK VINA RESULT: -6.899077562      1.828      2.222
REMARK  5 active torsions:
REMARK  status: ('A' for Active; 'I' for Inactive)
REMARK    1  A    between atoms: O1_2  and  C2_3 
REMARK    2  A    between atoms: C5_6  and  N1_7 
REMARK    3  A    between atoms: C7_9  and  O2_10 
REMARK    4  A    between atoms: C10_14  and  S1_15 
REMARK    5  A    between atoms: S1_15  and  N2_16 
ROOT
HETATM    1  N1  UNL     1      -3.826   2.916  13.640  1.00  0.00    -0.269 N 
HETATM    2  C6  UNL     1      -3.023   4.139  13.547  1.00  0.00     0.178 C 
HETATM    3  C7  UNL     1      -3.320   4.726  12.183  1.00  0.00     0.172 C 
HETATM    4  C8  UNL     1      -2.396   4.019  11.213  1.00  0.00     0.004 A 
HETATM    5  C9  UNL     1      -1.464   4.542  10.404  1.00  0.00     0.044 A 
HETATM    6  C10 UNL     1      -0.755   3.681   9.614  1.00  0.00     0.121 A 
HETATM    7  S2  UNL     1      -1.422   2.152  10.034  1.00  0.00    -0.062 SA
HETATM    8  C11 UNL     1      -2.565   2.662  11.186  1.00  0.00     0.131 A 
HETATM    9  S3  UNL     1      -3.783   1.900  12.231  1.00  0.00     0.272 S 
HETATM   10  O5  UNL     1      -3.385   0.509  12.554  1.00  0.00    -0.199 OA
HETATM   11  O6  UNL     1      -5.106   1.866  11.535  1.00  0.00    -0.199 OA
ENDROOT
BRANCH   1  12
HETATM   12  C5  UNL     1      -4.584   2.588  14.797  1.00  0.00     0.045 A 
HETATM   13  C4  UNL     1      -4.246   1.564  15.659  1.00  0.00     0.033 A 
HETATM   14  C3  UNL     1      -5.000   1.264  16.777  1.00  0.00     0.039 A 
HETATM   15  C2  UNL     1      -6.134   1.982  17.086  1.00  0.00     0.068 A 
HETATM   16  C13 UNL     1      -6.484   3.009  16.236  1.00  0.00     0.039 A 
HETATM   17  C12 UNL     1      -5.720   3.307  15.108  1.00  0.00     0.033 A 
BRANCH  15  18
HETATM   18  O1  UNL     1      -6.909   1.696  18.213  1.00  0.00    -0.356 OA
HETATM   19  C1  UNL     1      -6.588   2.125  19.498  1.00  0.00     0.210 C 
ENDBRANCH  15  18
ENDBRANCH   1  12
BRANCH   3  20
HETATM   20  O2  UNL     1      -4.636   4.450  11.808  1.00  0.00    -0.389 OA
ATOM     21  H2  UNL     1      -5.146   5.251  11.770  1.00  0.00     0.210 HD
ENDBRANCH   3  20
BRANCH   6  22
HETATM   22  S1  UNL     1       0.532   4.038   8.448  1.00  0.00     0.263 S 
HETATM   23  O3  UNL     1       0.750   5.520   8.348  1.00  0.00    -0.200 OA
HETATM   24  O4  UNL     1       1.778   3.387   8.977  1.00  0.00    -0.200 OA
BRANCH  22  25
HETATM   25  N2  UNL     1       0.042   3.361   6.942  1.00  0.00    -0.324 N 
ATOM     26  H22 UNL     1      -0.806   2.817   6.779  1.00  0.00     0.169 HD
ATOM     27  H21 UNL     1       0.758   3.610   6.260  1.00  0.00     0.169 HD
ENDBRANCH  22  25
ENDBRANCH   6  22
TORSDOF 5
ENDMDL
