MODEL 11
REMARK VINA RESULT: -6.418515775      3.770      8.208
REMARK  5 active torsions:
REMARK  status: ('A' for Active; 'I' for Inactive)
REMARK    1  A    between atoms: O1_2  and  C2_3 
REMARK    2  A    between atoms: C5_6  and  N1_7 
REMARK    3  A    between atoms: C7_9  and  O2_10 
REMARK    4  A    between atoms: C10_14  and  S1_15 
REMARK    5  A    between atoms: S1_15  and  N2_16 
ROOT
HETATM    1  N1  UNL     1      -3.206   6.118  13.489  1.00  0.00    -0.269 N 
HETATM    2  C6  UNL     1      -2.490   5.436  14.571  1.00  0.00     0.178 C 
HETATM    3  C7  UNL     1      -2.615   3.955  14.281  1.00  0.00     0.172 C 
HETATM    4  C8  UNL     1      -3.947   3.526  14.862  1.00  0.00     0.004 A 
HETATM    5  C9  UNL     1      -4.199   2.599  15.797  1.00  0.00     0.044 A 
HETATM    6  C10 UNL     1      -5.503   2.396  16.153  1.00  0.00     0.121 A 
HETATM    7  S2  UNL     1      -6.341   3.520  15.158  1.00  0.00    -0.062 SA
HETATM    8  C11 UNL     1      -5.016   4.198  14.337  1.00  0.00     0.131 A 
HETATM    9  S3  UNL     1      -4.756   5.440  13.093  1.00  0.00     0.272 S 
HETATM   10  O5  UNL     1      -5.840   6.451  13.142  1.00  0.00    -0.199 OA
HETATM   11  O6  UNL     1      -4.753   4.813  11.735  1.00  0.00    -0.199 OA
ENDROOT
BRANCH   1  12
HETATM   12  C5  UNL     1      -2.671   7.248  12.813  1.00  0.00     0.045 A 
HETATM   13  C4  UNL     1      -2.798   8.541  13.282  1.00  0.00     0.033 A 
HETATM   14  C3  UNL     1      -2.268   9.623  12.606  1.00  0.00     0.039 A 
HETATM   15  C2  UNL     1      -1.581   9.459  11.424  1.00  0.00     0.068 A 
HETATM   16  C13 UNL     1      -1.444   8.174  10.944  1.00  0.00     0.039 A 
HETATM   17  C12 UNL     1      -1.981   7.085  11.629  1.00  0.00     0.033 A 
BRANCH  15  18
HETATM   18  O1  UNL     1      -1.037  10.541  10.726  1.00  0.00    -0.356 OA
HETATM   19  C1  UNL     1      -1.285  11.872  11.052  1.00  0.00     0.210 C 
ENDBRANCH  15  18
ENDBRANCH   1  12
BRANCH   3  20
HETATM   20  O2  UNL     1      -2.649   3.727  12.904  1.00  0.00    -0.389 OA
ATOM     21  H2  UNL     1      -1.997   3.081  12.657  1.00  0.00     0.210 HD
ENDBRANCH   3  20
BRANCH   6  22
HETATM   22  S1  UNL     1      -6.172   1.262  17.341  1.00  0.00     0.263 S 
HETATM   23  O3  UNL     1      -7.376   0.564  16.776  1.00  0.00    -0.200 OA
HETATM   24  O4  UNL     1      -5.096   0.253  17.619  1.00  0.00    -0.200 OA
BRANCH  22  25
HETATM   25  N2  UNL     1      -6.567   2.185  18.741  1.00  0.00    -0.324 N 
ATOM     26  H22 UNL     1      -5.900   2.584  19.401  1.00  0.00     0.169 HD
ATOM     27  H21 UNL     1      -7.584   2.250  18.774  1.00  0.00     0.169 HD
ENDBRANCH  22  25
ENDBRANCH   6  22
TORSDOF 5
ENDMDL
