MODEL 11
REMARK VINA RESULT: -6.446132837      2.889      7.724
REMARK  5 active torsions:
REMARK  status: ('A' for Active; 'I' for Inactive)
REMARK    1  A    between atoms: N1_1  and  S1_4 
REMARK    2  A    between atoms: S1_4  and  C1_7 
REMARK    3  A    between atoms: N2_15  and  C5_16 
REMARK    4  A    between atoms: C5_16  and  C6_17 
REMARK    5  A    between atoms: C11_23  and  O5_24 
ROOT
HETATM    1  C1  UNL     1      -2.808   5.596  10.104  1.00  0.00     0.121 A 
HETATM    2  C2  UNL     1      -2.213   5.556  11.338  1.00  0.00     0.044 A 
HETATM    3  C3  UNL     1      -2.693   4.658  12.221  1.00  0.00     0.003 A 
HETATM    4  C4  UNL     1      -3.728   3.870  11.809  1.00  0.00     0.125 A 
HETATM    5  S2  UNL     1      -4.008   4.390  10.215  1.00  0.00    -0.063 SA
HETATM    6  S3  UNL     1      -4.359   2.691  12.966  1.00  0.00     0.251 S 
HETATM    7  O3  UNL     1      -3.413   1.516  12.950  1.00  0.00    -0.205 OA
HETATM    8  O4  UNL     1      -5.716   2.268  12.553  1.00  0.00    -0.205 OA
HETATM    9  N2  UNL     1      -4.344   3.434  14.547  1.00  0.00    -0.199 NA
HETATM   10  C10 UNL     1      -3.506   4.631  14.498  1.00  0.00     0.144 C 
HETATM   11  C11 UNL     1      -2.260   4.365  13.652  1.00  0.00     0.167 C 
ENDROOT
BRANCH   1  12
HETATM   12  S1  UNL     1      -2.400   6.661   8.744  1.00  0.00     0.263 S 
HETATM   13  O1  UNL     1      -3.278   6.308   7.595  1.00  0.00    -0.200 OA
HETATM   14  O2  UNL     1      -0.930   6.461   8.403  1.00  0.00    -0.200 OA
BRANCH  12  15
HETATM   15  N1  UNL     1      -2.573   8.299   9.246  1.00  0.00    -0.324 N 
ATOM     16  H12 UNL     1      -2.294   9.086   8.660  1.00  0.00     0.169 HD
ATOM     17  H11 UNL     1      -2.977   8.390  10.178  1.00  0.00     0.169 HD
ENDBRANCH  12  15
ENDBRANCH   1  12
BRANCH  11  18
HETATM   18  O5  UNL     1      -1.196   5.147  14.021  1.00  0.00    -0.390 OA
ATOM     19  H5  UNL     1      -1.393   6.071  13.917  1.00  0.00     0.210 HD
ENDBRANCH  11  18
BRANCH   9  20
HETATM   20  C5  UNL     1      -3.915   2.517  15.553  1.00  0.00     0.153 C 
BRANCH  20  21
HETATM   21  C6  UNL     1      -5.118   1.975  16.280  1.00  0.00    -0.004 A 
HETATM   22  C7  UNL     1      -5.238   0.807  16.983  1.00  0.00     0.016 A 
HETATM   23  C8  UNL     1      -6.425   0.547  17.545  1.00  0.00     0.008 A 
HETATM   24  C9  UNL     1      -7.422   1.469  17.371  1.00  0.00     0.050 A 
HETATM   25  S4  UNL     1      -6.665   2.671  16.425  1.00  0.00    -0.105 SA
ENDBRANCH  20  21
ENDBRANCH   9  20
TORSDOF 5
ENDMDL
