MODEL 17
REMARK VINA RESULT: -6.402690123      2.678      7.821
REMARK  5 active torsions:
REMARK  status: ('A' for Active; 'I' for Inactive)
REMARK    1  A    between atoms: N1_1  and  S1_4 
REMARK    2  A    between atoms: S1_4  and  C1_7 
REMARK    3  A    between atoms: N2_15  and  C5_16 
REMARK    4  A    between atoms: C5_16  and  C6_17 
REMARK    5  A    between atoms: C11_23  and  O5_24 
ROOT
HETATM    1  C1  UNL     1      -4.393   5.662   9.409  1.00  0.00     0.121 A 
HETATM    2  C2  UNL     1      -4.916   6.103  10.596  1.00  0.00     0.044 A 
HETATM    3  C3  UNL     1      -4.640   5.374  11.696  1.00  0.00     0.003 A 
HETATM    4  C4  UNL     1      -3.866   4.262  11.529  1.00  0.00     0.125 A 
HETATM    5  S2  UNL     1      -3.541   4.256   9.861  1.00  0.00    -0.063 SA
HETATM    6  S3  UNL     1      -3.503   3.303  12.970  1.00  0.00     0.251 S 
HETATM    7  O3  UNL     1      -2.387   4.013  13.695  1.00  0.00    -0.205 OA
HETATM    8  O4  UNL     1      -3.076   1.945  12.567  1.00  0.00    -0.205 OA
HETATM    9  N2  UNL     1      -4.934   3.283  13.973  1.00  0.00    -0.199 NA
HETATM   10  C10 UNL     1      -5.847   4.328  13.511  1.00  0.00     0.144 C 
HETATM   11  C11 UNL     1      -5.062   5.587  13.144  1.00  0.00     0.167 C 
ENDROOT
BRANCH   1  12
HETATM   12  S1  UNL     1      -4.580   6.405   7.808  1.00  0.00     0.263 S 
HETATM   13  O1  UNL     1      -3.528   5.851   6.912  1.00  0.00    -0.200 OA
HETATM   14  O2  UNL     1      -4.444   7.913   7.959  1.00  0.00    -0.200 OA
BRANCH  12  15
HETATM   15  N1  UNL     1      -6.176   6.106   7.236  1.00  0.00    -0.324 N 
ATOM     16  H12 UNL     1      -6.413   5.295   6.665  1.00  0.00     0.169 HD
ATOM     17  H11 UNL     1      -6.844   6.820   7.527  1.00  0.00     0.169 HD
ENDBRANCH  12  15
ENDBRANCH   1  12
BRANCH  11  18
HETATM   18  O5  UNL     1      -5.805   6.732  13.283  1.00  0.00    -0.390 OA
ATOM     19  H5  UNL     1      -5.415   7.322  13.917  1.00  0.00     0.210 HD
ENDBRANCH  11  18
BRANCH   9  20
HETATM   20  C5  UNL     1      -4.608   3.426  15.355  1.00  0.00     0.153 C 
BRANCH  20  21
HETATM   21  C6  UNL     1      -5.421   2.448  16.161  1.00  0.00    -0.004 A 
HETATM   22  C7  UNL     1      -6.636   2.638  16.763  1.00  0.00     0.016 A 
HETATM   23  C8  UNL     1      -7.160   1.603  17.430  1.00  0.00     0.008 A 
HETATM   24  C9  UNL     1      -6.440   0.438  17.458  1.00  0.00     0.050 A 
HETATM   25  S4  UNL     1      -5.051   0.832  16.548  1.00  0.00    -0.105 SA
ENDBRANCH  20  21
ENDBRANCH   9  20
TORSDOF 5
ENDMDL
