MODEL 10
REMARK VINA RESULT: -6.560081074      2.860      7.717
REMARK  5 active torsions:
REMARK  status: ('A' for Active; 'I' for Inactive)
REMARK    1  A    between atoms: N1_1  and  S1_4 
REMARK    2  A    between atoms: S1_4  and  C1_7 
REMARK    3  A    between atoms: N2_15  and  C5_16 
REMARK    4  A    between atoms: C5_16  and  C6_17 
REMARK    5  A    between atoms: C11_23  and  O5_24 
ROOT
HETATM    1  C1  UNL     1      -2.831   5.371   9.936  1.00  0.00     0.121 A 
HETATM    2  C2  UNL     1      -2.205   5.391  11.154  1.00  0.00     0.044 A 
HETATM    3  C3  UNL     1      -2.684   4.562  12.103  1.00  0.00     0.003 A 
HETATM    4  C4  UNL     1      -3.749   3.777  11.767  1.00  0.00     0.125 A 
HETATM    5  S2  UNL     1      -4.058   4.206  10.151  1.00  0.00    -0.063 SA
HETATM    6  S3  UNL     1      -4.379   2.689  13.010  1.00  0.00     0.251 S 
HETATM    7  O3  UNL     1      -3.463   1.491  13.044  1.00  0.00    -0.205 OA
HETATM    8  O4  UNL     1      -5.756   2.277  12.657  1.00  0.00    -0.205 OA
HETATM    9  N2  UNL     1      -4.304   3.527  14.541  1.00  0.00    -0.199 NA
HETATM   10  C10 UNL     1      -3.438   4.697  14.396  1.00  0.00     0.144 C 
HETATM   11  C11 UNL     1      -2.222   4.346  13.538  1.00  0.00     0.167 C 
ENDROOT
BRANCH   1  12
HETATM   12  S1  UNL     1      -2.432   6.339   8.502  1.00  0.00     0.263 S 
HETATM   13  O1  UNL     1      -1.069   6.908   8.689  1.00  0.00    -0.200 OA
HETATM   14  O2  UNL     1      -3.478   7.435   8.357  1.00  0.00    -0.200 OA
BRANCH  12  15
HETATM   15  N1  UNL     1      -2.560   5.344   7.103  1.00  0.00    -0.324 N 
ATOM     16  H12 UNL     1      -1.939   5.442   6.300  1.00  0.00     0.169 HD
ATOM     17  H11 UNL     1      -3.313   4.659   7.168  1.00  0.00     0.169 HD
ENDBRANCH  12  15
ENDBRANCH   1  12
BRANCH  11  18
HETATM   18  O5  UNL     1      -1.129   5.121  13.832  1.00  0.00    -0.390 OA
ATOM     19  H5  UNL     1      -0.334   4.601  13.859  1.00  0.00     0.210 HD
ENDBRANCH  11  18
BRANCH   9  20
HETATM   20  C5  UNL     1      -3.871   2.663  15.591  1.00  0.00     0.153 C 
BRANCH  20  21
HETATM   21  C6  UNL     1      -5.075   2.067  16.273  1.00  0.00    -0.004 A 
HETATM   22  C7  UNL     1      -5.173   0.886  16.956  1.00  0.00     0.016 A 
HETATM   23  C8  UNL     1      -6.365   0.573  17.478  1.00  0.00     0.008 A 
HETATM   24  C9  UNL     1      -7.391   1.461  17.287  1.00  0.00     0.050 A 
HETATM   25  S4  UNL     1      -6.650   2.704  16.381  1.00  0.00    -0.105 SA
ENDBRANCH  20  21
ENDBRANCH   9  20
TORSDOF 5
ENDMDL
