MODEL 11
REMARK VINA RESULT: -6.465044455      3.417      4.449
REMARK  5 active torsions:
REMARK  status: ('A' for Active; 'I' for Inactive)
REMARK    1  A    between atoms: N1_2  and  C2_4 
REMARK    2  A    between atoms: N2_6  and  C4_7 
REMARK    3  A    between atoms: C8_11  and  O1_12 
REMARK    4  A    between atoms: C12_20  and  S3_21 
REMARK    5  A    between atoms: S3_21  and  N3_22 
ROOT
HETATM    1  C2  UNL     1      -2.710   5.236  13.337  1.00  0.00     0.130 C 
HETATM    2  C3  UNL     1      -1.898   5.207  12.091  1.00  0.00     0.171 C 
HETATM    3  N2  UNL     1      -2.600   5.076  10.870  1.00  0.00    -0.269 N 
HETATM    4  S1  UNL     1      -4.227   4.441  10.900  1.00  0.00     0.272 S 
HETATM    5  O2  UNL     1      -4.439   3.452   9.793  1.00  0.00    -0.199 OA
HETATM    6  O3  UNL     1      -5.254   5.523  10.835  1.00  0.00    -0.199 OA
HETATM    7  C11 UNL     1      -4.275   3.590  12.461  1.00  0.00     0.130 A 
HETATM    8  S2  UNL     1      -5.094   2.213  13.013  1.00  0.00    -0.062 SA
HETATM    9  C12 UNL     1      -4.509   2.168  14.609  1.00  0.00     0.121 A 
HETATM   10  C13 UNL     1      -3.671   3.252  14.671  1.00  0.00     0.044 A 
HETATM   11  C14 UNL     1      -3.552   3.996  13.541  1.00  0.00    -0.002 A 
ENDROOT
BRANCH   3  12
HETATM   12  C4  UNL     1      -2.015   5.434   9.641  1.00  0.00     0.048 A 
HETATM   13  C5  UNL     1      -2.220   6.702   9.076  1.00  0.00     0.030 A 
HETATM   14  C6  UNL     1      -1.663   7.079   7.877  1.00  0.00     0.005 A 
HETATM   15  C7  UNL     1      -0.868   6.216   7.167  1.00  0.00     0.037 A 
HETATM   16  C8  UNL     1      -0.646   4.963   7.694  1.00  0.00     0.070 A 
HETATM   17  C10 UNL     1      -1.211   4.587   8.906  1.00  0.00     0.067 A 
BRANCH  16  18
HETATM   18  O1  UNL     1       0.156   4.092   6.978  1.00  0.00    -0.356 OA
HETATM   19  C9  UNL     1       1.375   4.482   6.423  1.00  0.00     0.210 C 
ENDBRANCH  16  18
ENDBRANCH   3  12
BRANCH   1  20
HETATM   20  N1  UNL     1      -3.525   6.384  13.549  1.00  0.00    -0.416 N 
HETATM   21  C1  UNL     1      -3.227   7.186  14.689  1.00  0.00     0.140 C 
ATOM     22  H1  UNL     1      -4.288   6.622  12.914  1.00  0.00     0.153 HD
ENDBRANCH   1  20
BRANCH   9  23
HETATM   23  S3  UNL     1      -4.870   1.015  15.912  1.00  0.00     0.263 S 
HETATM   24  O4  UNL     1      -5.141  -0.298  15.228  1.00  0.00    -0.200 OA
HETATM   25  O5  UNL     1      -3.727   0.871  16.842  1.00  0.00    -0.200 OA
BRANCH  23  26
HETATM   26  N3  UNL     1      -6.259   1.475  16.775  1.00  0.00    -0.324 N 
ATOM     27  H32 UNL     1      -6.238   2.087  17.591  1.00  0.00     0.169 HD
ATOM     28  H31 UNL     1      -7.100   1.061  16.371  1.00  0.00     0.169 HD
ENDBRANCH  23  26
ENDBRANCH   9  23
TORSDOF 5
ENDMDL
