MODEL 6
REMARK VINA RESULT: -6.982089583      3.675      5.300
REMARK  5 active torsions:
REMARK  status: ('A' for Active; 'I' for Inactive)
REMARK    1  A    between atoms: N1_2  and  C2_4 
REMARK    2  A    between atoms: N2_6  and  C4_7 
REMARK    3  A    between atoms: C8_11  and  O1_12 
REMARK    4  A    between atoms: C12_20  and  S3_21 
REMARK    5  A    between atoms: S3_21  and  N3_22 
ROOT
HETATM    1  C2  UNL     1      -3.967   4.550  13.599  1.00  0.00     0.130 C 
HETATM    2  C3  UNL     1      -2.579   4.617  13.068  1.00  0.00     0.171 C 
HETATM    3  N2  UNL     1      -2.257   3.746  12.000  1.00  0.00    -0.269 N 
HETATM    4  S1  UNL     1      -3.258   2.338  11.735  1.00  0.00     0.272 S 
HETATM    5  O2  UNL     1      -2.418   1.129  11.447  1.00  0.00    -0.199 OA
HETATM    6  O3  UNL     1      -4.252   2.553  10.642  1.00  0.00    -0.199 OA
HETATM    7  C11 UNL     1      -4.055   2.135  13.311  1.00  0.00     0.130 A 
HETATM    8  S2  UNL     1      -4.607   0.783  14.172  1.00  0.00    -0.062 SA
HETATM    9  C12 UNL     1      -5.203   1.566  15.559  1.00  0.00     0.121 A 
HETATM   10  C13 UNL     1      -4.951   2.890  15.309  1.00  0.00     0.044 A 
HETATM   11  C14 UNL     1      -4.349   3.185  14.127  1.00  0.00    -0.002 A 
ENDROOT
BRANCH   3  12
HETATM   12  C4  UNL     1      -1.152   3.982  11.163  1.00  0.00     0.048 A 
HETATM   13  C5  UNL     1       0.162   3.779  11.613  1.00  0.00     0.030 A 
HETATM   14  C6  UNL     1       1.262   4.002  10.819  1.00  0.00     0.005 A 
HETATM   15  C7  UNL     1       1.121   4.442   9.528  1.00  0.00     0.037 A 
HETATM   16  C8  UNL     1      -0.156   4.652   9.055  1.00  0.00     0.070 A 
HETATM   17  C10 UNL     1      -1.264   4.424   9.861  1.00  0.00     0.067 A 
BRANCH  16  18
HETATM   18  O1  UNL     1      -0.299   5.096   7.752  1.00  0.00    -0.356 OA
HETATM   19  C9  UNL     1      -0.166   4.248   6.653  1.00  0.00     0.210 C 
ENDBRANCH  16  18
ENDBRANCH   3  12
BRANCH   1  20
HETATM   20  N1  UNL     1      -5.007   5.021  12.749  1.00  0.00    -0.416 N 
HETATM   21  C1  UNL     1      -5.751   6.150  13.202  1.00  0.00     0.140 C 
ATOM     22  H1  UNL     1      -5.211   4.571  11.856  1.00  0.00     0.153 HD
ENDBRANCH   1  20
BRANCH   9  23
HETATM   23  S3  UNL     1      -5.972   0.875  17.003  1.00  0.00     0.263 S 
HETATM   24  O4  UNL     1      -5.866  -0.618  16.845  1.00  0.00    -0.200 OA
HETATM   25  O5  UNL     1      -5.282   1.299  18.243  1.00  0.00    -0.200 OA
BRANCH  23  26
HETATM   26  N3  UNL     1      -7.616   1.297  17.088  1.00  0.00    -0.324 N 
ATOM     27  H32 UNL     1      -8.191   1.490  16.268  1.00  0.00     0.169 HD
ATOM     28  H31 UNL     1      -7.940   1.329  18.055  1.00  0.00     0.169 HD
ENDBRANCH  23  26
ENDBRANCH   9  23
TORSDOF 5
ENDMDL
