MODEL 8
REMARK VINA RESULT: -6.743320319      3.734      7.463
REMARK  5 active torsions:
REMARK  status: ('A' for Active; 'I' for Inactive)
REMARK    1  A    between atoms: N1_2  and  C2_4 
REMARK    2  A    between atoms: N2_6  and  C4_7 
REMARK    3  A    between atoms: C8_11  and  O1_12 
REMARK    4  A    between atoms: C12_20  and  S3_21 
REMARK    5  A    between atoms: S3_21  and  N3_22 
ROOT
HETATM    1  C2  UNL     1      -3.618   3.890  10.780  1.00  0.00     0.130 C 
HETATM    2  C3  UNL     1      -4.133   3.120  11.945  1.00  0.00     0.171 C 
HETATM    3  N2  UNL     1      -4.071   3.751  13.210  1.00  0.00    -0.269 N 
HETATM    4  S1  UNL     1      -2.964   5.085  13.429  1.00  0.00     0.272 S 
HETATM    5  O2  UNL     1      -2.240   4.974  14.738  1.00  0.00    -0.199 OA
HETATM    6  O3  UNL     1      -3.652   6.407  13.325  1.00  0.00    -0.199 OA
HETATM    7  C11 UNL     1      -1.809   4.845  12.099  1.00  0.00     0.130 A 
HETATM    8  S2  UNL     1      -0.156   5.173  11.918  1.00  0.00    -0.062 SA
HETATM    9  C12 UNL     1       0.066   4.593  10.335  1.00  0.00     0.121 A 
HETATM   10  C13 UNL     1      -1.182   4.150   9.981  1.00  0.00     0.044 A 
HETATM   11  C14 UNL     1      -2.164   4.285  10.910  1.00  0.00    -0.002 A 
ENDROOT
BRANCH   3  12
HETATM   12  C4  UNL     1      -4.866   3.321  14.288  1.00  0.00     0.048 A 
HETATM   13  C5  UNL     1      -5.807   4.172  14.886  1.00  0.00     0.030 A 
HETATM   14  C6  UNL     1      -6.597   3.782  15.941  1.00  0.00     0.005 A 
HETATM   15  C7  UNL     1      -6.497   2.518  16.465  1.00  0.00     0.037 A 
HETATM   16  C8  UNL     1      -5.582   1.657  15.901  1.00  0.00     0.070 A 
HETATM   17  C10 UNL     1      -4.787   2.057  14.835  1.00  0.00     0.067 A 
BRANCH  16  18
HETATM   18  O1  UNL     1      -5.481   0.382  16.429  1.00  0.00    -0.356 OA
HETATM   19  C9  UNL     1      -5.975   0.053  17.692  1.00  0.00     0.210 C 
ENDBRANCH  16  18
ENDBRANCH   3  12
BRANCH   1  20
HETATM   20  N1  UNL     1      -4.370   5.030  10.378  1.00  0.00    -0.416 N 
HETATM   21  C1  UNL     1      -4.716   5.122   8.998  1.00  0.00     0.140 C 
ATOM     22  H1  UNL     1      -4.648   5.749  11.046  1.00  0.00     0.153 HD
ENDBRANCH   1  20
BRANCH   9  23
HETATM   23  S3  UNL     1       1.540   4.553   9.344  1.00  0.00     0.263 S 
HETATM   24  O4  UNL     1       2.388   3.452   9.921  1.00  0.00    -0.200 OA
HETATM   25  O5  UNL     1       1.234   4.261   7.925  1.00  0.00    -0.200 OA
BRANCH  23  26
HETATM   26  N3  UNL     1       2.399   6.016   9.456  1.00  0.00    -0.324 N 
ATOM     27  H32 UNL     1       2.392   6.611  10.285  1.00  0.00     0.169 HD
ATOM     28  H31 UNL     1       2.912   6.211   8.596  1.00  0.00     0.169 HD
ENDBRANCH  23  26
ENDBRANCH   9  23
TORSDOF 5
ENDMDL
