MODEL 1
REMARK VINA RESULT: -7.194269027      0.000      0.000
REMARK  6 active torsions:
REMARK  status: ('A' for Active; 'I' for Inactive)
REMARK    1  A    between atoms: N1_1  and  S1_4 
REMARK    2  A    between atoms: S1_4  and  C1_7 
REMARK    3  A    between atoms: C4_10  and  S2_11 
REMARK    4  A    between atoms: S2_11  and  N2_14 
REMARK    5  A    between atoms: N2_14  and  C5_16 
REMARK    6  A    between atoms: C5_16  and  C6_17 
ROOT
HETATM    1  C1  UNL     1      -5.737   2.321  16.152  1.00  0.00     0.121 A 
HETATM    2  C2  UNL     1      -6.327   3.469  15.707  1.00  0.00     0.035 A 
HETATM    3  C3  UNL     1      -5.614   4.256  14.887  1.00  0.00     0.035 A 
HETATM    4  C4  UNL     1      -4.349   3.851  14.559  1.00  0.00     0.121 A 
HETATM    5  S4  UNL     1      -4.205   2.363  15.422  1.00  0.00    -0.063 SA
ENDROOT
BRANCH   4   6
HETATM    6  S2  UNL     1      -3.146   4.599  13.503  1.00  0.00     0.265 S 
HETATM    7  O3  UNL     1      -3.946   5.229  12.371  1.00  0.00    -0.200 OA
HETATM    8  O4  UNL     1      -2.385   5.662  14.246  1.00  0.00    -0.200 OA
BRANCH   6   9
HETATM    9  N2  UNL     1      -2.089   3.467  12.808  1.00  0.00    -0.310 N 
ATOM     10  H2  UNL     1      -1.314   3.047  13.321  1.00  0.00     0.172 HD
BRANCH   9  11
HETATM   11  C5  UNL     1      -2.376   3.150  11.446  1.00  0.00     0.178 C 
BRANCH  11  12
HETATM   12  C6  UNL     1      -3.047   1.804  11.399  1.00  0.00     0.001 A 
HETATM   13  C7  UNL     1      -2.476   0.573  11.242  1.00  0.00     0.017 A 
HETATM   14  C8  UNL     1      -3.299  -0.488  11.235  1.00  0.00     0.008 A 
HETATM   15  C9  UNL     1      -4.638  -0.251  11.384  1.00  0.00     0.050 A 
HETATM   16  S3  UNL     1      -4.707   1.449  11.531  1.00  0.00    -0.105 SA
ENDBRANCH  11  12
ENDBRANCH   9  11
ENDBRANCH   6   9
ENDBRANCH   4   6
BRANCH   1  17
HETATM   17  S1  UNL     1      -6.401   1.089  17.226  1.00  0.00     0.263 S 
HETATM   18  O1  UNL     1      -5.602  -0.175  17.135  1.00  0.00    -0.200 OA
HETATM   19  O2  UNL     1      -7.838   0.884  16.896  1.00  0.00    -0.200 OA
BRANCH  17  20
HETATM   20  N1  UNL     1      -6.300   1.652  18.861  1.00  0.00    -0.324 N 
ATOM     21  H12 UNL     1      -6.193   1.061  19.685  1.00  0.00     0.169 HD
ATOM     22  H11 UNL     1      -6.366   2.671  18.839  1.00  0.00     0.169 HD
ENDBRANCH  17  20
ENDBRANCH   1  17
TORSDOF 6
ENDMDL
