MODEL 5
REMARK VINA RESULT: -6.646972073      4.137      5.153
REMARK  6 active torsions:
REMARK  status: ('A' for Active; 'I' for Inactive)
REMARK    1  A    between atoms: N1_1  and  S1_4 
REMARK    2  A    between atoms: S1_4  and  C1_7 
REMARK    3  A    between atoms: C4_10  and  S2_11 
REMARK    4  A    between atoms: S2_11  and  N2_14 
REMARK    5  A    between atoms: N2_14  and  C5_16 
REMARK    6  A    between atoms: C5_16  and  C6_17 
ROOT
HETATM    1  C1  UNL     1      -4.382   1.730  13.974  1.00  0.00     0.121 A 
HETATM    2  C2  UNL     1      -4.490   1.077  12.780  1.00  0.00     0.035 A 
HETATM    3  C3  UNL     1      -4.257   1.782  11.663  1.00  0.00     0.035 A 
HETATM    4  C4  UNL     1      -3.928   3.103  11.803  1.00  0.00     0.121 A 
HETATM    5  S4  UNL     1      -3.959   3.309  13.516  1.00  0.00    -0.063 SA
ENDROOT
BRANCH   4   6
HETATM    6  S2  UNL     1      -3.531   4.318  10.583  1.00  0.00     0.265 S 
HETATM    7  O3  UNL     1      -2.713   5.370  11.321  1.00  0.00    -0.200 OA
HETATM    8  O4  UNL     1      -2.709   3.707   9.483  1.00  0.00    -0.200 OA
BRANCH   6   9
HETATM    9  N2  UNL     1      -4.906   5.093   9.958  1.00  0.00    -0.310 N 
ATOM     10  H2  UNL     1      -5.434   4.728   9.166  1.00  0.00     0.172 HD
BRANCH   9  11
HETATM   11  C5  UNL     1      -5.263   6.298  10.634  1.00  0.00     0.178 C 
BRANCH  11  12
HETATM   12  C6  UNL     1      -6.434   6.918   9.921  1.00  0.00     0.001 A 
HETATM   13  C7  UNL     1      -7.034   6.517   8.761  1.00  0.00     0.017 A 
HETATM   14  C8  UNL     1      -8.074   7.246   8.326  1.00  0.00     0.008 A 
HETATM   15  C9  UNL     1      -8.447   8.328   9.076  1.00  0.00     0.050 A 
HETATM   16  S3  UNL     1      -7.333   8.293  10.369  1.00  0.00    -0.105 SA
ENDBRANCH  11  12
ENDBRANCH   9  11
ENDBRANCH   6   9
ENDBRANCH   4   6
BRANCH   1  17
HETATM   17  S1  UNL     1      -4.623   1.093  15.601  1.00  0.00     0.263 S 
HETATM   18  O1  UNL     1      -3.400   1.312  16.438  1.00  0.00    -0.200 OA
HETATM   19  O2  UNL     1      -5.002  -0.343  15.507  1.00  0.00    -0.200 OA
BRANCH  17  20
HETATM   20  N1  UNL     1      -5.929   1.946  16.353  1.00  0.00    -0.324 N 
ATOM     21  H12 UNL     1      -6.257   1.803  17.308  1.00  0.00     0.169 HD
ATOM     22  H11 UNL     1      -6.298   2.607  15.669  1.00  0.00     0.169 HD
ENDBRANCH  17  20
ENDBRANCH   1  17
TORSDOF 6
ENDMDL
