MODEL 3
REMARK VINA RESULT: -6.885113362      3.480      5.434
REMARK  6 active torsions:
REMARK  status: ('A' for Active; 'I' for Inactive)
REMARK    1  A    between atoms: N1_1  and  S1_4 
REMARK    2  A    between atoms: S1_4  and  C1_7 
REMARK    3  A    between atoms: C4_10  and  S2_11 
REMARK    4  A    between atoms: S2_11  and  N2_14 
REMARK    5  A    between atoms: N2_14  and  C5_16 
REMARK    6  A    between atoms: C5_16  and  C6_17 
ROOT
HETATM    1  C1  UNL     1      -5.269   2.427  15.305  1.00  0.00     0.121 A 
HETATM    2  C2  UNL     1      -6.248   3.286  15.715  1.00  0.00     0.035 A 
HETATM    3  C3  UNL     1      -6.400   4.428  15.028  1.00  0.00     0.035 A 
HETATM    4  C4  UNL     1      -5.563   4.648  13.968  1.00  0.00     0.121 A 
HETATM    5  S4  UNL     1      -4.582   3.228  13.975  1.00  0.00    -0.063 SA
ENDROOT
BRANCH   4   6
HETATM    6  S2  UNL     1      -5.486   6.000  12.833  1.00  0.00     0.265 S 
HETATM    7  O3  UNL     1      -5.086   5.380  11.501  1.00  0.00    -0.200 OA
HETATM    8  O4  UNL     1      -6.832   6.657  12.709  1.00  0.00    -0.200 OA
BRANCH   6   9
HETATM    9  N2  UNL     1      -4.291   7.133  13.244  1.00  0.00    -0.310 N 
ATOM     10  H2  UNL     1      -4.076   7.945  12.664  1.00  0.00     0.172 HD
BRANCH   9  11
HETATM   11  C5  UNL     1      -3.610   6.856  14.467  1.00  0.00     0.178 C 
BRANCH  11  12
HETATM   12  C6  UNL     1      -2.580   7.929  14.695  1.00  0.00     0.001 A 
HETATM   13  C7  UNL     1      -2.350   8.664  15.823  1.00  0.00     0.017 A 
HETATM   14  C8  UNL     1      -1.360   9.569  15.773  1.00  0.00     0.008 A 
HETATM   15  C9  UNL     1      -0.664   9.683  14.601  1.00  0.00     0.050 A 
HETATM   16  S3  UNL     1      -1.414   8.518  13.603  1.00  0.00    -0.105 SA
ENDBRANCH  11  12
ENDBRANCH   9  11
ENDBRANCH   6   9
ENDBRANCH   4   6
BRANCH   1  17
HETATM   17  S1  UNL     1      -4.820   0.864  15.988  1.00  0.00     0.263 S 
HETATM   18  O1  UNL     1      -3.431   0.913  16.546  1.00  0.00    -0.200 OA
HETATM   19  O2  UNL     1      -4.982  -0.184  14.944  1.00  0.00    -0.200 OA
BRANCH  17  20
HETATM   20  N1  UNL     1      -5.893   0.492  17.295  1.00  0.00    -0.324 N 
ATOM     21  H12 UNL     1      -5.805   0.837  18.251  1.00  0.00     0.169 HD
ATOM     22  H11 UNL     1      -6.617  -0.129  16.931  1.00  0.00     0.169 HD
ENDBRANCH  17  20
ENDBRANCH   1  17
TORSDOF 6
ENDMDL
