MODEL 4
REMARK VINA RESULT: -6.694735394      2.940      7.028
REMARK  6 active torsions:
REMARK  status: ('A' for Active; 'I' for Inactive)
REMARK    1  A    between atoms: N1_1  and  S1_4 
REMARK    2  A    between atoms: S1_4  and  C1_7 
REMARK    3  A    between atoms: C4_10  and  S2_11 
REMARK    4  A    between atoms: S2_11  and  N2_14 
REMARK    5  A    between atoms: N2_14  and  C5_16 
REMARK    6  A    between atoms: C5_16  and  C6_17 
ROOT
HETATM    1  C1  UNL     1      -0.863   3.337  11.019  1.00  0.00     0.121 A 
HETATM    2  C2  UNL     1      -0.995   1.989  10.843  1.00  0.00     0.035 A 
HETATM    3  C3  UNL     1      -2.136   1.419  11.254  1.00  0.00     0.035 A 
HETATM    4  C4  UNL     1      -3.084   2.228  11.820  1.00  0.00     0.121 A 
HETATM    5  S4  UNL     1      -2.328   3.779  11.752  1.00  0.00    -0.063 SA
ENDROOT
BRANCH   4   6
HETATM    6  S2  UNL     1      -4.692   1.844  12.442  1.00  0.00     0.265 S 
HETATM    7  O3  UNL     1      -5.609   1.882  11.226  1.00  0.00    -0.200 OA
HETATM    8  O4  UNL     1      -4.705   0.470  13.050  1.00  0.00    -0.200 OA
BRANCH   6   9
HETATM    9  N2  UNL     1      -5.263   3.004  13.543  1.00  0.00    -0.310 N 
ATOM     10  H2  UNL     1      -6.031   3.639  13.327  1.00  0.00     0.172 HD
BRANCH   9  11
HETATM   11  C5  UNL     1      -4.578   3.016  14.795  1.00  0.00     0.178 C 
BRANCH  11  12
HETATM   12  C6  UNL     1      -5.452   2.351  15.824  1.00  0.00     0.001 A 
HETATM   13  C7  UNL     1      -6.614   2.808  16.378  1.00  0.00     0.017 A 
HETATM   14  C8  UNL     1      -7.213   2.019  17.284  1.00  0.00     0.008 A 
HETATM   15  C9  UNL     1      -6.612   0.825  17.579  1.00  0.00     0.050 A 
HETATM   16  S3  UNL     1      -5.228   0.842  16.579  1.00  0.00    -0.105 SA
ENDBRANCH  11  12
ENDBRANCH   9  11
ENDBRANCH   6   9
ENDBRANCH   4   6
BRANCH   1  17
HETATM   17  S1  UNL     1       0.499   4.373  10.589  1.00  0.00     0.263 S 
HETATM   18  O1  UNL     1       0.023   5.752  10.247  1.00  0.00    -0.200 OA
HETATM   19  O2  UNL     1       1.259   3.737   9.480  1.00  0.00    -0.200 OA
BRANCH  17  20
HETATM   20  N1  UNL     1       1.555   4.511  11.955  1.00  0.00    -0.324 N 
ATOM     21  H12 UNL     1       2.140   5.318  12.172  1.00  0.00     0.169 HD
ATOM     22  H11 UNL     1       1.480   3.646  12.490  1.00  0.00     0.169 HD
ENDBRANCH  17  20
ENDBRANCH   1  17
TORSDOF 6
ENDMDL
