MODEL 2
REMARK VINA RESULT: -7.017161385      3.048      5.034
REMARK  5 active torsions:
REMARK  status: ('A' for Active; 'I' for Inactive)
REMARK    1  A    between atoms: N1_5  and  C4_6 
REMARK    2  A    between atoms: C6_8  and  O2_9 
REMARK    3  A    between atoms: C7_11  and  C8_12 
REMARK    4  A    between atoms: C8_12  and  O3_13 
REMARK    5  A    between atoms: O3_13  and  P1_14 
ROOT
HETATM    1  C4  UNL     1      13.477  49.152 -51.704  1.00  0.00     0.235 C 
HETATM    2  C5  UNL     1      12.829  49.201 -53.067  1.00  0.00     0.088 C 
HETATM    3  C6  UNL     1      13.669  48.154 -53.775  1.00  0.00     0.153 C 
HETATM    4  C7  UNL     1      15.024  48.420 -53.143  1.00  0.00     0.177 C 
HETATM    5  O7  UNL     1      14.817  49.118 -51.986  1.00  0.00    -0.356 OA
ENDROOT
BRANCH   1   6
HETATM    6  N1  UNL     1      13.079  50.220 -50.843  1.00  0.00    -0.282 N 
HETATM    7  C3  UNL     1      12.702  51.393 -51.387  1.00  0.00     0.104 A 
HETATM    8  C2  UNL     1      12.303  52.479 -50.646  1.00  0.00     0.092 A 
HETATM    9  C1  UNL     1      12.298  52.333 -49.263  1.00  0.00     0.250 A 
HETATM   10  O1  UNL     1      11.947  53.277 -48.518  1.00  0.00    -0.268 OA
HETATM   11  N2  UNL     1      12.676  51.155 -48.721  1.00  0.00    -0.275 N 
HETATM   12  C9  UNL     1      13.054  50.135 -49.502  1.00  0.00     0.331 A 
ATOM     13  H2  UNL     1      12.674  51.041 -47.708  1.00  0.00     0.173 HD
HETATM   14  O8  UNL     1      13.415  49.012 -49.015  1.00  0.00    -0.246 OA
ENDBRANCH   1   6
BRANCH   3  15
HETATM   15  O2  UNL     1      13.160  46.911 -53.407  1.00  0.00    -0.393 OA
ATOM     16  H2  UNL     1      13.894  46.308 -53.386  1.00  0.00     0.210 HD
ENDBRANCH   3  15
BRANCH   4  17
HETATM   17  C8  UNL     1      15.807  49.269 -54.095  1.00  0.00     0.217 C 
BRANCH  17  18
HETATM   18  O3  UNL     1      15.295  49.302 -55.366  1.00  0.00    -0.280 OA
BRANCH  18  19
HETATM   19  P1  UNL     1      16.136  48.761 -56.599  1.00  0.00     0.422 P 
HETATM   20  O4  UNL     1      15.110  47.737 -57.098  1.00  0.00    -0.617 OA
HETATM   21  O5  UNL     1      17.275  47.563 -56.437  1.00  0.00    -0.617 OA
HETATM   22  O6  UNL     1      16.037  49.506 -58.142  1.00  0.00    -0.617 OA
ENDBRANCH  18  19
ENDBRANCH  17  18
ENDBRANCH   4  17
TORSDOF 5
ENDMDL
