MODEL 6
REMARK VINA RESULT: -6.646331751      3.556      5.273
REMARK  5 active torsions:
REMARK  status: ('A' for Active; 'I' for Inactive)
REMARK    1  A    between atoms: N1_5  and  C4_6 
REMARK    2  A    between atoms: C6_8  and  O2_9 
REMARK    3  A    between atoms: C7_11  and  C8_12 
REMARK    4  A    between atoms: C8_12  and  O3_13 
REMARK    5  A    between atoms: O3_13  and  P1_14 
ROOT
HETATM    1  C4  UNL     1      18.519  50.188 -56.613  1.00  0.00     0.235 C 
HETATM    2  C5  UNL     1      17.457  50.488 -55.583  1.00  0.00     0.088 C 
HETATM    3  C6  UNL     1      16.303  49.709 -56.189  1.00  0.00     0.153 C 
HETATM    4  C7  UNL     1      16.562  49.945 -57.667  1.00  0.00     0.177 C 
HETATM    5  O7  UNL     1      17.864  50.339 -57.806  1.00  0.00    -0.356 OA
ENDROOT
BRANCH   1   6
HETATM    6  N1  UNL     1      19.693  50.991 -56.475  1.00  0.00    -0.282 N 
HETATM    7  C3  UNL     1      19.627  52.302 -56.776  1.00  0.00     0.104 A 
HETATM    8  C2  UNL     1      20.697  53.158 -56.677  1.00  0.00     0.092 A 
HETATM    9  C1  UNL     1      21.901  52.615 -56.241  1.00  0.00     0.250 A 
HETATM   10  O1  UNL     1      22.923  53.331 -56.124  1.00  0.00    -0.268 OA
HETATM   11  N2  UNL     1      21.964  51.300 -55.941  1.00  0.00    -0.275 N 
HETATM   12  C9  UNL     1      20.881  50.521 -56.059  1.00  0.00     0.331 A 
ATOM     13  H2  UNL     1      22.844  50.896 -55.621  1.00  0.00     0.173 HD
HETATM   14  O8  UNL     1      20.914  49.276 -55.781  1.00  0.00    -0.246 OA
ENDBRANCH   1   6
BRANCH   3  15
HETATM   15  O2  UNL     1      16.486  48.375 -55.836  1.00  0.00    -0.393 OA
ATOM     16  H2  UNL     1      16.209  47.852 -56.579  1.00  0.00     0.210 HD
ENDBRANCH   3  15
BRANCH   4  17
HETATM   17  C8  UNL     1      15.662  51.055 -58.111  1.00  0.00     0.217 C 
BRANCH  17  18
HETATM   18  O3  UNL     1      15.335  51.011 -59.442  1.00  0.00    -0.280 OA
BRANCH  18  19
HETATM   19  P1  UNL     1      15.880  52.108 -60.452  1.00  0.00     0.422 P 
HETATM   20  O4  UNL     1      15.325  53.337 -59.721  1.00  0.00    -0.617 OA
HETATM   21  O5  UNL     1      15.054  52.534 -61.827  1.00  0.00    -0.617 OA
HETATM   22  O6  UNL     1      17.443  52.792 -60.265  1.00  0.00    -0.617 OA
ENDBRANCH  18  19
ENDBRANCH  17  18
ENDBRANCH   4  17
TORSDOF 5
ENDMDL
