MODEL 1
REMARK VINA RESULT: -7.142993342      0.000      0.000
REMARK  5 active torsions:
REMARK  status: ('A' for Active; 'I' for Inactive)
REMARK    1  A    between atoms: N1_5  and  C4_6 
REMARK    2  A    between atoms: C6_8  and  O2_9 
REMARK    3  A    between atoms: C7_11  and  C8_12 
REMARK    4  A    between atoms: C8_12  and  O3_13 
REMARK    5  A    between atoms: O3_13  and  P1_14 
ROOT
HETATM    1  C4  UNL     1      16.135  49.336 -55.433  1.00  0.00     0.235 C 
HETATM    2  C5  UNL     1      15.549  48.558 -56.587  1.00  0.00     0.088 C 
HETATM    3  C6  UNL     1      16.334  49.182 -57.726  1.00  0.00     0.153 C 
HETATM    4  C7  UNL     1      16.418  50.620 -57.242  1.00  0.00     0.177 C 
HETATM    5  O7  UNL     1      16.170  50.624 -55.898  1.00  0.00    -0.356 OA
ENDROOT
BRANCH   1   6
HETATM    6  N1  UNL     1      15.421  49.168 -54.208  1.00  0.00    -0.282 N 
HETATM    7  C3  UNL     1      14.146  48.735 -54.248  1.00  0.00     0.104 A 
HETATM    8  C2  UNL     1      13.375  48.541 -53.127  1.00  0.00     0.092 A 
HETATM    9  C1  UNL     1      13.966  48.814 -51.898  1.00  0.00     0.250 A 
HETATM   10  O1  UNL     1      13.329  48.662 -50.830  1.00  0.00    -0.268 OA
HETATM   11  N2  UNL     1      15.245  49.248 -51.862  1.00  0.00    -0.275 N 
HETATM   12  C9  UNL     1      15.941  49.415 -52.993  1.00  0.00     0.331 A 
ATOM     13  H2  UNL     1      15.684  49.450 -50.964  1.00  0.00     0.173 HD
HETATM   14  O8  UNL     1      17.150  49.824 -52.985  1.00  0.00    -0.246 OA
ENDBRANCH   1   6
BRANCH   3  15
HETATM   15  O2  UNL     1      17.582  48.566 -57.742  1.00  0.00    -0.393 OA
ATOM     16  H2  UNL     1      17.751  48.308 -58.641  1.00  0.00     0.210 HD
ENDBRANCH   3  15
BRANCH   4  17
HETATM   17  C8  UNL     1      15.349  51.396 -57.943  1.00  0.00     0.217 C 
BRANCH  17  18
HETATM   18  O3  UNL     1      15.242  51.119 -59.282  1.00  0.00    -0.280 OA
BRANCH  18  19
HETATM   19  P1  UNL     1      15.821  52.120 -60.369  1.00  0.00     0.422 P 
HETATM   20  O4  UNL     1      15.319  53.418 -59.724  1.00  0.00    -0.617 OA
HETATM   21  O5  UNL     1      15.002  52.480 -61.768  1.00  0.00    -0.617 OA
HETATM   22  O6  UNL     1      17.411  52.756 -60.238  1.00  0.00    -0.617 OA
ENDBRANCH  18  19
ENDBRANCH  17  18
ENDBRANCH   4  17
TORSDOF 5
ENDMDL
