MODEL 4
REMARK VINA RESULT: -6.726569400      1.456      1.902
REMARK  5 active torsions:
REMARK  status: ('A' for Active; 'I' for Inactive)
REMARK    1  A    between atoms: N1_5  and  C4_6 
REMARK    2  A    between atoms: C6_8  and  O2_9 
REMARK    3  A    between atoms: C7_11  and  C8_12 
REMARK    4  A    between atoms: C8_12  and  O3_13 
REMARK    5  A    between atoms: O3_13  and  P1_14 
ROOT
HETATM    1  C4  UNL     1      15.912  49.324 -54.916  1.00  0.00     0.235 C 
HETATM    2  C5  UNL     1      15.276  49.039 -56.256  1.00  0.00     0.088 C 
HETATM    3  C6  UNL     1      16.486  49.245 -57.149  1.00  0.00     0.153 C 
HETATM    4  C7  UNL     1      17.164  50.397 -56.427  1.00  0.00     0.177 C 
HETATM    5  O7  UNL     1      16.674  50.437 -55.152  1.00  0.00    -0.356 OA
ENDROOT
BRANCH   1   6
HETATM    6  N1  UNL     1      14.969  49.465 -53.853  1.00  0.00    -0.282 N 
HETATM    7  C3  UNL     1      14.887  50.642 -53.202  1.00  0.00     0.104 A 
HETATM    8  C2  UNL     1      14.015  50.878 -52.168  1.00  0.00     0.092 A 
HETATM    9  C1  UNL     1      13.182  49.829 -51.792  1.00  0.00     0.250 A 
HETATM   10  O1  UNL     1      12.358  49.966 -50.859  1.00  0.00    -0.268 OA
HETATM   11  N2  UNL     1      13.266  48.651 -52.447  1.00  0.00    -0.275 N 
HETATM   12  C9  UNL     1      14.140  48.487 -53.448  1.00  0.00     0.331 A 
ATOM     13  H2  UNL     1      12.658  47.878 -52.177  1.00  0.00     0.173 HD
HETATM   14  O8  UNL     1      14.238  47.384 -54.082  1.00  0.00    -0.246 OA
ENDBRANCH   1   6
BRANCH   3  15
HETATM   15  O2  UNL     1      17.241  48.076 -57.084  1.00  0.00    -0.393 OA
ATOM     16  H2  UNL     1      16.718  47.388 -57.479  1.00  0.00     0.210 HD
ENDBRANCH   3  15
BRANCH   4  17
HETATM   17  C8  UNL     1      16.789  51.658 -57.139  1.00  0.00     0.217 C 
BRANCH  17  18
HETATM   18  O3  UNL     1      16.931  51.595 -58.501  1.00  0.00    -0.280 OA
BRANCH  18  19
HETATM   19  P1  UNL     1      15.813  52.179 -59.465  1.00  0.00     0.422 P 
HETATM   20  O4  UNL     1      16.737  52.551 -60.631  1.00  0.00    -0.617 OA
HETATM   21  O5  UNL     1      15.285  53.750 -59.361  1.00  0.00    -0.617 OA
HETATM   22  O6  UNL     1      14.961  51.165 -60.558  1.00  0.00    -0.617 OA
ENDBRANCH  18  19
ENDBRANCH  17  18
ENDBRANCH   4  17
TORSDOF 5
ENDMDL
