MODEL 19
REMARK VINA RESULT: -6.394396617      1.200      1.662
REMARK  5 active torsions:
REMARK  status: ('A' for Active; 'I' for Inactive)
REMARK    1  A    between atoms: N1_5  and  C4_6 
REMARK    2  A    between atoms: C6_8  and  O2_9 
REMARK    3  A    between atoms: C7_11  and  C8_12 
REMARK    4  A    between atoms: C8_12  and  O3_13 
REMARK    5  A    between atoms: O3_13  and  P1_14 
ROOT
HETATM    1  C4  UNL     1      15.749  49.214 -54.546  1.00  0.00     0.235 C 
HETATM    2  C5  UNL     1      15.105  48.316 -55.575  1.00  0.00     0.088 C 
HETATM    3  C6  UNL     1      16.118  48.463 -56.696  1.00  0.00     0.153 C 
HETATM    4  C7  UNL     1      16.497  49.924 -56.530  1.00  0.00     0.177 C 
HETATM    5  O7  UNL     1      16.132  50.311 -55.271  1.00  0.00    -0.356 OA
ENDROOT
BRANCH   1   6
HETATM    6  N1  UNL     1      14.905  49.506 -53.431  1.00  0.00    -0.282 N 
HETATM    7  C3  UNL     1      13.586  49.243 -53.523  1.00  0.00     0.104 A 
HETATM    8  C2  UNL     1      12.692  49.487 -52.509  1.00  0.00     0.092 A 
HETATM    9  C1  UNL     1      13.201  50.034 -51.336  1.00  0.00     0.250 A 
HETATM   10  O1  UNL     1      12.450  50.285 -50.365  1.00  0.00    -0.268 OA
HETATM   11  N2  UNL     1      14.523  50.296 -51.248  1.00  0.00    -0.275 N 
HETATM   12  C9  UNL     1      15.340  50.034 -52.275  1.00  0.00     0.331 A 
ATOM     13  H2  UNL     1      14.902  50.697 -50.390  1.00  0.00     0.173 HD
HETATM   14  O8  UNL     1      16.593  50.271 -52.216  1.00  0.00    -0.246 OA
ENDBRANCH   1   6
BRANCH   3  15
HETATM   15  O2  UNL     1      17.181  47.614 -56.394  1.00  0.00    -0.393 OA
ATOM     16  H2  UNL     1      17.673  47.493 -57.196  1.00  0.00     0.210 HD
ENDBRANCH   3  15
BRANCH   4  17
HETATM   17  C8  UNL     1      15.712  50.710 -57.533  1.00  0.00     0.217 C 
BRANCH  17  18
HETATM   18  O3  UNL     1      16.422  51.056 -58.653  1.00  0.00    -0.280 OA
BRANCH  18  19
HETATM   19  P1  UNL     1      16.456  52.559 -59.164  1.00  0.00     0.422 P 
HETATM   20  O4  UNL     1      17.164  52.294 -60.499  1.00  0.00    -0.617 OA
HETATM   21  O5  UNL     1      17.656  53.619 -58.721  1.00  0.00    -0.617 OA
HETATM   22  O6  UNL     1      15.156  53.222 -60.067  1.00  0.00    -0.617 OA
ENDBRANCH  18  19
ENDBRANCH  17  18
ENDBRANCH   4  17
TORSDOF 5
ENDMDL
