MODEL 5
REMARK VINA RESULT: -6.670670159      6.594      8.169
REMARK  5 active torsions:
REMARK  status: ('A' for Active; 'I' for Inactive)
REMARK    1  A    between atoms: N1_5  and  C4_6 
REMARK    2  A    between atoms: C6_8  and  O2_9 
REMARK    3  A    between atoms: C7_11  and  C8_12 
REMARK    4  A    between atoms: C8_12  and  O3_13 
REMARK    5  A    between atoms: O3_13  and  P1_14 
ROOT
HETATM    1  C4  UNL     1      12.689  51.286 -48.649  1.00  0.00     0.235 C 
HETATM    2  C5  UNL     1      12.960  50.646 -49.989  1.00  0.00     0.088 C 
HETATM    3  C6  UNL     1      14.437  50.970 -50.120  1.00  0.00     0.153 C 
HETATM    4  C7  UNL     1      14.470  52.348 -49.484  1.00  0.00     0.177 C 
HETATM    5  O7  UNL     1      13.340  52.488 -48.728  1.00  0.00    -0.356 OA
ENDROOT
BRANCH   1   6
HETATM    6  N1  UNL     1      11.300  51.383 -48.331  1.00  0.00    -0.282 N 
HETATM    7  C3  UNL     1      10.618  52.483 -48.708  1.00  0.00     0.104 A 
HETATM    8  C2  UNL     1       9.282  52.673 -48.451  1.00  0.00     0.092 A 
HETATM    9  C1  UNL     1       8.621  51.661 -47.764  1.00  0.00     0.250 A 
HETATM   10  O1  UNL     1       7.402  51.758 -47.492  1.00  0.00    -0.268 OA
HETATM   11  N2  UNL     1       9.307  50.559 -47.388  1.00  0.00    -0.275 N 
HETATM   12  C9  UNL     1      10.610  50.438 -47.671  1.00  0.00     0.331 A 
ATOM     13  H2  UNL     1       8.828  49.813 -46.884  1.00  0.00     0.173 HD
HETATM   14  O8  UNL     1      11.280  49.408 -47.327  1.00  0.00    -0.246 OA
ENDBRANCH   1   6
BRANCH   3  15
HETATM   15  O2  UNL     1      15.126  50.029 -49.358  1.00  0.00    -0.393 OA
ATOM     16  H2  UNL     1      15.295  49.285 -49.924  1.00  0.00     0.210 HD
ENDBRANCH   3  15
BRANCH   4  17
HETATM   17  C8  UNL     1      14.452  53.356 -50.589  1.00  0.00     0.217 C 
BRANCH  17  18
HETATM   18  O3  UNL     1      13.325  54.137 -50.616  1.00  0.00    -0.280 OA
BRANCH  18  19
HETATM   19  P1  UNL     1      12.361  54.134 -51.878  1.00  0.00     0.422 P 
HETATM   20  O4  UNL     1      13.273  53.332 -52.815  1.00  0.00    -0.617 OA
HETATM   21  O5  UNL     1      12.321  55.388 -52.965  1.00  0.00    -0.617 OA
HETATM   22  O6  UNL     1      11.180  52.907 -52.094  1.00  0.00    -0.617 OA
ENDBRANCH  18  19
ENDBRANCH  17  18
ENDBRANCH   4  17
TORSDOF 5
ENDMDL
