MODEL 10
REMARK VINA RESULT: -7.239276166      0.395      4.254
REMARK  6 active torsions:
REMARK  status: ('A' for Active; 'I' for Inactive)
REMARK    1  A    between atoms: C1_2  and  C2_4 
REMARK    2  A    between atoms: C3_5  and  C4_6 
REMARK    3  A    between atoms: C5_9  and  C6_10 
REMARK    4  A    between atoms: C7_13  and  C8_14 
REMARK    5  A    between atoms: C9_17  and  C10_18 
REMARK    6  A    between atoms: C11_21  and  C12_22 
ROOT
HETATM    1  C2  UNL     1       5.663  -9.962  35.373  1.00  0.00     0.076 A 
HETATM    2  C3  UNL     1       4.653  -9.042  35.516  1.00  0.00     0.076 A 
HETATM    3  C5  UNL     1       5.003  -7.682  35.707  1.00  0.00     0.076 A 
HETATM    4  C7  UNL     1       6.314  -7.291  35.750  1.00  0.00     0.076 A 
HETATM    5  C9  UNL     1       7.345  -8.205  35.608  1.00  0.00     0.076 A 
HETATM    6  C11 UNL     1       7.002  -9.523  35.423  1.00  0.00     0.076 A 
ENDROOT
BRANCH   1   7
HETATM    7  C1  UNL     1       5.462 -11.376  35.174  1.00  0.00     0.211 C 
HETATM    8  O1  UNL     1       5.346 -11.785  33.953  1.00  0.00    -0.644 OA
HETATM    9  O2  UNL     1       5.374 -12.359  36.105  1.00  0.00    -0.644 OA
ENDBRANCH   1   7
BRANCH   2  10
HETATM   10  C4  UNL     1       3.261  -9.385  35.479  1.00  0.00     0.211 C 
HETATM   11  O3  UNL     1       2.536  -9.699  36.412  1.00  0.00    -0.644 OA
HETATM   12  O4  UNL     1       2.601  -9.371  34.220  1.00  0.00    -0.644 OA
ENDBRANCH   2  10
BRANCH   6  13
HETATM   13  C12 UNL     1       8.085 -10.464  35.279  1.00  0.00     0.211 C 
HETATM   14  O11 UNL     1       8.610 -10.789  34.179  1.00  0.00    -0.644 OA
HETATM   15  O12 UNL     1       8.604 -11.066  36.419  1.00  0.00    -0.644 OA
ENDBRANCH   6  13
BRANCH   3  16
HETATM   16  C6  UNL     1       3.962  -6.681  35.861  1.00  0.00     0.211 C 
HETATM   17  O5  UNL     1       3.437  -6.096  34.873  1.00  0.00    -0.644 OA
HETATM   18  O6  UNL     1       3.545  -6.369  37.153  1.00  0.00    -0.644 OA
ENDBRANCH   3  16
BRANCH   5  19
HETATM   19  C10 UNL     1       8.736  -7.792  35.653  1.00  0.00     0.211 C 
HETATM   20  O9  UNL     1       9.246  -7.561  36.776  1.00  0.00    -0.644 OA
HETATM   21  O10 UNL     1       9.523  -7.638  34.534  1.00  0.00    -0.644 OA
ENDBRANCH   5  19
BRANCH   4  22
HETATM   22  C8  UNL     1       6.632  -5.873  35.949  1.00  0.00     0.211 C 
HETATM   23  O7  UNL     1       6.761  -5.460  37.135  1.00  0.00    -0.644 OA
HETATM   24  O8  UNL     1       6.784  -5.023  34.857  1.00  0.00    -0.644 OA
ENDBRANCH   4  22
TORSDOF 6
ENDMDL
