MODEL 7
REMARK VINA RESULT: -7.276027658      0.538      5.258
REMARK  6 active torsions:
REMARK  status: ('A' for Active; 'I' for Inactive)
REMARK    1  A    between atoms: C1_2  and  C2_4 
REMARK    2  A    between atoms: C3_5  and  C4_6 
REMARK    3  A    between atoms: C5_9  and  C6_10 
REMARK    4  A    between atoms: C7_13  and  C8_14 
REMARK    5  A    between atoms: C9_17  and  C10_18 
REMARK    6  A    between atoms: C11_21  and  C12_22 
ROOT
HETATM    1  C2  UNL     1       4.874  -7.769  35.675  1.00  0.00     0.076 A 
HETATM    2  C3  UNL     1       4.550  -9.093  35.507  1.00  0.00     0.076 A 
HETATM    3  C5  UNL     1       5.604 -10.033  35.377  1.00  0.00     0.076 A 
HETATM    4  C7  UNL     1       6.913  -9.633  35.416  1.00  0.00     0.076 A 
HETATM    5  C9  UNL     1       7.257  -8.302  35.583  1.00  0.00     0.076 A 
HETATM    6  C11 UNL     1       6.233  -7.394  35.710  1.00  0.00     0.076 A 
ENDROOT
BRANCH   1   7
HETATM    7  C1  UNL     1       3.914  -6.703  35.819  1.00  0.00     0.211 C 
HETATM    8  O1  UNL     1       3.566  -6.387  37.024  1.00  0.00    -0.644 OA
HETATM    9  O2  UNL     1       3.310  -5.970  34.851  1.00  0.00    -0.644 OA
ENDBRANCH   1   7
BRANCH   2  10
HETATM   10  C4  UNL     1       3.202  -9.578  35.459  1.00  0.00     0.211 C 
HETATM   11  O3  UNL     1       2.519  -9.816  34.473  1.00  0.00    -0.644 OA
HETATM   12  O4  UNL     1       2.535  -9.826  36.691  1.00  0.00    -0.644 OA
ENDBRANCH   2  10
BRANCH   6  13
HETATM   13  C12 UNL     1       6.605  -6.012  35.882  1.00  0.00     0.211 C 
HETATM   14  O11 UNL     1       6.789  -5.454  36.997  1.00  0.00    -0.644 OA
HETATM   15  O12 UNL     1       6.780  -5.221  34.753  1.00  0.00    -0.644 OA
ENDBRANCH   6  13
BRANCH   3  16
HETATM   16  C6  UNL     1       5.301 -11.442  35.199  1.00  0.00     0.211 C 
HETATM   17  O5  UNL     1       5.151 -12.228  36.174  1.00  0.00    -0.644 OA
HETATM   18  O6  UNL     1       5.177 -11.921  33.896  1.00  0.00    -0.644 OA
ENDBRANCH   3  16
BRANCH   5  19
HETATM   19  C10 UNL     1       8.644  -7.877  35.625  1.00  0.00     0.211 C 
HETATM   20  O9  UNL     1       9.168  -7.686  36.749  1.00  0.00    -0.644 OA
HETATM   21  O10 UNL     1       9.414  -7.672  34.501  1.00  0.00    -0.644 OA
ENDBRANCH   5  19
BRANCH   4  22
HETATM   22  C8  UNL     1       7.973 -10.638  35.277  1.00  0.00     0.211 C 
HETATM   23  O7  UNL     1       8.385 -11.207  36.326  1.00  0.00    -0.644 OA
HETATM   24  O8  UNL     1       8.496 -10.943  34.024  1.00  0.00    -0.644 OA
ENDBRANCH   4  22
TORSDOF 6
ENDMDL
