MODEL 11
REMARK VINA RESULT: -7.234010623      0.432      5.198
REMARK  6 active torsions:
REMARK  status: ('A' for Active; 'I' for Inactive)
REMARK    1  A    between atoms: C1_2  and  C2_4 
REMARK    2  A    between atoms: C3_5  and  C4_6 
REMARK    3  A    between atoms: C5_9  and  C6_10 
REMARK    4  A    between atoms: C7_13  and  C8_14 
REMARK    5  A    between atoms: C9_17  and  C10_18 
REMARK    6  A    between atoms: C11_21  and  C12_22 
ROOT
HETATM    1  C2  UNL     1       4.951  -7.658  35.637  1.00  0.00     0.076 A 
HETATM    2  C3  UNL     1       4.617  -8.969  35.404  1.00  0.00     0.076 A 
HETATM    3  C5  UNL     1       5.662  -9.918  35.280  1.00  0.00     0.076 A 
HETATM    4  C7  UNL     1       6.974  -9.540  35.387  1.00  0.00     0.076 A 
HETATM    5  C9  UNL     1       7.328  -8.222  35.621  1.00  0.00     0.076 A 
HETATM    6  C11 UNL     1       6.312  -7.305  35.742  1.00  0.00     0.076 A 
ENDROOT
BRANCH   1   7
HETATM    7  C1  UNL     1       4.000  -6.584  35.786  1.00  0.00     0.211 C 
HETATM    8  O1  UNL     1       3.590  -6.326  36.985  1.00  0.00    -0.644 OA
HETATM    9  O2  UNL     1       3.462  -5.790  34.827  1.00  0.00    -0.644 OA
ENDBRANCH   1   7
BRANCH   2  10
HETATM   10  C4  UNL     1       3.265  -9.431  35.284  1.00  0.00     0.211 C 
HETATM   11  O3  UNL     1       2.522  -9.832  36.169  1.00  0.00    -0.644 OA
HETATM   12  O4  UNL     1       2.673  -9.442  33.991  1.00  0.00    -0.644 OA
ENDBRANCH   2  10
BRANCH   6  13
HETATM   13  C12 UNL     1       6.695  -5.936  35.984  1.00  0.00     0.211 C 
HETATM   14  O11 UNL     1       6.875  -5.434  37.126  1.00  0.00    -0.644 OA
HETATM   15  O12 UNL     1       6.887  -5.093  34.896  1.00  0.00    -0.644 OA
ENDBRANCH   6  13
BRANCH   3  16
HETATM   16  C6  UNL     1       5.348 -11.315  35.033  1.00  0.00     0.211 C 
HETATM   17  O5  UNL     1       5.241 -11.787  33.868  1.00  0.00    -0.644 OA
HETATM   18  O6  UNL     1       5.161 -12.144  36.137  1.00  0.00    -0.644 OA
ENDBRANCH   3  16
BRANCH   5  19
HETATM   19  C10 UNL     1       8.718  -7.820  35.735  1.00  0.00     0.211 C 
HETATM   20  O9  UNL     1       9.188  -7.643  36.885  1.00  0.00    -0.644 OA
HETATM   21  O10 UNL     1       9.547  -7.622  34.653  1.00  0.00    -0.644 OA
ENDBRANCH   5  19
BRANCH   4  22
HETATM   22  C8  UNL     1       8.024 -10.555  35.251  1.00  0.00     0.211 C 
HETATM   23  O7  UNL     1       8.502 -10.757  34.100  1.00  0.00    -0.644 OA
HETATM   24  O8  UNL     1       8.470 -11.263  36.363  1.00  0.00    -0.644 OA
ENDBRANCH   4  22
TORSDOF 6
ENDMDL
