MODEL 8
REMARK VINA RESULT: -7.250083669      0.536      5.948
REMARK  6 active torsions:
REMARK  status: ('A' for Active; 'I' for Inactive)
REMARK    1  A    between atoms: C1_2  and  C2_4 
REMARK    2  A    between atoms: C3_5  and  C4_6 
REMARK    3  A    between atoms: C5_9  and  C6_10 
REMARK    4  A    between atoms: C7_13  and  C8_14 
REMARK    5  A    between atoms: C9_17  and  C10_18 
REMARK    6  A    between atoms: C11_21  and  C12_22 
ROOT
HETATM    1  C2  UNL     1       4.654  -9.197  35.569  1.00  0.00     0.076 A 
HETATM    2  C3  UNL     1       5.660 -10.119  35.415  1.00  0.00     0.076 A 
HETATM    3  C5  UNL     1       7.000  -9.659  35.399  1.00  0.00     0.076 A 
HETATM    4  C7  UNL     1       7.289  -8.327  35.534  1.00  0.00     0.076 A 
HETATM    5  C9  UNL     1       6.288  -7.383  35.690  1.00  0.00     0.076 A 
HETATM    6  C11 UNL     1       4.989  -7.834  35.705  1.00  0.00     0.076 A 
ENDROOT
BRANCH   1   7
HETATM    7  C1  UNL     1       3.249  -9.515  35.603  1.00  0.00     0.211 C 
HETATM    8  O1  UNL     1       2.641  -9.607  34.464  1.00  0.00    -0.644 OA
HETATM    9  O2  UNL     1       2.455  -9.735  36.680  1.00  0.00    -0.644 OA
ENDBRANCH   1   7
BRANCH   2  10
HETATM   10  C4  UNL     1       5.426 -11.527  35.271  1.00  0.00     0.211 C 
HETATM   11  O3  UNL     1       5.340 -12.372  36.150  1.00  0.00    -0.644 OA
HETATM   12  O4  UNL     1       5.270 -12.049  33.957  1.00  0.00    -0.644 OA
ENDBRANCH   2  10
BRANCH   6  13
HETATM   13  C12 UNL     1       3.957  -6.840  35.866  1.00  0.00     0.211 C 
HETATM   14  O11 UNL     1       3.352  -6.275  34.915  1.00  0.00    -0.644 OA
HETATM   15  O12 UNL     1       3.585  -6.466  37.152  1.00  0.00    -0.644 OA
ENDBRANCH   6  13
BRANCH   3  16
HETATM   16  C6  UNL     1       8.091 -10.604  35.238  1.00  0.00     0.211 C 
HETATM   17  O5  UNL     1       8.551 -10.917  34.106  1.00  0.00    -0.644 OA
HETATM   18  O6  UNL     1       8.633 -11.175  36.389  1.00  0.00    -0.644 OA
ENDBRANCH   3  16
BRANCH   5  19
HETATM   19  C10 UNL     1       6.592  -5.971  35.833  1.00  0.00     0.211 C 
HETATM   20  O9  UNL     1       6.673  -5.277  34.791  1.00  0.00    -0.644 OA
HETATM   21  O10 UNL     1       6.799  -5.354  37.047  1.00  0.00    -0.644 OA
ENDBRANCH   5  19
BRANCH   4  22
HETATM   22  C8  UNL     1       8.690  -7.893  35.513  1.00  0.00     0.211 C 
HETATM   23  O7  UNL     1       9.256  -7.676  36.621  1.00  0.00    -0.644 OA
HETATM   24  O8  UNL     1       9.360  -7.729  34.304  1.00  0.00    -0.644 OA
ENDBRANCH   4  22
TORSDOF 6
ENDMDL
