MODEL 5
REMARK VINA RESULT: -7.337807413      0.481      4.416
REMARK  6 active torsions:
REMARK  status: ('A' for Active; 'I' for Inactive)
REMARK    1  A    between atoms: C1_2  and  C2_4 
REMARK    2  A    between atoms: C3_5  and  C4_6 
REMARK    3  A    between atoms: C5_9  and  C6_10 
REMARK    4  A    between atoms: C7_13  and  C8_14 
REMARK    5  A    between atoms: C9_17  and  C10_18 
REMARK    6  A    between atoms: C11_21  and  C12_22 
ROOT
HETATM    1  C2  UNL     1       4.579  -8.979  35.506  1.00  0.00     0.076 A 
HETATM    2  C3  UNL     1       4.909  -7.654  35.658  1.00  0.00     0.076 A 
HETATM    3  C5  UNL     1       6.282  -7.301  35.678  1.00  0.00     0.076 A 
HETATM    4  C7  UNL     1       7.257  -8.253  35.550  1.00  0.00     0.076 A 
HETATM    5  C9  UNL     1       6.942  -9.593  35.396  1.00  0.00     0.076 A 
HETATM    6  C11 UNL     1       5.610  -9.932  35.376  1.00  0.00     0.076 A 
ENDROOT
BRANCH   1   7
HETATM    7  C1  UNL     1       3.231  -9.487  35.468  1.00  0.00     0.211 C 
HETATM    8  O1  UNL     1       2.681  -9.605  34.303  1.00  0.00    -0.644 OA
HETATM    9  O2  UNL     1       2.439  -9.867  36.502  1.00  0.00    -0.644 OA
ENDBRANCH   1   7
BRANCH   2  10
HETATM   10  C4  UNL     1       3.939  -6.608  35.796  1.00  0.00     0.211 C 
HETATM   11  O3  UNL     1       3.375  -5.980  34.911  1.00  0.00    -0.644 OA
HETATM   12  O4  UNL     1       3.555  -6.219  37.109  1.00  0.00    -0.644 OA
ENDBRANCH   2  10
BRANCH   6  13
HETATM   13  C12 UNL     1       5.295 -11.330  35.217  1.00  0.00     0.211 C 
HETATM   14  O11 UNL     1       5.116 -12.136  36.170  1.00  0.00    -0.644 OA
HETATM   15  O12 UNL     1       5.176 -11.846  33.932  1.00  0.00    -0.644 OA
ENDBRANCH   6  13
BRANCH   3  16
HETATM   16  C6  UNL     1       6.671  -5.910  35.837  1.00  0.00     0.211 C 
HETATM   17  O5  UNL     1       6.867  -5.390  36.970  1.00  0.00    -0.644 OA
HETATM   18  O6  UNL     1       6.826  -5.142  34.685  1.00  0.00    -0.644 OA
ENDBRANCH   3  16
BRANCH   5  19
HETATM   19  C10 UNL     1       7.974 -10.604  35.259  1.00  0.00     0.211 C 
HETATM   20  O9  UNL     1       8.395 -11.162  36.302  1.00  0.00    -0.644 OA
HETATM   21  O10 UNL     1       8.516 -10.983  34.051  1.00  0.00    -0.644 OA
ENDBRANCH   5  19
BRANCH   4  22
HETATM   22  C8  UNL     1       8.665  -7.844  35.575  1.00  0.00     0.211 C 
HETATM   23  O7  UNL     1       9.196  -7.632  36.701  1.00  0.00    -0.644 OA
HETATM   24  O8  UNL     1       9.380  -7.700  34.390  1.00  0.00    -0.644 OA
ENDBRANCH   4  22
TORSDOF 6
ENDMDL
