MODEL 20
REMARK VINA RESULT: -7.628227150      2.893      7.377
REMARK  4 active torsions:
REMARK  status: ('A' for Active; 'I' for Inactive)
REMARK    1  A    between atoms: C4_9  and  C5_10 
REMARK    2  A    between atoms: C5_10  and  N4_11 
REMARK    3  A    between atoms: N4_11  and  C6_13 
REMARK    4  A    between atoms: C9_16  and  C10_17 
ROOT
HETATM    1  N1  UNL     1       3.893  -0.290  11.873  1.00  0.00    -0.063 NA
HETATM    2  C1  UNL     1       2.894   0.268  11.033  1.00  0.00     0.196 A 
HETATM    3  N2  UNL     1       3.190   0.926   9.898  1.00  0.00    -0.314 N 
ATOM      4  H2  UNL     1       4.159   1.044   9.603  1.00  0.00     0.170 HD
HETATM    5  C2  UNL     1       2.170   1.430   9.152  1.00  0.00     0.140 A 
HETATM    6  N3  UNL     1       2.458   2.098   8.001  1.00  0.00    -0.348 N 
ATOM      7  H3  UNL     1       3.421   2.226   7.692  1.00  0.00     0.167 HD
HETATM    8  C3  UNL     1       1.433   2.580   7.291  1.00  0.00     0.116 A 
HETATM    9  C4  UNL     1       0.109   2.443   7.651  1.00  0.00     0.043 A 
HETATM   10  N5  UNL     1      -0.154   1.781   8.787  1.00  0.00    -0.350 N 
ATOM     11  H5  UNL     1      -1.120   1.656   9.091  1.00  0.00     0.166 HD
HETATM   12  C13 UNL     1       0.855   1.279   9.532  1.00  0.00     0.146 A 
HETATM   13  C14 UNL     1       0.605   0.596  10.704  1.00  0.00     0.278 A 
HETATM   14  O3  UNL     1      -0.592   0.444  11.076  1.00  0.00    -0.265 OA
HETATM   15  N6  UNL     1       1.604   0.099  11.443  1.00  0.00    -0.295 N 
ATOM     16  H6  UNL     1       1.403  -0.403  12.308  1.00  0.00     0.171 HD
ENDROOT
BRANCH   9  17
HETATM   17  C5  UNL     1      -0.909   3.027   6.768  1.00  0.00     0.178 C 
BRANCH  17  18
HETATM   18  N4  UNL     1      -0.646   4.400   6.427  1.00  0.00    -0.384 N 
ATOM     19  H4  UNL     1      -0.053   4.632   5.630  1.00  0.00     0.160 HD
BRANCH  18  20
HETATM   20  C6  UNL     1      -1.222   5.426   7.216  1.00  0.00     0.028 A 
HETATM   21  C7  UNL     1      -2.157   6.313   6.694  1.00  0.00     0.030 A 
HETATM   22  C8  UNL     1      -2.729   7.317   7.446  1.00  0.00     0.020 A 
HETATM   23  C9  UNL     1      -2.376   7.472   8.777  1.00  0.00     0.041 A 
HETATM   24  C11 UNL     1      -1.453   6.606   9.314  1.00  0.00     0.020 A 
HETATM   25  C12 UNL     1      -0.891   5.608   8.551  1.00  0.00     0.030 A 
BRANCH  23  26
HETATM   26  C10 UNL     1      -2.989   8.542   9.565  1.00  0.00     0.209 C 
HETATM   27  O1  UNL     1      -3.397   9.580   9.004  1.00  0.00    -0.644 OA
HETATM   28  O2  UNL     1      -3.133   8.438  10.926  1.00  0.00    -0.644 OA
ENDBRANCH  23  26
ENDBRANCH  18  20
ENDBRANCH  17  18
ENDBRANCH   9  17
TORSDOF 4
ENDMDL
