MODEL 3
REMARK VINA RESULT: -8.283251010      1.783      2.231
REMARK  4 active torsions:
REMARK  status: ('A' for Active; 'I' for Inactive)
REMARK    1  A    between atoms: C4_9  and  C5_10 
REMARK    2  A    between atoms: C5_10  and  N4_11 
REMARK    3  A    between atoms: N4_11  and  C6_13 
REMARK    4  A    between atoms: C9_16  and  C10_17 
ROOT
HETATM    1  N1  UNL     1      -2.058  11.027   6.314  1.00  0.00    -0.063 NA
HETATM    2  C1  UNL     1      -1.735   9.646   6.363  1.00  0.00     0.196 A 
HETATM    3  N2  UNL     1      -1.459   8.928   5.260  1.00  0.00    -0.314 N 
ATOM      4  H2  UNL     1      -1.474   9.365   4.338  1.00  0.00     0.170 HD
HETATM    5  C2  UNL     1      -1.160   7.608   5.399  1.00  0.00     0.140 A 
HETATM    6  N3  UNL     1      -0.878   6.872   4.289  1.00  0.00    -0.348 N 
ATOM      7  H3  UNL     1      -0.890   7.292   3.360  1.00  0.00     0.167 HD
HETATM    8  C3  UNL     1      -0.587   5.578   4.460  1.00  0.00     0.116 A 
HETATM    9  C4  UNL     1      -0.554   4.948   5.685  1.00  0.00     0.043 A 
HETATM   10  N5  UNL     1      -0.833   5.690   6.767  1.00  0.00    -0.350 N 
ATOM     11  H5  UNL     1      -0.820   5.264   7.693  1.00  0.00     0.166 HD
HETATM   12  C13 UNL     1      -1.132   7.001   6.634  1.00  0.00     0.146 A 
HETATM   13  C14 UNL     1      -1.422   7.782   7.734  1.00  0.00     0.278 A 
HETATM   14  O3  UNL     1      -1.404   7.249   8.879  1.00  0.00    -0.265 OA
HETATM   15  N6  UNL     1      -1.719   9.080   7.604  1.00  0.00    -0.295 N 
ATOM     16  H6  UNL     1      -1.932   9.643   8.428  1.00  0.00     0.171 HD
ENDROOT
BRANCH   9  17
HETATM   17  C5  UNL     1      -0.217   3.519   5.715  1.00  0.00     0.178 C 
BRANCH  17  18
HETATM   18  N4  UNL     1       1.064   3.249   6.314  1.00  0.00    -0.384 N 
ATOM     19  H4  UNL     1       1.921   3.584   5.875  1.00  0.00     0.160 HD
BRANCH  18  20
HETATM   20  C6  UNL     1       1.116   2.511   7.521  1.00  0.00     0.028 A 
HETATM   21  C7  UNL     1       2.167   1.646   7.806  1.00  0.00     0.030 A 
HETATM   22  C8  UNL     1       2.234   0.919   8.976  1.00  0.00     0.020 A 
HETATM   23  C9  UNL     1       1.229   1.035   9.923  1.00  0.00     0.041 A 
HETATM   24  C11 UNL     1       0.180   1.885   9.662  1.00  0.00     0.020 A 
HETATM   25  C12 UNL     1       0.126   2.604   8.490  1.00  0.00     0.030 A 
BRANCH  23  26
HETATM   26  C10 UNL     1       1.312   0.259  11.160  1.00  0.00     0.209 C 
HETATM   27  O1  UNL     1       2.380   0.220  11.806  1.00  0.00    -0.644 OA
HETATM   28  O2  UNL     1       0.234  -0.440  11.643  1.00  0.00    -0.644 OA
ENDBRANCH  23  26
ENDBRANCH  18  20
ENDBRANCH  17  18
ENDBRANCH   9  17
TORSDOF 4
ENDMDL
