MODEL 2
REMARK VINA RESULT: -8.341676137      1.844      2.332
REMARK  4 active torsions:
REMARK  status: ('A' for Active; 'I' for Inactive)
REMARK    1  A    between atoms: C4_9  and  C5_10 
REMARK    2  A    between atoms: C5_10  and  N4_11 
REMARK    3  A    between atoms: N4_11  and  C6_13 
REMARK    4  A    between atoms: C9_16  and  C10_17 
ROOT
HETATM    1  N1  UNL     1      -2.997  10.118  10.065  1.00  0.00    -0.063 NA
HETATM    2  C1  UNL     1      -2.618   8.866   9.514  1.00  0.00     0.196 A 
HETATM    3  N2  UNL     1      -2.556   8.649   8.188  1.00  0.00    -0.314 N 
ATOM      4  H2  UNL     1      -2.784   9.393   7.528  1.00  0.00     0.170 HD
HETATM    5  C2  UNL     1      -2.184   7.418   7.745  1.00  0.00     0.140 A 
HETATM    6  N3  UNL     1      -2.118   7.187   6.405  1.00  0.00    -0.348 N 
ATOM      7  H3  UNL     1      -2.343   7.919   5.732  1.00  0.00     0.167 HD
HETATM    8  C3  UNL     1      -1.748   5.966   6.004  1.00  0.00     0.116 A 
HETATM    9  C4  UNL     1      -1.430   4.934   6.859  1.00  0.00     0.043 A 
HETATM   10  N5  UNL     1      -1.500   5.181   8.176  1.00  0.00    -0.350 N 
ATOM     11  H5  UNL     1      -1.274   4.444   8.844  1.00  0.00     0.166 HD
HETATM   12  C13 UNL     1      -1.871   6.401   8.620  1.00  0.00     0.146 A 
HETATM   13  C14 UNL     1      -1.949   6.676   9.970  1.00  0.00     0.278 A 
HETATM   14  O3  UNL     1      -1.667   5.761  10.793  1.00  0.00    -0.265 OA
HETATM   15  N6  UNL     1      -2.316   7.885  10.412  1.00  0.00    -0.295 N 
ATOM     16  H6  UNL     1      -2.370   8.071  11.413  1.00  0.00     0.171 HD
ENDROOT
BRANCH   9  17
HETATM   17  C5  UNL     1      -1.040   3.646   6.270  1.00  0.00     0.178 C 
BRANCH  17  18
HETATM   18  N4  UNL     1       0.363   3.358   6.410  1.00  0.00    -0.384 N 
ATOM     19  H4  UNL     1       1.031   3.686   5.712  1.00  0.00     0.160 HD
BRANCH  18  20
HETATM   20  C6  UNL     1       0.802   2.611   7.530  1.00  0.00     0.028 A 
HETATM   21  C7  UNL     1      -0.070   2.233   8.545  1.00  0.00     0.030 A 
HETATM   22  C8  UNL     1       0.340   1.506   9.643  1.00  0.00     0.020 A 
HETATM   23  C9  UNL     1       1.667   1.125   9.766  1.00  0.00     0.041 A 
HETATM   24  C11 UNL     1       2.546   1.488   8.774  1.00  0.00     0.020 A 
HETATM   25  C12 UNL     1       2.123   2.213   7.683  1.00  0.00     0.030 A 
BRANCH  23  26
HETATM   26  C10 UNL     1       2.089   0.354  10.936  1.00  0.00     0.209 C 
HETATM   27  O1  UNL     1       3.296   0.306  11.253  1.00  0.00    -0.644 OA
HETATM   28  O2  UNL     1       1.185  -0.330  11.709  1.00  0.00    -0.644 OA
ENDBRANCH  23  26
ENDBRANCH  18  20
ENDBRANCH  17  18
ENDBRANCH   9  17
TORSDOF 4
ENDMDL
