MODEL 1
REMARK VINA RESULT: -8.409395311      0.000      0.000
REMARK  4 active torsions:
REMARK  status: ('A' for Active; 'I' for Inactive)
REMARK    1  A    between atoms: C4_9  and  C5_10 
REMARK    2  A    between atoms: C5_10  and  N4_11 
REMARK    3  A    between atoms: N4_11  and  C6_13 
REMARK    4  A    between atoms: C9_16  and  C10_17 
ROOT
HETATM    1  N1  UNL     1      -3.029   9.663   9.606  1.00  0.00    -0.063 NA
HETATM    2  C1  UNL     1      -2.268   8.696   8.897  1.00  0.00     0.196 A 
HETATM    3  N2  UNL     1      -1.004   8.385   9.232  1.00  0.00    -0.314 N 
ATOM      4  H2  UNL     1      -0.546   8.845  10.020  1.00  0.00     0.170 HD
HETATM    5  C2  UNL     1      -0.347   7.446   8.498  1.00  0.00     0.140 A 
HETATM    6  N3  UNL     1       0.934   7.124   8.828  1.00  0.00    -0.348 N 
ATOM      7  H3  UNL     1       1.407   7.574   9.612  1.00  0.00     0.167 HD
HETATM    8  C3  UNL     1       1.550   6.197   8.087  1.00  0.00     0.116 A 
HETATM    9  C4  UNL     1       0.971   5.551   7.017  1.00  0.00     0.043 A 
HETATM   10  N5  UNL     1      -0.292   5.881   6.708  1.00  0.00    -0.350 N 
ATOM     11  H5  UNL     1      -0.759   5.428   5.923  1.00  0.00     0.166 HD
HETATM   12  C13 UNL     1      -0.947   6.814   7.433  1.00  0.00     0.146 A 
HETATM   13  C14 UNL     1      -2.247   7.168   7.131  1.00  0.00     0.278 A 
HETATM   14  O3  UNL     1      -2.820   6.603   6.159  1.00  0.00    -0.265 OA
HETATM   15  N6  UNL     1      -2.897   8.092   7.849  1.00  0.00    -0.295 N 
ATOM     16  H6  UNL     1      -3.857   8.344   7.612  1.00  0.00     0.171 HD
ENDROOT
BRANCH   9  17
HETATM   17  C5  UNL     1       1.774   4.553   6.298  1.00  0.00     0.178 C 
BRANCH  17  18
HETATM   18  N4  UNL     1       1.194   3.236   6.315  1.00  0.00    -0.384 N 
ATOM     19  H4  UNL     1       0.782   2.841   5.469  1.00  0.00     0.160 HD
BRANCH  18  20
HETATM   20  C6  UNL     1       1.203   2.497   7.522  1.00  0.00     0.028 A 
HETATM   21  C7  UNL     1       2.251   1.644   7.851  1.00  0.00     0.030 A 
HETATM   22  C8  UNL     1       2.276   0.916   9.022  1.00  0.00     0.020 A 
HETATM   23  C9  UNL     1       1.230   1.019   9.925  1.00  0.00     0.041 A 
HETATM   24  C11 UNL     1       0.184   1.857   9.620  1.00  0.00     0.020 A 
HETATM   25  C12 UNL     1       0.172   2.577   8.448  1.00  0.00     0.030 A 
BRANCH  23  26
HETATM   26  C10 UNL     1       1.269   0.242  11.164  1.00  0.00     0.209 C 
HETATM   27  O1  UNL     1       2.344   0.103  11.784  1.00  0.00    -0.644 OA
HETATM   28  O2  UNL     1       0.142  -0.348  11.676  1.00  0.00    -0.644 OA
ENDBRANCH  23  26
ENDBRANCH  18  20
ENDBRANCH  17  18
ENDBRANCH   9  17
TORSDOF 4
ENDMDL
