MODEL 1
REMARK VINA RESULT: -4.498858722      0.000      0.000
REMARK  9 active torsions:
REMARK  status: ('A' for Active; 'I' for Inactive)
REMARK    1  A    between atoms: P1_2  and  O4_5 
REMARK    2  A    between atoms: O4_5  and  C1_6 
REMARK    3  A    between atoms: C2_7  and  O5_8 
REMARK    4  A    between atoms: C3_10  and  O6_11 
REMARK    5  A    between atoms: O6_11  and  P2_12 
REMARK    6  A    between atoms: C4_16  and  O10_17 
REMARK    7  A    between atoms: O10_17  and  P3_18 
REMARK    8  A    between atoms: C5_22  and  O14_23 
REMARK    9  A    between atoms: C6_25  and  O15_26 
ROOT
HETATM    1  C1  UNL     1      -1.090  55.847  28.257  1.00  0.00     0.198 C 
HETATM    2  C2  UNL     1      -2.072  54.787  28.651  1.00  0.00     0.182 C 
HETATM    3  C3  UNL     1      -1.518  53.391  28.596  1.00  0.00     0.199 C 
HETATM    4  C4  UNL     1      -0.168  53.265  29.254  1.00  0.00     0.199 C 
HETATM    5  C5  UNL     1       0.777  54.199  28.574  1.00  0.00     0.181 C 
HETATM    6  C6  UNL     1       0.301  55.608  28.748  1.00  0.00     0.181 C 
ENDROOT
BRANCH   1   7
HETATM    7  O4  UNL     1      -1.137  56.063  26.870  1.00  0.00    -0.272 OA
BRANCH   7   8
HETATM    8  P1  UNL     1      -1.516  57.642  26.475  1.00  0.00     0.422 P 
HETATM    9  O1  UNL     1      -2.286  57.679  25.168  1.00  0.00    -0.617 OA
HETATM   10  O2  UNL     1      -2.539  58.248  27.703  1.00  0.00    -0.617 OA
HETATM   11  O3  UNL     1      -0.170  58.652  26.425  1.00  0.00    -0.617 OA
ENDBRANCH   7   8
ENDBRANCH   1   7
BRANCH   2  12
HETATM   12  O5  UNL     1      -2.649  55.056  29.904  1.00  0.00    -0.390 OA
ATOM     13  H5  UNL     1      -3.385  55.652  29.830  1.00  0.00     0.210 HD
ENDBRANCH   2  12
BRANCH   6  14
HETATM   14  O15 UNL     1       1.185  56.443  28.074  1.00  0.00    -0.390 OA
ATOM     15  H15 UNL     1       1.406  56.063  27.232  1.00  0.00     0.210 HD
ENDBRANCH   6  14
BRANCH   3  16
HETATM   16  O6  UNL     1      -1.449  52.960  27.285  1.00  0.00    -0.272 OA
BRANCH  16  17
HETATM   17  P2  UNL     1      -2.680  51.882  26.903  1.00  0.00     0.422 P 
HETATM   18  O7  UNL     1      -3.481  52.490  25.754  1.00  0.00    -0.617 OA
HETATM   19  O8  UNL     1      -2.074  50.376  26.413  1.00  0.00    -0.617 OA
HETATM   20  O9  UNL     1      -3.756  51.681  28.199  1.00  0.00    -0.617 OA
ENDBRANCH  16  17
ENDBRANCH   3  16
BRANCH   5  21
HETATM   21  O14 UNL     1       1.008  53.867  27.245  1.00  0.00    -0.390 OA
ATOM     22  H14 UNL     1       1.924  53.694  27.058  1.00  0.00     0.210 HD
ENDBRANCH   5  21
BRANCH   4  23
HETATM   23  O10 UNL     1      -0.254  53.573  30.591  1.00  0.00    -0.272 OA
BRANCH  23  24
HETATM   24  P3  UNL     1      -0.781  52.261  31.517  1.00  0.00     0.422 P 
HETATM   25  O11 UNL     1      -0.045  52.200  32.851  1.00  0.00    -0.617 OA
HETATM   26  O12 UNL     1      -0.479  50.812  30.687  1.00  0.00    -0.617 OA
HETATM   27  O13 UNL     1      -2.429  52.448  31.800  1.00  0.00    -0.617 OA
ENDBRANCH  23  24
ENDBRANCH   4  23
TORSDOF 9
ENDMDL
