MODEL 2
REMARK VINA RESULT: -4.486056991      3.716      5.990
REMARK  9 active torsions:
REMARK  status: ('A' for Active; 'I' for Inactive)
REMARK    1  A    between atoms: P1_2  and  O4_5 
REMARK    2  A    between atoms: O4_5  and  C1_6 
REMARK    3  A    between atoms: C2_7  and  O5_8 
REMARK    4  A    between atoms: C3_10  and  O6_11 
REMARK    5  A    between atoms: O6_11  and  P2_12 
REMARK    6  A    between atoms: C4_16  and  O10_17 
REMARK    7  A    between atoms: O10_17  and  P3_18 
REMARK    8  A    between atoms: C5_22  and  O14_23 
REMARK    9  A    between atoms: C6_25  and  O15_26 
ROOT
HETATM    1  C1  UNL     1      -3.440  52.325  27.512  1.00  0.00     0.198 C 
HETATM    2  C2  UNL     1      -4.873  52.316  27.944  1.00  0.00     0.182 C 
HETATM    3  C3  UNL     1      -5.827  51.838  26.885  1.00  0.00     0.199 C 
HETATM    4  C4  UNL     1      -5.372  50.570  26.210  1.00  0.00     0.199 C 
HETATM    5  C5  UNL     1      -4.035  50.815  25.596  1.00  0.00     0.181 C 
HETATM    6  C6  UNL     1      -3.046  51.156  26.668  1.00  0.00     0.181 C 
ENDROOT
BRANCH   1   7
HETATM    7  O4  UNL     1      -3.119  53.551  26.907  1.00  0.00    -0.272 OA
BRANCH   7   8
HETATM    8  P1  UNL     1      -1.989  54.424  27.775  1.00  0.00     0.422 P 
HETATM    9  O1  UNL     1      -2.430  54.550  29.221  1.00  0.00    -0.617 OA
HETATM   10  O2  UNL     1      -0.526  53.538  27.749  1.00  0.00    -0.617 OA
HETATM   11  O3  UNL     1      -1.655  55.928  27.099  1.00  0.00    -0.617 OA
ENDBRANCH   7   8
ENDBRANCH   1   7
BRANCH   2  12
HETATM   12  O5  UNL     1      -5.049  51.607  29.144  1.00  0.00    -0.390 OA
ATOM     13  H5  UNL     1      -5.894  51.787  29.537  1.00  0.00     0.210 HD
ENDBRANCH   2  12
BRANCH   6  14
HETATM   14  O15 UNL     1      -1.824  51.410  26.056  1.00  0.00    -0.390 OA
ATOM     15  H15 UNL     1      -1.943  52.036  25.351  1.00  0.00     0.210 HD
ENDBRANCH   6  14
BRANCH   3  16
HETATM   16  O6  UNL     1      -6.026  52.831  25.944  1.00  0.00    -0.272 OA
BRANCH  16  17
HETATM   17  P2  UNL     1      -7.657  53.151  25.691  1.00  0.00     0.422 P 
HETATM   18  O7  UNL     1      -8.240  53.627  27.020  1.00  0.00    -0.617 OA
HETATM   19  O8  UNL     1      -7.893  54.358  24.524  1.00  0.00    -0.617 OA
HETATM   20  O9  UNL     1      -8.507  51.749  25.257  1.00  0.00    -0.617 OA
ENDBRANCH  16  17
ENDBRANCH   3  16
BRANCH   5  21
HETATM   21  O14 UNL     1      -4.069  51.756  24.574  1.00  0.00    -0.390 OA
ATOM     22  H14 UNL     1      -3.801  51.403  23.734  1.00  0.00     0.210 HD
ENDBRANCH   5  21
BRANCH   4  23
HETATM   23  O10 UNL     1      -5.292  49.543  27.121  1.00  0.00    -0.272 OA
BRANCH  23  24
HETATM   24  P3  UNL     1      -5.526  48.031  26.403  1.00  0.00     0.422 P 
HETATM   25  O11 UNL     1      -6.339  47.114  27.309  1.00  0.00    -0.617 OA
HETATM   26  O12 UNL     1      -4.026  47.290  26.121  1.00  0.00    -0.617 OA
HETATM   27  O13 UNL     1      -6.354  48.260  24.957  1.00  0.00    -0.617 OA
ENDBRANCH  23  24
ENDBRANCH   4  23
TORSDOF 9
ENDMDL
