MODEL 4
REMARK VINA RESULT: -4.373799391      6.449      8.874
REMARK  9 active torsions:
REMARK  status: ('A' for Active; 'I' for Inactive)
REMARK    1  A    between atoms: P1_2  and  O4_5 
REMARK    2  A    between atoms: O4_5  and  C1_6 
REMARK    3  A    between atoms: C2_7  and  O5_8 
REMARK    4  A    between atoms: C3_10  and  O6_11 
REMARK    5  A    between atoms: O6_11  and  P2_12 
REMARK    6  A    between atoms: C4_16  and  O10_17 
REMARK    7  A    between atoms: O10_17  and  P3_18 
REMARK    8  A    between atoms: C5_22  and  O14_23 
REMARK    9  A    between atoms: C6_25  and  O15_26 
ROOT
HETATM    1  C1  UNL     1      -5.385  49.116  22.838  1.00  0.00     0.198 C 
HETATM    2  C2  UNL     1      -4.913  50.090  23.873  1.00  0.00     0.182 C 
HETATM    3  C3  UNL     1      -5.985  50.531  24.830  1.00  0.00     0.199 C 
HETATM    4  C4  UNL     1      -6.793  49.384  25.378  1.00  0.00     0.199 C 
HETATM    5  C5  UNL     1      -7.421  48.659  24.234  1.00  0.00     0.181 C 
HETATM    6  C6  UNL     1      -6.350  48.097  23.351  1.00  0.00     0.181 C 
ENDROOT
BRANCH   1   7
HETATM    7  O4  UNL     1      -5.875  49.797  21.713  1.00  0.00    -0.272 OA
BRANCH   7   8
HETATM    8  P1  UNL     1      -4.894  49.621  20.372  1.00  0.00     0.422 P 
HETATM    9  O1  UNL     1      -3.441  49.808  20.765  1.00  0.00    -0.617 OA
HETATM   10  O2  UNL     1      -5.081  48.019  19.806  1.00  0.00    -0.617 OA
HETATM   11  O3  UNL     1      -5.324  50.637  19.101  1.00  0.00    -0.617 OA
ENDBRANCH   7   8
ENDBRANCH   1   7
BRANCH   2  12
HETATM   12  O5  UNL     1      -3.783  49.612  24.558  1.00  0.00    -0.390 OA
ATOM     13  H5  UNL     1      -2.981  49.987  24.216  1.00  0.00     0.210 HD
ENDBRANCH   2  12
BRANCH   6  14
HETATM   14  O15 UNL     1      -6.971  47.461  22.281  1.00  0.00    -0.390 OA
ATOM     15  H15 UNL     1      -7.642  48.027  21.918  1.00  0.00     0.210 HD
ENDBRANCH   6  14
BRANCH   3  16
HETATM   16  O6  UNL     1      -6.817  51.450  24.220  1.00  0.00    -0.272 OA
BRANCH  16  17
HETATM   17  P2  UNL     1      -7.404  52.594  25.301  1.00  0.00     0.422 P 
HETATM   18  O7  UNL     1      -8.662  52.013  25.944  1.00  0.00    -0.617 OA
HETATM   19  O8  UNL     1      -6.279  52.949  26.520  1.00  0.00    -0.617 OA
HETATM   20  O9  UNL     1      -7.871  54.019  24.509  1.00  0.00    -0.617 OA
ENDBRANCH  16  17
ENDBRANCH   3  16
BRANCH   5  21
HETATM   21  O14 UNL     1      -8.344  49.432  23.540  1.00  0.00    -0.390 OA
ATOM     22  H14 UNL     1      -8.836  48.936  22.897  1.00  0.00     0.210 HD
ENDBRANCH   5  21
BRANCH   4  23
HETATM   23  O10 UNL     1      -5.991  48.528  26.095  1.00  0.00    -0.272 OA
BRANCH  23  24
HETATM   24  P3  UNL     1      -5.667  49.106  27.650  1.00  0.00     0.422 P 
HETATM   25  O11 UNL     1      -6.763  50.055  28.122  1.00  0.00    -0.617 OA
HETATM   26  O12 UNL     1      -4.201  49.959  27.653  1.00  0.00    -0.617 OA
HETATM   27  O13 UNL     1      -5.587  47.788  28.693  1.00  0.00    -0.617 OA
ENDBRANCH  23  24
ENDBRANCH   4  23
TORSDOF 9
ENDMDL
