MODEL 11
REMARK VINA RESULT: -4.065392626      1.137      1.283
REMARK  1 active torsions:
REMARK  status: ('A' for Active; 'I' for Inactive)
REMARK    1  A    between atoms: C1_2  and  C2_6 
ROOT
HETATM    1  C2  UNL     1      28.599  15.528  17.018  1.00  0.00     0.004 A 
HETATM    2  C3  UNL     1      29.482  14.487  17.010  1.00  0.00     0.015 A 
HETATM    3  C4  UNL     1      29.556  13.544  18.045  1.00  0.00     0.001 A 
HETATM    4  C5  UNL     1      28.704  13.690  19.096  1.00  0.00     0.000 A 
HETATM    5  C6  UNL     1      27.785  14.716  19.174  1.00  0.00     0.001 A 
HETATM    6  C7  UNL     1      27.750  15.616  18.134  1.00  0.00     0.015 A 
ENDROOT
BRANCH   1   7
HETATM    7  C1  UNL     1      28.523  16.495  15.955  1.00  0.00     0.120 C 
HETATM    8  N1  UNL     1      27.415  17.388  15.928  1.00  0.00    -0.082 NA
HETATM    9  N2  UNL     1      29.402  16.572  15.056  1.00  0.00    -0.387 N 
ATOM     10  H22 UNL     1      29.348  17.258  14.302  1.00  0.00     0.157 HD
ATOM     11  H21 UNL     1      30.196  15.932  15.075  1.00  0.00     0.157 HD
ENDBRANCH   1   7
TORSDOF 1
ENDMDL
