MODEL 13
REMARK VINA RESULT: -4.028694462      4.051      5.283
REMARK  1 active torsions:
REMARK  status: ('A' for Active; 'I' for Inactive)
REMARK    1  A    between atoms: C1_2  and  C2_6 
ROOT
HETATM    1  C2  UNL     1      26.890  11.329  19.055  1.00  0.00     0.004 A 
HETATM    2  C3  UNL     1      25.840  10.722  19.684  1.00  0.00     0.015 A 
HETATM    3  C4  UNL     1      25.092   9.693  19.095  1.00  0.00     0.001 A 
HETATM    4  C5  UNL     1      25.441   9.295  17.842  1.00  0.00     0.000 A 
HETATM    5  C6  UNL     1      26.487   9.861  17.144  1.00  0.00     0.001 A 
HETATM    6  C7  UNL     1      27.193  10.867  17.763  1.00  0.00     0.015 A 
ENDROOT
BRANCH   1   7
HETATM    7  C1  UNL     1      27.658  12.385  19.661  1.00  0.00     0.120 C 
HETATM    8  N1  UNL     1      28.631  12.040  20.640  1.00  0.00    -0.082 NA
HETATM    9  N2  UNL     1      27.494  13.594  19.349  1.00  0.00    -0.387 N 
ATOM     10  H22 UNL     1      28.039  14.343  19.779  1.00  0.00     0.157 HD
ATOM     11  H21 UNL     1      26.796  13.841  18.648  1.00  0.00     0.157 HD
ENDBRANCH   1   7
TORSDOF 1
ENDMDL
