MODEL 2
REMARK VINA RESULT: -5.035580510      0.029      1.586
REMARK  1 active torsions:
REMARK  status: ('A' for Active; 'I' for Inactive)
REMARK    1  A    between atoms: C1_2  and  C2_6 
ROOT
HETATM    1  C2  UNL     1      28.974  14.775  16.828  1.00  0.00     0.004 A 
HETATM    2  C3  UNL     1      28.518  15.388  17.959  1.00  0.00     0.015 A 
HETATM    3  C4  UNL     1      27.992  14.681  19.049  1.00  0.00     0.001 A 
HETATM    4  C5  UNL     1      27.940  13.324  18.958  1.00  0.00     0.000 A 
HETATM    5  C6  UNL     1      28.382  12.635  17.848  1.00  0.00     0.001 A 
HETATM    6  C7  UNL     1      28.890  13.372  16.803  1.00  0.00     0.015 A 
ENDROOT
BRANCH   1   7
HETATM    7  C1  UNL     1      29.515  15.501  15.710  1.00  0.00     0.120 C 
HETATM    8  N1  UNL     1      28.907  16.736  15.345  1.00  0.00    -0.082 NA
HETATM    9  N2  UNL     1      30.503  15.079  15.052  1.00  0.00    -0.387 N 
ATOM     10  H22 UNL     1      30.886  15.595  14.259  1.00  0.00     0.157 HD
ATOM     11  H21 UNL     1      30.938  14.194  15.313  1.00  0.00     0.157 HD
ENDBRANCH   1   7
TORSDOF 1
ENDMDL
