MODEL 8
REMARK VINA RESULT: -4.264809872      1.269      2.230
REMARK  1 active torsions:
REMARK  status: ('A' for Active; 'I' for Inactive)
REMARK    1  A    between atoms: C1_2  and  C2_6 
ROOT
HETATM    1  C2  UNL     1      28.705  13.750  17.643  1.00  0.00     0.004 A 
HETATM    2  C3  UNL     1      28.172  13.805  18.899  1.00  0.00     0.015 A 
HETATM    3  C4  UNL     1      27.503  12.725  19.489  1.00  0.00     0.001 A 
HETATM    4  C5  UNL     1      27.388  11.579  18.765  1.00  0.00     0.000 A 
HETATM    5  C6  UNL     1      27.900  11.448  17.491  1.00  0.00     0.001 A 
HETATM    6  C7  UNL     1      28.548  12.536  16.953  1.00  0.00     0.015 A 
ENDROOT
BRANCH   1   7
HETATM    7  C1  UNL     1      29.392  14.860  17.037  1.00  0.00     0.120 C 
HETATM    8  N1  UNL     1      29.182  16.162  17.571  1.00  0.00    -0.082 NA
HETATM    9  N2  UNL     1      30.169  14.711  16.056  1.00  0.00    -0.387 N 
ATOM     10  H22 UNL     1      30.657  15.498  15.627  1.00  0.00     0.157 HD
ATOM     11  H21 UNL     1      30.320  13.778  15.673  1.00  0.00     0.157 HD
ENDBRANCH   1   7
TORSDOF 1
ENDMDL
