MODEL 12
REMARK VINA RESULT: -4.034025218      4.044      5.167
REMARK  1 active torsions:
REMARK  status: ('A' for Active; 'I' for Inactive)
REMARK    1  A    between atoms: C1_2  and  C2_6 
ROOT
HETATM    1  C2  UNL     1      26.925  11.338  19.020  1.00  0.00     0.004 A 
HETATM    2  C3  UNL     1      27.213  10.872  17.769  1.00  0.00     0.015 A 
HETATM    3  C4  UNL     1      26.484   9.845  17.154  1.00  0.00     0.001 A 
HETATM    4  C5  UNL     1      25.449   9.300  17.848  1.00  0.00     0.000 A 
HETATM    5  C6  UNL     1      25.099   9.718  19.114  1.00  0.00     0.001 A 
HETATM    6  C7  UNL     1      25.843  10.729  19.677  1.00  0.00     0.015 A 
ENDROOT
BRANCH   1   7
HETATM    7  C1  UNL     1      27.673  12.393  19.651  1.00  0.00     0.120 C 
HETATM    8  N1  UNL     1      28.636  12.045  20.639  1.00  0.00    -0.082 NA
HETATM    9  N2  UNL     1      27.501  13.606  19.354  1.00  0.00    -0.387 N 
ATOM     10  H22 UNL     1      28.032  14.354  19.802  1.00  0.00     0.157 HD
ATOM     11  H21 UNL     1      26.811  13.855  18.645  1.00  0.00     0.157 HD
ENDBRANCH   1   7
TORSDOF 1
ENDMDL
