MODEL 14
REMARK VINA RESULT: -3.943204541      4.384      5.593
REMARK  1 active torsions:
REMARK  status: ('A' for Active; 'I' for Inactive)
REMARK    1  A    between atoms: C1_2  and  C2_6 
ROOT
HETATM    1  C2  UNL     1      26.367  10.900  18.963  1.00  0.00     0.004 A 
HETATM    2  C3  UNL     1      25.613  10.831  20.099  1.00  0.00     0.015 A 
HETATM    3  C4  UNL     1      24.695   9.799  20.341  1.00  0.00     0.001 A 
HETATM    4  C5  UNL     1      24.564   8.834  19.391  1.00  0.00     0.000 A 
HETATM    5  C6  UNL     1      25.291   8.837  18.219  1.00  0.00     0.001 A 
HETATM    6  C7  UNL     1      26.179   9.870  18.026  1.00  0.00     0.015 A 
ENDROOT
BRANCH   1   7
HETATM    7  C1  UNL     1      27.310  11.960  18.716  1.00  0.00     0.120 C 
HETATM    8  N1  UNL     1      28.039  11.948  17.494  1.00  0.00    -0.082 NA
HETATM    9  N2  UNL     1      27.504  12.889  19.544  1.00  0.00    -0.387 N 
ATOM     10  H22 UNL     1      28.173  13.640  19.369  1.00  0.00     0.157 HD
ATOM     11  H21 UNL     1      26.982  12.897  20.420  1.00  0.00     0.157 HD
ENDBRANCH   1   7
TORSDOF 1
ENDMDL
