MODEL 18
REMARK VINA RESULT: -3.737142098      1.315      2.376
REMARK  1 active torsions:
REMARK  status: ('A' for Active; 'I' for Inactive)
REMARK    1  A    between atoms: C1_2  and  C2_6 
ROOT
HETATM    1  C2  UNL     1      28.226  15.702  17.267  1.00  0.00     0.004 A 
HETATM    2  C3  UNL     1      27.601  15.581  18.475  1.00  0.00     0.015 A 
HETATM    3  C4  UNL     1      27.925  14.581  19.402  1.00  0.00     0.001 A 
HETATM    4  C5  UNL     1      28.907  13.701  19.067  1.00  0.00     0.000 A 
HETATM    5  C6  UNL     1      29.582  13.760  17.866  1.00  0.00     0.001 A 
HETATM    6  C7  UNL     1      29.229  14.759  16.988  1.00  0.00     0.015 A 
ENDROOT
BRANCH   1   7
HETATM    7  C1  UNL     1      27.893  16.729  16.316  1.00  0.00     0.120 C 
HETATM    8  N1  UNL     1      28.779  16.957  15.226  1.00  0.00    -0.082 NA
HETATM    9  N2  UNL     1      26.848  17.425  16.420  1.00  0.00    -0.387 N 
ATOM     10  H22 UNL     1      26.612  18.153  15.745  1.00  0.00     0.157 HD
ATOM     11  H21 UNL     1      26.213  17.262  17.201  1.00  0.00     0.157 HD
ENDBRANCH   1   7
TORSDOF 1
ENDMDL
