MODEL 1
REMARK VINA RESULT: -5.064172435      0.000      0.000
REMARK  1 active torsions:
REMARK  status: ('A' for Active; 'I' for Inactive)
REMARK    1  A    between atoms: C1_2  and  C2_6 
ROOT
HETATM    1  C2  UNL     1      28.992  14.733  16.794  1.00  0.00     0.004 A 
HETATM    2  C3  UNL     1      28.903  13.370  16.789  1.00  0.00     0.015 A 
HETATM    3  C4  UNL     1      28.378  12.638  17.863  1.00  0.00     0.001 A 
HETATM    4  C5  UNL     1      27.944  13.333  18.950  1.00  0.00     0.000 A 
HETATM    5  C6  UNL     1      28.002  14.708  19.028  1.00  0.00     0.001 A 
HETATM    6  C7  UNL     1      28.525  15.383  17.949  1.00  0.00     0.015 A 
ENDROOT
BRANCH   1   7
HETATM    7  C1  UNL     1      29.530  15.484  15.690  1.00  0.00     0.120 C 
HETATM    8  N1  UNL     1      28.910  16.717  15.342  1.00  0.00    -0.082 NA
HETATM    9  N2  UNL     1      30.526  15.084  15.031  1.00  0.00    -0.387 N 
ATOM     10  H22 UNL     1      30.907  15.617  14.249  1.00  0.00     0.157 HD
ATOM     11  H21 UNL     1      30.970  14.200  15.281  1.00  0.00     0.157 HD
ENDBRANCH   1   7
TORSDOF 1
ENDMDL
