MODEL 3
REMARK VINA RESULT: -8.038051402      3.735      7.058
REMARK  11 active torsions:
REMARK  status: ('A' for Active; 'I' for Inactive)
REMARK    1  A    between atoms: O1_2  and  C2_3 
REMARK    2  A    between atoms: C2_3  and  C3_5 
REMARK    3  A    between atoms: C12_16  and  O3_17 
REMARK    4  A    between atoms: C14_20  and  N2_21 
REMARK       I    between atoms: N2_21  and  C15_23 
REMARK    5  A    between atoms: C15_23  and  C16_25 
REMARK    6  A    between atoms: C16_25  and  N3_26 
REMARK    7  A    between atoms: C16_25  and  C22_34 
REMARK       I    between atoms: N3_26  and  C17_28 
REMARK    8  A    between atoms: C17_28  and  C18_30 
REMARK    9  A    between atoms: C18_30  and  C19_31 
REMARK   10  A    between atoms: C26_41  and  C27_42 
REMARK   11  A    between atoms: C27_42  and  C28_43 
ROOT
HETATM    1  C3  UNL     1      17.259   7.981  21.632  1.00  0.00     0.236 C 
HETATM    2  C4  UNL     1      15.777   8.193  21.434  1.00  0.00     0.081 C 
HETATM    3  C5  UNL     1      14.902   7.002  21.567  1.00  0.00    -0.055 A 
HETATM    4  C6  UNL     1      14.139   7.066  22.736  1.00  0.00     0.007 A 
HETATM    5  C7  UNL     1      13.241   6.109  23.142  1.00  0.00     0.001 A 
HETATM    6  C8  UNL     1      13.145   5.047  22.283  1.00  0.00     0.009 A 
HETATM    7  C9  UNL     1      13.889   4.925  21.086  1.00  0.00    -0.040 A 
HETATM    8  C10 UNL     1      14.771   5.904  20.727  1.00  0.00     0.016 A 
HETATM    9  C11 UNL     1      13.534   3.644  20.406  1.00  0.00     0.160 C 
HETATM   10  N1  UNL     1      14.424   2.574  20.694  1.00  0.00    -0.370 N 
ATOM     11  H1  UNL     1      14.023   1.653  20.517  1.00  0.00     0.161 HD
HETATM   12  C12 UNL     1      15.728   2.531  21.167  1.00  0.00     0.113 C 
HETATM   13  C13 UNL     1      16.957   3.089  20.552  1.00  0.00     0.118 C 
HETATM   14  C14 UNL     1      17.055   2.851  19.059  1.00  0.00     0.184 C 
HETATM   15  C25 UNL     1      17.126   4.082  18.252  1.00  0.00     0.245 C 
HETATM   16  O6  UNL     1      16.090   4.342  17.559  1.00  0.00    -0.271 OA
HETATM   17  N4  UNL     1      18.165   4.999  18.144  1.00  0.00    -0.321 N 
ATOM     18  H4  UNL     1      18.265   5.449  17.234  1.00  0.00     0.169 HD
HETATM   19  C26 UNL     1      19.130   5.400  19.158  1.00  0.00     0.108 C 
HETATM   20  P1  UNL     1      18.890   6.760  20.150  1.00  0.00     0.298 P 
HETATM   21  O7  UNL     1      19.963   8.037  20.130  1.00  0.00    -0.642 OA
HETATM   22  O8  UNL     1      17.959   7.576  19.246  1.00  0.00    -0.642 OA
HETATM   23  O9  UNL     1      17.671   6.721  21.319  1.00  0.00    -0.292 OA
ENDROOT
BRANCH  14  24
HETATM   24  N2  UNL     1      18.085   1.878  18.737  1.00  0.00    -0.346 N 
HETATM   25  C15 UNL     1      17.847   0.484  18.633  1.00  0.00     0.241 C 
HETATM   26  O4  UNL     1      16.641   0.133  18.851  1.00  0.00    -0.271 OA
ATOM     27  H2  UNL     1      19.033   2.216  18.576  1.00  0.00     0.163 HD
BRANCH  25  28
HETATM   28  C16 UNL     1      18.910  -0.473  18.307  1.00  0.00     0.180 C 
BRANCH  28  29
HETATM   29  N3  UNL     1      19.454  -0.266  16.979  1.00  0.00    -0.347 N 
HETATM   30  C17 UNL     1      19.212  -1.224  15.968  1.00  0.00     0.218 C 
HETATM   31  O5  UNL     1      18.529  -2.235  16.281  1.00  0.00    -0.274 OA
ATOM     32  H3  UNL     1      20.009   0.566  16.776  1.00  0.00     0.163 HD
BRANCH  30  33
HETATM   33  C18 UNL     1      19.732  -1.071  14.573  1.00  0.00     0.106 C 
BRANCH  33  34
HETATM   34  C19 UNL     1      20.863  -2.038  14.356  1.00  0.00    -0.014 C 
HETATM   35  C20 UNL     1      21.491  -1.744  13.019  1.00  0.00     0.010 C 
HETATM   36  C21 UNL     1      21.887  -1.737  15.444  1.00  0.00     0.010 C 
ENDBRANCH  33  34
ENDBRANCH  30  33
ENDBRANCH  28  29
BRANCH  28  37
HETATM   37  C22 UNL     1      20.034  -0.447  19.344  1.00  0.00     0.009 C 
HETATM   38  C23 UNL     1      19.502  -0.603  20.746  1.00  0.00     0.012 C 
HETATM   39  C24 UNL     1      20.888  -1.668  19.081  1.00  0.00     0.012 C 
ENDBRANCH  28  37
ENDBRANCH  25  28
ENDBRANCH  14  24
BRANCH  12  40
HETATM   40  O3  UNL     1      15.875   1.914  22.303  1.00  0.00    -0.349 OA
ATOM     41  H3  UNL     1      16.543   2.280  22.871  1.00  0.00     0.219 HD
ENDBRANCH  12  40
BRANCH  19  42
HETATM   42  C27 UNL     1      20.525   5.340  18.641  1.00  0.00     0.070 C 
BRANCH  42  43
HETATM   43  C28 UNL     1      20.830   5.708  17.259  1.00  0.00    -0.017 C 
HETATM   44  C29 UNL     1      22.386   5.708  17.087  1.00  0.00     0.010 C 
HETATM   45  C30 UNL     1      20.428   7.042  16.718  1.00  0.00     0.010 C 
ENDBRANCH  42  43
ENDBRANCH  19  42
BRANCH   1  46
HETATM   46  C2  UNL     1      17.724   8.407  22.999  1.00  0.00     0.288 C 
HETATM   47  O2  UNL     1      17.343   7.683  23.955  1.00  0.00    -0.262 OA
BRANCH  46  48
HETATM   48  O1  UNL     1      18.515   9.519  23.174  1.00  0.00    -0.324 OA
HETATM   49  C1  UNL     1      19.868   9.326  23.558  1.00  0.00     0.213 C 
ENDBRANCH  46  48
ENDBRANCH   1  46
TORSDOF 11
ENDMDL
