MODEL 2
REMARK VINA RESULT: -8.136825904      3.098      7.980
REMARK  11 active torsions:
REMARK  status: ('A' for Active; 'I' for Inactive)
REMARK    1  A    between atoms: O1_2  and  C2_3 
REMARK    2  A    between atoms: C2_3  and  C3_5 
REMARK    3  A    between atoms: C12_16  and  O3_17 
REMARK    4  A    between atoms: C14_20  and  N2_21 
REMARK       I    between atoms: N2_21  and  C15_23 
REMARK    5  A    between atoms: C15_23  and  C16_25 
REMARK    6  A    between atoms: C16_25  and  N3_26 
REMARK    7  A    between atoms: C16_25  and  C22_34 
REMARK       I    between atoms: N3_26  and  C17_28 
REMARK    8  A    between atoms: C17_28  and  C18_30 
REMARK    9  A    between atoms: C18_30  and  C19_31 
REMARK   10  A    between atoms: C26_41  and  C27_42 
REMARK   11  A    between atoms: C27_42  and  C28_43 
ROOT
HETATM    1  C3  UNL     1      16.718   7.871  25.469  1.00  0.00     0.236 C 
HETATM    2  C4  UNL     1      15.280   8.093  25.063  1.00  0.00     0.081 C 
HETATM    3  C5  UNL     1      14.680   7.100  24.137  1.00  0.00    -0.055 A 
HETATM    4  C6  UNL     1      13.736   6.307  24.795  1.00  0.00     0.007 A 
HETATM    5  C7  UNL     1      13.016   5.293  24.209  1.00  0.00     0.001 A 
HETATM    6  C8  UNL     1      13.303   5.112  22.883  1.00  0.00     0.009 A 
HETATM    7  C9  UNL     1      14.246   5.883  22.163  1.00  0.00    -0.040 A 
HETATM    8  C10 UNL     1      14.938   6.878  22.791  1.00  0.00     0.016 A 
HETATM    9  C11 UNL     1      14.302   5.409  20.748  1.00  0.00     0.160 C 
HETATM   10  N1  UNL     1      15.344   4.477  20.494  1.00  0.00    -0.370 N 
ATOM     11  H1  UNL     1      15.193   3.914  19.657  1.00  0.00     0.161 HD
HETATM   12  C12 UNL     1      16.527   4.178  21.157  1.00  0.00     0.113 C 
HETATM   13  C13 UNL     1      17.688   5.062  21.425  1.00  0.00     0.118 C 
HETATM   14  C14 UNL     1      18.087   5.923  20.243  1.00  0.00     0.184 C 
HETATM   15  C25 UNL     1      18.019   7.372  20.500  1.00  0.00     0.245 C 
HETATM   16  O6  UNL     1      17.083   7.991  19.897  1.00  0.00    -0.271 OA
HETATM   17  N4  UNL     1      18.833   8.157  21.307  1.00  0.00    -0.321 N 
ATOM     18  H4  UNL     1      18.983   9.115  20.988  1.00  0.00     0.169 HD
HETATM   19  C26 UNL     1      19.501   7.792  22.549  1.00  0.00     0.108 C 
HETATM   20  P1  UNL     1      18.803   8.083  24.072  1.00  0.00     0.298 P 
HETATM   21  O7  UNL     1      19.556   9.069  25.188  1.00  0.00    -0.642 OA
HETATM   22  O8  UNL     1      17.881   9.253  23.714  1.00  0.00    -0.642 OA
HETATM   23  O9  UNL     1      17.444   7.193  24.538  1.00  0.00    -0.292 OA
ENDROOT
BRANCH  14  24
HETATM   24  N2  UNL     1      19.345   5.487  19.662  1.00  0.00    -0.346 N 
HETATM   25  C15 UNL     1      19.463   4.940  18.359  1.00  0.00     0.241 C 
HETATM   26  O4  UNL     1      18.364   4.850  17.719  1.00  0.00    -0.271 OA
ATOM     27  H2  UNL     1      20.192   5.581  20.222  1.00  0.00     0.163 HD
BRANCH  25  28
HETATM   28  C16 UNL     1      20.750   4.509  17.801  1.00  0.00     0.180 C 
BRANCH  28  29
HETATM   29  N3  UNL     1      21.868   5.256  18.344  1.00  0.00    -0.347 N 
HETATM   30  C17 UNL     1      22.267   6.463  17.725  1.00  0.00     0.218 C 
HETATM   31  O5  UNL     1      21.623   6.831  16.706  1.00  0.00    -0.274 OA
ATOM     32  H3  UNL     1      22.364   4.913  19.167  1.00  0.00     0.163 HD
BRANCH  30  33
HETATM   33  C18 UNL     1      23.403   7.293  18.235  1.00  0.00     0.106 C 
BRANCH  33  34
HETATM   34  C19 UNL     1      24.612   6.418  18.421  1.00  0.00    -0.014 C 
HETATM   35  C20 UNL     1      25.236   6.175  17.072  1.00  0.00     0.010 C 
HETATM   36  C21 UNL     1      25.590   7.228  19.264  1.00  0.00     0.010 C 
ENDBRANCH  33  34
ENDBRANCH  30  33
ENDBRANCH  28  29
BRANCH  28  37
HETATM   37  C22 UNL     1      20.978   3.009  17.997  1.00  0.00     0.009 C 
HETATM   38  C23 UNL     1      19.786   2.343  18.637  1.00  0.00     0.012 C 
HETATM   39  C24 UNL     1      21.099   2.411  16.612  1.00  0.00     0.012 C 
ENDBRANCH  28  37
ENDBRANCH  25  28
ENDBRANCH  14  24
BRANCH  12  40
HETATM   40  O3  UNL     1      16.614   2.956  21.594  1.00  0.00    -0.349 OA
ATOM     41  H3  UNL     1      17.445   2.737  22.000  1.00  0.00     0.219 HD
ENDBRANCH  12  40
BRANCH  19  42
HETATM   42  C27 UNL     1      20.941   8.169  22.527  1.00  0.00     0.070 C 
BRANCH  42  43
HETATM   43  C28 UNL     1      21.363   9.506  22.110  1.00  0.00    -0.017 C 
HETATM   44  C29 UNL     1      22.624   9.356  21.194  1.00  0.00     0.010 C 
HETATM   45  C30 UNL     1      21.794  10.520  23.120  1.00  0.00     0.010 C 
ENDBRANCH  42  43
ENDBRANCH  19  42
BRANCH   1  46
HETATM   46  C2  UNL     1      16.840   7.258  26.840  1.00  0.00     0.288 C 
HETATM   47  O2  UNL     1      16.554   6.036  26.918  1.00  0.00    -0.262 OA
BRANCH  46  48
HETATM   48  O1  UNL     1      17.242   8.002  27.925  1.00  0.00    -0.324 OA
HETATM   49  C1  UNL     1      17.280   9.415  27.792  1.00  0.00     0.213 C 
ENDBRANCH  46  48
ENDBRANCH   1  46
TORSDOF 11
ENDMDL
