MODEL 1
REMARK VINA RESULT: -8.700249661      0.000      0.000
REMARK  11 active torsions:
REMARK  status: ('A' for Active; 'I' for Inactive)
REMARK    1  A    between atoms: O1_2  and  C2_3 
REMARK    2  A    between atoms: C2_3  and  C3_5 
REMARK    3  A    between atoms: C12_16  and  O3_17 
REMARK    4  A    between atoms: C14_20  and  N2_21 
REMARK       I    between atoms: N2_21  and  C15_23 
REMARK    5  A    between atoms: C15_23  and  C16_25 
REMARK    6  A    between atoms: C16_25  and  N3_26 
REMARK    7  A    between atoms: C16_25  and  C22_34 
REMARK       I    between atoms: N3_26  and  C17_28 
REMARK    8  A    between atoms: C17_28  and  C18_30 
REMARK    9  A    between atoms: C18_30  and  C19_31 
REMARK   10  A    between atoms: C26_41  and  C27_42 
REMARK   11  A    between atoms: C27_42  and  C28_43 
ROOT
HETATM    1  C3  UNL     1      21.724   9.322  22.013  1.00  0.00     0.236 C 
HETATM    2  C4  UNL     1      23.055   8.654  21.762  1.00  0.00     0.081 C 
HETATM    3  C5  UNL     1      23.288   8.108  20.402  1.00  0.00    -0.055 A 
HETATM    4  C6  UNL     1      24.229   8.874  19.708  1.00  0.00     0.007 A 
HETATM    5  C7  UNL     1      24.650   8.627  18.422  1.00  0.00     0.001 A 
HETATM    6  C8  UNL     1      24.057   7.533  17.852  1.00  0.00     0.009 A 
HETATM    7  C9  UNL     1      23.099   6.719  18.503  1.00  0.00    -0.040 A 
HETATM    8  C10 UNL     1      22.713   7.007  19.780  1.00  0.00     0.016 A 
HETATM    9  C11 UNL     1      22.668   5.624  17.584  1.00  0.00     0.160 C 
HETATM   10  N1  UNL     1      21.472   5.910  16.871  1.00  0.00    -0.370 N 
ATOM     11  H1  UNL     1      21.354   5.344  16.030  1.00  0.00     0.161 HD
HETATM   12  C12 UNL     1      20.433   6.804  17.088  1.00  0.00     0.113 C 
HETATM   13  C13 UNL     1      19.498   6.877  18.238  1.00  0.00     0.118 C 
HETATM   14  C14 UNL     1      18.978   5.528  18.690  1.00  0.00     0.184 C 
HETATM   15  C25 UNL     1      19.309   5.188  20.086  1.00  0.00     0.245 C 
HETATM   16  O6  UNL     1      20.169   4.261  20.235  1.00  0.00    -0.271 OA
HETATM   17  N4  UNL     1      18.813   5.739  21.262  1.00  0.00    -0.321 N 
ATOM     18  H4  UNL     1      18.736   5.100  22.053  1.00  0.00     0.169 HD
HETATM   19  C26 UNL     1      18.388   7.110  21.512  1.00  0.00     0.108 C 
HETATM   20  P1  UNL     1      19.436   8.279  22.163  1.00  0.00     0.298 P 
HETATM   21  O7  UNL     1      19.096   9.023  23.617  1.00  0.00    -0.642 OA
HETATM   22  O8  UNL     1      20.417   7.362  22.903  1.00  0.00    -0.642 OA
HETATM   23  O9  UNL     1      20.721   8.846  21.224  1.00  0.00    -0.292 OA
ENDROOT
BRANCH  14  24
HETATM   24  N2  UNL     1      17.574   5.354  18.360  1.00  0.00    -0.346 N 
HETATM   25  C15 UNL     1      16.953   4.089  18.202  1.00  0.00     0.241 C 
HETATM   26  O4  UNL     1      17.728   3.092  18.370  1.00  0.00    -0.271 OA
ATOM     27  H2  UNL     1      17.003   6.190  18.235  1.00  0.00     0.163 HD
BRANCH  25  28
HETATM   28  C16 UNL     1      15.531   3.949  17.867  1.00  0.00     0.180 C 
BRANCH  28  29
HETATM   29  N3  UNL     1      15.075   2.575  17.953  1.00  0.00    -0.347 N 
HETATM   30  C17 UNL     1      14.624   1.915  16.787  1.00  0.00     0.218 C 
HETATM   31  O5  UNL     1      14.633   2.571  15.711  1.00  0.00    -0.274 OA
ATOM     32  H3  UNL     1      15.078   2.088  18.850  1.00  0.00     0.163 HD
BRANCH  30  33
HETATM   33  C18 UNL     1      14.149   0.496  16.797  1.00  0.00     0.106 C 
BRANCH  33  34
HETATM   34  C19 UNL     1      12.832   0.418  17.517  1.00  0.00    -0.014 C 
HETATM   35  C20 UNL     1      11.756   0.937  16.600  1.00  0.00     0.010 C 
HETATM   36  C21 UNL     1      12.577  -1.064  17.766  1.00  0.00     0.010 C 
ENDBRANCH  33  34
ENDBRANCH  30  33
ENDBRANCH  28  29
BRANCH  28  37
HETATM   37  C22 UNL     1      14.653   4.848  18.738  1.00  0.00     0.009 C 
HETATM   38  C23 UNL     1      13.207   4.792  18.316  1.00  0.00     0.012 C 
HETATM   39  C24 UNL     1      14.704   4.272  20.137  1.00  0.00     0.012 C 
ENDBRANCH  28  37
ENDBRANCH  25  28
ENDBRANCH  14  24
BRANCH  12  40
HETATM   40  O3  UNL     1      20.268   7.689  16.149  1.00  0.00    -0.349 OA
ATOM     41  H3  UNL     1      20.241   8.589  16.451  1.00  0.00     0.219 HD
ENDBRANCH  12  40
BRANCH  19  42
HETATM   42  C27 UNL     1      17.047   7.157  22.158  1.00  0.00     0.070 C 
BRANCH  42  43
HETATM   43  C28 UNL     1      15.953   7.924  21.564  1.00  0.00    -0.017 C 
HETATM   44  C29 UNL     1      14.605   7.378  22.144  1.00  0.00     0.010 C 
HETATM   45  C30 UNL     1      15.721   7.904  20.087  1.00  0.00     0.010 C 
ENDBRANCH  42  43
ENDBRANCH  19  42
BRANCH   1  46
HETATM   46  C2  UNL     1      21.818  10.825  21.965  1.00  0.00     0.288 C 
HETATM   47  O2  UNL     1      21.320  11.434  22.947  1.00  0.00    -0.262 OA
BRANCH  46  48
HETATM   48  O1  UNL     1      22.415  11.473  20.909  1.00  0.00    -0.324 OA
HETATM   49  C1  UNL     1      23.574  12.252  21.169  1.00  0.00     0.213 C 
ENDBRANCH  46  48
ENDBRANCH   1  46
TORSDOF 11
ENDMDL
