MODEL 18
REMARK VINA RESULT: -8.541254522      1.523      2.562
REMARK  10 active torsions:
REMARK  status: ('A' for Active; 'I' for Inactive)
REMARK    1  A    between atoms: N5_13  and  C6_14 
REMARK    2  A    between atoms: C7_16  and  C8_17 
REMARK    3  A    between atoms: C8_17  and  O2_18 
REMARK    4  A    between atoms: O2_18  and  P1_19 
REMARK    5  A    between atoms: P1_19  and  O5_22 
REMARK    6  A    between atoms: O5_22  and  P2_23 
REMARK    7  A    between atoms: P2_23  and  N6_26 
REMARK    8  A    between atoms: N6_26  and  P3_28 
REMARK    9  A    between atoms: C9_32  and  O11_33 
REMARK   10  A    between atoms: C10_35  and  O12_36 
ROOT
HETATM    1  C6  UNL     1      16.100  32.428  69.939  1.00  0.00     0.262 C 
HETATM    2  O1  UNL     1      17.294  32.725  70.612  1.00  0.00    -0.353 OA
HETATM    3  C7  UNL     1      17.697  31.470  71.062  1.00  0.00     0.180 C 
HETATM    4  C9  UNL     1      17.460  30.516  69.913  1.00  0.00     0.182 C 
HETATM    5  C10 UNL     1      16.511  31.308  69.037  1.00  0.00     0.198 C 
ENDROOT
BRANCH   3   6
HETATM    6  C8  UNL     1      19.117  31.438  71.546  1.00  0.00     0.216 C 
BRANCH   6   7
HETATM    7  O2  UNL     1      19.354  30.429  72.443  1.00  0.00    -0.287 OA
BRANCH   7   8
HETATM    8  P1  UNL     1      20.586  29.410  72.139  1.00  0.00     0.417 P 
HETATM    9  O3  UNL     1      20.806  28.038  73.064  1.00  0.00    -0.624 OA
HETATM   10  O4  UNL     1      21.580  29.615  70.835  1.00  0.00    -0.624 OA
BRANCH   8  11
HETATM   11  O5  UNL     1      21.550  30.152  73.060  1.00  0.00    -0.186 OA
BRANCH  11  12
HETATM   12  P2  UNL     1      22.851  29.462  73.805  1.00  0.00     0.379 P 
HETATM   13  O6  UNL     1      22.837  29.362  75.500  1.00  0.00    -0.629 OA
HETATM   14  O7  UNL     1      24.031  28.698  73.018  1.00  0.00    -0.629 OA
BRANCH  12  15
HETATM   15  N6  UNL     1      23.505  30.921  73.903  1.00  0.00    -0.218 N 
ATOM     16  H6  UNL     1      24.522  30.978  73.843  1.00  0.00     0.179 HD
BRANCH  15  17
HETATM   17  P3  UNL     1      22.673  32.356  74.095  1.00  0.00     0.381 P 
HETATM   18  O8  UNL     1      23.232  33.756  73.400  1.00  0.00    -0.622 OA
HETATM   19  O9  UNL     1      21.141  32.359  74.808  1.00  0.00    -0.622 OA
HETATM   20  O10 UNL     1      23.223  32.814  75.457  1.00  0.00    -0.622 OA
ENDBRANCH  15  17
ENDBRANCH  12  15
ENDBRANCH  11  12
ENDBRANCH   8  11
ENDBRANCH   7   8
ENDBRANCH   6   7
ENDBRANCH   3   6
BRANCH   4  21
HETATM   21  O11 UNL     1      16.759  29.378  70.348  1.00  0.00    -0.390 OA
ATOM     22  H11 UNL     1      15.845  29.585  70.503  1.00  0.00     0.210 HD
ENDBRANCH   4  21
BRANCH   1  23
HETATM   23  N5  UNL     1      15.596  33.550  69.205  1.00  0.00    -0.297 N 
HETATM   24  C3  UNL     1      14.381  34.125  69.247  1.00  0.00     0.142 A 
HETATM   25  N3  UNL     1      13.283  33.853  69.958  1.00  0.00    -0.336 N 
HETATM   26  C4  UNL     1      14.323  35.194  68.364  1.00  0.00     0.119 A 
HETATM   27  C2  UNL     1      12.171  34.597  69.812  1.00  0.00     0.183 A 
ATOM     28  H3  UNL     1      13.288  33.075  70.618  1.00  0.00     0.168 HD
HETATM   29  N2  UNL     1      12.113  35.649  68.942  1.00  0.00    -0.339 N 
HETATM   30  C1  UNL     1      13.191  35.958  68.209  1.00  0.00     0.148 A 
ATOM     31  H2  UNL     1      11.256  36.195  68.851  1.00  0.00     0.167 HD
HETATM   32  N1  UNL     1      13.119  37.047  67.314  1.00  0.00    -0.080 NA
HETATM   33  N4  UNL     1      15.545  35.241  67.789  1.00  0.00    -0.346 N 
HETATM   34  C5  UNL     1      16.308  34.246  68.302  1.00  0.00     0.188 A 
ATOM     35  H4  UNL     1      15.844  35.915  67.085  1.00  0.00     0.167 HD
ENDBRANCH   1  23
BRANCH   5  36
HETATM   36  O12 UNL     1      15.426  30.516  68.643  1.00  0.00    -0.388 OA
ATOM     37  H12 UNL     1      15.465  29.641  69.009  1.00  0.00     0.210 HD
ENDBRANCH   5  36
TORSDOF 10
ENDMDL
