MODEL 15
REMARK VINA RESULT: -9.019849673      1.830      3.256
REMARK  10 active torsions:
REMARK  status: ('A' for Active; 'I' for Inactive)
REMARK    1  A    between atoms: N5_13  and  C6_14 
REMARK    2  A    between atoms: C7_16  and  C8_17 
REMARK    3  A    between atoms: C8_17  and  O2_18 
REMARK    4  A    between atoms: O2_18  and  P1_19 
REMARK    5  A    between atoms: P1_19  and  O5_22 
REMARK    6  A    between atoms: O5_22  and  P2_23 
REMARK    7  A    between atoms: P2_23  and  N6_26 
REMARK    8  A    between atoms: N6_26  and  P3_28 
REMARK    9  A    between atoms: C9_32  and  O11_33 
REMARK   10  A    between atoms: C10_35  and  O12_36 
ROOT
HETATM    1  C6  UNL     1      16.411  31.721  70.045  1.00  0.00     0.262 C 
HETATM    2  O1  UNL     1      17.465  31.285  70.861  1.00  0.00    -0.353 OA
HETATM    3  C7  UNL     1      17.262  29.907  70.891  1.00  0.00     0.180 C 
HETATM    4  C9  UNL     1      16.920  29.502  69.475  1.00  0.00     0.182 C 
HETATM    5  C10 UNL     1      16.541  30.829  68.850  1.00  0.00     0.198 C 
ENDROOT
BRANCH   3   6
HETATM    6  C8  UNL     1      18.434  29.143  71.436  1.00  0.00     0.216 C 
BRANCH   6   7
HETATM    7  O2  UNL     1      19.401  29.956  71.968  1.00  0.00    -0.287 OA
BRANCH   7   8
HETATM    8  P1  UNL     1      20.899  29.344  72.148  1.00  0.00     0.417 P 
HETATM    9  O3  UNL     1      21.437  28.833  73.643  1.00  0.00    -0.624 OA
HETATM   10  O4  UNL     1      21.890  29.081  70.853  1.00  0.00    -0.624 OA
BRANCH   8  11
HETATM   11  O5  UNL     1      21.525  30.709  72.419  1.00  0.00    -0.186 OA
BRANCH  11  12
HETATM   12  P2  UNL     1      20.733  31.981  73.110  1.00  0.00     0.379 P 
HETATM   13  O6  UNL     1      20.352  33.311  72.127  1.00  0.00    -0.629 OA
HETATM   14  O7  UNL     1      20.124  31.951  74.602  1.00  0.00    -0.629 OA
BRANCH  12  15
HETATM   15  N6  UNL     1      22.162  32.634  73.426  1.00  0.00    -0.218 N 
ATOM     16  H6  UNL     1      22.378  33.520  72.969  1.00  0.00     0.179 HD
BRANCH  15  17
HETATM   17  P3  UNL     1      23.328  31.995  74.437  1.00  0.00     0.381 P 
HETATM   18  O8  UNL     1      23.566  32.623  75.955  1.00  0.00    -0.622 OA
HETATM   19  O9  UNL     1      24.125  30.566  74.014  1.00  0.00    -0.622 OA
HETATM   20  O10 UNL     1      24.572  32.746  73.933  1.00  0.00    -0.622 OA
ENDBRANCH  15  17
ENDBRANCH  12  15
ENDBRANCH  11  12
ENDBRANCH   8  11
ENDBRANCH   7   8
ENDBRANCH   6   7
ENDBRANCH   3   6
BRANCH   4  21
HETATM   21  O11 UNL     1      15.769  28.697  69.452  1.00  0.00    -0.390 OA
ATOM     22  H11 UNL     1      15.862  27.960  70.045  1.00  0.00     0.210 HD
ENDBRANCH   4  21
BRANCH   1  23
HETATM   23  N5  UNL     1      16.530  33.105  69.696  1.00  0.00    -0.297 N 
HETATM   24  C3  UNL     1      15.635  33.920  69.112  1.00  0.00     0.142 A 
HETATM   25  N3  UNL     1      14.387  33.720  68.679  1.00  0.00    -0.336 N 
HETATM   26  C4  UNL     1      16.169  35.192  68.959  1.00  0.00     0.119 A 
HETATM   27  C2  UNL     1      13.687  34.725  68.117  1.00  0.00     0.183 A 
ATOM     28  H3  UNL     1      13.960  32.798  68.774  1.00  0.00     0.168 HD
HETATM   29  N2  UNL     1      14.214  35.977  67.966  1.00  0.00    -0.339 N 
HETATM   30  C1  UNL     1      15.461  36.222  68.387  1.00  0.00     0.148 A 
ATOM     31  H2  UNL     1      13.661  36.718  67.536  1.00  0.00     0.167 HD
HETATM   32  N1  UNL     1      15.994  37.519  68.225  1.00  0.00    -0.080 NA
HETATM   33  N4  UNL     1      17.417  35.111  69.471  1.00  0.00    -0.346 N 
HETATM   34  C5  UNL     1      17.628  33.849  69.915  1.00  0.00     0.188 A 
ATOM     35  H4  UNL     1      18.090  35.877  69.517  1.00  0.00     0.167 HD
ENDBRANCH   1  23
BRANCH   5  36
HETATM   36  O12 UNL     1      15.342  30.715  68.138  1.00  0.00    -0.388 OA
ATOM     37  H12 UNL     1      14.766  30.055  68.504  1.00  0.00     0.210 HD
ENDBRANCH   5  36
TORSDOF 10
ENDMDL
