MODEL 3
REMARK VINA RESULT: -10.690624726      1.689      2.975
REMARK  10 active torsions:
REMARK  status: ('A' for Active; 'I' for Inactive)
REMARK    1  A    between atoms: N5_13  and  C6_14 
REMARK    2  A    between atoms: C7_16  and  C8_17 
REMARK    3  A    between atoms: C8_17  and  O2_18 
REMARK    4  A    between atoms: O2_18  and  P1_19 
REMARK    5  A    between atoms: P1_19  and  O5_22 
REMARK    6  A    between atoms: O5_22  and  P2_23 
REMARK    7  A    between atoms: P2_23  and  N6_26 
REMARK    8  A    between atoms: N6_26  and  P3_28 
REMARK    9  A    between atoms: C9_32  and  O11_33 
REMARK   10  A    between atoms: C10_35  and  O12_36 
ROOT
HETATM    1  C6  UNL     1      14.299  35.457  68.107  1.00  0.00     0.262 C 
HETATM    2  O1  UNL     1      14.343  34.055  68.059  1.00  0.00    -0.353 OA
HETATM    3  C7  UNL     1      15.691  33.796  68.296  1.00  0.00     0.180 C 
HETATM    4  C9  UNL     1      16.109  34.727  69.412  1.00  0.00     0.182 C 
HETATM    5  C10 UNL     1      14.995  35.754  69.398  1.00  0.00     0.198 C 
ENDROOT
BRANCH   3   6
HETATM    6  C8  UNL     1      15.974  32.357  68.616  1.00  0.00     0.216 C 
BRANCH   6   7
HETATM    7  O2  UNL     1      16.295  32.156  69.934  1.00  0.00    -0.287 OA
BRANCH   7   8
HETATM    8  P1  UNL     1      15.743  30.806  70.656  1.00  0.00     0.417 P 
HETATM    9  O3  UNL     1      14.930  30.888  72.112  1.00  0.00    -0.624 OA
HETATM   10  O4  UNL     1      15.842  29.328  69.924  1.00  0.00    -0.624 OA
BRANCH   8  11
HETATM   11  O5  UNL     1      17.040  30.573  71.424  1.00  0.00    -0.186 OA
BRANCH  11  12
HETATM   12  P2  UNL     1      18.167  29.433  71.033  1.00  0.00     0.379 P 
HETATM   13  O6  UNL     1      18.114  27.947  71.853  1.00  0.00    -0.629 OA
HETATM   14  O7  UNL     1      19.180  29.567  69.787  1.00  0.00    -0.629 OA
BRANCH  12  15
HETATM   15  N6  UNL     1      19.099  30.030  72.192  1.00  0.00    -0.218 N 
ATOM     16  H6  UNL     1      18.631  30.456  72.991  1.00  0.00     0.179 HD
BRANCH  15  17
HETATM   17  P3  UNL     1      20.769  30.017  72.207  1.00  0.00     0.381 P 
HETATM   18  O8  UNL     1      21.621  29.394  70.926  1.00  0.00    -0.622 OA
HETATM   19  O9  UNL     1      21.612  30.835  73.422  1.00  0.00    -0.622 OA
HETATM   20  O10 UNL     1      21.028  28.727  73.004  1.00  0.00    -0.622 OA
ENDBRANCH  15  17
ENDBRANCH  12  15
ENDBRANCH  11  12
ENDBRANCH   8  11
ENDBRANCH   7   8
ENDBRANCH   6   7
ENDBRANCH   3   6
BRANCH   4  21
HETATM   21  O11 UNL     1      17.293  35.405  69.077  1.00  0.00    -0.390 OA
ATOM     22  H11 UNL     1      17.575  35.176  68.200  1.00  0.00     0.210 HD
ENDBRANCH   4  21
BRANCH   1  23
HETATM   23  N5  UNL     1      12.958  35.959  68.093  1.00  0.00    -0.297 N 
HETATM   24  C3  UNL     1      11.902  35.599  68.842  1.00  0.00     0.142 A 
HETATM   25  N3  UNL     1      11.755  34.689  69.809  1.00  0.00    -0.336 N 
HETATM   26  C4  UNL     1      10.787  36.350  68.495  1.00  0.00     0.119 A 
HETATM   27  C2  UNL     1      10.564  34.520  70.415  1.00  0.00     0.183 A 
ATOM     28  H3  UNL     1      12.552  34.118  70.091  1.00  0.00     0.168 HD
HETATM   29  N2  UNL     1       9.467  35.259  70.074  1.00  0.00    -0.339 N 
HETATM   30  C1  UNL     1       9.569  36.183  69.110  1.00  0.00     0.148 A 
ATOM     31  H2  UNL     1       8.577  35.108  70.550  1.00  0.00     0.167 HD
HETATM   32  N1  UNL     1       8.428  36.939  68.766  1.00  0.00    -0.080 NA
HETATM   33  N4  UNL     1      11.211  37.174  67.512  1.00  0.00    -0.346 N 
HETATM   34  C5  UNL     1      12.523  36.932  67.274  1.00  0.00     0.188 A 
ATOM     35  H4  UNL     1      10.638  37.865  67.028  1.00  0.00     0.167 HD
ENDBRANCH   1  23
BRANCH   5  36
HETATM   36  O12 UNL     1      15.520  37.051  69.433  1.00  0.00    -0.388 OA
ATOM     37  H12 UNL     1      15.824  37.295  70.299  1.00  0.00     0.210 HD
ENDBRANCH   5  36
TORSDOF 10
ENDMDL
