MODEL 11
REMARK VINA RESULT: -9.473600886      1.769      3.166
REMARK  10 active torsions:
REMARK  status: ('A' for Active; 'I' for Inactive)
REMARK    1  A    between atoms: N5_13  and  C6_14 
REMARK    2  A    between atoms: C7_16  and  C8_17 
REMARK    3  A    between atoms: C8_17  and  O2_18 
REMARK    4  A    between atoms: O2_18  and  P1_19 
REMARK    5  A    between atoms: P1_19  and  O5_22 
REMARK    6  A    between atoms: O5_22  and  P2_23 
REMARK    7  A    between atoms: P2_23  and  N6_26 
REMARK    8  A    between atoms: N6_26  and  P3_28 
REMARK    9  A    between atoms: C9_32  and  O11_33 
REMARK   10  A    between atoms: C10_35  and  O12_36 
ROOT
HETATM    1  C6  UNL     1      14.080  34.448  68.516  1.00  0.00     0.262 C 
HETATM    2  O1  UNL     1      14.057  33.148  67.990  1.00  0.00    -0.353 OA
HETATM    3  C7  UNL     1      15.410  32.817  67.969  1.00  0.00     0.180 C 
HETATM    4  C9  UNL     1      15.984  33.308  69.279  1.00  0.00     0.182 C 
HETATM    5  C10 UNL     1      14.921  34.283  69.742  1.00  0.00     0.198 C 
ENDROOT
BRANCH   3   6
HETATM    6  C8  UNL     1      15.663  31.354  67.747  1.00  0.00     0.216 C 
BRANCH   6   7
HETATM    7  O2  UNL     1      16.657  30.856  68.549  1.00  0.00    -0.287 OA
BRANCH   7   8
HETATM    8  P1  UNL     1      16.328  29.531  69.437  1.00  0.00     0.417 P 
HETATM    9  O3  UNL     1      15.237  29.599  70.698  1.00  0.00    -0.624 OA
HETATM   10  O4  UNL     1      16.950  28.051  69.050  1.00  0.00    -0.624 OA
BRANCH   8  11
HETATM   11  O5  UNL     1      17.453  29.804  70.431  1.00  0.00    -0.186 OA
BRANCH  11  12
HETATM   12  P2  UNL     1      17.639  31.213  71.269  1.00  0.00     0.379 P 
HETATM   13  O6  UNL     1      18.945  32.218  70.859  1.00  0.00    -0.629 OA
HETATM   14  O7  UNL     1      16.548  31.789  72.306  1.00  0.00    -0.629 OA
BRANCH  12  15
HETATM   15  N6  UNL     1      18.580  30.421  72.295  1.00  0.00    -0.218 N 
ATOM     16  H6  UNL     1      18.118  29.894  73.036  1.00  0.00     0.179 HD
BRANCH  15  17
HETATM   17  P3  UNL     1      20.249  30.380  72.260  1.00  0.00     0.381 P 
HETATM   18  O8  UNL     1      21.050  29.707  70.971  1.00  0.00    -0.622 OA
HETATM   19  O9  UNL     1      21.143  31.217  73.424  1.00  0.00    -0.622 OA
HETATM   20  O10 UNL     1      20.512  29.108  73.084  1.00  0.00    -0.622 OA
ENDBRANCH  15  17
ENDBRANCH  12  15
ENDBRANCH  11  12
ENDBRANCH   8  11
ENDBRANCH   7   8
ENDBRANCH   6   7
ENDBRANCH   3   6
BRANCH   4  21
HETATM   21  O11 UNL     1      17.155  34.054  69.061  1.00  0.00    -0.390 OA
ATOM     22  H11 UNL     1      17.796  33.541  68.584  1.00  0.00     0.210 HD
ENDBRANCH   4  21
BRANCH   1  23
HETATM   23  N5  UNL     1      12.768  34.931  68.827  1.00  0.00    -0.297 N 
HETATM   24  C3  UNL     1      12.073  35.940  68.272  1.00  0.00     0.142 A 
HETATM   25  N3  UNL     1      12.362  36.793  67.286  1.00  0.00    -0.336 N 
HETATM   26  C4  UNL     1      10.833  36.064  68.884  1.00  0.00     0.119 A 
HETATM   27  C2  UNL     1      11.474  37.733  66.911  1.00  0.00     0.183 A 
ATOM     28  H3  UNL     1      13.264  36.732  66.813  1.00  0.00     0.168 HD
HETATM   29  N2  UNL     1      10.253  37.856  67.513  1.00  0.00    -0.339 N 
HETATM   30  C1  UNL     1       9.921  37.021  68.506  1.00  0.00     0.148 A 
ATOM     31  H2  UNL     1       9.600  38.578  67.209  1.00  0.00     0.167 HD
HETATM   32  N1  UNL     1       8.658  37.158  69.120  1.00  0.00    -0.080 NA
HETATM   33  N4  UNL     1      10.808  35.095  69.825  1.00  0.00    -0.346 N 
HETATM   34  C5  UNL     1      11.979  34.415  69.785  1.00  0.00     0.188 A 
ATOM     35  H4  UNL     1      10.033  34.907  70.462  1.00  0.00     0.167 HD
ENDBRANCH   1  23
BRANCH   5  36
HETATM   36  O12 UNL     1      15.502  35.487  70.155  1.00  0.00    -0.388 OA
ATOM     37  H12 UNL     1      16.298  35.351  70.655  1.00  0.00     0.210 HD
ENDBRANCH   5  36
TORSDOF 10
ENDMDL
