MODEL 17
REMARK VINA RESULT: -8.599288347      1.738      2.996
REMARK  10 active torsions:
REMARK  status: ('A' for Active; 'I' for Inactive)
REMARK    1  A    between atoms: N5_13  and  C6_14 
REMARK    2  A    between atoms: C7_16  and  C8_17 
REMARK    3  A    between atoms: C8_17  and  O2_18 
REMARK    4  A    between atoms: O2_18  and  P1_19 
REMARK    5  A    between atoms: P1_19  and  O5_22 
REMARK    6  A    between atoms: O5_22  and  P2_23 
REMARK    7  A    between atoms: P2_23  and  N6_26 
REMARK    8  A    between atoms: N6_26  and  P3_28 
REMARK    9  A    between atoms: C9_32  and  O11_33 
REMARK   10  A    between atoms: C10_35  and  O12_36 
ROOT
HETATM    1  C6  UNL     1      16.095  31.586  69.746  1.00  0.00     0.262 C 
HETATM    2  O1  UNL     1      17.158  31.039  70.480  1.00  0.00    -0.353 OA
HETATM    3  C7  UNL     1      16.894  29.674  70.404  1.00  0.00     0.180 C 
HETATM    4  C9  UNL     1      16.482  29.404  68.975  1.00  0.00     0.182 C 
HETATM    5  C10 UNL     1      16.141  30.794  68.478  1.00  0.00     0.198 C 
ENDROOT
BRANCH   3   6
HETATM    6  C8  UNL     1      18.049  28.818  70.836  1.00  0.00     0.216 C 
BRANCH   6   7
HETATM    7  O2  UNL     1      18.674  29.292  71.961  1.00  0.00    -0.287 OA
BRANCH   7   8
HETATM    8  P1  UNL     1      20.021  30.185  71.768  1.00  0.00     0.417 P 
HETATM    9  O3  UNL     1      21.383  29.531  71.061  1.00  0.00    -0.624 OA
HETATM   10  O4  UNL     1      20.054  31.795  72.135  1.00  0.00    -0.624 OA
BRANCH   8  11
HETATM   11  O5  UNL     1      20.581  29.806  73.135  1.00  0.00    -0.186 OA
BRANCH  11  12
HETATM   12  P2  UNL     1      22.098  29.209  73.392  1.00  0.00     0.379 P 
HETATM   13  O6  UNL     1      22.697  29.213  74.981  1.00  0.00    -0.629 OA
HETATM   14  O7  UNL     1      22.959  28.441  72.268  1.00  0.00    -0.629 OA
BRANCH  12  15
HETATM   15  N6  UNL     1      22.663  30.694  73.184  1.00  0.00    -0.218 N 
ATOM     16  H6  UNL     1      22.979  30.942  72.246  1.00  0.00     0.179 HD
BRANCH  15  17
HETATM   17  P3  UNL     1      22.782  31.870  74.363  1.00  0.00     0.381 P 
HETATM   18  O8  UNL     1      21.417  32.553  75.015  1.00  0.00    -0.622 OA
HETATM   19  O9  UNL     1      24.279  32.219  75.064  1.00  0.00    -0.622 OA
HETATM   20  O10 UNL     1      22.987  33.119  73.489  1.00  0.00    -0.622 OA
ENDBRANCH  15  17
ENDBRANCH  12  15
ENDBRANCH  11  12
ENDBRANCH   8  11
ENDBRANCH   7   8
ENDBRANCH   6   7
ENDBRANCH   3   6
BRANCH   4  21
HETATM   21  O11 UNL     1      15.295  28.653  68.932  1.00  0.00    -0.390 OA
ATOM     22  H11 UNL     1      14.567  29.192  68.648  1.00  0.00     0.210 HD
ENDBRANCH   4  21
BRANCH   1  23
HETATM   23  N5  UNL     1      16.263  32.988  69.509  1.00  0.00    -0.297 N 
HETATM   24  C3  UNL     1      15.400  33.878  68.988  1.00  0.00     0.142 A 
HETATM   25  N3  UNL     1      14.148  33.757  68.537  1.00  0.00    -0.336 N 
HETATM   26  C4  UNL     1      15.979  35.138  68.938  1.00  0.00     0.119 A 
HETATM   27  C2  UNL     1      13.487  34.826  68.055  1.00  0.00     0.183 A 
ATOM     28  H3  UNL     1      13.690  32.845  68.558  1.00  0.00     0.168 HD
HETATM   29  N2  UNL     1      14.057  36.067  68.004  1.00  0.00    -0.339 N 
HETATM   30  C1  UNL     1      15.310  36.235  68.447  1.00  0.00     0.148 A 
ATOM     31  H2  UNL     1      13.533  36.859  67.633  1.00  0.00     0.167 HD
HETATM   32  N1  UNL     1      15.888  37.521  68.390  1.00  0.00    -0.080 NA
HETATM   33  N4  UNL     1      17.220  34.975  69.446  1.00  0.00    -0.346 N 
HETATM   34  C5  UNL     1      17.385  33.674  69.788  1.00  0.00     0.188 A 
ATOM     35  H4  UNL     1      17.919  35.710  69.554  1.00  0.00     0.167 HD
ENDBRANCH   1  23
BRANCH   5  36
HETATM   36  O12 UNL     1      14.912  30.791  67.808  1.00  0.00    -0.388 OA
ATOM     37  H12 UNL     1      14.739  29.963  67.375  1.00  0.00     0.210 HD
ENDBRANCH   5  36
TORSDOF 10
ENDMDL
