MODEL 2
REMARK VINA RESULT: -10.821520822      1.674      3.111
REMARK  10 active torsions:
REMARK  status: ('A' for Active; 'I' for Inactive)
REMARK    1  A    between atoms: N5_13  and  C6_14 
REMARK    2  A    between atoms: C7_16  and  C8_17 
REMARK    3  A    between atoms: C8_17  and  O2_18 
REMARK    4  A    between atoms: O2_18  and  P1_19 
REMARK    5  A    between atoms: P1_19  and  O5_22 
REMARK    6  A    between atoms: O5_22  and  P2_23 
REMARK    7  A    between atoms: P2_23  and  N6_26 
REMARK    8  A    between atoms: N6_26  and  P3_28 
REMARK    9  A    between atoms: C9_32  and  O11_33 
REMARK   10  A    between atoms: C10_35  and  O12_36 
ROOT
HETATM    1  C6  UNL     1      14.143  34.958  68.551  1.00  0.00     0.262 C 
HETATM    2  O1  UNL     1      14.407  33.591  68.379  1.00  0.00    -0.353 OA
HETATM    3  C7  UNL     1      15.799  33.565  68.334  1.00  0.00     0.180 C 
HETATM    4  C9  UNL     1      16.272  34.499  69.425  1.00  0.00     0.182 C 
HETATM    5  C10 UNL     1      15.024  35.311  69.707  1.00  0.00     0.198 C 
ENDROOT
BRANCH   3   6
HETATM    6  C8  UNL     1      16.374  32.185  68.475  1.00  0.00     0.216 C 
BRANCH   6   7
HETATM    7  O2  UNL     1      16.799  31.910  69.749  1.00  0.00    -0.287 OA
BRANCH   7   8
HETATM    8  P1  UNL     1      15.888  30.916  70.660  1.00  0.00     0.417 P 
HETATM    9  O3  UNL     1      15.146  31.473  72.048  1.00  0.00    -0.624 OA
HETATM   10  O4  UNL     1      15.550  29.370  70.185  1.00  0.00    -0.624 OA
BRANCH   8  11
HETATM   11  O5  UNL     1      17.070  30.456  71.507  1.00  0.00    -0.186 OA
BRANCH  11  12
HETATM   12  P2  UNL     1      18.150  29.295  71.054  1.00  0.00     0.379 P 
HETATM   13  O6  UNL     1      18.060  27.781  71.817  1.00  0.00    -0.629 OA
HETATM   14  O7  UNL     1      19.147  29.442  69.796  1.00  0.00    -0.629 OA
BRANCH  12  15
HETATM   15  N6  UNL     1      19.121  29.815  72.217  1.00  0.00    -0.218 N 
ATOM     16  H6  UNL     1      18.725  29.887  73.154  1.00  0.00     0.179 HD
BRANCH  15  17
HETATM   17  P3  UNL     1      20.724  30.249  72.033  1.00  0.00     0.381 P 
HETATM   18  O8  UNL     1      21.834  29.157  71.458  1.00  0.00    -0.622 OA
HETATM   19  O9  UNL     1      21.191  31.862  72.217  1.00  0.00    -0.622 OA
HETATM   20  O10 UNL     1      21.239  30.016  73.464  1.00  0.00    -0.622 OA
ENDBRANCH  15  17
ENDBRANCH  12  15
ENDBRANCH  11  12
ENDBRANCH   8  11
ENDBRANCH   7   8
ENDBRANCH   6   7
ENDBRANCH   3   6
BRANCH   4  21
HETATM   21  O11 UNL     1      17.237  35.393  68.930  1.00  0.00    -0.390 OA
ATOM     22  H11 UNL     1      16.875  35.926  68.233  1.00  0.00     0.210 HD
ENDBRANCH   4  21
BRANCH   1  23
HETATM   23  N5  UNL     1      12.762  35.213  68.832  1.00  0.00    -0.297 N 
HETATM   24  C3  UNL     1      11.939  36.138  68.308  1.00  0.00     0.142 A 
HETATM   25  N3  UNL     1      12.125  37.088  67.387  1.00  0.00    -0.336 N 
HETATM   26  C4  UNL     1      10.674  36.031  68.870  1.00  0.00     0.119 A 
HETATM   27  C2  UNL     1      11.115  37.904  67.030  1.00  0.00     0.183 A 
ATOM     28  H3  UNL     1      13.042  37.197  66.952  1.00  0.00     0.168 HD
HETATM   29  N2  UNL     1       9.870  37.799  67.584  1.00  0.00    -0.339 N 
HETATM   30  C1  UNL     1       9.638  36.860  68.510  1.00  0.00     0.148 A 
ATOM     31  H2  UNL     1       9.124  38.431  67.295  1.00  0.00     0.167 HD
HETATM   32  N1  UNL     1       8.348  36.762  69.074  1.00  0.00    -0.080 NA
HETATM   33  N4  UNL     1      10.767  35.010  69.750  1.00  0.00    -0.346 N 
HETATM   34  C5  UNL     1      12.030  34.521  69.722  1.00  0.00     0.188 A 
ATOM     35  H4  UNL     1      10.010  34.664  70.340  1.00  0.00     0.167 HD
ENDBRANCH   1  23
BRANCH   5  36
HETATM   36  O12 UNL     1      15.324  36.677  69.750  1.00  0.00    -0.388 OA
ATOM     37  H12 UNL     1      16.235  36.841  69.963  1.00  0.00     0.210 HD
ENDBRANCH   5  36
TORSDOF 10
ENDMDL
