MODEL 9
REMARK VINA RESULT: -9.897014217      2.026      3.633
REMARK  10 active torsions:
REMARK  status: ('A' for Active; 'I' for Inactive)
REMARK    1  A    between atoms: N5_13  and  C6_14 
REMARK    2  A    between atoms: C7_16  and  C8_17 
REMARK    3  A    between atoms: C8_17  and  O2_18 
REMARK    4  A    between atoms: O2_18  and  P1_19 
REMARK    5  A    between atoms: P1_19  and  O5_22 
REMARK    6  A    between atoms: O5_22  and  P2_23 
REMARK    7  A    between atoms: P2_23  and  N6_26 
REMARK    8  A    between atoms: N6_26  and  P3_28 
REMARK    9  A    between atoms: C9_32  and  O11_33 
REMARK   10  A    between atoms: C10_35  and  O12_36 
ROOT
HETATM    1  C6  UNL     1      13.747  35.669  67.899  1.00  0.00     0.262 C 
HETATM    2  O1  UNL     1      13.842  34.280  68.072  1.00  0.00    -0.353 OA
HETATM    3  C7  UNL     1      15.220  34.079  68.086  1.00  0.00     0.180 C 
HETATM    4  C9  UNL     1      15.797  35.189  68.936  1.00  0.00     0.182 C 
HETATM    5  C10 UNL     1      14.657  36.186  68.968  1.00  0.00     0.198 C 
ENDROOT
BRANCH   3   6
HETATM    6  C8  UNL     1      15.620  32.718  68.576  1.00  0.00     0.216 C 
BRANCH   6   7
HETATM    7  O2  UNL     1      16.928  32.657  68.981  1.00  0.00    -0.287 OA
BRANCH   7   8
HETATM    8  P1  UNL     1      17.264  33.006  70.535  1.00  0.00     0.417 P 
HETATM    9  O3  UNL     1      18.509  34.047  70.925  1.00  0.00    -0.624 OA
HETATM   10  O4  UNL     1      16.316  32.458  71.771  1.00  0.00    -0.624 OA
BRANCH   8  11
HETATM   11  O5  UNL     1      18.232  31.836  70.685  1.00  0.00    -0.186 OA
BRANCH  11  12
HETATM   12  P2  UNL     1      17.794  30.247  70.624  1.00  0.00     0.379 P 
HETATM   13  O6  UNL     1      16.363  29.783  71.410  1.00  0.00    -0.629 OA
HETATM   14  O7  UNL     1      18.529  29.152  69.697  1.00  0.00    -0.629 OA
BRANCH  12  15
HETATM   15  N6  UNL     1      18.606  30.022  71.986  1.00  0.00    -0.218 N 
ATOM     16  H6  UNL     1      18.080  29.672  72.787  1.00  0.00     0.179 HD
BRANCH  15  17
HETATM   17  P3  UNL     1      20.236  30.308  72.213  1.00  0.00     0.381 P 
HETATM   18  O8  UNL     1      21.346  29.808  71.084  1.00  0.00    -0.622 OA
HETATM   19  O9  UNL     1      20.755  31.301  73.477  1.00  0.00    -0.622 OA
HETATM   20  O10 UNL     1      20.606  29.110  73.104  1.00  0.00    -0.622 OA
ENDBRANCH  15  17
ENDBRANCH  12  15
ENDBRANCH  11  12
ENDBRANCH   8  11
ENDBRANCH   7   8
ENDBRANCH   6   7
ENDBRANCH   3   6
BRANCH   4  21
HETATM   21  O11 UNL     1      16.869  35.814  68.277  1.00  0.00    -0.390 OA
ATOM     22  H11 UNL     1      16.986  35.451  67.407  1.00  0.00     0.210 HD
ENDBRANCH   4  21
BRANCH   1  23
HETATM   23  N5  UNL     1      12.407  36.146  68.059  1.00  0.00    -0.297 N 
HETATM   24  C3  UNL     1      11.445  35.729  68.901  1.00  0.00     0.142 A 
HETATM   25  N3  UNL     1      11.418  34.770  69.830  1.00  0.00    -0.336 N 
HETATM   26  C4  UNL     1      10.289  36.476  68.719  1.00  0.00     0.119 A 
HETATM   27  C2  UNL     1      10.305  34.549  70.555  1.00  0.00     0.183 A 
ATOM     28  H3  UNL     1      12.249  34.201  69.992  1.00  0.00     0.168 HD
HETATM   29  N2  UNL     1       9.167  35.283  70.376  1.00  0.00    -0.339 N 
HETATM   30  C1  UNL     1       9.148  36.256  69.455  1.00  0.00     0.148 A 
ATOM     31  H2  UNL     1       8.338  35.092  70.938  1.00  0.00     0.167 HD
HETATM   32  N1  UNL     1       7.967  37.007  69.279  1.00  0.00    -0.080 NA
HETATM   33  N4  UNL     1      10.590  37.355  67.738  1.00  0.00    -0.346 N 
HETATM   34  C5  UNL     1      11.870  37.151  67.345  1.00  0.00     0.188 A 
ATOM     35  H4  UNL     1       9.957  38.059  67.357  1.00  0.00     0.167 HD
ENDBRANCH   1  23
BRANCH   5  36
HETATM   36  O12 UNL     1      15.123  37.477  68.691  1.00  0.00    -0.388 OA
ATOM     37  H12 UNL     1      15.399  37.937  69.475  1.00  0.00     0.210 HD
ENDBRANCH   5  36
TORSDOF 10
ENDMDL
