MODEL 8
REMARK VINA RESULT: -9.922887371      1.807      2.880
REMARK  10 active torsions:
REMARK  status: ('A' for Active; 'I' for Inactive)
REMARK    1  A    between atoms: N5_13  and  C6_14 
REMARK    2  A    between atoms: C7_16  and  C8_17 
REMARK    3  A    between atoms: C8_17  and  O2_18 
REMARK    4  A    between atoms: O2_18  and  P1_19 
REMARK    5  A    between atoms: P1_19  and  O5_22 
REMARK    6  A    between atoms: O5_22  and  P2_23 
REMARK    7  A    between atoms: P2_23  and  N6_26 
REMARK    8  A    between atoms: N6_26  and  P3_28 
REMARK    9  A    between atoms: C9_32  and  O11_33 
REMARK   10  A    between atoms: C10_35  and  O12_36 
ROOT
HETATM    1  C6  UNL     1      14.353  35.362  68.674  1.00  0.00     0.262 C 
HETATM    2  O1  UNL     1      14.340  34.354  69.649  1.00  0.00    -0.353 OA
HETATM    3  C7  UNL     1      15.699  34.153  69.880  1.00  0.00     0.180 C 
HETATM    4  C9  UNL     1      16.325  35.528  69.936  1.00  0.00     0.182 C 
HETATM    5  C10 UNL     1      15.260  36.385  69.282  1.00  0.00     0.198 C 
ENDROOT
BRANCH   3   6
HETATM    6  C8  UNL     1      15.981  33.347  71.115  1.00  0.00     0.216 C 
BRANCH   6   7
HETATM    7  O2  UNL     1      15.295  32.160  71.147  1.00  0.00    -0.287 OA
BRANCH   7   8
HETATM    8  P1  UNL     1      15.848  30.934  70.231  1.00  0.00     0.417 P 
HETATM    9  O3  UNL     1      15.274  29.382  70.447  1.00  0.00    -0.624 OA
HETATM   10  O4  UNL     1      16.889  31.191  68.973  1.00  0.00    -0.624 OA
BRANCH   8  11
HETATM   11  O5  UNL     1      16.995  30.613  71.185  1.00  0.00    -0.186 OA
BRANCH  11  12
HETATM   12  P2  UNL     1      18.120  29.433  70.934  1.00  0.00     0.379 P 
HETATM   13  O6  UNL     1      17.989  28.002  71.838  1.00  0.00    -0.629 OA
HETATM   14  O7  UNL     1      19.207  29.472  69.745  1.00  0.00    -0.629 OA
BRANCH  12  15
HETATM   15  N6  UNL     1      18.994  30.086  72.107  1.00  0.00    -0.218 N 
ATOM     16  H6  UNL     1      18.512  30.298  72.981  1.00  0.00     0.179 HD
BRANCH  15  17
HETATM   17  P3  UNL     1      20.622  30.449  72.028  1.00  0.00     0.381 P 
HETATM   18  O8  UNL     1      21.705  29.345  71.426  1.00  0.00    -0.622 OA
HETATM   19  O9  UNL     1      21.157  32.020  72.349  1.00  0.00    -0.622 OA
HETATM   20  O10 UNL     1      21.055  30.091  73.459  1.00  0.00    -0.622 OA
ENDBRANCH  15  17
ENDBRANCH  12  15
ENDBRANCH  11  12
ENDBRANCH   8  11
ENDBRANCH   7   8
ENDBRANCH   6   7
ENDBRANCH   3   6
BRANCH   4  21
HETATM   21  O11 UNL     1      17.462  35.591  69.113  1.00  0.00    -0.390 OA
ATOM     22  H11 UNL     1      18.164  35.060  69.469  1.00  0.00     0.210 HD
ENDBRANCH   4  21
BRANCH   1  23
HETATM   23  N5  UNL     1      13.046  35.889  68.419  1.00  0.00    -0.297 N 
HETATM   24  C3  UNL     1      11.880  35.615  69.028  1.00  0.00     0.142 A 
HETATM   25  N3  UNL     1      11.563  34.794  70.034  1.00  0.00    -0.336 N 
HETATM   26  C4  UNL     1      10.854  36.357  68.460  1.00  0.00     0.119 A 
HETATM   27  C2  UNL     1      10.291  34.701  70.467  1.00  0.00     0.183 A 
ATOM     28  H3  UNL     1      12.291  34.233  70.477  1.00  0.00     0.168 HD
HETATM   29  N2  UNL     1       9.280  35.431  69.907  1.00  0.00    -0.339 N 
HETATM   30  C1  UNL     1       9.553  36.267  68.897  1.00  0.00     0.148 A 
ATOM     31  H2  UNL     1       8.326  35.339  70.255  1.00  0.00     0.167 HD
HETATM   32  N1  UNL     1       8.501  37.015  68.327  1.00  0.00    -0.080 NA
HETATM   33  N4  UNL     1      11.444  37.085  67.487  1.00  0.00    -0.346 N 
HETATM   34  C5  UNL     1      12.768  36.797  67.468  1.00  0.00     0.188 A 
ATOM     35  H4  UNL     1      10.971  37.743  66.868  1.00  0.00     0.167 HD
ENDBRANCH   1  23
BRANCH   5  36
HETATM   36  O12 UNL     1      15.828  37.231  68.323  1.00  0.00    -0.388 OA
ATOM     37  H12 UNL     1      15.347  37.223  67.504  1.00  0.00     0.210 HD
ENDBRANCH   5  36
TORSDOF 10
ENDMDL
