MODEL 19
REMARK VINA RESULT: -9.152134359      1.943      2.569
REMARK  8 active torsions:
REMARK  status: ('A' for Active; 'I' for Inactive)
REMARK    1  A    between atoms: C1_2  and  C2_4 
REMARK    2  A    between atoms: C2_4  and  C3_5 
REMARK    3  A    between atoms: C2_4  and  N2_10 
REMARK    4  A    between atoms: C3_5  and  C4_6 
REMARK    5  A    between atoms: C4_6  and  C5_7 
REMARK       I    between atoms: N2_10  and  C6_12 
REMARK    6  A    between atoms: C6_12  and  C7_14 
REMARK    7  A    between atoms: C12_19  and  C13_20 
REMARK    8  A    between atoms: C13_20  and  P1_23 
ROOT
HETATM    1  C7  UNL     1     -19.435  53.678  17.914  1.00  0.00     0.032 A 
HETATM    2  C8  UNL     1     -20.362  53.073  17.101  1.00  0.00     0.018 A 
HETATM    3  C9  UNL     1     -20.933  53.764  16.052  1.00  0.00     0.013 A 
HETATM    4  C10 UNL     1     -20.594  55.075  15.786  1.00  0.00    -0.025 A 
HETATM    5  C11 UNL     1     -21.188  55.775  14.739  1.00  0.00     0.026 A 
HETATM    6  C12 UNL     1     -20.869  57.094  14.480  1.00  0.00     0.028 A 
HETATM    7  C14 UNL     1     -19.926  57.661  15.328  1.00  0.00     0.015 A 
HETATM    8  C15 UNL     1     -19.325  57.011  16.361  1.00  0.00     0.013 A 
HETATM    9  C16 UNL     1     -19.654  55.698  16.606  1.00  0.00    -0.025 A 
HETATM   10  C17 UNL     1     -19.082  54.985  17.667  1.00  0.00     0.029 A 
ENDROOT
BRANCH   1  11
HETATM   11  C6  UNL     1     -18.831  52.978  19.066  1.00  0.00     0.252 C 
HETATM   12  N2  UNL     1     -19.490  51.843  19.547  1.00  0.00    -0.344 N 
ATOM     13  H2  UNL     1     -20.357  51.607  19.064  1.00  0.00     0.163 HD
HETATM   14  O4  UNL     1     -17.786  53.419  19.544  1.00  0.00    -0.268 OA
BRANCH  12  15
HETATM   15  C2  UNL     1     -19.128  50.964  20.615  1.00  0.00     0.174 C 
BRANCH  15  16
HETATM   16  C1  UNL     1     -19.145  51.694  21.906  1.00  0.00     0.254 C 
HETATM   17  N1  UNL     1     -20.326  52.426  22.310  1.00  0.00    -0.060 NA
HETATM   18  O1  UNL     1     -18.179  51.726  22.697  1.00  0.00    -0.275 OA
ENDBRANCH  15  16
BRANCH  15  19
HETATM   19  C3  UNL     1     -17.750  50.309  20.415  1.00  0.00     0.045 C 
BRANCH  19  20
HETATM   20  C4  UNL     1     -17.970  48.828  20.185  1.00  0.00     0.116 C 
BRANCH  20  21
HETATM   21  C5  UNL     1     -18.826  48.229  21.234  1.00  0.00     0.172 C 
HETATM   22  O2  UNL     1     -18.414  48.176  22.404  1.00  0.00    -0.648 OA
HETATM   23  O3  UNL     1     -20.070  47.734  20.915  1.00  0.00    -0.648 OA
ENDBRANCH  20  21
ENDBRANCH  19  20
ENDBRANCH  15  19
ENDBRANCH  12  15
ENDBRANCH   1  11
BRANCH   6  24
HETATM   24  C13 UNL     1     -21.498  57.856  13.343  1.00  0.00     0.380 C 
HETATM   25  F1  UNL     1     -22.202  58.883  14.003  1.00  0.00    -0.185 F 
HETATM   26  F2  UNL     1     -22.481  57.006  12.865  1.00  0.00    -0.185 F 
BRANCH  24  27
HETATM   27  P1  UNL     1     -20.396  58.414  12.253  1.00  0.00     0.339 P 
HETATM   28  O5  UNL     1     -20.403  56.956  11.454  1.00  0.00    -0.635 OA
HETATM   29  O6  UNL     1     -19.227  58.764  13.312  1.00  0.00    -0.635 OA
HETATM   30  O7  UNL     1     -21.445  59.620  11.790  1.00  0.00    -0.635 OA
ENDBRANCH  24  27
ENDBRANCH   6  24
TORSDOF 8
ENDMDL
