MODEL 20
REMARK VINA RESULT: -9.080404198      3.282      3.812
REMARK  8 active torsions:
REMARK  status: ('A' for Active; 'I' for Inactive)
REMARK    1  A    between atoms: C1_2  and  C2_4 
REMARK    2  A    between atoms: C2_4  and  C3_5 
REMARK    3  A    between atoms: C2_4  and  N2_10 
REMARK    4  A    between atoms: C3_5  and  C4_6 
REMARK    5  A    between atoms: C4_6  and  C5_7 
REMARK       I    between atoms: N2_10  and  C6_12 
REMARK    6  A    between atoms: C6_12  and  C7_14 
REMARK    7  A    between atoms: C12_19  and  C13_20 
REMARK    8  A    between atoms: C13_20  and  P1_23 
ROOT
HETATM    1  C7  UNL     1     -18.580  55.333  18.623  1.00  0.00     0.032 A 
HETATM    2  C8  UNL     1     -19.193  54.335  17.904  1.00  0.00     0.018 A 
HETATM    3  C9  UNL     1     -19.847  54.620  16.724  1.00  0.00     0.013 A 
HETATM    4  C10 UNL     1     -19.907  55.907  16.229  1.00  0.00    -0.025 A 
HETATM    5  C11 UNL     1     -20.587  56.194  15.047  1.00  0.00     0.026 A 
HETATM    6  C12 UNL     1     -20.669  57.482  14.557  1.00  0.00     0.028 A 
HETATM    7  C14 UNL     1     -20.032  58.455  15.317  1.00  0.00     0.015 A 
HETATM    8  C15 UNL     1     -19.360  58.215  16.475  1.00  0.00     0.013 A 
HETATM    9  C16 UNL     1     -19.289  56.926  16.951  1.00  0.00    -0.025 A 
HETATM   10  C17 UNL     1     -18.627  56.623  18.147  1.00  0.00     0.029 A 
ENDROOT
BRANCH   1  11
HETATM   11  C6  UNL     1     -17.901  55.067  19.907  1.00  0.00     0.252 C 
HETATM   12  N2  UNL     1     -17.455  56.170  20.641  1.00  0.00    -0.344 N 
ATOM     13  H2  UNL     1     -17.623  57.078  20.205  1.00  0.00     0.163 HD
HETATM   14  O4  UNL     1     -17.761  53.900  20.271  1.00  0.00    -0.268 OA
BRANCH  12  15
HETATM   15  C2  UNL     1     -16.800  56.215  21.911  1.00  0.00     0.174 C 
BRANCH  15  16
HETATM   16  C1  UNL     1     -17.796  56.120  23.004  1.00  0.00     0.254 C 
HETATM   17  N1  UNL     1     -18.469  57.311  23.479  1.00  0.00    -0.060 NA
HETATM   18  O1  UNL     1     -18.107  55.051  23.568  1.00  0.00    -0.275 OA
ENDBRANCH  15  16
BRANCH  15  19
HETATM   19  C3  UNL     1     -15.946  57.480  22.103  1.00  0.00     0.045 C 
BRANCH  19  20
HETATM   20  C4  UNL     1     -14.626  57.262  21.393  1.00  0.00     0.116 C 
BRANCH  20  21
HETATM   21  C5  UNL     1     -14.467  58.171  20.236  1.00  0.00     0.172 C 
HETATM   22  O2  UNL     1     -15.352  58.214  19.365  1.00  0.00    -0.648 OA
HETATM   23  O3  UNL     1     -13.347  58.963  20.125  1.00  0.00    -0.648 OA
ENDBRANCH  20  21
ENDBRANCH  19  20
ENDBRANCH  15  19
ENDBRANCH  12  15
ENDBRANCH   1  11
BRANCH   6  24
HETATM   24  C13 UNL     1     -21.392  57.800  13.274  1.00  0.00     0.380 C 
HETATM   25  F1  UNL     1     -22.409  58.679  13.696  1.00  0.00    -0.185 F 
HETATM   26  F2  UNL     1     -22.052  56.626  12.954  1.00  0.00    -0.185 F 
BRANCH  24  27
HETATM   27  P1  UNL     1     -20.407  58.444  12.121  1.00  0.00     0.339 P 
HETATM   28  O5  UNL     1     -20.424  57.018  11.268  1.00  0.00    -0.635 OA
HETATM   29  O6  UNL     1     -19.169  58.805  13.094  1.00  0.00    -0.635 OA
HETATM   30  O7  UNL     1     -21.537  59.621  11.794  1.00  0.00    -0.635 OA
ENDBRANCH  24  27
ENDBRANCH   6  24
TORSDOF 8
ENDMDL
