MODEL 18
REMARK VINA RESULT: -9.163367246      1.142      2.872
REMARK  8 active torsions:
REMARK  status: ('A' for Active; 'I' for Inactive)
REMARK    1  A    between atoms: C1_2  and  C2_4 
REMARK    2  A    between atoms: C2_4  and  C3_5 
REMARK    3  A    between atoms: C2_4  and  N2_10 
REMARK    4  A    between atoms: C3_5  and  C4_6 
REMARK    5  A    between atoms: C4_6  and  C5_7 
REMARK       I    between atoms: N2_10  and  C6_12 
REMARK    6  A    between atoms: C6_12  and  C7_14 
REMARK    7  A    between atoms: C12_19  and  C13_20 
REMARK    8  A    between atoms: C13_20  and  P1_23 
ROOT
HETATM    1  C7  UNL     1     -19.049  54.001  18.191  1.00  0.00     0.032 A 
HETATM    2  C8  UNL     1     -19.847  53.262  17.351  1.00  0.00     0.018 A 
HETATM    3  C9  UNL     1     -20.457  53.852  16.263  1.00  0.00     0.013 A 
HETATM    4  C10 UNL     1     -20.287  55.193  15.984  1.00  0.00    -0.025 A 
HETATM    5  C11 UNL     1     -20.921  55.789  14.897  1.00  0.00     0.026 A 
HETATM    6  C12 UNL     1     -20.773  57.135  14.624  1.00  0.00     0.028 A 
HETATM    7  C14 UNL     1     -19.956  57.838  15.500  1.00  0.00     0.015 A 
HETATM    8  C15 UNL     1     -19.320  57.293  16.572  1.00  0.00     0.013 A 
HETATM    9  C16 UNL     1     -19.479  55.951  16.831  1.00  0.00    -0.025 A 
HETATM   10  C17 UNL     1     -18.865  55.339  17.931  1.00  0.00     0.029 A 
ENDROOT
BRANCH   1  11
HETATM   11  C6  UNL     1     -18.409  53.408  19.383  1.00  0.00     0.252 C 
HETATM   12  N2  UNL     1     -17.995  52.076  19.295  1.00  0.00    -0.344 N 
ATOM     13  H2  UNL     1     -18.194  51.616  18.406  1.00  0.00     0.163 HD
HETATM   14  O4  UNL     1     -18.269  54.105  20.387  1.00  0.00    -0.268 OA
BRANCH  12  15
HETATM   15  C2  UNL     1     -17.334  51.262  20.267  1.00  0.00     0.174 C 
BRANCH  15  16
HETATM   16  C1  UNL     1     -15.867  51.466  20.193  1.00  0.00     0.254 C 
HETATM   17  N1  UNL     1     -14.999  50.367  19.825  1.00  0.00    -0.060 NA
HETATM   18  O1  UNL     1     -15.306  52.554  20.434  1.00  0.00    -0.275 OA
ENDBRANCH  15  16
BRANCH  15  19
HETATM   19  C3  UNL     1     -17.652  49.764  20.116  1.00  0.00     0.045 C 
BRANCH  19  20
HETATM   20  C4  UNL     1     -18.545  49.360  21.270  1.00  0.00     0.116 C 
BRANCH  20  21
HETATM   21  C5  UNL     1     -19.670  50.304  21.453  1.00  0.00     0.172 C 
HETATM   22  O2  UNL     1     -20.523  50.420  20.557  1.00  0.00    -0.648 OA
HETATM   23  O3  UNL     1     -19.771  51.048  22.607  1.00  0.00    -0.648 OA
ENDBRANCH  20  21
ENDBRANCH  19  20
ENDBRANCH  15  19
ENDBRANCH  12  15
ENDBRANCH   1  11
BRANCH   6  24
HETATM   24  C13 UNL     1     -21.446  57.786  13.444  1.00  0.00     0.380 C 
HETATM   25  F1  UNL     1     -22.160  58.847  14.035  1.00  0.00    -0.185 F 
HETATM   26  F2  UNL     1     -22.419  56.878  13.062  1.00  0.00    -0.185 F 
BRANCH  24  27
HETATM   27  P1  UNL     1     -20.384  58.277  12.286  1.00  0.00     0.339 P 
HETATM   28  O5  UNL     1     -21.398  59.515  11.838  1.00  0.00    -0.635 OA
HETATM   29  O6  UNL     1     -20.351  56.898  11.445  1.00  0.00    -0.635 OA
HETATM   30  O7  UNL     1     -19.218  58.536  13.445  1.00  0.00    -0.635 OA
ENDBRANCH  24  27
ENDBRANCH   6  24
TORSDOF 8
ENDMDL
