MODEL 2
REMARK VINA RESULT: -9.739286531      1.768      3.250
REMARK  8 active torsions:
REMARK  status: ('A' for Active; 'I' for Inactive)
REMARK    1  A    between atoms: C1_2  and  C2_4 
REMARK    2  A    between atoms: C2_4  and  C3_5 
REMARK    3  A    between atoms: C2_4  and  N2_10 
REMARK    4  A    between atoms: C3_5  and  C4_6 
REMARK    5  A    between atoms: C4_6  and  C5_7 
REMARK       I    between atoms: N2_10  and  C6_12 
REMARK    6  A    between atoms: C6_12  and  C7_14 
REMARK    7  A    between atoms: C12_19  and  C13_20 
REMARK    8  A    between atoms: C13_20  and  P1_23 
ROOT
HETATM    1  C7  UNL     1     -19.183  54.003  18.033  1.00  0.00     0.032 A 
HETATM    2  C8  UNL     1     -20.040  53.299  17.220  1.00  0.00     0.018 A 
HETATM    3  C9  UNL     1     -20.643  53.911  16.140  1.00  0.00     0.013 A 
HETATM    4  C10 UNL     1     -20.409  55.238  15.843  1.00  0.00    -0.025 A 
HETATM    5  C11 UNL     1     -21.036  55.856  14.764  1.00  0.00     0.026 A 
HETATM    6  C12 UNL     1     -20.823  57.189  14.472  1.00  0.00     0.028 A 
HETATM    7  C14 UNL     1     -19.949  57.856  15.321  1.00  0.00     0.015 A 
HETATM    8  C15 UNL     1     -19.318  57.288  16.385  1.00  0.00     0.013 A 
HETATM    9  C16 UNL     1     -19.542  55.960  16.662  1.00  0.00    -0.025 A 
HETATM   10  C17 UNL     1     -18.935  55.327  17.754  1.00  0.00     0.029 A 
ENDROOT
BRANCH   1  11
HETATM   11  C6  UNL     1     -18.548  53.388  19.217  1.00  0.00     0.252 C 
HETATM   12  N2  UNL     1     -18.767  52.024  19.429  1.00  0.00    -0.344 N 
ATOM     13  H2  UNL     1     -19.375  51.570  18.747  1.00  0.00     0.163 HD
HETATM   14  O4  UNL     1     -17.862  54.095  19.953  1.00  0.00    -0.268 OA
BRANCH  12  15
HETATM   15  C2  UNL     1     -18.265  51.171  20.461  1.00  0.00     0.174 C 
BRANCH  15  16
HETATM   16  C1  UNL     1     -17.188  50.303  19.928  1.00  0.00     0.254 C 
HETATM   17  N1  UNL     1     -15.837  50.810  19.813  1.00  0.00    -0.060 NA
HETATM   18  O1  UNL     1     -17.368  49.125  19.556  1.00  0.00    -0.275 OA
ENDBRANCH  15  16
BRANCH  15  19
HETATM   19  C3  UNL     1     -19.356  50.298  21.104  1.00  0.00     0.045 C 
BRANCH  19  20
HETATM   20  C4  UNL     1     -20.389  51.221  21.717  1.00  0.00     0.116 C 
BRANCH  20  21
HETATM   21  C5  UNL     1     -21.672  51.177  20.980  1.00  0.00     0.172 C 
HETATM   22  O2  UNL     1     -21.845  51.928  20.006  1.00  0.00    -0.648 OA
HETATM   23  O3  UNL     1     -22.668  50.310  21.372  1.00  0.00    -0.648 OA
ENDBRANCH  20  21
ENDBRANCH  19  20
ENDBRANCH  15  19
ENDBRANCH  12  15
ENDBRANCH   1  11
BRANCH   6  24
HETATM   24  C13 UNL     1     -21.488  57.863  13.302  1.00  0.00     0.380 C 
HETATM   25  F1  UNL     1     -22.231  58.894  13.912  1.00  0.00    -0.185 F 
HETATM   26  F2  UNL     1     -22.438  56.950  12.876  1.00  0.00    -0.185 F 
BRANCH  24  27
HETATM   27  P1  UNL     1     -20.416  58.408  12.176  1.00  0.00     0.339 P 
HETATM   28  O5  UNL     1     -20.447  56.942  11.393  1.00  0.00    -0.635 OA
HETATM   29  O6  UNL     1     -19.217  58.767  13.199  1.00  0.00    -0.635 OA
HETATM   30  O7  UNL     1     -21.475  59.612  11.729  1.00  0.00    -0.635 OA
ENDBRANCH  24  27
ENDBRANCH   6  24
TORSDOF 8
ENDMDL
