MODEL 5
REMARK VINA RESULT: -9.624616350      1.417      2.665
REMARK  8 active torsions:
REMARK  status: ('A' for Active; 'I' for Inactive)
REMARK    1  A    between atoms: C1_2  and  C2_4 
REMARK    2  A    between atoms: C2_4  and  C3_5 
REMARK    3  A    between atoms: C2_4  and  N2_10 
REMARK    4  A    between atoms: C3_5  and  C4_6 
REMARK    5  A    between atoms: C4_6  and  C5_7 
REMARK       I    between atoms: N2_10  and  C6_12 
REMARK    6  A    between atoms: C6_12  and  C7_14 
REMARK    7  A    between atoms: C12_19  and  C13_20 
REMARK    8  A    between atoms: C13_20  and  P1_23 
ROOT
HETATM    1  C7  UNL     1     -19.180  53.945  18.176  1.00  0.00     0.032 A 
HETATM    2  C8  UNL     1     -20.036  53.231  17.371  1.00  0.00     0.018 A 
HETATM    3  C9  UNL     1     -20.636  53.828  16.281  1.00  0.00     0.013 A 
HETATM    4  C10 UNL     1     -20.400  55.150  15.965  1.00  0.00    -0.025 A 
HETATM    5  C11 UNL     1     -21.024  55.753  14.875  1.00  0.00     0.026 A 
HETATM    6  C12 UNL     1     -20.808  57.081  14.565  1.00  0.00     0.028 A 
HETATM    7  C14 UNL     1     -19.935  57.760  15.405  1.00  0.00     0.015 A 
HETATM    8  C15 UNL     1     -19.307  57.206  16.478  1.00  0.00     0.013 A 
HETATM    9  C16 UNL     1     -19.534  55.882  16.775  1.00  0.00    -0.025 A 
HETATM   10  C17 UNL     1     -18.930  55.265  17.877  1.00  0.00     0.029 A 
ENDROOT
BRANCH   1  11
HETATM   11  C6  UNL     1     -18.549  53.347  19.369  1.00  0.00     0.252 C 
HETATM   12  N2  UNL     1     -17.993  52.072  19.232  1.00  0.00    -0.344 N 
ATOM     13  H2  UNL     1     -18.094  51.651  18.308  1.00  0.00     0.163 HD
HETATM   14  O4  UNL     1     -18.538  53.991  20.417  1.00  0.00    -0.268 OA
BRANCH  12  15
HETATM   15  C2  UNL     1     -17.304  51.271  20.196  1.00  0.00     0.174 C 
BRANCH  15  16
HETATM   16  C1  UNL     1     -15.869  51.641  20.237  1.00  0.00     0.254 C 
HETATM   17  N1  UNL     1     -14.868  50.724  19.734  1.00  0.00    -0.060 NA
HETATM   18  O1  UNL     1     -15.446  52.724  20.691  1.00  0.00    -0.275 OA
ENDBRANCH  15  16
BRANCH  15  19
HETATM   19  C3  UNL     1     -17.437  49.762  19.929  1.00  0.00     0.045 C 
BRANCH  19  20
HETATM   20  C4  UNL     1     -18.616  49.250  20.729  1.00  0.00     0.116 C 
BRANCH  20  21
HETATM   21  C5  UNL     1     -18.546  47.787  20.940  1.00  0.00     0.172 C 
HETATM   22  O2  UNL     1     -18.599  47.024  19.961  1.00  0.00    -0.648 OA
HETATM   23  O3  UNL     1     -18.423  47.274  22.211  1.00  0.00    -0.648 OA
ENDBRANCH  20  21
ENDBRANCH  19  20
ENDBRANCH  15  19
ENDBRANCH  12  15
ENDBRANCH   1  11
BRANCH   6  24
HETATM   24  C13 UNL     1     -21.471  57.739  13.383  1.00  0.00     0.380 C 
HETATM   25  F1  UNL     1     -22.284  58.721  13.983  1.00  0.00    -0.185 F 
HETATM   26  F2  UNL     1     -22.358  56.786  12.914  1.00  0.00    -0.185 F 
BRANCH  24  27
HETATM   27  P1  UNL     1     -20.393  58.355  12.300  1.00  0.00     0.339 P 
HETATM   28  O5  UNL     1     -20.384  56.927  11.451  1.00  0.00    -0.635 OA
HETATM   29  O6  UNL     1     -19.217  58.690  13.357  1.00  0.00    -0.635 OA
HETATM   30  O7  UNL     1     -21.469  59.558  11.892  1.00  0.00    -0.635 OA
ENDBRANCH  24  27
ENDBRANCH   6  24
TORSDOF 8
ENDMDL
