MODEL 4
REMARK VINA RESULT: -9.717164547      1.659      2.191
REMARK  8 active torsions:
REMARK  status: ('A' for Active; 'I' for Inactive)
REMARK    1  A    between atoms: C1_2  and  C2_4 
REMARK    2  A    between atoms: C2_4  and  C3_5 
REMARK    3  A    between atoms: C2_4  and  N2_10 
REMARK    4  A    between atoms: C3_5  and  C4_6 
REMARK    5  A    between atoms: C4_6  and  C5_7 
REMARK       I    between atoms: N2_10  and  C6_12 
REMARK    6  A    between atoms: C6_12  and  C7_14 
REMARK    7  A    between atoms: C12_19  and  C13_20 
REMARK    8  A    between atoms: C13_20  and  P1_23 
ROOT
HETATM    1  C7  UNL     1     -19.015  54.257  18.201  1.00  0.00     0.032 A 
HETATM    2  C8  UNL     1     -19.810  53.476  17.396  1.00  0.00     0.018 A 
HETATM    3  C9  UNL     1     -20.429  54.013  16.286  1.00  0.00     0.013 A 
HETATM    4  C10 UNL     1     -20.272  55.342  15.949  1.00  0.00    -0.025 A 
HETATM    5  C11 UNL     1     -20.915  55.885  14.840  1.00  0.00     0.026 A 
HETATM    6  C12 UNL     1     -20.779  57.219  14.508  1.00  0.00     0.028 A 
HETATM    7  C14 UNL     1     -19.965  57.966  15.350  1.00  0.00     0.015 A 
HETATM    8  C15 UNL     1     -19.321  57.473  16.442  1.00  0.00     0.013 A 
HETATM    9  C16 UNL     1     -19.468  56.142  16.759  1.00  0.00    -0.025 A 
HETATM   10  C17 UNL     1     -18.844  55.584  17.882  1.00  0.00     0.029 A 
ENDROOT
BRANCH   1  11
HETATM   11  C6  UNL     1     -18.367  53.721  19.414  1.00  0.00     0.252 C 
HETATM   12  N2  UNL     1     -18.184  52.337  19.489  1.00  0.00    -0.344 N 
ATOM     13  H2  UNL     1     -18.540  51.808  18.693  1.00  0.00     0.163 HD
HETATM   14  O4  UNL     1     -18.018  54.507  20.294  1.00  0.00    -0.268 OA
BRANCH  12  15
HETATM   15  C2  UNL     1     -17.570  51.554  20.516  1.00  0.00     0.174 C 
BRANCH  15  16
HETATM   16  C1  UNL     1     -16.807  50.433  19.918  1.00  0.00     0.254 C 
HETATM   17  N1  UNL     1     -15.360  50.471  19.893  1.00  0.00    -0.060 NA
HETATM   18  O1  UNL     1     -17.340  49.423  19.413  1.00  0.00    -0.275 OA
ENDBRANCH  15  16
BRANCH  15  19
HETATM   19  C3  UNL     1     -18.581  51.000  21.536  1.00  0.00     0.045 C 
BRANCH  19  20
HETATM   20  C4  UNL     1     -18.283  51.637  22.877  1.00  0.00     0.116 C 
BRANCH  20  21
HETATM   21  C5  UNL     1     -17.304  50.846  23.657  1.00  0.00     0.172 C 
HETATM   22  O2  UNL     1     -17.683  49.833  24.267  1.00  0.00    -0.648 OA
HETATM   23  O3  UNL     1     -15.984  51.232  23.706  1.00  0.00    -0.648 OA
ENDBRANCH  20  21
ENDBRANCH  19  20
ENDBRANCH  15  19
ENDBRANCH  12  15
ENDBRANCH   1  11
BRANCH   6  24
HETATM   24  C13 UNL     1     -21.463  57.812  13.304  1.00  0.00     0.380 C 
HETATM   25  F1  UNL     1     -22.288  58.805  13.868  1.00  0.00    -0.185 F 
HETATM   26  F2  UNL     1     -22.337  56.824  12.885  1.00  0.00    -0.185 F 
BRANCH  24  27
HETATM   27  P1  UNL     1     -20.404  58.399  12.187  1.00  0.00     0.339 P 
HETATM   28  O5  UNL     1     -20.415  56.950  11.372  1.00  0.00    -0.635 OA
HETATM   29  O6  UNL     1     -19.207  58.756  13.212  1.00  0.00    -0.635 OA
HETATM   30  O7  UNL     1     -21.485  59.594  11.770  1.00  0.00    -0.635 OA
ENDBRANCH  24  27
ENDBRANCH   6  24
TORSDOF 8
ENDMDL
