MODEL 1
REMARK VINA RESULT: -9.495463125      0.000      0.000
REMARK  3 active torsions:
REMARK  status: ('A' for Active; 'I' for Inactive)
REMARK    1  A    between atoms: C1_2  and  C2_4 
REMARK    2  A    between atoms: C7_9  and  C8_10 
REMARK    3  A    between atoms: C8_10  and  P1_13 
ROOT
HETATM    1  C2  UNL     1      44.528  10.770  -0.317  1.00  0.00     0.041 A 
HETATM    2  C3  UNL     1      45.529  10.248   0.449  1.00  0.00     0.019 A 
HETATM    3  C4  UNL     1      46.067  10.973   1.512  1.00  0.00     0.013 A 
HETATM    4  C5  UNL     1      45.625  12.223   1.833  1.00  0.00    -0.025 A 
HETATM    5  C6  UNL     1      46.182  12.963   2.850  1.00  0.00     0.026 A 
HETATM    6  C7  UNL     1      45.767  14.250   3.160  1.00  0.00     0.028 A 
HETATM    7  C9  UNL     1      44.721  14.737   2.344  1.00  0.00     0.015 A 
HETATM    8  C10 UNL     1      44.164  14.001   1.321  1.00  0.00     0.013 A 
HETATM    9  C11 UNL     1      44.600  12.751   1.050  1.00  0.00    -0.025 A 
HETATM   10  C12 UNL     1      44.058  12.030  -0.016  1.00  0.00     0.030 A 
ENDROOT
BRANCH   6  11
HETATM   11  C8  UNL     1      46.416  15.105   4.182  1.00  0.00     0.380 C 
HETATM   12  F1  UNL     1      47.435  15.828   3.500  1.00  0.00    -0.185 F 
HETATM   13  F2  UNL     1      47.174  14.144   4.897  1.00  0.00    -0.185 F 
BRANCH  11  14
HETATM   14  P1  UNL     1      45.548  16.267   5.086  1.00  0.00     0.339 P 
HETATM   15  O3  UNL     1      43.955  16.547   5.005  1.00  0.00    -0.635 OA
HETATM   16  O4  UNL     1      45.896  17.485   4.215  1.00  0.00    -0.635 OA
HETATM   17  O5  UNL     1      46.423  17.118   6.326  1.00  0.00    -0.635 OA
ENDBRANCH  11  14
ENDBRANCH   6  11
BRANCH   1  18
HETATM   18  C1  UNL     1      43.987  10.026  -1.451  1.00  0.00     0.209 C 
HETATM   19  O1  UNL     1      43.218  10.597  -2.245  1.00  0.00    -0.644 OA
HETATM   20  O2  UNL     1      44.311   8.699  -1.669  1.00  0.00    -0.644 OA
ENDBRANCH   1  18
TORSDOF 3
ENDMDL
