MODEL 3
REMARK VINA RESULT: -9.162885708      3.197      7.183
REMARK  3 active torsions:
REMARK  status: ('A' for Active; 'I' for Inactive)
REMARK    1  A    between atoms: C1_2  and  C2_4 
REMARK    2  A    between atoms: C7_9  and  C8_10 
REMARK    3  A    between atoms: C8_10  and  P1_13 
ROOT
HETATM    1  C2  UNL     1      46.117  16.008   4.153  1.00  0.00     0.041 A 
HETATM    2  C3  UNL     1      45.138  16.465   3.319  1.00  0.00     0.019 A 
HETATM    3  C4  UNL     1      44.579  15.632   2.351  1.00  0.00     0.013 A 
HETATM    4  C5  UNL     1      44.980  14.338   2.191  1.00  0.00    -0.025 A 
HETATM    5  C6  UNL     1      44.467  13.523   1.207  1.00  0.00     0.026 A 
HETATM    6  C7  UNL     1      44.894  12.218   1.010  1.00  0.00     0.028 A 
HETATM    7  C9  UNL     1      45.901  11.794   1.907  1.00  0.00     0.015 A 
HETATM    8  C10 UNL     1      46.420  12.608   2.890  1.00  0.00     0.013 A 
HETATM    9  C11 UNL     1      45.978  13.875   3.046  1.00  0.00    -0.025 A 
HETATM   10  C12 UNL     1      46.541  14.704   4.018  1.00  0.00     0.030 A 
ENDROOT
BRANCH   6  11
HETATM   11  C8  UNL     1      44.433  11.356  -0.103  1.00  0.00     0.380 C 
HETATM   12  F1  UNL     1      43.365  12.059  -0.728  1.00  0.00    -0.185 F 
HETATM   13  F2  UNL     1      43.737  10.346   0.608  1.00  0.00    -0.185 F 
BRANCH  11  14
HETATM   14  P1  UNL     1      45.471  10.866  -1.370  1.00  0.00     0.339 P 
HETATM   15  O3  UNL     1      46.965  10.262  -1.203  1.00  0.00    -0.635 OA
HETATM   16  O4  UNL     1      45.983  12.265  -1.748  1.00  0.00    -0.635 OA
HETATM   17  O5  UNL     1      44.807  10.860  -2.978  1.00  0.00    -0.635 OA
ENDBRANCH  11  14
ENDBRANCH   6  11
BRANCH   1  18
HETATM   18  C1  UNL     1      46.726  16.889   5.145  1.00  0.00     0.209 C 
HETATM   19  O1  UNL     1      46.142  17.088   6.226  1.00  0.00    -0.644 OA
HETATM   20  O2  UNL     1      47.942  17.509   4.917  1.00  0.00    -0.644 OA
ENDBRANCH   1  18
TORSDOF 3
ENDMDL
