MODEL 4
REMARK VINA RESULT: -9.151002101      3.192      7.193
REMARK  3 active torsions:
REMARK  status: ('A' for Active; 'I' for Inactive)
REMARK    1  A    between atoms: C1_2  and  C2_4 
REMARK    2  A    between atoms: C7_9  and  C8_10 
REMARK    3  A    between atoms: C8_10  and  P1_13 
ROOT
HETATM    1  C2  UNL     1      46.133  16.017   4.164  1.00  0.00     0.041 A 
HETATM    2  C3  UNL     1      45.174  16.490   3.315  1.00  0.00     0.019 A 
HETATM    3  C4  UNL     1      44.618  15.667   2.337  1.00  0.00     0.013 A 
HETATM    4  C5  UNL     1      45.000  14.367   2.182  1.00  0.00    -0.025 A 
HETATM    5  C6  UNL     1      44.491  13.561   1.189  1.00  0.00     0.026 A 
HETATM    6  C7  UNL     1      44.900  12.250   0.998  1.00  0.00     0.028 A 
HETATM    7  C9  UNL     1      45.885  11.809   1.911  1.00  0.00     0.015 A 
HETATM    8  C10 UNL     1      46.402  12.613   2.903  1.00  0.00     0.013 A 
HETATM    9  C11 UNL     1      45.977  13.887   3.053  1.00  0.00    -0.025 A 
HETATM   10  C12 UNL     1      46.538  14.706   4.034  1.00  0.00     0.030 A 
ENDROOT
BRANCH   6  11
HETATM   11  C8  UNL     1      44.442  11.396  -0.123  1.00  0.00     0.380 C 
HETATM   12  F1  UNL     1      43.342  12.078  -0.713  1.00  0.00    -0.185 F 
HETATM   13  F2  UNL     1      43.792  10.351   0.580  1.00  0.00    -0.185 F 
BRANCH  11  14
HETATM   14  P1  UNL     1      45.469  10.963  -1.420  1.00  0.00     0.339 P 
HETATM   15  O3  UNL     1      45.009  10.306  -2.827  1.00  0.00    -0.635 OA
HETATM   16  O4  UNL     1      45.943   9.618  -0.845  1.00  0.00    -0.635 OA
HETATM   17  O5  UNL     1      47.144  11.416  -1.286  1.00  0.00    -0.635 OA
ENDBRANCH  11  14
ENDBRANCH   6  11
BRANCH   1  18
HETATM   18  C1  UNL     1      46.740  16.887   5.166  1.00  0.00     0.209 C 
HETATM   19  O1  UNL     1      46.156  17.072   6.250  1.00  0.00    -0.644 OA
HETATM   20  O2  UNL     1      47.954  17.514   4.945  1.00  0.00    -0.644 OA
ENDBRANCH   1  18
TORSDOF 3
ENDMDL
