MODEL 5
REMARK VINA RESULT: -8.874302012      3.190      7.320
REMARK  3 active torsions:
REMARK  status: ('A' for Active; 'I' for Inactive)
REMARK    1  A    between atoms: C1_2  and  C2_4 
REMARK    2  A    between atoms: C7_9  and  C8_10 
REMARK    3  A    between atoms: C8_10  and  P1_13 
ROOT
HETATM    1  C2  UNL     1      45.879  15.697   3.957  1.00  0.00     0.041 A 
HETATM    2  C3  UNL     1      44.913  16.101   3.082  1.00  0.00     0.019 A 
HETATM    3  C4  UNL     1      44.436  15.238   2.097  1.00  0.00     0.013 A 
HETATM    4  C5  UNL     1      44.905  13.965   1.961  1.00  0.00    -0.025 A 
HETATM    5  C6  UNL     1      44.473  13.122   0.963  1.00  0.00     0.026 A 
HETATM    6  C7  UNL     1      44.970  11.839   0.792  1.00  0.00     0.028 A 
HETATM    7  C9  UNL     1      45.959  11.468   1.731  1.00  0.00     0.015 A 
HETATM    8  C10 UNL     1      46.399  12.310   2.729  1.00  0.00     0.013 A 
HETATM    9  C11 UNL     1      45.889  13.554   2.859  1.00  0.00    -0.025 A 
HETATM   10  C12 UNL     1      46.372  14.414   3.848  1.00  0.00     0.030 A 
ENDROOT
BRANCH   6  11
HETATM   11  C8  UNL     1      44.597  10.950  -0.334  1.00  0.00     0.380 C 
HETATM   12  F1  UNL     1      45.453  11.302  -1.414  1.00  0.00    -0.185 F 
HETATM   13  F2  UNL     1      43.367  11.528  -0.738  1.00  0.00    -0.185 F 
BRANCH  11  14
HETATM   14  P1  UNL     1      44.674   9.246  -0.216  1.00  0.00     0.339 P 
HETATM   15  O3  UNL     1      45.914   8.382   0.366  1.00  0.00    -0.635 OA
HETATM   16  O4  UNL     1      45.055   8.972  -1.680  1.00  0.00    -0.635 OA
HETATM   17  O5  UNL     1      43.227   8.362  -0.606  1.00  0.00    -0.635 OA
ENDBRANCH  11  14
ENDBRANCH   6  11
BRANCH   1  18
HETATM   18  C1  UNL     1      46.404  16.611   4.967  1.00  0.00     0.209 C 
HETATM   19  O1  UNL     1      46.197  16.375   6.172  1.00  0.00    -0.644 OA
HETATM   20  O2  UNL     1      47.132  17.736   4.621  1.00  0.00    -0.644 OA
ENDBRANCH   1  18
TORSDOF 3
ENDMDL
