MODEL 2
REMARK VINA RESULT: -9.603672246      0.803      1.217
REMARK  6 active torsions:
REMARK  status: ('A' for Active; 'I' for Inactive)
REMARK    1  A    between atoms: C3_6  and  C4_7 
REMARK    2  A    between atoms: C5_11  and  C6_12 
REMARK    3  A    between atoms: C6_12  and  O1_13 
REMARK    4  A    between atoms: O1_13  and  P1_14 
REMARK    5  A    between atoms: C7_18  and  O5_19 
REMARK    6  A    between atoms: C8_21  and  O6_22 
ROOT
HETATM    1  C4  UNL     1       7.880  85.921  42.577  1.00  0.00     0.254 C 
HETATM    2  N3  UNL     1       6.616  85.967  41.840  1.00  0.00    -0.055 N 
ATOM      3  H31 UNL     1       5.771  86.055  42.404  1.00  0.00     0.278 HD
ATOM      4  H32 UNL     1       6.323  85.095  41.398  1.00  0.00     0.278 HD
HETATM    5  C5  UNL     1       6.908  87.088  40.931  1.00  0.00     0.242 C 
HETATM    6  C7  UNL     1       8.305  86.784  40.435  1.00  0.00     0.182 C 
HETATM    7  C8  UNL     1       8.864  85.798  41.433  1.00  0.00     0.184 C 
ENDROOT
BRANCH   1   8
HETATM    8  C3  UNL     1       7.967  84.788  43.492  1.00  0.00     0.020 A 
HETATM    9  C2  UNL     1       7.118  84.476  44.530  1.00  0.00     0.077 A 
HETATM   10  N2  UNL     1       6.004  85.026  45.050  1.00  0.00    -0.328 N 
HETATM   11  C10 UNL     1       7.608  83.305  45.117  1.00  0.00     0.128 A 
HETATM   12  C1  UNL     1       5.389  84.450  46.108  1.00  0.00     0.195 A 
ATOM     13  H2  UNL     1       5.623  85.880  44.644  1.00  0.00     0.168 HD
HETATM   14  N1  UNL     1       4.214  85.046  46.641  1.00  0.00    -0.063 NA
HETATM   15  N5  UNL     1       5.839  83.324  46.691  1.00  0.00    -0.295 N 
HETATM   16  C11 UNL     1       6.943  82.758  46.194  1.00  0.00     0.276 A 
ATOM     17  H5  UNL     1       5.351  82.915  47.489  1.00  0.00     0.171 HD
HETATM   18  O7  UNL     1       7.393  81.706  46.714  1.00  0.00    -0.266 OA
HETATM   19  N4  UNL     1       8.723  82.946  44.429  1.00  0.00    -0.359 N 
HETATM   20  C9  UNL     1       8.953  83.829  43.447  1.00  0.00     0.100 A 
ATOM     21  H4  UNL     1       9.298  82.128  44.629  1.00  0.00     0.165 HD
ENDBRANCH   1   8
BRANCH   7  22
HETATM   22  O6  UNL     1      10.158  86.123  41.822  1.00  0.00    -0.390 OA
ATOM     23  H6  UNL     1      10.809  85.613  41.355  1.00  0.00     0.210 HD
ENDBRANCH   7  22
BRANCH   5  24
HETATM   24  C6  UNL     1       5.909  87.136  39.801  1.00  0.00     0.218 C 
BRANCH  24  25
HETATM   25  O1  UNL     1       5.534  88.442  39.637  1.00  0.00    -0.281 OA
BRANCH  25  26
HETATM   26  P1  UNL     1       3.901  88.587  39.817  1.00  0.00     0.422 P 
HETATM   27  O2  UNL     1       4.005  89.086  41.251  1.00  0.00    -0.617 OA
HETATM   28  O3  UNL     1       2.996  87.282  40.348  1.00  0.00    -0.617 OA
HETATM   29  O4  UNL     1       3.098  89.905  39.283  1.00  0.00    -0.617 OA
ENDBRANCH  25  26
ENDBRANCH  24  25
ENDBRANCH   5  24
BRANCH   6  30
HETATM   30  O5  UNL     1       9.051  87.940  40.508  1.00  0.00    -0.391 OA
ATOM     31  H5  UNL     1       9.960  87.718  40.347  1.00  0.00     0.210 HD
ENDBRANCH   6  30
TORSDOF 6
ENDMDL
