MODEL 5
REMARK VINA RESULT: -9.243233221      3.232      4.960
REMARK  6 active torsions:
REMARK  status: ('A' for Active; 'I' for Inactive)
REMARK    1  A    between atoms: C3_6  and  C4_7 
REMARK    2  A    between atoms: C5_11  and  C6_12 
REMARK    3  A    between atoms: C6_12  and  O1_13 
REMARK    4  A    between atoms: O1_13  and  P1_14 
REMARK    5  A    between atoms: C7_18  and  O5_19 
REMARK    6  A    between atoms: C8_21  and  O6_22 
ROOT
HETATM    1  C4  UNL     1       8.344  85.598  42.104  1.00  0.00     0.254 C 
HETATM    2  N3  UNL     1       7.917  86.542  41.070  1.00  0.00    -0.055 N 
ATOM      3  H31 UNL     1       8.360  86.439  40.157  1.00  0.00     0.278 HD
ATOM      4  H32 UNL     1       8.219  87.509  41.193  1.00  0.00     0.278 HD
HETATM    5  C5  UNL     1       6.464  86.307  41.115  1.00  0.00     0.242 C 
HETATM    6  C7  UNL     1       6.155  86.291  42.596  1.00  0.00     0.182 C 
HETATM    7  C8  UNL     1       7.487  86.053  43.267  1.00  0.00     0.184 C 
ENDROOT
BRANCH   1   8
HETATM    8  C3  UNL     1       9.768  85.691  42.410  1.00  0.00     0.020 A 
HETATM    9  C2  UNL     1      10.749  84.759  42.149  1.00  0.00     0.077 A 
HETATM   10  N2  UNL     1      10.779  83.541  41.578  1.00  0.00    -0.328 N 
HETATM   11  C10 UNL     1      11.951  85.294  42.624  1.00  0.00     0.128 A 
HETATM   12  C1  UNL     1      11.946  82.866  41.473  1.00  0.00     0.195 A 
ATOM     13  H2  UNL     1       9.918  83.125  41.223  1.00  0.00     0.168 HD
HETATM   14  N1  UNL     1      11.956  81.581  40.866  1.00  0.00    -0.063 NA
HETATM   15  N5  UNL     1      13.117  83.355  41.920  1.00  0.00    -0.295 N 
HETATM   16  C11 UNL     1      13.114  84.564  42.492  1.00  0.00     0.276 A 
ATOM     17  H5  UNL     1      13.980  82.820  41.826  1.00  0.00     0.171 HD
HETATM   18  O7  UNL     1      14.188  85.053  42.922  1.00  0.00    -0.266 OA
HETATM   19  N4  UNL     1      11.670  86.513  43.150  1.00  0.00    -0.359 N 
HETATM   20  C9  UNL     1      10.360  86.768  43.029  1.00  0.00     0.100 A 
ATOM     21  H4  UNL     1      12.353  87.141  43.573  1.00  0.00     0.165 HD
ENDBRANCH   1   8
BRANCH   7  22
HETATM   22  O6  UNL     1       7.408  85.087  44.263  1.00  0.00    -0.390 OA
ATOM     23  H6  UNL     1       6.859  85.367  44.986  1.00  0.00     0.210 HD
ENDBRANCH   7  22
BRANCH   5  24
HETATM   24  C6  UNL     1       5.720  87.406  40.398  1.00  0.00     0.218 C 
BRANCH  24  25
HETATM   25  O1  UNL     1       6.407  88.572  40.604  1.00  0.00    -0.281 OA
BRANCH  25  26
HETATM   26  P1  UNL     1       5.391  89.731  41.189  1.00  0.00     0.422 P 
HETATM   27  O2  UNL     1       6.497  90.464  41.934  1.00  0.00    -0.617 OA
HETATM   28  O3  UNL     1       4.589  89.490  42.639  1.00  0.00    -0.617 OA
HETATM   29  O4  UNL     1       4.966  91.025  40.289  1.00  0.00    -0.617 OA
ENDBRANCH  25  26
ENDBRANCH  24  25
ENDBRANCH   5  24
BRANCH   6  30
HETATM   30  O5  UNL     1       5.343  85.210  42.858  1.00  0.00    -0.391 OA
ATOM     31  H5  UNL     1       5.063  85.260  43.764  1.00  0.00     0.210 HD
ENDBRANCH   6  30
TORSDOF 6
ENDMDL
