MODEL 1
REMARK VINA RESULT: -9.766314204      0.000      0.000
REMARK  6 active torsions:
REMARK  status: ('A' for Active; 'I' for Inactive)
REMARK    1  A    between atoms: C3_6  and  C4_7 
REMARK    2  A    between atoms: C5_11  and  C6_12 
REMARK    3  A    between atoms: C6_12  and  O1_13 
REMARK    4  A    between atoms: O1_13  and  P1_14 
REMARK    5  A    between atoms: C7_18  and  O5_19 
REMARK    6  A    between atoms: C8_21  and  O6_22 
ROOT
HETATM    1  C4  UNL     1       8.087  85.796  42.742  1.00  0.00     0.254 C 
HETATM    2  N3  UNL     1       6.854  85.892  41.959  1.00  0.00    -0.055 N 
ATOM      3  H31 UNL     1       5.993  86.012  42.492  1.00  0.00     0.278 HD
ATOM      4  H32 UNL     1       6.544  85.033  41.504  1.00  0.00     0.278 HD
HETATM    5  C5  UNL     1       7.222  87.002  41.064  1.00  0.00     0.242 C 
HETATM    6  C7  UNL     1       8.624  86.645  40.619  1.00  0.00     0.182 C 
HETATM    7  C8  UNL     1       9.108  85.637  41.635  1.00  0.00     0.184 C 
ENDROOT
BRANCH   1   8
HETATM    8  C3  UNL     1       8.097  84.659  43.656  1.00  0.00     0.020 A 
HETATM    9  C2  UNL     1       7.194  84.375  44.657  1.00  0.00     0.077 A 
HETATM   10  N2  UNL     1       6.080  84.962  45.131  1.00  0.00    -0.328 N 
HETATM   11  C10 UNL     1       7.619  83.187  45.260  1.00  0.00     0.128 A 
HETATM   12  C1  UNL     1       5.401  84.406  46.161  1.00  0.00     0.195 A 
ATOM     13  H2  UNL     1       5.745  85.830  44.712  1.00  0.00     0.168 HD
HETATM   14  N1  UNL     1       4.226  85.042  46.645  1.00  0.00    -0.063 NA
HETATM   15  N5  UNL     1       5.786  83.265  46.759  1.00  0.00    -0.295 N 
HETATM   16  C11 UNL     1       6.891  82.661  46.307  1.00  0.00     0.276 A 
ATOM     17  H5  UNL     1       5.252  82.872  47.534  1.00  0.00     0.171 HD
HETATM   18  O7  UNL     1       7.282  81.594  46.842  1.00  0.00    -0.266 OA
HETATM   19  N4  UNL     1       8.748  82.791  44.619  1.00  0.00    -0.359 N 
HETATM   20  C9  UNL     1       9.050  83.667  43.650  1.00  0.00     0.100 A 
ATOM     21  H4  UNL     1       9.286  81.954  44.841  1.00  0.00     0.165 HD
ENDBRANCH   1   8
BRANCH   7  22
HETATM   22  O6  UNL     1      10.398  85.911  42.072  1.00  0.00    -0.390 OA
ATOM     23  H6  UNL     1      10.943  86.257  41.376  1.00  0.00     0.210 HD
ENDBRANCH   7  22
BRANCH   5  24
HETATM   24  C6  UNL     1       6.269  87.090  39.899  1.00  0.00     0.218 C 
BRANCH  24  25
HETATM   25  O1  UNL     1       6.147  88.412  39.564  1.00  0.00    -0.281 OA
BRANCH  25  26
HETATM   26  P1  UNL     1       5.329  89.220  40.745  1.00  0.00     0.422 P 
HETATM   27  O2  UNL     1       4.956  90.378  39.831  1.00  0.00    -0.617 OA
HETATM   28  O3  UNL     1       6.139  90.287  41.749  1.00  0.00    -0.617 OA
HETATM   29  O4  UNL     1       3.782  88.850  41.116  1.00  0.00    -0.617 OA
ENDBRANCH  25  26
ENDBRANCH  24  25
ENDBRANCH   5  24
BRANCH   6  30
HETATM   30  O5  UNL     1       9.411  87.771  40.723  1.00  0.00    -0.391 OA
ATOM     31  H5  UNL     1       9.514  87.978  41.644  1.00  0.00     0.210 HD
ENDBRANCH   6  30
TORSDOF 6
ENDMDL
