MODEL 3
REMARK VINA RESULT: -7.991443905      1.218      1.559
REMARK  3 active torsions:
REMARK  status: ('A' for Active; 'I' for Inactive)
REMARK    1  A    between atoms: C1_2  and  C2_6 
REMARK    2  A    between atoms: C6_12  and  C7_13 
REMARK    3  A    between atoms: C7_13  and  C8_14 
ROOT
HETATM    1  C2  UNL     1      45.463  20.559  52.549  1.00  0.00     0.007 A 
HETATM    2  C3  UNL     1      46.397  21.550  52.716  1.00  0.00     0.017 A 
HETATM    3  C4  UNL     1      46.119  22.859  52.317  1.00  0.00     0.033 A 
HETATM    4  C5  UNL     1      44.920  23.217  51.748  1.00  0.00     0.060 A 
HETATM    5  N3  UNL     1      44.396  24.373  51.281  1.00  0.00    -0.344 N 
ATOM      6  H3  UNL     1      44.872  25.275  51.279  1.00  0.00     0.167 HD
HETATM    7  C6  UNL     1      43.155  24.153  50.821  1.00  0.00     0.089 A 
HETATM    8  N6  UNL     1      42.910  22.845  51.006  1.00  0.00    -0.344 N 
ATOM      9  H6  UNL     1      42.039  22.378  50.751  1.00  0.00     0.167 HD
HETATM   10  C15 UNL     1      43.974  22.231  51.575  1.00  0.00     0.061 A 
HETATM   11  C16 UNL     1      44.249  20.942  51.968  1.00  0.00     0.046 A 
ENDROOT
BRANCH   7  12
HETATM   12  C7  UNL     1      42.223  25.169  50.217  1.00  0.00     0.152 C 
BRANCH  12  13
HETATM   13  C8  UNL     1      41.244  25.551  51.263  1.00  0.00     0.089 A 
HETATM   14  N4  UNL     1      41.067  24.934  52.449  1.00  0.00    -0.344 N 
HETATM   15  C9  UNL     1      40.098  25.555  53.129  1.00  0.00     0.060 A 
ATOM     16  H4  UNL     1      41.589  24.121  52.776  1.00  0.00     0.167 HD
HETATM   17  C10 UNL     1      39.560  25.307  54.370  1.00  0.00     0.032 A 
HETATM   18  C14 UNL     1      39.669  26.591  52.328  1.00  0.00     0.060 A 
HETATM   19  C11 UNL     1      38.535  26.124  54.861  1.00  0.00     0.002 A 
HETATM   20  C12 UNL     1      38.080  27.169  54.085  1.00  0.00     0.002 A 
HETATM   21  C13 UNL     1      38.650  27.380  52.848  1.00  0.00     0.032 A 
HETATM   22  N5  UNL     1      40.377  26.567  51.205  1.00  0.00    -0.344 N 
ATOM     23  H5  UNL     1      40.275  27.217  50.425  1.00  0.00     0.167 HD
ENDBRANCH  12  13
ENDBRANCH   7  12
BRANCH   1  24
HETATM   24  C1  UNL     1      45.658  19.170  52.932  1.00  0.00     0.120 C 
HETATM   25  N1  UNL     1      44.989  18.107  52.257  1.00  0.00    -0.082 NA
HETATM   26  N2  UNL     1      46.437  18.871  53.886  1.00  0.00    -0.387 N 
ATOM     27  H22 UNL     1      46.574  17.897  54.155  1.00  0.00     0.157 HD
ATOM     28  H21 UNL     1      46.916  19.631  54.369  1.00  0.00     0.157 HD
ENDBRANCH   1  24
TORSDOF 3
ENDMDL
