MODEL 20
REMARK VINA RESULT: -7.274048746      3.672      5.870
REMARK  3 active torsions:
REMARK  status: ('A' for Active; 'I' for Inactive)
REMARK    1  A    between atoms: C1_2  and  C2_6 
REMARK    2  A    between atoms: C6_12  and  C7_13 
REMARK    3  A    between atoms: C7_13  and  C8_14 
ROOT
HETATM    1  C2  UNL     1      45.134  19.905  52.540  1.00  0.00     0.007 A 
HETATM    2  C3  UNL     1      46.191  20.616  53.049  1.00  0.00     0.017 A 
HETATM    3  C4  UNL     1      46.289  21.992  52.833  1.00  0.00     0.033 A 
HETATM    4  C5  UNL     1      45.351  22.693  52.112  1.00  0.00     0.060 A 
HETATM    5  N3  UNL     1      45.199  23.989  51.756  1.00  0.00    -0.344 N 
ATOM      6  H3  UNL     1      45.840  24.744  51.999  1.00  0.00     0.167 HD
HETATM    7  C6  UNL     1      44.076  24.130  51.035  1.00  0.00     0.089 A 
HETATM    8  N6  UNL     1      43.529  22.906  50.944  1.00  0.00    -0.344 N 
ATOM      9  H6  UNL     1      42.661  22.695  50.451  1.00  0.00     0.167 HD
HETATM   10  C15 UNL     1      44.286  21.991  51.595  1.00  0.00     0.061 A 
HETATM   11  C16 UNL     1      44.190  20.635  51.809  1.00  0.00     0.046 A 
ENDROOT
BRANCH   7  12
HETATM   12  C7  UNL     1      43.537  25.405  50.444  1.00  0.00     0.152 C 
BRANCH  12  13
HETATM   13  C8  UNL     1      43.846  25.389  48.994  1.00  0.00     0.089 A 
HETATM   14  N4  UNL     1      43.058  25.868  48.009  1.00  0.00    -0.344 N 
HETATM   15  C9  UNL     1      43.663  25.681  46.831  1.00  0.00     0.060 A 
ATOM     16  H4  UNL     1      42.146  26.304  48.141  1.00  0.00     0.167 HD
HETATM   17  C10 UNL     1      43.270  25.994  45.552  1.00  0.00     0.032 A 
HETATM   18  C14 UNL     1      44.864  25.065  47.108  1.00  0.00     0.060 A 
HETATM   19  C11 UNL     1      44.105  25.685  44.471  1.00  0.00     0.002 A 
HETATM   20  C12 UNL     1      45.313  25.068  44.712  1.00  0.00     0.002 A 
HETATM   21  C13 UNL     1      45.666  24.774  46.012  1.00  0.00     0.032 A 
HETATM   22  N5  UNL     1      44.951  24.899  48.423  1.00  0.00    -0.344 N 
ATOM     23  H5  UNL     1      45.733  24.468  48.917  1.00  0.00     0.167 HD
ENDBRANCH  12  13
ENDBRANCH   7  12
BRANCH   1  24
HETATM   24  C1  UNL     1      44.944  18.474  52.711  1.00  0.00     0.120 C 
HETATM   25  N1  UNL     1      43.897  17.772  52.043  1.00  0.00    -0.082 NA
HETATM   26  N2  UNL     1      45.716  17.811  53.467  1.00  0.00    -0.387 N 
ATOM     27  H22 UNL     1      45.582  16.807  53.588  1.00  0.00     0.157 HD
ATOM     28  H21 UNL     1      46.465  18.312  53.945  1.00  0.00     0.157 HD
ENDBRANCH   1  24
TORSDOF 3
ENDMDL
