MODEL 18
REMARK VINA RESULT: -7.354334728      3.717      5.888
REMARK  3 active torsions:
REMARK  status: ('A' for Active; 'I' for Inactive)
REMARK    1  A    between atoms: C1_2  and  C2_6 
REMARK    2  A    between atoms: C6_12  and  C7_13 
REMARK    3  A    between atoms: C7_13  and  C8_14 
ROOT
HETATM    1  C2  UNL     1      45.130  19.846  52.510  1.00  0.00     0.007 A 
HETATM    2  C3  UNL     1      46.201  20.588  52.939  1.00  0.00     0.017 A 
HETATM    3  C4  UNL     1      46.270  21.956  52.669  1.00  0.00     0.033 A 
HETATM    4  C5  UNL     1      45.289  22.618  51.971  1.00  0.00     0.060 A 
HETATM    5  N3  UNL     1      45.101  23.899  51.577  1.00  0.00    -0.344 N 
ATOM      6  H3  UNL     1      45.743  24.670  51.760  1.00  0.00     0.167 HD
HETATM    7  C6  UNL     1      43.943  24.000  50.908  1.00  0.00     0.089 A 
HETATM    8  N6  UNL     1      43.408  22.768  50.889  1.00  0.00    -0.344 N 
ATOM      9  H6  UNL     1      42.520  22.529  50.447  1.00  0.00     0.167 HD
HETATM   10  C15 UNL     1      44.208  21.886  51.534  1.00  0.00     0.061 A 
HETATM   11  C16 UNL     1      44.142  20.538  51.801  1.00  0.00     0.046 A 
ENDROOT
BRANCH   7  12
HETATM   12  C7  UNL     1      43.358  25.247  50.299  1.00  0.00     0.152 C 
BRANCH  12  13
HETATM   13  C8  UNL     1      43.801  25.301  48.885  1.00  0.00     0.089 A 
HETATM   14  N4  UNL     1      44.978  24.850  48.404  1.00  0.00    -0.344 N 
HETATM   15  C9  UNL     1      45.028  25.068  47.086  1.00  0.00     0.060 A 
ATOM     16  H4  UNL     1      45.715  24.413  48.958  1.00  0.00     0.167 HD
HETATM   17  C10 UNL     1      46.002  24.790  46.158  1.00  0.00     0.032 A 
HETATM   18  C14 UNL     1      43.836  25.674  46.750  1.00  0.00     0.060 A 
HETATM   19  C11 UNL     1      45.802  25.126  44.814  1.00  0.00     0.002 A 
HETATM   20  C12 UNL     1      44.621  25.735  44.444  1.00  0.00     0.002 A 
HETATM   21  C13 UNL     1      43.672  25.993  45.408  1.00  0.00     0.032 A 
HETATM   22  N5  UNL     1      43.112  25.804  47.856  1.00  0.00    -0.344 N 
ATOM     23  H5  UNL     1      42.182  26.220  47.911  1.00  0.00     0.167 HD
ENDBRANCH  12  13
ENDBRANCH   7  12
BRANCH   1  24
HETATM   24  C1  UNL     1      44.968  18.420  52.742  1.00  0.00     0.120 C 
HETATM   25  N1  UNL     1      43.952  17.665  52.085  1.00  0.00    -0.082 NA
HETATM   26  N2  UNL     1      45.737  17.810  53.544  1.00  0.00    -0.387 N 
ATOM     27  H22 UNL     1      45.623  16.810  53.708  1.00  0.00     0.157 HD
ATOM     28  H21 UNL     1      46.464  18.349  54.015  1.00  0.00     0.157 HD
ENDBRANCH   1  24
TORSDOF 3
ENDMDL
