MODEL 19
REMARK VINA RESULT: -7.311499996      3.933      5.980
REMARK  3 active torsions:
REMARK  status: ('A' for Active; 'I' for Inactive)
REMARK    1  A    between atoms: C1_2  and  C2_6 
REMARK    2  A    between atoms: C6_12  and  C7_13 
REMARK    3  A    between atoms: C7_13  and  C8_14 
ROOT
HETATM    1  C2  UNL     1      45.239  19.770  52.619  1.00  0.00     0.007 A 
HETATM    2  C3  UNL     1      44.579  19.605  51.427  1.00  0.00     0.017 A 
HETATM    3  C4  UNL     1      44.278  20.709  50.627  1.00  0.00     0.033 A 
HETATM    4  C5  UNL     1      44.619  21.992  50.982  1.00  0.00     0.060 A 
HETATM    5  N3  UNL     1      44.457  23.210  50.418  1.00  0.00    -0.344 N 
ATOM      6  H3  UNL     1      43.998  23.388  49.525  1.00  0.00     0.167 HD
HETATM    7  C6  UNL     1      44.993  24.150  51.211  1.00  0.00     0.089 A 
HETATM    8  N6  UNL     1      45.492  23.505  52.279  1.00  0.00    -0.344 N 
ATOM      9  H6  UNL     1      45.965  23.958  53.061  1.00  0.00     0.167 HD
HETATM   10  C15 UNL     1      45.280  22.171  52.177  1.00  0.00     0.061 A 
HETATM   11  C16 UNL     1      45.577  21.083  52.964  1.00  0.00     0.046 A 
ENDROOT
BRANCH   7  12
HETATM   12  C7  UNL     1      45.029  25.633  50.957  1.00  0.00     0.152 C 
BRANCH  12  13
HETATM   13  C8  UNL     1      45.340  25.831  49.521  1.00  0.00     0.089 A 
HETATM   14  N4  UNL     1      46.479  26.354  49.019  1.00  0.00    -0.344 N 
HETATM   15  C9  UNL     1      46.402  26.376  47.685  1.00  0.00     0.060 A 
ATOM     16  H4  UNL     1      47.272  26.680  49.570  1.00  0.00     0.167 HD
HETATM   17  C10 UNL     1      47.295  26.809  46.734  1.00  0.00     0.032 A 
HETATM   18  C14 UNL     1      45.172  25.847  47.360  1.00  0.00     0.060 A 
HETATM   19  C11 UNL     1      46.966  26.721  45.376  1.00  0.00     0.002 A 
HETATM   20  C12 UNL     1      45.742  26.197  45.016  1.00  0.00     0.002 A 
HETATM   21  C13 UNL     1      44.879  25.775  46.004  1.00  0.00     0.032 A 
HETATM   22  N5  UNL     1      44.549  25.525  48.488  1.00  0.00    -0.344 N 
ATOM     23  H5  UNL     1      43.618  25.113  48.555  1.00  0.00     0.167 HD
ENDBRANCH  12  13
ENDBRANCH   7  12
BRANCH   1  24
HETATM   24  C1  UNL     1      45.596  18.685  53.519  1.00  0.00     0.120 C 
HETATM   25  N1  UNL     1      44.977  17.403  53.430  1.00  0.00    -0.082 NA
HETATM   26  N2  UNL     1      46.477  18.859  54.414  1.00  0.00    -0.387 N 
ATOM     27  H22 UNL     1      46.728  18.099  55.046  1.00  0.00     0.157 HD
ATOM     28  H21 UNL     1      46.920  19.775  54.478  1.00  0.00     0.157 HD
ENDBRANCH   1  24
TORSDOF 3
ENDMDL
