MODEL 1
REMARK VINA RESULT: -8.078675833      0.000      0.000
REMARK  3 active torsions:
REMARK  status: ('A' for Active; 'I' for Inactive)
REMARK    1  A    between atoms: C1_2  and  C2_6 
REMARK    2  A    between atoms: C6_12  and  C7_13 
REMARK    3  A    between atoms: C7_13  and  C8_14 
ROOT
HETATM    1  C2  UNL     1      45.090  19.772  52.645  1.00  0.00     0.007 A 
HETATM    2  C3  UNL     1      44.651  19.698  51.347  1.00  0.00     0.017 A 
HETATM    3  C4  UNL     1      44.148  20.830  50.703  1.00  0.00     0.033 A 
HETATM    4  C5  UNL     1      44.066  22.054  51.322  1.00  0.00     0.060 A 
HETATM    5  N3  UNL     1      43.635  23.281  50.952  1.00  0.00    -0.344 N 
ATOM      6  H3  UNL     1      43.254  23.518  50.035  1.00  0.00     0.167 HD
HETATM    7  C6  UNL     1      43.784  24.140  51.972  1.00  0.00     0.089 A 
HETATM    8  N6  UNL     1      44.314  23.435  52.985  1.00  0.00    -0.344 N 
ATOM      9  H6  UNL     1      44.542  23.820  53.902  1.00  0.00     0.167 HD
HETATM   10  C15 UNL     1      44.503  22.143  52.626  1.00  0.00     0.061 A 
HETATM   11  C16 UNL     1      44.998  21.026  53.259  1.00  0.00     0.046 A 
ENDROOT
BRANCH   7  12
HETATM   12  C7  UNL     1      43.429  25.602  51.980  1.00  0.00     0.152 C 
BRANCH  12  13
HETATM   13  C8  UNL     1      42.124  25.739  52.670  1.00  0.00     0.089 A 
HETATM   14  N4  UNL     1      41.642  24.920  53.629  1.00  0.00    -0.344 N 
HETATM   15  C9  UNL     1      40.439  25.355  54.015  1.00  0.00     0.060 A 
ATOM     16  H4  UNL     1      42.121  24.099  53.999  1.00  0.00     0.167 HD
HETATM   17  C10 UNL     1      39.558  24.868  54.951  1.00  0.00     0.032 A 
HETATM   18  C14 UNL     1      40.176  26.481  53.266  1.00  0.00     0.060 A 
HETATM   19  C11 UNL     1      38.340  25.522  55.169  1.00  0.00     0.002 A 
HETATM   20  C12 UNL     1      38.044  26.651  54.435  1.00  0.00     0.002 A 
HETATM   21  C13 UNL     1      38.958  27.104  53.509  1.00  0.00     0.032 A 
HETATM   22  N5  UNL     1      41.210  26.692  52.459  1.00  0.00    -0.344 N 
ATOM     23  H5  UNL     1      41.294  27.456  51.789  1.00  0.00     0.167 HD
ENDBRANCH  12  13
ENDBRANCH   7  12
BRANCH   1  24
HETATM   24  C1  UNL     1      45.629  18.652  53.398  1.00  0.00     0.120 C 
HETATM   25  N1  UNL     1      45.016  17.364  53.367  1.00  0.00    -0.082 NA
HETATM   26  N2  UNL     1      46.669  18.798  54.108  1.00  0.00    -0.387 N 
ATOM     27  H22 UNL     1      47.047  18.012  54.637  1.00  0.00     0.157 HD
ATOM     28  H21 UNL     1      47.108  19.719  54.131  1.00  0.00     0.157 HD
ENDBRANCH   1  24
TORSDOF 3
ENDMDL
