MODEL 14
REMARK VINA RESULT: -7.626059025      4.109      5.614
REMARK  3 active torsions:
REMARK  status: ('A' for Active; 'I' for Inactive)
REMARK    1  A    between atoms: C1_2  and  C2_6 
REMARK    2  A    between atoms: C6_12  and  C7_13 
REMARK    3  A    between atoms: C7_13  and  C8_14 
ROOT
HETATM    1  C2  UNL     1      45.239  19.645  52.499  1.00  0.00     0.007 A 
HETATM    2  C3  UNL     1      44.542  19.415  51.341  1.00  0.00     0.017 A 
HETATM    3  C4  UNL     1      44.241  20.467  50.474  1.00  0.00     0.033 A 
HETATM    4  C5  UNL     1      44.617  21.763  50.731  1.00  0.00     0.060 A 
HETATM    5  N3  UNL     1      44.464  22.944  50.089  1.00  0.00    -0.344 N 
ATOM      6  H3  UNL     1      43.983  23.070  49.199  1.00  0.00     0.167 HD
HETATM    7  C6  UNL     1      45.042  23.924  50.801  1.00  0.00     0.089 A 
HETATM    8  N6  UNL     1      45.558  23.342  51.896  1.00  0.00    -0.344 N 
ATOM      9  H6  UNL     1      46.063  23.837  52.631  1.00  0.00     0.167 HD
HETATM   10  C15 UNL     1      45.317  22.009  51.892  1.00  0.00     0.061 A 
HETATM   11  C16 UNL     1      45.614  20.971  52.744  1.00  0.00     0.046 A 
ENDROOT
BRANCH   7  12
HETATM   12  C7  UNL     1      45.101  25.385  50.444  1.00  0.00     0.152 C 
BRANCH  12  13
HETATM   13  C8  UNL     1      44.765  25.505  49.004  1.00  0.00     0.089 A 
HETATM   14  N4  UNL     1      45.612  25.314  47.972  1.00  0.00    -0.344 N 
HETATM   15  C9  UNL     1      44.958  25.508  46.823  1.00  0.00     0.060 A 
ATOM     16  H4  UNL     1      46.597  25.062  48.055  1.00  0.00     0.167 HD
HETATM   17  C10 UNL     1      45.378  25.432  45.517  1.00  0.00     0.032 A 
HETATM   18  C14 UNL     1      43.662  25.829  47.167  1.00  0.00     0.060 A 
HETATM   19  C11 UNL     1      44.476  25.686  44.477  1.00  0.00     0.002 A 
HETATM   20  C12 UNL     1      43.172  26.011  44.786  1.00  0.00     0.002 A 
HETATM   21  C13 UNL     1      42.795  26.075  46.109  1.00  0.00     0.032 A 
HETATM   22  N5  UNL     1      43.571  25.821  48.492  1.00  0.00    -0.344 N 
ATOM     23  H5  UNL     1      42.728  26.023  49.030  1.00  0.00     0.167 HD
ENDBRANCH  12  13
ENDBRANCH   7  12
BRANCH   1  24
HETATM   24  C1  UNL     1      45.601  18.618  53.462  1.00  0.00     0.120 C 
HETATM   25  N1  UNL     1      44.943  17.352  53.489  1.00  0.00    -0.082 NA
HETATM   26  N2  UNL     1      46.521  18.827  54.309  1.00  0.00    -0.387 N 
ATOM     27  H22 UNL     1      46.774  18.106  54.985  1.00  0.00     0.157 HD
ATOM     28  H21 UNL     1      46.992  19.732  54.290  1.00  0.00     0.157 HD
ENDBRANCH   1  24
TORSDOF 3
ENDMDL
