MODEL 2
REMARK VINA RESULT: -8.030865102      0.124      1.210
REMARK  3 active torsions:
REMARK  status: ('A' for Active; 'I' for Inactive)
REMARK    1  A    between atoms: C1_2  and  C2_6 
REMARK    2  A    between atoms: C6_12  and  C7_13 
REMARK    3  A    between atoms: C7_13  and  C8_14 
ROOT
HETATM    1  C2  UNL     1      45.131  19.853  52.679  1.00  0.00     0.007 A 
HETATM    2  C3  UNL     1      44.692  19.790  51.382  1.00  0.00     0.017 A 
HETATM    3  C4  UNL     1      44.166  20.922  50.756  1.00  0.00     0.033 A 
HETATM    4  C5  UNL     1      44.064  22.135  51.394  1.00  0.00     0.060 A 
HETATM    5  N3  UNL     1      43.609  23.360  51.043  1.00  0.00    -0.344 N 
ATOM      6  H3  UNL     1      43.222  23.603  50.131  1.00  0.00     0.167 HD
HETATM    7  C6  UNL     1      43.745  24.205  52.076  1.00  0.00     0.089 A 
HETATM    8  N6  UNL     1      44.289  23.494  53.078  1.00  0.00    -0.344 N 
ATOM      9  H6  UNL     1      44.512  23.870  53.999  1.00  0.00     0.167 HD
HETATM   10  C15 UNL     1      44.501  22.212  52.698  1.00  0.00     0.061 A 
HETATM   11  C16 UNL     1      45.018  21.095  53.313  1.00  0.00     0.046 A 
ENDROOT
BRANCH   7  12
HETATM   12  C7  UNL     1      43.362  25.661  52.107  1.00  0.00     0.152 C 
BRANCH  12  13
HETATM   13  C8  UNL     1      42.052  25.762  52.794  1.00  0.00     0.089 A 
HETATM   14  N4  UNL     1      41.118  26.713  52.587  1.00  0.00    -0.344 N 
HETATM   15  C9  UNL     1      40.070  26.482  53.384  1.00  0.00     0.060 A 
ATOM     16  H4  UNL     1      41.198  27.487  51.927  1.00  0.00     0.167 HD
HETATM   17  C10 UNL     1      38.884  27.160  53.540  1.00  0.00     0.032 A 
HETATM   18  C14 UNL     1      40.375  25.347  54.103  1.00  0.00     0.060 A 
HETATM   19  C11 UNL     1      37.934  26.700  54.460  1.00  0.00     0.002 A 
HETATM   20  C12 UNL     1      38.208  25.568  55.197  1.00  0.00     0.002 A 
HETATM   21  C13 UNL     1      39.409  24.921  55.006  1.00  0.00     0.032 A 
HETATM   22  N5  UNL     1      41.580  24.931  53.728  1.00  0.00    -0.344 N 
ATOM     23  H5  UNL     1      42.065  24.111  54.094  1.00  0.00     0.167 HD
ENDBRANCH  12  13
ENDBRANCH   7  12
BRANCH   1  24
HETATM   24  C1  UNL     1      45.693  18.731  53.415  1.00  0.00     0.120 C 
HETATM   25  N1  UNL     1      45.062  17.451  53.424  1.00  0.00    -0.082 NA
HETATM   26  N2  UNL     1      46.768  18.868  54.071  1.00  0.00    -0.387 N 
ATOM     27  H22 UNL     1      47.162  18.082  54.587  1.00  0.00     0.157 HD
ATOM     28  H21 UNL     1      47.219  19.783  54.064  1.00  0.00     0.157 HD
ENDBRANCH   1  24
TORSDOF 3
ENDMDL
