MODEL 3
REMARK VINA RESULT: -8.588960693      1.857      7.497
REMARK  3 active torsions:
REMARK  status: ('A' for Active; 'I' for Inactive)
REMARK    1  A    between atoms: C1_2  and  C2_6 
REMARK    2  A    between atoms: C6_12  and  C7_13 
REMARK    3  A    between atoms: C7_13  and  C8_14 
ROOT
HETATM    1  C2  UNL     1      19.959 -14.353  21.951  1.00  0.00     0.007 A 
HETATM    2  C3  UNL     1      20.464 -13.978  20.733  1.00  0.00     0.017 A 
HETATM    3  C4  UNL     1      19.607 -13.629  19.687  1.00  0.00     0.033 A 
HETATM    4  C5  UNL     1      18.239 -13.644  19.821  1.00  0.00     0.060 A 
HETATM    5  N3  UNL     1      17.200 -13.364  19.001  1.00  0.00    -0.344 N 
ATOM      6  H3  UNL     1      17.283 -13.059  18.032  1.00  0.00     0.167 HD
HETATM    7  C6  UNL     1      16.045 -13.548  19.658  1.00  0.00     0.089 A 
HETATM    8  N6  UNL     1      16.374 -13.947  20.898  1.00  0.00    -0.344 N 
ATOM      9  H6  UNL     1      15.701 -14.166  21.633  1.00  0.00     0.167 HD
HETATM   10  C15 UNL     1      17.719 -14.020  21.039  1.00  0.00     0.061 A 
HETATM   11  C16 UNL     1      18.565 -14.363  22.068  1.00  0.00     0.046 A 
ENDROOT
BRANCH   7  12
HETATM   12  C7  UNL     1      14.656 -13.348  19.114  1.00  0.00     0.152 C 
BRANCH  12  13
HETATM   13  C8  UNL     1      13.821 -12.808  20.213  1.00  0.00     0.089 A 
HETATM   14  N4  UNL     1      13.898 -11.564  20.732  1.00  0.00    -0.344 N 
HETATM   15  C9  UNL     1      12.991 -11.436  21.706  1.00  0.00     0.060 A 
ATOM     16  H4  UNL     1      14.545 -10.837  20.429  1.00  0.00     0.167 HD
HETATM   17  C10 UNL     1      12.684 -10.375  22.523  1.00  0.00     0.032 A 
HETATM   18  C14 UNL     1      12.336 -12.646  21.784  1.00  0.00     0.060 A 
HETATM   19  C11 UNL     1      11.670 -10.503  23.481  1.00  0.00     0.002 A 
HETATM   20  C12 UNL     1      10.995 -11.700  23.587  1.00  0.00     0.002 A 
HETATM   21  C13 UNL     1      11.337 -12.736  22.745  1.00  0.00     0.032 A 
HETATM   22  N5  UNL     1      12.856 -13.459  20.871  1.00  0.00    -0.344 N 
ATOM     23  H5  UNL     1      12.567 -14.422  20.701  1.00  0.00     0.167 HD
ENDBRANCH  12  13
ENDBRANCH   7  12
BRANCH   1  24
HETATM   24  C1  UNL     1      20.769 -14.733  23.098  1.00  0.00     0.120 C 
HETATM   25  N1  UNL     1      20.177 -15.188  24.314  1.00  0.00    -0.082 NA
HETATM   26  N2  UNL     1      22.033 -14.666  23.041  1.00  0.00    -0.387 N 
ATOM     27  H22 UNL     1      22.601 -14.932  23.845  1.00  0.00     0.157 HD
ATOM     28  H21 UNL     1      22.456 -14.341  22.171  1.00  0.00     0.157 HD
ENDBRANCH   1  24
TORSDOF 3
ENDMDL
