MODEL 4
REMARK VINA RESULT: -8.564465616      1.833      7.550
REMARK  3 active torsions:
REMARK  status: ('A' for Active; 'I' for Inactive)
REMARK    1  A    between atoms: C1_2  and  C2_6 
REMARK    2  A    between atoms: C6_12  and  C7_13 
REMARK    3  A    between atoms: C7_13  and  C8_14 
ROOT
HETATM    1  C2  UNL     1      19.950 -14.313  21.932  1.00  0.00     0.007 A 
HETATM    2  C3  UNL     1      20.438 -13.927  20.710  1.00  0.00     0.017 A 
HETATM    3  C4  UNL     1      19.567 -13.574  19.678  1.00  0.00     0.033 A 
HETATM    4  C5  UNL     1      18.201 -13.593  19.829  1.00  0.00     0.060 A 
HETATM    5  N3  UNL     1      17.151 -13.310  19.025  1.00  0.00    -0.344 N 
ATOM      6  H3  UNL     1      17.220 -12.998  18.056  1.00  0.00     0.167 HD
HETATM    7  C6  UNL     1      16.004 -13.503  19.695  1.00  0.00     0.089 A 
HETATM    8  N6  UNL     1      16.350 -13.910  20.927  1.00  0.00    -0.344 N 
ATOM      9  H6  UNL     1      15.688 -14.136  21.670  1.00  0.00     0.167 HD
HETATM   10  C15 UNL     1      17.697 -13.980  21.051  1.00  0.00     0.061 A 
HETATM   11  C16 UNL     1      18.557 -14.327  22.067  1.00  0.00     0.046 A 
ENDROOT
BRANCH   7  12
HETATM   12  C7  UNL     1      14.608 -13.303  19.170  1.00  0.00     0.152 C 
BRANCH  12  13
HETATM   13  C8  UNL     1      13.791 -12.752  20.278  1.00  0.00     0.089 A 
HETATM   14  N4  UNL     1      12.876 -13.429  21.003  1.00  0.00    -0.344 N 
HETATM   15  C9  UNL     1      12.340 -12.608  21.912  1.00  0.00     0.060 A 
ATOM     16  H4  UNL     1      12.631 -14.411  20.877  1.00  0.00     0.167 HD
HETATM   17  C10 UNL     1      11.380 -12.823  22.871  1.00  0.00     0.032 A 
HETATM   18  C14 UNL     1      12.951 -11.386  21.736  1.00  0.00     0.060 A 
HETATM   19  C11 UNL     1      10.989 -11.776  23.714  1.00  0.00     0.002 A 
HETATM   20  C12 UNL     1      11.578 -10.539  23.564  1.00  0.00     0.002 A 
HETATM   21  C13 UNL     1      12.537 -10.370  22.589  1.00  0.00     0.032 A 
HETATM   22  N5  UNL     1      13.824 -11.498  20.741  1.00  0.00    -0.344 N 
ATOM     23  H5  UNL     1      14.421 -10.751  20.388  1.00  0.00     0.167 HD
ENDBRANCH  12  13
ENDBRANCH   7  12
BRANCH   1  24
HETATM   24  C1  UNL     1      20.775 -14.699  23.066  1.00  0.00     0.120 C 
HETATM   25  N1  UNL     1      20.200 -15.086  24.312  1.00  0.00    -0.082 NA
HETATM   26  N2  UNL     1      22.039 -14.698  22.968  1.00  0.00    -0.387 N 
ATOM     27  H22 UNL     1      22.617 -14.968  23.763  1.00  0.00     0.157 HD
ATOM     28  H21 UNL     1      22.450 -14.421  22.077  1.00  0.00     0.157 HD
ENDBRANCH   1  24
TORSDOF 3
ENDMDL
