MODEL 5
REMARK VINA RESULT: -8.436243003      3.112      7.787
REMARK  3 active torsions:
REMARK  status: ('A' for Active; 'I' for Inactive)
REMARK    1  A    between atoms: C1_2  and  C2_6 
REMARK    2  A    between atoms: C6_12  and  C7_13 
REMARK    3  A    between atoms: C7_13  and  C8_14 
ROOT
HETATM    1  C2  UNL     1      20.607 -14.708  24.432  1.00  0.00     0.007 A 
HETATM    2  C3  UNL     1      19.743 -14.876  25.483  1.00  0.00     0.017 A 
HETATM    3  C4  UNL     1      18.372 -15.020  25.257  1.00  0.00     0.033 A 
HETATM    4  C5  UNL     1      17.829 -15.001  23.995  1.00  0.00     0.060 A 
HETATM    5  N3  UNL     1      16.576 -15.113  23.497  1.00  0.00    -0.344 N 
ATOM      6  H3  UNL     1      15.732 -15.246  24.055  1.00  0.00     0.167 HD
HETATM    7  C6  UNL     1      16.612 -15.023  22.159  1.00  0.00     0.089 A 
HETATM    8  N6  UNL     1      17.902 -14.852  21.826  1.00  0.00    -0.344 N 
ATOM      9  H6  UNL     1      18.246 -14.751  20.871  1.00  0.00     0.167 HD
HETATM   10  C15 UNL     1      18.686 -14.832  22.931  1.00  0.00     0.061 A 
HETATM   11  C16 UNL     1      20.036 -14.691  23.155  1.00  0.00     0.046 A 
ENDROOT
BRANCH   7  12
HETATM   12  C7  UNL     1      15.440 -15.097  21.218  1.00  0.00     0.152 C 
BRANCH  12  13
HETATM   13  C8  UNL     1      14.454 -14.078  21.653  1.00  0.00     0.089 A 
HETATM   14  N4  UNL     1      14.545 -12.747  21.452  1.00  0.00    -0.344 N 
HETATM   15  C9  UNL     1      13.475 -12.147  21.982  1.00  0.00     0.060 A 
ATOM     16  H4  UNL     1      15.310 -12.273  20.971  1.00  0.00     0.167 HD
HETATM   17  C10 UNL     1      13.113 -10.822  22.034  1.00  0.00     0.032 A 
HETATM   18  C14 UNL     1      12.702 -13.149  22.527  1.00  0.00     0.060 A 
HETATM   19  C11 UNL     1      11.917 -10.451  22.660  1.00  0.00     0.002 A 
HETATM   20  C12 UNL     1      11.120 -11.428  23.217  1.00  0.00     0.002 A 
HETATM   21  C13 UNL     1      11.523 -12.743  23.140  1.00  0.00     0.032 A 
HETATM   22  N5  UNL     1      13.316 -14.308  22.315  1.00  0.00    -0.344 N 
ATOM     23  H5  UNL     1      12.975 -15.223  22.610  1.00  0.00     0.167 HD
ENDBRANCH  12  13
ENDBRANCH   7  12
BRANCH   1  24
HETATM   24  C1  UNL     1      22.047 -14.550  24.566  1.00  0.00     0.120 C 
HETATM   25  N1  UNL     1      22.918 -14.650  23.441  1.00  0.00    -0.082 NA
HETATM   26  N2  UNL     1      22.564 -14.318  25.699  1.00  0.00    -0.387 N 
ATOM     27  H22 UNL     1      23.573 -14.208  25.793  1.00  0.00     0.157 HD
ATOM     28  H21 UNL     1      21.941 -14.246  26.504  1.00  0.00     0.157 HD
ENDBRANCH   1  24
TORSDOF 3
ENDMDL
