MODEL 12
REMARK VINA RESULT: -7.592098866      3.993      6.184
REMARK  5 active torsions:
REMARK  status: ('A' for Active; 'I' for Inactive)
REMARK    1  A    between atoms: C1_2  and  C2_6 
REMARK    2  A    between atoms: C6_12  and  C7_13 
REMARK    3  A    between atoms: C7_13  and  C8_14 
REMARK    4  A    between atoms: C12_20  and  C13_21 
REMARK    5  A    between atoms: C13_21  and  N6_23 
ROOT
HETATM    1  C7  UNL     1      16.342 -14.153  19.166  1.00  0.00     0.152 C 
ENDROOT
BRANCH   1   2
HETATM    2  C6  UNL     1      16.193 -13.646  17.775  1.00  0.00     0.089 A 
HETATM    3  N3  UNL     1      15.230 -12.839  17.339  1.00  0.00    -0.344 N 
HETATM    4  C5  UNL     1      15.367 -12.557  16.025  1.00  0.00     0.060 A 
ATOM      5  H3  UNL     1      14.479 -12.477  17.927  1.00  0.00     0.167 HD
HETATM    6  C4  UNL     1      14.654 -11.792  15.122  1.00  0.00     0.033 A 
HETATM    7  C16 UNL     1      16.500 -13.248  15.636  1.00  0.00     0.061 A 
HETATM    8  C3  UNL     1      15.124 -11.745  13.803  1.00  0.00     0.017 A 
HETATM    9  C2  UNL     1      16.230 -12.403  13.367  1.00  0.00     0.007 A 
HETATM   10  C17 UNL     1      16.911 -13.162  14.328  1.00  0.00     0.046 A 
HETATM   11  N8  UNL     1      16.984 -13.900  16.707  1.00  0.00    -0.344 N 
ATOM     12  H8  UNL     1      17.815 -14.492  16.714  1.00  0.00     0.167 HD
BRANCH   9  13
HETATM   13  C1  UNL     1      16.714 -12.352  11.995  1.00  0.00     0.120 C 
HETATM   14  N1  UNL     1      17.976 -12.954  11.695  1.00  0.00    -0.082 NA
HETATM   15  N2  UNL     1      16.075 -11.798  11.047  1.00  0.00    -0.387 N 
ATOM     16  H22 UNL     1      16.413 -11.762  10.086  1.00  0.00     0.157 HD
ATOM     17  H21 UNL     1      15.174 -11.369  11.261  1.00  0.00     0.157 HD
ENDBRANCH   9  13
ENDBRANCH   1   2
BRANCH   1  18
HETATM   18  C8  UNL     1      15.275 -13.649  20.047  1.00  0.00     0.089 A 
HETATM   19  N4  UNL     1      14.075 -14.224  20.234  1.00  0.00    -0.344 N 
HETATM   20  C9  UNL     1      13.358 -13.492  21.104  1.00  0.00     0.060 A 
ATOM     21  H4  UNL     1      13.758 -15.084  19.786  1.00  0.00     0.167 HD
HETATM   22  C10 UNL     1      12.085 -13.697  21.587  1.00  0.00     0.033 A 
HETATM   23  C15 UNL     1      14.126 -12.427  21.475  1.00  0.00     0.061 A 
HETATM   24  C11 UNL     1      11.608 -12.761  22.482  1.00  0.00     0.017 A 
HETATM   25  C12 UNL     1      12.354 -11.672  22.881  1.00  0.00     0.007 A 
HETATM   26  C14 UNL     1      13.615 -11.512  22.372  1.00  0.00     0.046 A 
HETATM   27  N7  UNL     1      15.299 -12.550  20.810  1.00  0.00    -0.344 N 
ATOM     28  H7  UNL     1      16.083 -11.901  20.879  1.00  0.00     0.167 HD
BRANCH  25  29
HETATM   29  C13 UNL     1      11.780 -10.728  23.829  1.00  0.00     0.120 C 
HETATM   30  N5  UNL     1      12.388  -9.435  24.020  1.00  0.00    -0.082 NA
BRANCH  29  31
HETATM   31  N6  UNL     1      10.740 -10.992  24.520  1.00  0.00    -0.387 N 
ATOM     32  H62 UNL     1      10.443 -11.966  24.564  1.00  0.00     0.157 HD
ATOM     33  H61 UNL     1      10.212 -10.273  25.015  1.00  0.00     0.157 HD
ENDBRANCH  29  31
ENDBRANCH  25  29
ENDBRANCH   1  18
TORSDOF 5
ENDMDL
