MODEL 1
REMARK VINA RESULT: -8.745803165      0.000      0.000
REMARK  5 active torsions:
REMARK  status: ('A' for Active; 'I' for Inactive)
REMARK    1  A    between atoms: C1_2  and  C2_6 
REMARK    2  A    between atoms: C6_12  and  C7_13 
REMARK    3  A    between atoms: C7_13  and  C8_14 
REMARK    4  A    between atoms: C12_20  and  C13_21 
REMARK    5  A    between atoms: C13_21  and  N6_23 
ROOT
HETATM    1  C7  UNL     1      14.941 -13.456  19.601  1.00  0.00     0.152 C 
ENDROOT
BRANCH   1   2
HETATM    2  C6  UNL     1      16.342 -13.717  20.030  1.00  0.00     0.089 A 
HETATM    3  N3  UNL     1      17.420 -13.648  19.255  1.00  0.00    -0.344 N 
HETATM    4  C5  UNL     1      18.549 -13.940  19.936  1.00  0.00     0.060 A 
ATOM      5  H3  UNL     1      17.397 -13.403  18.265  1.00  0.00     0.167 HD
HETATM    6  C4  UNL     1      19.889 -14.008  19.604  1.00  0.00     0.033 A 
HETATM    7  C16 UNL     1      18.120 -14.209  21.224  1.00  0.00     0.061 A 
HETATM    8  C3  UNL     1      20.789 -14.357  20.618  1.00  0.00     0.017 A 
HETATM    9  C2  UNL     1      20.423 -14.630  21.898  1.00  0.00     0.007 A 
HETATM   10  C17 UNL     1      19.052 -14.545  22.176  1.00  0.00     0.046 A 
HETATM   11  N8  UNL     1      16.784 -14.068  21.260  1.00  0.00    -0.344 N 
ATOM     12  H8  UNL     1      16.197 -14.205  22.082  1.00  0.00     0.167 HD
BRANCH   9  13
HETATM   13  C1  UNL     1      21.363 -14.993  22.949  1.00  0.00     0.120 C 
HETATM   14  N1  UNL     1      20.896 -15.806  24.029  1.00  0.00    -0.082 NA
HETATM   15  N2  UNL     1      22.579 -14.625  22.958  1.00  0.00    -0.387 N 
ATOM     16  H22 UNL     1      23.238 -14.879  23.694  1.00  0.00     0.157 HD
ATOM     17  H21 UNL     1      22.912 -14.046  22.187  1.00  0.00     0.157 HD
ENDBRANCH   9  13
ENDBRANCH   1   2
BRANCH   1  18
HETATM   18  C8  UNL     1      14.166 -12.779  20.656  1.00  0.00     0.089 A 
HETATM   19  N4  UNL     1      13.168 -13.326  21.369  1.00  0.00    -0.344 N 
HETATM   20  C9  UNL     1      12.691 -12.420  22.240  1.00  0.00     0.060 A 
ATOM     21  H4  UNL     1      12.825 -14.281  21.266  1.00  0.00     0.167 HD
HETATM   22  C10 UNL     1      11.677 -12.537  23.164  1.00  0.00     0.033 A 
HETATM   23  C15 UNL     1      13.408 -11.272  22.071  1.00  0.00     0.061 A 
HETATM   24  C11 UNL     1      11.410 -11.420  23.930  1.00  0.00     0.017 A 
HETATM   25  C12 UNL     1      12.112 -10.241  23.788  1.00  0.00     0.007 A 
HETATM   26  C14 UNL     1      13.112 -10.176  22.855  1.00  0.00     0.046 A 
HETATM   27  N7  UNL     1      14.308 -11.522  21.091  1.00  0.00    -0.344 N 
ATOM     28  H7  UNL     1      14.990 -10.851  20.737  1.00  0.00     0.167 HD
BRANCH  25  29
HETATM   29  C13 UNL     1      11.770  -9.106  24.633  1.00  0.00     0.120 C 
HETATM   30  N5  UNL     1      10.409  -8.912  25.067  1.00  0.00    -0.082 NA
BRANCH  29  31
HETATM   31  N6  UNL     1      12.635  -8.251  25.021  1.00  0.00    -0.387 N 
ATOM     32  H62 UNL     1      13.504  -8.192  24.490  1.00  0.00     0.157 HD
ATOM     33  H61 UNL     1      12.484  -7.642  25.825  1.00  0.00     0.157 HD
ENDBRANCH  29  31
ENDBRANCH  25  29
ENDBRANCH   1  18
TORSDOF 5
ENDMDL
