MODEL 11
REMARK VINA RESULT: -7.634829989      4.008      8.873
REMARK  5 active torsions:
REMARK  status: ('A' for Active; 'I' for Inactive)
REMARK    1  A    between atoms: C1_2  and  C2_6 
REMARK    2  A    between atoms: C6_12  and  C7_13 
REMARK    3  A    between atoms: C7_13  and  C8_14 
REMARK    4  A    between atoms: C12_20  and  C13_21 
REMARK    5  A    between atoms: C13_21  and  N6_23 
ROOT
HETATM    1  C7  UNL     1      16.444 -14.088  19.143  1.00  0.00     0.152 C 
ENDROOT
BRANCH   1   2
HETATM    2  C6  UNL     1      15.337 -13.615  20.017  1.00  0.00     0.089 A 
HETATM    3  N3  UNL     1      14.150 -14.198  20.156  1.00  0.00    -0.344 N 
HETATM    4  C5  UNL     1      13.359 -13.529  21.023  1.00  0.00     0.060 A 
ATOM      5  H3  UNL     1      13.870 -15.047  19.666  1.00  0.00     0.167 HD
HETATM    6  C4  UNL     1      12.076 -13.712  21.500  1.00  0.00     0.033 A 
HETATM    7  C16 UNL     1      14.129 -12.457  21.441  1.00  0.00     0.061 A 
HETATM    8  C3  UNL     1      11.588 -12.775  22.420  1.00  0.00     0.017 A 
HETATM    9  C2  UNL     1      12.299 -11.706  22.864  1.00  0.00     0.007 A 
HETATM   10  C17 UNL     1      13.594 -11.571  22.345  1.00  0.00     0.046 A 
HETATM   11  N8  UNL     1      15.319 -12.527  20.822  1.00  0.00    -0.344 N 
ATOM     12  H8  UNL     1      16.087 -11.866  20.939  1.00  0.00     0.167 HD
BRANCH   9  13
HETATM   13  C1  UNL     1      11.787 -10.734  23.819  1.00  0.00     0.120 C 
HETATM   14  N1  UNL     1      12.459  -9.477  23.939  1.00  0.00    -0.082 NA
HETATM   15  N2  UNL     1      10.773 -10.943  24.555  1.00  0.00    -0.387 N 
ATOM     16  H22 UNL     1      10.414 -10.262  25.225  1.00  0.00     0.157 HD
ATOM     17  H21 UNL     1      10.294 -11.839  24.470  1.00  0.00     0.157 HD
ENDBRANCH   9  13
ENDBRANCH   1   2
BRANCH   1  18
HETATM   18  C8  UNL     1      16.283 -13.615  17.756  1.00  0.00     0.089 A 
HETATM   19  N4  UNL     1      15.275 -12.852  17.301  1.00  0.00    -0.344 N 
HETATM   20  C9  UNL     1      15.452 -12.614  15.989  1.00  0.00     0.060 A 
ATOM     21  H4  UNL     1      14.497 -12.507  17.862  1.00  0.00     0.167 HD
HETATM   22  C10 UNL     1      14.676 -11.887  15.114  1.00  0.00     0.033 A 
HETATM   23  C15 UNL     1      16.601 -13.244  15.609  1.00  0.00     0.061 A 
HETATM   24  C11 UNL     1      15.119 -11.819  13.809  1.00  0.00     0.017 A 
HETATM   25  C12 UNL     1      16.275 -12.441  13.387  1.00  0.00     0.007 A 
HETATM   26  C14 UNL     1      17.012 -13.153  14.295  1.00  0.00     0.046 A 
HETATM   27  N7  UNL     1      17.090 -13.851  16.716  1.00  0.00    -0.344 N 
ATOM     28  H7  UNL     1      17.946 -14.404  16.751  1.00  0.00     0.167 HD
BRANCH  25  29
HETATM   29  C13 UNL     1      16.676 -12.323  11.992  1.00  0.00     0.120 C 
HETATM   30  N5  UNL     1      17.978 -12.777  11.574  1.00  0.00    -0.082 NA
BRANCH  29  31
HETATM   31  N6  UNL     1      15.915 -11.825  11.097  1.00  0.00    -0.387 N 
ATOM     32  H62 UNL     1      15.205 -12.436  10.694  1.00  0.00     0.157 HD
ATOM     33  H61 UNL     1      15.997 -10.858  10.782  1.00  0.00     0.157 HD
ENDBRANCH  29  31
ENDBRANCH  25  29
ENDBRANCH   1  18
TORSDOF 5
ENDMDL
