MODEL 2
REMARK VINA RESULT: -8.729720243      0.113      8.422
REMARK  5 active torsions:
REMARK  status: ('A' for Active; 'I' for Inactive)
REMARK    1  A    between atoms: C1_2  and  C2_6 
REMARK    2  A    between atoms: C6_12  and  C7_13 
REMARK    3  A    between atoms: C7_13  and  C8_14 
REMARK    4  A    between atoms: C12_20  and  C13_21 
REMARK    5  A    between atoms: C13_21  and  N6_23 
ROOT
HETATM    1  C7  UNL     1      15.038 -13.455  19.652  1.00  0.00     0.152 C 
ENDROOT
BRANCH   1   2
HETATM    2  C6  UNL     1      14.226 -12.786  20.706  1.00  0.00     0.089 A 
HETATM    3  N3  UNL     1      13.218 -13.334  21.377  1.00  0.00    -0.344 N 
HETATM    4  C5  UNL     1      12.681 -12.472  22.268  1.00  0.00     0.060 A 
ATOM      5  H3  UNL     1      12.888 -14.288  21.235  1.00  0.00     0.167 HD
HETATM    6  C4  UNL     1      11.647 -12.546  23.182  1.00  0.00     0.033 A 
HETATM    7  C16 UNL     1      13.423 -11.313  22.124  1.00  0.00     0.061 A 
HETATM    8  C3  UNL     1      11.382 -11.407  23.952  1.00  0.00     0.017 A 
HETATM    9  C2  UNL     1      12.079 -10.244  23.852  1.00  0.00     0.007 A 
HETATM   10  C17 UNL     1      13.115 -10.228  22.909  1.00  0.00     0.046 A 
HETATM   11  N8  UNL     1      14.351 -11.524  21.175  1.00  0.00    -0.344 N 
ATOM     12  H8  UNL     1      15.040 -10.840  20.860  1.00  0.00     0.167 HD
BRANCH   9  13
HETATM   13  C1  UNL     1      11.800  -9.061  24.655  1.00  0.00     0.120 C 
HETATM   14  N1  UNL     1      10.455  -8.831  25.083  1.00  0.00    -0.082 NA
HETATM   15  N2  UNL     1      12.689  -8.221  24.995  1.00  0.00    -0.387 N 
ATOM     16  H22 UNL     1      12.494  -7.392  25.557  1.00  0.00     0.157 HD
ATOM     17  H21 UNL     1      13.649  -8.385  24.689  1.00  0.00     0.157 HD
ENDBRANCH   9  13
ENDBRANCH   1   2
BRANCH   1  18
HETATM   18  C8  UNL     1      16.412 -13.724  20.112  1.00  0.00     0.089 A 
HETATM   19  N4  UNL     1      17.523 -13.611  19.365  1.00  0.00    -0.344 N 
HETATM   20  C9  UNL     1      18.596 -13.935  20.109  1.00  0.00     0.060 A 
ATOM     21  H4  UNL     1      17.550 -13.325  18.387  1.00  0.00     0.167 HD
HETATM   22  C10 UNL     1      19.929 -13.963  19.764  1.00  0.00     0.033 A 
HETATM   23  C15 UNL     1      18.148 -14.259  21.356  1.00  0.00     0.061 A 
HETATM   24  C11 UNL     1      20.812 -14.340  20.756  1.00  0.00     0.017 A 
HETATM   25  C12 UNL     1      20.399 -14.675  22.027  1.00  0.00     0.007 A 
HETATM   26  C14 UNL     1      19.062 -14.632  22.320  1.00  0.00     0.046 A 
HETATM   27  N7  UNL     1      16.802 -14.120  21.328  1.00  0.00    -0.344 N 
ATOM     28  H7  UNL     1      16.178 -14.293  22.117  1.00  0.00     0.167 HD
BRANCH  25  29
HETATM   29  C13 UNL     1      21.392 -15.064  23.018  1.00  0.00     0.120 C 
HETATM   30  N5  UNL     1      21.031 -15.952  24.094  1.00  0.00    -0.082 NA
BRANCH  29  31
HETATM   31  N6  UNL     1      22.598 -14.648  22.983  1.00  0.00    -0.387 N 
ATOM     32  H62 UNL     1      23.319 -15.327  22.739  1.00  0.00     0.157 HD
ATOM     33  H61 UNL     1      22.853 -13.682  23.188  1.00  0.00     0.157 HD
ENDBRANCH  29  31
ENDBRANCH  25  29
ENDBRANCH   1  18
TORSDOF 5
ENDMDL
