MODEL 4
REMARK VINA RESULT: -5.997229629      4.238      5.588
REMARK  0 active torsions:
REMARK  status: ('A' for Active; 'I' for Inactive)
ROOT
HETATM    1  N1  UNL     1      12.965 -17.303  -2.839  1.00  0.00    -0.063 NA
HETATM    2  C1  UNL     1      12.381 -17.575  -4.113  1.00  0.00     0.196 A 
HETATM    3  N2  UNL     1      11.722 -18.723  -4.360  1.00  0.00    -0.314 N 
ATOM      4  H2  UNL     1      11.638 -19.413  -3.614  1.00  0.00     0.170 HD
HETATM    5  C2  UNL     1      11.172 -18.986  -5.550  1.00  0.00     0.142 A 
HETATM    6  N3  UNL     1      10.474 -20.005  -6.090  1.00  0.00    -0.321 N 
ATOM      7  H3  UNL     1      10.219 -20.861  -5.597  1.00  0.00     0.169 HD
HETATM    8  C3  UNL     1      10.159 -19.736  -7.367  1.00  0.00     0.150 A 
HETATM    9  I1  UNL     1       9.065 -21.039  -8.633  1.00  0.00    -0.003 I 
HETATM   10  N4  UNL     1      10.659 -18.530  -7.659  1.00  0.00    -0.330 N 
ATOM     11  H4  UNL     1      10.581 -18.055  -8.558  1.00  0.00     0.168 HD
HETATM   12  C4  UNL     1      11.291 -18.044  -6.551  1.00  0.00     0.147 A 
HETATM   13  C5  UNL     1      11.969 -16.875  -6.282  1.00  0.00     0.278 A 
HETATM   14  O1  UNL     1      12.053 -16.035  -7.234  1.00  0.00    -0.265 OA
HETATM   15  N5  UNL     1      12.508 -16.644  -5.076  1.00  0.00    -0.295 N 
ATOM     16  H5  UNL     1      13.007 -15.773  -4.891  1.00  0.00     0.171 HD
ENDROOT
TORSDOF 0
ENDMDL
