MODEL 2
REMARK VINA RESULT: -6.186852437      6.054      7.702
REMARK  0 active torsions:
REMARK  status: ('A' for Active; 'I' for Inactive)
ROOT
HETATM    1  N1  UNL     1      11.439 -17.601   2.145  1.00  0.00    -0.063 NA
HETATM    2  C1  UNL     1      10.963 -18.490   3.157  1.00  0.00     0.196 A 
HETATM    3  N2  UNL     1       9.651 -18.742   3.319  1.00  0.00    -0.314 N 
ATOM      4  H2  UNL     1       8.981 -18.285   2.701  1.00  0.00     0.170 HD
HETATM    5  C2  UNL     1       9.197 -19.574   4.264  1.00  0.00     0.142 A 
HETATM    6  N3  UNL     1       7.989 -20.016   4.664  1.00  0.00    -0.321 N 
ATOM      7  H3  UNL     1       7.101 -19.743   4.243  1.00  0.00     0.169 HD
HETATM    8  C3  UNL     1       8.117 -20.868   5.694  1.00  0.00     0.150 A 
HETATM    9  I1  UNL     1       6.495 -21.826   6.667  1.00  0.00    -0.003 I 
HETATM   10  N4  UNL     1       9.422 -20.978   5.964  1.00  0.00    -0.330 N 
ATOM     11  H4  UNL     1       9.832 -21.556   6.698  1.00  0.00     0.168 HD
HETATM   12  C4  UNL     1      10.114 -20.187   5.093  1.00  0.00     0.147 A 
HETATM   13  C5  UNL     1      11.453 -19.918   4.913  1.00  0.00     0.278 A 
HETATM   14  O1  UNL     1      12.261 -20.506   5.701  1.00  0.00    -0.265 OA
HETATM   15  N5  UNL     1      11.872 -19.079   3.956  1.00  0.00    -0.295 N 
ATOM     16  H5  UNL     1      12.868 -18.889   3.834  1.00  0.00     0.171 HD
ENDROOT
TORSDOF 0
ENDMDL
