MODEL 3
REMARK VINA RESULT: -6.147891295      3.300      4.473
REMARK  0 active torsions:
REMARK  status: ('A' for Active; 'I' for Inactive)
ROOT
HETATM    1  N1  UNL     1       7.788 -18.664   4.667  1.00  0.00    -0.063 NA
HETATM    2  C1  UNL     1       8.844 -18.720   3.708  1.00  0.00     0.196 A 
HETATM    3  N2  UNL     1       8.703 -19.365   2.535  1.00  0.00    -0.314 N 
ATOM      4  H2  UNL     1       7.816 -19.825   2.329  1.00  0.00     0.170 HD
HETATM    5  C2  UNL     1       9.688 -19.423   1.631  1.00  0.00     0.142 A 
HETATM    6  N3  UNL     1       9.850 -19.970   0.411  1.00  0.00    -0.321 N 
ATOM      7  H3  UNL     1       9.137 -20.506  -0.086  1.00  0.00     0.169 HD
HETATM    8  C3  UNL     1      11.080 -19.712  -0.062  1.00  0.00     0.150 A 
HETATM    9  I1  UNL     1      11.804 -20.366  -1.944  1.00  0.00    -0.003 I 
HETATM   10  N4  UNL     1      11.722 -18.991   0.863  1.00  0.00    -0.330 N 
ATOM     11  H4  UNL     1      12.678 -18.643   0.790  1.00  0.00     0.168 HD
HETATM   12  C4  UNL     1      10.883 -18.797   1.922  1.00  0.00     0.147 A 
HETATM   13  C5  UNL     1      11.010 -18.141   3.126  1.00  0.00     0.278 A 
HETATM   14  O1  UNL     1      12.129 -17.578   3.351  1.00  0.00    -0.265 OA
HETATM   15  N5  UNL     1      10.002 -18.103   4.009  1.00  0.00    -0.295 N 
ATOM     16  H5  UNL     1      10.111 -17.613   4.898  1.00  0.00     0.171 HD
ENDROOT
TORSDOF 0
ENDMDL
