MODEL 7
REMARK VINA RESULT: -9.430926113      3.553      8.460
REMARK  8 active torsions:
REMARK  status: ('A' for Active; 'I' for Inactive)
REMARK    1  A    between atoms: C1_2  and  C2_6 
REMARK    2  A    between atoms: C5_9  and  C6_10 
REMARK    3  A    between atoms: C6_10  and  N3_11 
REMARK       I    between atoms: N3_11  and  C7_13 
REMARK    4  A    between atoms: C7_13  and  C8_15 
REMARK    5  A    between atoms: N5_22  and  C13_23 
REMARK    6  A    between atoms: C13_23  and  C14_24 
REMARK    7  A    between atoms: C14_24  and  S1_25 
REMARK    8  A    between atoms: S1_25  and  C15_28 
ROOT
HETATM    1  C8  UNL     1      18.009 -12.875  21.624  1.00  0.00     0.228 C 
HETATM    2  C9  UNL     1      19.357 -12.468  21.216  1.00  0.00     0.007 C 
HETATM    3  C10 UNL     1      20.282 -13.319  20.852  1.00  0.00    -0.006 C 
HETATM    4  C11 UNL     1      19.983 -14.775  20.842  1.00  0.00     0.181 C 
HETATM    5  N4  UNL     1      18.929 -15.112  21.772  1.00  0.00    -0.232 N 
HETATM    6  C12 UNL     1      18.664 -16.282  22.420  1.00  0.00     0.347 A 
HETATM    7  O2  UNL     1      19.328 -17.341  22.313  1.00  0.00    -0.245 OA
HETATM    8  N5  UNL     1      17.556 -16.064  23.187  1.00  0.00    -0.248 N 
HETATM    9  C21 UNL     1      17.168 -14.815  23.008  1.00  0.00     0.348 A 
HETATM   10  O5  UNL     1      16.183 -14.267  23.555  1.00  0.00    -0.245 OA
HETATM   11  N6  UNL     1      18.026 -14.225  22.126  1.00  0.00    -0.218 N 
ENDROOT
BRANCH   1  12
HETATM   12  C7  UNL     1      16.987 -12.644  20.569  1.00  0.00     0.246 C 
HETATM   13  N3  UNL     1      15.649 -12.316  20.835  1.00  0.00    -0.359 N 
ATOM     14  H3  UNL     1      15.388 -12.235  21.818  1.00  0.00     0.162 HD
HETATM   15  O1  UNL     1      17.335 -12.747  19.368  1.00  0.00    -0.271 OA
BRANCH  13  16
HETATM   16  C6  UNL     1      14.603 -12.081  19.869  1.00  0.00     0.127 C 
BRANCH  16  17
HETATM   17  C5  UNL     1      13.278 -12.146  20.588  1.00  0.00     0.003 C 
HETATM   18  C4  UNL     1      13.435 -13.029  21.811  1.00  0.00     0.007 C 
HETATM   19  C3  UNL     1      12.437 -12.548  22.883  1.00  0.00     0.012 C 
HETATM   20  C2  UNL     1      12.883 -11.194  23.395  1.00  0.00     0.050 C 
HETATM   21  C23 UNL     1      13.415 -10.334  22.269  1.00  0.00     0.012 C 
HETATM   22  C22 UNL     1      12.781 -10.766  20.971  1.00  0.00     0.007 C 
BRANCH  20  23
HETATM   23  C1  UNL     1      11.744 -10.577  24.114  1.00  0.00     0.090 C 
HETATM   24  N1  UNL     1      11.969  -9.258  24.640  1.00  0.00    -0.088 NA
HETATM   25  N2  UNL     1      10.601 -11.133  24.295  1.00  0.00    -0.391 N 
ATOM     26  H22 UNL     1       9.817 -10.707  24.790  1.00  0.00     0.157 HD
ATOM     27  H21 UNL     1      10.442 -12.069  23.922  1.00  0.00     0.157 HD
ENDBRANCH  20  23
ENDBRANCH  16  17
ENDBRANCH  13  16
ENDBRANCH   1  12
BRANCH   8  28
HETATM   28  C13 UNL     1      16.989 -17.105  24.019  1.00  0.00     0.154 C 
BRANCH  28  29
HETATM   29  C14 UNL     1      17.010 -16.768  25.484  1.00  0.00     0.166 C 
BRANCH  29  30
HETATM   30  S1  UNL     1      18.494 -17.383  26.230  1.00  0.00     0.177 S 
HETATM   31  O3  UNL     1      18.307 -17.307  27.733  1.00  0.00    -0.223 OA
HETATM   32  O4  UNL     1      18.752 -18.822  25.859  1.00  0.00    -0.223 OA
BRANCH  30  33
HETATM   33  C15 UNL     1      19.892 -16.451  25.828  1.00  0.00     0.059 A 
HETATM   34  C16 UNL     1      21.064 -17.125  25.533  1.00  0.00     0.025 A 
HETATM   35  C17 UNL     1      22.216 -16.422  25.204  1.00  0.00     0.020 A 
HETATM   36  C18 UNL     1      22.223 -15.050  25.162  1.00  0.00     0.011 A 
HETATM   37 BR1  UNL     1      23.799 -14.061  24.710  1.00  0.00    -0.051 Br
HETATM   38  C19 UNL     1      21.065 -14.378  25.454  1.00  0.00     0.020 A 
HETATM   39  C20 UNL     1      19.903 -15.082  25.785  1.00  0.00     0.025 A 
ENDBRANCH  30  33
ENDBRANCH  29  30
ENDBRANCH  28  29
ENDBRANCH   8  28
TORSDOF 8
ENDMDL
