MODEL 2
REMARK VINA RESULT: -10.070584619      0.803      1.029
REMARK  8 active torsions:
REMARK  status: ('A' for Active; 'I' for Inactive)
REMARK    1  A    between atoms: C1_2  and  C2_6 
REMARK    2  A    between atoms: C5_9  and  C6_10 
REMARK    3  A    between atoms: C6_10  and  N3_11 
REMARK       I    between atoms: N3_11  and  C7_13 
REMARK    4  A    between atoms: C7_13  and  C8_15 
REMARK    5  A    between atoms: N5_22  and  C13_23 
REMARK    6  A    between atoms: C13_23  and  C14_24 
REMARK    7  A    between atoms: C14_24  and  S1_25 
REMARK    8  A    between atoms: S1_25  and  C15_28 
ROOT
HETATM    1  C8  UNL     1      18.878 -15.122  21.860  1.00  0.00     0.228 C 
HETATM    2  C9  UNL     1      20.159 -14.589  21.385  1.00  0.00     0.007 C 
HETATM    3  C10 UNL     1      20.268 -13.458  20.738  1.00  0.00    -0.006 C 
HETATM    4  C11 UNL     1      19.053 -12.651  20.453  1.00  0.00     0.181 C 
HETATM    5  N4  UNL     1      17.863 -13.470  20.405  1.00  0.00    -0.232 N 
HETATM    6  C12 UNL     1      16.683 -13.277  19.750  1.00  0.00     0.347 A 
HETATM    7  O2  UNL     1      16.403 -12.287  19.031  1.00  0.00    -0.245 OA
HETATM    8  N5  UNL     1      15.895 -14.354  20.034  1.00  0.00    -0.248 N 
HETATM    9  C21 UNL     1      16.571 -15.163  20.828  1.00  0.00     0.348 A 
HETATM   10  O5  UNL     1      16.158 -16.252  21.291  1.00  0.00    -0.245 OA
HETATM   11  N6  UNL     1      17.797 -14.609  21.057  1.00  0.00    -0.218 N 
ENDROOT
BRANCH   1  12
HETATM   12  C7  UNL     1      18.675 -14.936  23.321  1.00  0.00     0.246 C 
HETATM   13  N3  UNL     1      19.719 -14.907  24.258  1.00  0.00    -0.359 N 
ATOM     14  H3  UNL     1      20.664 -15.021  23.889  1.00  0.00     0.162 HD
HETATM   15  O1  UNL     1      17.504 -14.794  23.747  1.00  0.00    -0.271 OA
BRANCH  13  16
HETATM   16  C6  UNL     1      19.601 -14.734  25.686  1.00  0.00     0.127 C 
BRANCH  16  17
HETATM   17  C5  UNL     1      20.733 -15.486  26.344  1.00  0.00     0.003 C 
HETATM   18  C4  UNL     1      20.827 -16.864  25.715  1.00  0.00     0.007 C 
HETATM   19  C3  UNL     1      22.294 -17.329  25.795  1.00  0.00     0.012 C 
HETATM   20  C2  UNL     1      23.128 -16.482  24.857  1.00  0.00     0.050 C 
HETATM   21  C23 UNL     1      22.683 -15.035  24.888  1.00  0.00     0.012 C 
HETATM   22  C22 UNL     1      22.046 -14.739  26.222  1.00  0.00     0.007 C 
BRANCH  20  23
HETATM   23  C1  UNL     1      24.553 -16.661  25.220  1.00  0.00     0.090 C 
HETATM   24  N1  UNL     1      24.849 -17.764  26.092  1.00  0.00    -0.088 NA
HETATM   25  N2  UNL     1      25.514 -15.910  24.818  1.00  0.00    -0.391 N 
ATOM     26  H22 UNL     1      26.495 -16.034  25.068  1.00  0.00     0.157 HD
ATOM     27  H21 UNL     1      25.303 -15.127  24.199  1.00  0.00     0.157 HD
ENDBRANCH  20  23
ENDBRANCH  16  17
ENDBRANCH  13  16
ENDBRANCH   1  12
BRANCH   8  28
HETATM   28  C13 UNL     1      14.556 -14.481  19.496  1.00  0.00     0.154 C 
BRANCH  28  29
HETATM   29  C14 UNL     1      13.657 -13.338  19.873  1.00  0.00     0.166 C 
BRANCH  29  30
HETATM   30  S1  UNL     1      12.770 -13.724  21.357  1.00  0.00     0.177 S 
HETATM   31  O3  UNL     1      11.426 -14.292  20.944  1.00  0.00    -0.223 OA
HETATM   32  O4  UNL     1      13.488 -14.762  22.183  1.00  0.00    -0.223 OA
BRANCH  30  33
HETATM   33  C15 UNL     1      12.472 -12.341  22.348  1.00  0.00     0.059 A 
HETATM   34  C16 UNL     1      13.341 -11.268  22.250  1.00  0.00     0.025 A 
HETATM   35  C17 UNL     1      13.146 -10.132  23.025  1.00  0.00     0.020 A 
HETATM   36  C18 UNL     1      12.094 -10.044  23.903  1.00  0.00     0.011 A 
HETATM   37 BR1  UNL     1      11.805  -8.487  24.981  1.00  0.00    -0.051 Br
HETATM   38  C19 UNL     1      11.231 -11.103  24.004  1.00  0.00     0.020 A 
HETATM   39  C20 UNL     1      11.424 -12.249  23.225  1.00  0.00     0.025 A 
ENDBRANCH  30  33
ENDBRANCH  29  30
ENDBRANCH  28  29
ENDBRANCH   8  28
TORSDOF 8
ENDMDL
