MODEL 1
REMARK VINA RESULT: -10.351651081      0.000      0.000
REMARK  8 active torsions:
REMARK  status: ('A' for Active; 'I' for Inactive)
REMARK    1  A    between atoms: C1_2  and  C2_6 
REMARK    2  A    between atoms: C5_9  and  C6_10 
REMARK    3  A    between atoms: C6_10  and  N3_11 
REMARK       I    between atoms: N3_11  and  C7_13 
REMARK    4  A    between atoms: C7_13  and  C8_15 
REMARK    5  A    between atoms: N5_22  and  C13_23 
REMARK    6  A    between atoms: C13_23  and  C14_24 
REMARK    7  A    between atoms: C14_24  and  S1_25 
REMARK    8  A    between atoms: S1_25  and  C15_28 
ROOT
HETATM    1  C8  UNL     1      18.674 -15.667  21.666  1.00  0.00     0.228 C 
HETATM    2  C9  UNL     1      19.988 -15.100  21.351  1.00  0.00     0.007 C 
HETATM    3  C10 UNL     1      20.161 -13.859  20.976  1.00  0.00    -0.006 C 
HETATM    4  C11 UNL     1      18.988 -12.955  20.854  1.00  0.00     0.181 C 
HETATM    5  N4  UNL     1      17.769 -13.689  20.598  1.00  0.00    -0.232 N 
HETATM    6  C12 UNL     1      16.618 -13.302  19.978  1.00  0.00     0.347 A 
HETATM    7  O2  UNL     1      16.399 -12.165  19.493  1.00  0.00    -0.245 OA
HETATM    8  N5  UNL     1      15.781 -14.379  19.995  1.00  0.00    -0.248 N 
HETATM    9  C21 UNL     1      16.400 -15.374  20.602  1.00  0.00     0.348 A 
HETATM   10  O5  UNL     1      15.931 -16.520  20.799  1.00  0.00    -0.245 OA
HETATM   11  N6  UNL     1      17.639 -14.940  20.976  1.00  0.00    -0.218 N 
ENDROOT
BRANCH   1  12
HETATM   12  C7  UNL     1      18.433 -15.804  23.127  1.00  0.00     0.246 C 
HETATM   13  N3  UNL     1      18.984 -14.949  24.093  1.00  0.00    -0.359 N 
ATOM     14  H3  UNL     1      19.580 -14.196  23.747  1.00  0.00     0.162 HD
HETATM   15  O1  UNL     1      17.694 -16.736  23.525  1.00  0.00    -0.271 OA
BRANCH  13  16
HETATM   16  C6  UNL     1      18.799 -15.019  25.523  1.00  0.00     0.127 C 
BRANCH  16  17
HETATM   17  C5  UNL     1      20.160 -15.138  26.166  1.00  0.00     0.003 C 
HETATM   18  C4  UNL     1      20.769 -16.468  25.764  1.00  0.00     0.007 C 
HETATM   19  C3  UNL     1      22.303 -16.311  25.755  1.00  0.00     0.012 C 
HETATM   20  C2  UNL     1      22.697 -15.409  24.605  1.00  0.00     0.050 C 
HETATM   21  C23 UNL     1      21.716 -14.266  24.449  1.00  0.00     0.012 C 
HETATM   22  C22 UNL     1      21.064 -13.984  25.779  1.00  0.00     0.007 C 
BRANCH  20  23
HETATM   23  C1  UNL     1      24.089 -14.956  24.833  1.00  0.00     0.090 C 
HETATM   24  N1  UNL     1      24.284 -13.535  24.923  1.00  0.00    -0.088 NA
HETATM   25  N2  UNL     1      25.104 -15.732  24.946  1.00  0.00    -0.391 N 
ATOM     26  H22 UNL     1      26.063 -15.420  25.102  1.00  0.00     0.157 HD
ATOM     27  H21 UNL     1      24.965 -16.741  24.882  1.00  0.00     0.157 HD
ENDBRANCH  20  23
ENDBRANCH  16  17
ENDBRANCH  13  16
ENDBRANCH   1  12
BRANCH   8  28
HETATM   28  C13 UNL     1      14.456 -14.323  19.414  1.00  0.00     0.154 C 
BRANCH  28  29
HETATM   29  C14 UNL     1      13.640 -13.163  19.912  1.00  0.00     0.166 C 
BRANCH  29  30
HETATM   30  S1  UNL     1      12.811 -13.602  21.415  1.00  0.00     0.177 S 
HETATM   31  O3  UNL     1      11.485 -14.230  21.030  1.00  0.00    -0.223 OA
HETATM   32  O4  UNL     1      13.597 -14.610  22.214  1.00  0.00    -0.223 OA
BRANCH  30  33
HETATM   33  C15 UNL     1      12.473 -12.242  22.425  1.00  0.00     0.059 A 
HETATM   34  C16 UNL     1      13.320 -11.150  22.355  1.00  0.00     0.025 A 
HETATM   35  C17 UNL     1      13.092 -10.031  23.146  1.00  0.00     0.020 A 
HETATM   36  C18 UNL     1      12.028  -9.979  24.012  1.00  0.00     0.011 A 
HETATM   37 BR1  UNL     1      11.695  -8.447  25.112  1.00  0.00    -0.051 Br
HETATM   38  C19 UNL     1      11.187 -11.058  24.086  1.00  0.00     0.020 A 
HETATM   39  C20 UNL     1      11.412 -12.185  23.290  1.00  0.00     0.025 A 
ENDBRANCH  30  33
ENDBRANCH  29  30
ENDBRANCH  28  29
ENDBRANCH   8  28
TORSDOF 8
ENDMDL
