MODEL 4
REMARK VINA RESULT: -9.620294855      2.565      3.718
REMARK  8 active torsions:
REMARK  status: ('A' for Active; 'I' for Inactive)
REMARK    1  A    between atoms: C1_2  and  C2_6 
REMARK    2  A    between atoms: C5_9  and  C6_10 
REMARK    3  A    between atoms: C6_10  and  N3_11 
REMARK       I    between atoms: N3_11  and  C7_13 
REMARK    4  A    between atoms: C7_13  and  C8_15 
REMARK    5  A    between atoms: N5_22  and  C13_23 
REMARK    6  A    between atoms: C13_23  and  C14_24 
REMARK    7  A    between atoms: C14_24  and  S1_25 
REMARK    8  A    between atoms: S1_25  and  C15_28 
ROOT
HETATM    1  C8  UNL     1      19.592 -15.081  21.614  1.00  0.00     0.228 C 
HETATM    2  C9  UNL     1      20.502 -14.185  20.893  1.00  0.00     0.007 C 
HETATM    3  C10 UNL     1      20.150 -13.000  20.465  1.00  0.00    -0.006 C 
HETATM    4  C11 UNL     1      18.767 -12.510  20.706  1.00  0.00     0.181 C 
HETATM    5  N4  UNL     1      17.830 -13.600  20.857  1.00  0.00    -0.232 N 
HETATM    6  C12 UNL     1      16.487 -13.649  20.625  1.00  0.00     0.347 A 
HETATM    7  O2  UNL     1      15.783 -12.693  20.218  1.00  0.00    -0.245 OA
HETATM    8  N5  UNL     1      16.083 -14.918  20.922  1.00  0.00    -0.248 N 
HETATM    9  C21 UNL     1      17.138 -15.606  21.317  1.00  0.00     0.348 A 
HETATM   10  O5  UNL     1      17.141 -16.809  21.669  1.00  0.00    -0.245 OA
HETATM   11  N6  UNL     1      18.225 -14.781  21.275  1.00  0.00    -0.218 N 
ENDROOT
BRANCH   1  12
HETATM   12  C7  UNL     1      19.849 -15.115  23.079  1.00  0.00     0.246 C 
HETATM   13  N3  UNL     1      18.910 -15.546  24.027  1.00  0.00    -0.359 N 
ATOM     14  H3  UNL     1      18.006 -15.850  23.666  1.00  0.00     0.162 HD
HETATM   15  O1  UNL     1      20.971 -14.739  23.496  1.00  0.00    -0.271 OA
BRANCH  13  16
HETATM   16  C6  UNL     1      19.085 -15.605  25.459  1.00  0.00     0.127 C 
BRANCH  16  17
HETATM   17  C5  UNL     1      17.888 -16.312  26.048  1.00  0.00     0.003 C 
HETATM   18  C4  UNL     1      17.463 -17.415  25.097  1.00  0.00     0.007 C 
HETATM   19  C3  UNL     1      16.813 -18.540  25.927  1.00  0.00     0.012 C 
HETATM   20  C2  UNL     1      17.882 -19.217  26.758  1.00  0.00     0.050 C 
HETATM   21  C23 UNL     1      18.867 -18.206  27.306  1.00  0.00     0.012 C 
HETATM   22  C22 UNL     1      18.189 -16.865  27.427  1.00  0.00     0.007 C 
BRANCH  20  23
HETATM   23  C1  UNL     1      17.210 -20.008  27.815  1.00  0.00     0.090 C 
HETATM   24  N1  UNL     1      16.135 -20.859  27.381  1.00  0.00    -0.088 NA
HETATM   25  N2  UNL     1      17.516 -19.978  29.061  1.00  0.00    -0.391 N 
ATOM     26  H22 UNL     1      17.053 -20.523  29.789  1.00  0.00     0.157 HD
ATOM     27  H21 UNL     1      18.278 -19.374  29.369  1.00  0.00     0.157 HD
ENDBRANCH  20  23
ENDBRANCH  16  17
ENDBRANCH  13  16
ENDBRANCH   1  12
BRANCH   8  28
HETATM   28  C13 UNL     1      14.701 -15.329  20.786  1.00  0.00     0.154 C 
BRANCH  28  29
HETATM   29  C14 UNL     1      13.837 -14.884  21.933  1.00  0.00     0.166 C 
BRANCH  29  30
HETATM   30  S1  UNL     1      12.568 -13.792  21.353  1.00  0.00     0.177 S 
HETATM   31  O3  UNL     1      12.978 -13.320  19.972  1.00  0.00    -0.223 OA
HETATM   32  O4  UNL     1      11.238 -14.494  21.237  1.00  0.00    -0.223 OA
BRANCH  30  33
HETATM   33  C15 UNL     1      12.369 -12.395  22.348  1.00  0.00     0.059 A 
HETATM   34  C16 UNL     1      13.232 -11.330  22.158  1.00  0.00     0.025 A 
HETATM   35  C17 UNL     1      13.115 -10.182  22.932  1.00  0.00     0.020 A 
HETATM   36  C18 UNL     1      12.146 -10.074  23.899  1.00  0.00     0.011 A 
HETATM   37 BR1  UNL     1      11.965  -8.502  24.977  1.00  0.00    -0.051 Br
HETATM   38  C19 UNL     1      11.289 -11.126  24.091  1.00  0.00     0.020 A 
HETATM   39  C20 UNL     1      11.404 -12.283  23.313  1.00  0.00     0.025 A 
ENDBRANCH  30  33
ENDBRANCH  29  30
ENDBRANCH  28  29
ENDBRANCH   8  28
TORSDOF 8
ENDMDL
