MODEL 1
REMARK VINA RESULT: -10.171824317      0.000      0.000
REMARK  3 active torsions:
REMARK  status: ('A' for Active; 'I' for Inactive)
REMARK       I    between atoms: C2_2  and  N1_4 
REMARK    1  A    between atoms: N1_4  and  C3_6 
REMARK    2  A    between atoms: C7_10  and  S1_11 
REMARK    3  A    between atoms: C12_19  and  S2_20 
ROOT
HETATM    1  C3  UNL     1      21.562  16.218 155.586  1.00  0.00     0.060 A 
HETATM    2  C4  UNL     1      20.282  15.793 155.938  1.00  0.00     0.032 A 
HETATM    3  C5  UNL     1      19.972  15.444 157.233  1.00  0.00     0.016 A 
HETATM    4  C6  UNL     1      20.916  15.506 158.210  1.00  0.00     0.000 A 
HETATM    5  C7  UNL     1      20.536  15.143 159.505  1.00  0.00     0.091 A 
HETATM    6  C8  UNL     1      21.481  15.207 160.494  1.00  0.00     0.027 A 
HETATM    7  C9  UNL     1      22.761  15.621 160.197  1.00  0.00     0.003 A 
HETATM    8  C10 UNL     1      23.094  15.970 158.908  1.00  0.00     0.014 A 
HETATM    9  C11 UNL     1      22.188  15.924 157.875  1.00  0.00     0.002 A 
HETATM   10  C12 UNL     1      22.557  16.288 156.577  1.00  0.00     0.118 A 
ENDROOT
BRANCH   1  11
HETATM   11  N1  UNL     1      21.798  16.692 154.286  1.00  0.00    -0.326 N 
HETATM   12  C2  UNL     1      20.769  17.062 153.408  1.00  0.00     0.218 C 
HETATM   13  C1  UNL     1      21.094  17.583 152.013  1.00  0.00     0.117 C 
HETATM   14  O1  UNL     1      19.541  17.015 153.638  1.00  0.00    -0.274 OA
ATOM     15  H1  UNL     1      22.763  16.771 153.964  1.00  0.00     0.169 HD
ENDBRANCH   1  11
BRANCH  10  16
HETATM   16  S2  UNL     1      24.156  16.663 156.251  1.00  0.00     0.141 S 
HETATM   17  O5  UNL     1      24.208  18.436 157.150  1.00  0.00    -0.591 OA
HETATM   18  O6  UNL     1      24.173  17.457 154.702  1.00  0.00    -0.591 OA
HETATM   19  O7  UNL     1      25.320  16.151 156.610  1.00  0.00    -0.591 OA
ENDBRANCH  10  16
BRANCH   5  20
HETATM   20  S1  UNL     1      18.926  14.645 159.784  1.00  0.00     0.138 S 
HETATM   21  O2  UNL     1      17.831  15.305 159.966  1.00  0.00    -0.591 OA
HETATM   22  O3  UNL     1      19.235  13.585 161.349  1.00  0.00    -0.591 OA
HETATM   23  O4  UNL     1      18.765  13.189 158.798  1.00  0.00    -0.591 OA
ENDBRANCH   5  20
TORSDOF 3
ENDMDL
