MODEL 3
REMARK VINA RESULT: -9.582092146      1.691      2.143
REMARK  3 active torsions:
REMARK  status: ('A' for Active; 'I' for Inactive)
REMARK       I    between atoms: C2_2  and  N1_4 
REMARK    1  A    between atoms: N1_4  and  C3_6 
REMARK    2  A    between atoms: C7_10  and  S1_11 
REMARK    3  A    between atoms: C12_19  and  S2_20 
ROOT
HETATM    1  C3  UNL     1      21.049  15.981 157.390  1.00  0.00     0.060 A 
HETATM    2  C4  UNL     1      19.763  15.446 157.465  1.00  0.00     0.032 A 
HETATM    3  C5  UNL     1      19.289  14.876 158.625  1.00  0.00     0.016 A 
HETATM    4  C6  UNL     1      20.071  14.821 159.737  1.00  0.00     0.000 A 
HETATM    5  C7  UNL     1      19.529  14.234 160.884  1.00  0.00     0.091 A 
HETATM    6  C8  UNL     1      20.309  14.180 162.008  1.00  0.00     0.027 A 
HETATM    7  C9  UNL     1      21.586  14.695 161.985  1.00  0.00     0.003 A 
HETATM    8  C10 UNL     1      22.082  15.265 160.834  1.00  0.00     0.014 A 
HETATM    9  C11 UNL     1      21.346  15.346 159.676  1.00  0.00     0.002 A 
HETATM   10  C12 UNL     1      21.877  15.934 158.525  1.00  0.00     0.118 A 
ENDROOT
BRANCH   1  11
HETATM   11  N1  UNL     1      21.441  16.671 156.232  1.00  0.00    -0.326 N 
HETATM   12  C2  UNL     1      21.677  16.035 155.005  1.00  0.00     0.218 C 
HETATM   13  C1  UNL     1      22.088  16.845 153.782  1.00  0.00     0.117 C 
HETATM   14  O1  UNL     1      21.588  14.809 154.773  1.00  0.00    -0.274 OA
ATOM     15  H1  UNL     1      21.561  17.683 156.286  1.00  0.00     0.169 HD
ENDBRANCH   1  11
BRANCH  10  16
HETATM   16  S2  UNL     1      23.476  16.430 158.518  1.00  0.00     0.141 S 
HETATM   17  O5  UNL     1      23.205  18.209 157.671  1.00  0.00    -0.591 OA
HETATM   18  O6  UNL     1      24.171  15.840 157.035  1.00  0.00    -0.591 OA
HETATM   19  O7  UNL     1      24.362  16.716 159.455  1.00  0.00    -0.591 OA
ENDBRANCH  10  16
BRANCH   5  20
HETATM   20  S1  UNL     1      17.935  13.624 160.824  1.00  0.00     0.138 S 
HETATM   21  O2  UNL     1      16.791  14.195 160.637  1.00  0.00    -0.591 OA
HETATM   22  O3  UNL     1      17.896  12.792 162.549  1.00  0.00    -0.591 OA
HETATM   23  O4  UNL     1      18.120  12.052 160.042  1.00  0.00    -0.591 OA
ENDBRANCH   5  20
TORSDOF 3
ENDMDL
