MODEL 2
REMARK VINA RESULT: -9.651704424      1.818      2.445
REMARK  3 active torsions:
REMARK  status: ('A' for Active; 'I' for Inactive)
REMARK       I    between atoms: C2_2  and  N1_4 
REMARK    1  A    between atoms: N1_4  and  C3_6 
REMARK    2  A    between atoms: C7_10  and  S1_11 
REMARK    3  A    between atoms: C12_19  and  S2_20 
ROOT
HETATM    1  C3  UNL     1      21.142  15.894 157.814  1.00  0.00     0.060 A 
HETATM    2  C4  UNL     1      19.918  15.383 158.242  1.00  0.00     0.032 A 
HETATM    3  C5  UNL     1      19.747  14.898 159.519  1.00  0.00     0.016 A 
HETATM    4  C6  UNL     1      20.781  14.906 160.404  1.00  0.00     0.000 A 
HETATM    5  C7  UNL     1      20.542  14.404 161.686  1.00  0.00     0.091 A 
HETATM    6  C8  UNL     1      21.576  14.414 162.583  1.00  0.00     0.027 A 
HETATM    7  C9  UNL     1      22.806  14.909 162.209  1.00  0.00     0.003 A 
HETATM    8  C10 UNL     1      23.000  15.394 160.935  1.00  0.00     0.014 A 
HETATM    9  C11 UNL     1      21.999  15.408 159.994  1.00  0.00     0.002 A 
HETATM   10  C12 UNL     1      22.227  15.911 158.709  1.00  0.00     0.118 A 
ENDROOT
BRANCH   1  11
HETATM   11  N1  UNL     1      21.234  16.500 156.551  1.00  0.00    -0.326 N 
HETATM   12  C2  UNL     1      21.447  15.776 155.369  1.00  0.00     0.218 C 
HETATM   13  C1  UNL     1      21.523  16.494 154.027  1.00  0.00     0.117 C 
HETATM   14  O1  UNL     1      21.594  14.538 155.270  1.00  0.00    -0.274 OA
ATOM     15  H1  UNL     1      21.140  17.513 156.490  1.00  0.00     0.169 HD
ENDBRANCH   1  11
BRANCH  10  16
HETATM   16  S2  UNL     1      23.772  16.382 158.273  1.00  0.00     0.141 S 
HETATM   17  O5  UNL     1      24.301  17.213 160.002  1.00  0.00    -0.591 OA
HETATM   18  O6  UNL     1      23.625  17.967 157.567  1.00  0.00    -0.591 OA
HETATM   19  O7  UNL     1      24.878  15.742 157.939  1.00  0.00    -0.591 OA
ENDBRANCH  10  16
BRANCH   5  20
HETATM   20  S1  UNL     1      18.985  13.814 162.065  1.00  0.00     0.138 S 
HETATM   21  O2  UNL     1      17.814  14.360 162.028  1.00  0.00    -0.591 OA
HETATM   22  O3  UNL     1      19.325  13.285 163.874  1.00  0.00    -0.591 OA
HETATM   23  O4  UNL     1      19.038  12.130 161.535  1.00  0.00    -0.591 OA
ENDBRANCH   5  20
TORSDOF 3
ENDMDL
