MODEL 6
REMARK VINA RESULT: -9.335362831      2.378      6.967
REMARK  3 active torsions:
REMARK  status: ('A' for Active; 'I' for Inactive)
REMARK       I    between atoms: C2_2  and  N1_4 
REMARK    1  A    between atoms: N1_4  and  C3_6 
REMARK    2  A    between atoms: C7_10  and  S1_11 
REMARK    3  A    between atoms: C12_19  and  S2_20 
ROOT
HETATM    1  C3  UNL     1      20.925  14.906 160.561  1.00  0.00     0.060 A 
HETATM    2  C4  UNL     1      22.205  15.452 160.480  1.00  0.00     0.032 A 
HETATM    3  C5  UNL     1      22.684  15.993 159.308  1.00  0.00     0.016 A 
HETATM    4  C6  UNL     1      21.910  16.008 158.189  1.00  0.00     0.000 A 
HETATM    5  C7  UNL     1      22.452  16.576 157.032  1.00  0.00     0.091 A 
HETATM    6  C8  UNL     1      21.676  16.599 155.904  1.00  0.00     0.027 A 
HETATM    7  C9  UNL     1      20.404  16.072 155.933  1.00  0.00     0.003 A 
HETATM    8  C10 UNL     1      19.908  15.521 157.093  1.00  0.00     0.014 A 
HETATM    9  C11 UNL     1      20.640  15.470 158.255  1.00  0.00     0.002 A 
HETATM   10  C12 UNL     1      20.107  14.908 159.418  1.00  0.00     0.118 A 
ENDROOT
BRANCH   1  11
HETATM   11  N1  UNL     1      20.431  14.490 161.807  1.00  0.00    -0.326 N 
HETATM   12  C2  UNL     1      21.148  13.653 162.674  1.00  0.00     0.218 C 
HETATM   13  C1  UNL     1      20.559  13.249 164.020  1.00  0.00     0.117 C 
HETATM   14  O1  UNL     1      22.281  13.164 162.469  1.00  0.00    -0.274 OA
ATOM     15  H1  UNL     1      19.506  14.811 162.096  1.00  0.00     0.169 HD
ENDBRANCH   1  11
BRANCH  10  16
HETATM   16  S2  UNL     1      18.605  14.172 159.360  1.00  0.00     0.141 S 
HETATM   17  O5  UNL     1      17.737  15.213 160.816  1.00  0.00    -0.591 OA
HETATM   18  O6  UNL     1      18.690  12.788 160.413  1.00  0.00    -0.591 OA
HETATM   19  O7  UNL     1      17.635  14.112 158.465  1.00  0.00    -0.591 OA
ENDBRANCH  10  16
BRANCH   5  20
HETATM   20  S1  UNL     1      24.037  17.208 157.088  1.00  0.00     0.138 S 
HETATM   21  O2  UNL     1      24.506  18.347 157.478  1.00  0.00    -0.591 OA
HETATM   22  O3  UNL     1      24.480  16.999 155.236  1.00  0.00    -0.591 OA
HETATM   23  O4  UNL     1      25.029  15.809 157.510  1.00  0.00    -0.591 OA
ENDBRANCH   5  20
TORSDOF 3
ENDMDL
