MODEL 5
REMARK VINA RESULT: -5.385651401      4.871      5.579
REMARK  1 active torsions:
REMARK  status: ('A' for Active; 'I' for Inactive)
REMARK    1  A    between atoms: C1_2  and  C2_6 
ROOT
HETATM    1  C2  UNL     1      16.136 -13.685  21.371  1.00  0.00     0.047 A 
HETATM    2  C3  UNL     1      16.457 -13.436  20.062  1.00  0.00     0.036 A 
HETATM    3  C4  UNL     1      17.762 -13.361  19.748  1.00  0.00    -0.001 A 
HETATM    4  C5  UNL     1      18.308 -13.116  18.473  1.00  0.00     0.018 A 
HETATM    5  I1  UNL     1      17.112 -12.812  16.770  1.00  0.00    -0.044 I 
HETATM    6  C6  UNL     1      19.668 -13.069  18.312  1.00  0.00     0.019 A 
HETATM    7  C7  UNL     1      20.582 -13.247  19.322  1.00  0.00     0.003 A 
HETATM    8  C8  UNL     1      20.048 -13.488  20.575  1.00  0.00     0.020 A 
HETATM    9  C9  UNL     1      18.660 -13.540  20.766  1.00  0.00     0.017 A 
HETATM   10  S1  UNL     1      17.663 -13.806  22.119  1.00  0.00    -0.086 SA
ENDROOT
BRANCH   1  11
HETATM   11  C1  UNL     1      14.824 -13.818  21.998  1.00  0.00     0.127 C 
HETATM   12  N1  UNL     1      14.079 -12.640  22.230  1.00  0.00    -0.082 NA
HETATM   13  N2  UNL     1      14.382 -14.967  22.319  1.00  0.00    -0.387 N 
ATOM     14  H22 UNL     1      13.466 -15.060  22.757  1.00  0.00     0.157 HD
ATOM     15  H21 UNL     1      14.919 -15.818  22.151  1.00  0.00     0.157 HD
ENDBRANCH   1  11
TORSDOF 1
ENDMDL
