MODEL 8
REMARK VINA RESULT: -5.184761650      4.940      5.726
REMARK  1 active torsions:
REMARK  status: ('A' for Active; 'I' for Inactive)
REMARK    1  A    between atoms: C1_2  and  C2_6 
ROOT
HETATM    1  C2  UNL     1      15.679 -13.288  19.541  1.00  0.00     0.047 A 
HETATM    2  C3  UNL     1      16.562 -13.696  20.506  1.00  0.00     0.036 A 
HETATM    3  C4  UNL     1      17.873 -13.638  20.211  1.00  0.00    -0.001 A 
HETATM    4  C5  UNL     1      18.942 -14.005  21.051  1.00  0.00     0.018 A 
HETATM    5  I1  UNL     1      18.648 -14.739  22.999  1.00  0.00    -0.044 I 
HETATM    6  C6  UNL     1      20.232 -13.887  20.603  1.00  0.00     0.019 A 
HETATM    7  C7  UNL     1      20.589 -13.426  19.359  1.00  0.00     0.003 A 
HETATM    8  C8  UNL     1      19.541 -13.064  18.532  1.00  0.00     0.020 A 
HETATM    9  C9  UNL     1      18.212 -13.175  18.967  1.00  0.00     0.017 A 
HETATM   10  S1  UNL     1      16.704 -12.838  18.254  1.00  0.00    -0.086 SA
ENDROOT
BRANCH   1  11
HETATM   11  C1  UNL     1      14.221 -13.240  19.575  1.00  0.00     0.127 C 
HETATM   12  N1  UNL     1      13.603 -11.972  19.666  1.00  0.00    -0.082 NA
HETATM   13  N2  UNL     1      13.543 -14.316  19.524  1.00  0.00    -0.387 N 
ATOM     14  H22 UNL     1      12.525 -14.283  19.549  1.00  0.00     0.157 HD
ATOM     15  H21 UNL     1      13.989 -15.231  19.459  1.00  0.00     0.157 HD
ENDBRANCH   1  11
TORSDOF 1
ENDMDL
