MODEL 2
REMARK VINA RESULT: -5.801009356      1.527      1.544
REMARK  1 active torsions:
REMARK  status: ('A' for Active; 'I' for Inactive)
REMARK    1  A    between atoms: C1_2  and  C2_6 
ROOT
HETATM    1  C2  UNL     1      12.047 -12.258  23.057  1.00  0.00     0.047 A 
HETATM    2  C3  UNL     1      12.560 -13.467  22.664  1.00  0.00     0.036 A 
HETATM    3  C4  UNL     1      13.677 -13.452  21.915  1.00  0.00    -0.001 A 
HETATM    4  C5  UNL     1      14.365 -14.571  21.408  1.00  0.00     0.018 A 
HETATM    5  I1  UNL     1      13.727 -16.544  21.756  1.00  0.00    -0.044 I 
HETATM    6  C6  UNL     1      15.497 -14.392  20.657  1.00  0.00     0.019 A 
HETATM    7  C7  UNL     1      16.041 -13.170  20.341  1.00  0.00     0.003 A 
HETATM    8  C8  UNL     1      15.367 -12.069  20.839  1.00  0.00     0.020 A 
HETATM    9  C9  UNL     1      14.207 -12.227  21.610  1.00  0.00     0.017 A 
HETATM   10  S1  UNL     1      13.138 -11.142  22.370  1.00  0.00    -0.086 SA
ENDROOT
BRANCH   1  11
HETATM   11  C1  UNL     1      10.865 -11.967  23.861  1.00  0.00     0.127 C 
HETATM   12  N1  UNL     1      10.769 -10.690  24.458  1.00  0.00    -0.082 NA
HETATM   13  N2  UNL     1       9.959 -12.848  24.010  1.00  0.00    -0.387 N 
ATOM     14  H22 UNL     1       9.133 -12.645  24.572  1.00  0.00     0.157 HD
ATOM     15  H21 UNL     1      10.027 -13.770  23.579  1.00  0.00     0.157 HD
ENDBRANCH   1  11
TORSDOF 1
ENDMDL
