MODEL 4
REMARK VINA RESULT: -5.537561230      0.533      1.060
REMARK  1 active torsions:
REMARK  status: ('A' for Active; 'I' for Inactive)
REMARK    1  A    between atoms: C1_2  and  C2_6 
ROOT
HETATM    1  C2  UNL     1      12.266 -12.084  22.436  1.00  0.00     0.047 A 
HETATM    2  C3  UNL     1      12.319 -13.391  22.028  1.00  0.00     0.036 A 
HETATM    3  C4  UNL     1      12.970 -13.656  20.882  1.00  0.00    -0.001 A 
HETATM    4  C5  UNL     1      13.144 -14.920  20.285  1.00  0.00     0.018 A 
HETATM    5  I1  UNL     1      12.375 -16.684  21.132  1.00  0.00    -0.044 I 
HETATM    6  C6  UNL     1      13.837 -15.029  19.109  1.00  0.00     0.019 A 
HETATM    7  C7  UNL     1      14.400 -13.974  18.432  1.00  0.00     0.003 A 
HETATM    8  C8  UNL     1      14.231 -12.731  19.016  1.00  0.00     0.020 A 
HETATM    9  C9  UNL     1      13.526 -12.594  20.220  1.00  0.00     0.017 A 
HETATM   10  S1  UNL     1      13.125 -11.268  21.209  1.00  0.00    -0.086 SA
ENDROOT
BRANCH   1  11
HETATM   11  C1  UNL     1      11.638 -11.503  23.619  1.00  0.00     0.127 C 
HETATM   12  N1  UNL     1      10.603 -12.234  24.244  1.00  0.00    -0.082 NA
HETATM   13  N2  UNL     1      12.024 -10.374  24.059  1.00  0.00    -0.387 N 
ATOM     14  H22 UNL     1      11.585  -9.968  24.885  1.00  0.00     0.157 HD
ATOM     15  H21 UNL     1      12.771  -9.846  23.608  1.00  0.00     0.157 HD
ENDBRANCH   1  11
TORSDOF 1
ENDMDL
