MODEL 1
REMARK VINA RESULT: -6.216331874      0.000      0.000
REMARK  1 active torsions:
REMARK  status: ('A' for Active; 'I' for Inactive)
REMARK    1  A    between atoms: C1_2  and  C2_6 
ROOT
HETATM    1  C2  UNL     1      11.787 -12.514  22.550  1.00  0.00     0.047 A 
HETATM    2  C3  UNL     1      11.937 -13.772  22.029  1.00  0.00     0.036 A 
HETATM    3  C4  UNL     1      12.702 -13.900  20.930  1.00  0.00    -0.001 A 
HETATM    4  C5  UNL     1      12.988 -15.093  20.238  1.00  0.00     0.018 A 
HETATM    5  I1  UNL     1      12.227 -16.959  20.838  1.00  0.00    -0.044 I 
HETATM    6  C6  UNL     1      13.791 -15.060  19.128  1.00  0.00     0.019 A 
HETATM    7  C7  UNL     1      14.364 -13.924  18.610  1.00  0.00     0.003 A 
HETATM    8  C8  UNL     1      14.085 -12.751  19.289  1.00  0.00     0.020 A 
HETATM    9  C9  UNL     1      13.267 -12.759  20.427  1.00  0.00     0.017 A 
HETATM   10  S1  UNL     1      12.716 -11.551  21.493  1.00  0.00    -0.086 SA
ENDROOT
BRANCH   1  11
HETATM   11  C1  UNL     1      11.027 -12.076  23.717  1.00  0.00     0.127 C 
HETATM   12  N1  UNL     1      11.385 -10.846  24.316  1.00  0.00    -0.082 NA
HETATM   13  N2  UNL     1      10.076 -12.791  24.167  1.00  0.00    -0.387 N 
ATOM     14  H22 UNL     1       9.545 -12.485  24.983  1.00  0.00     0.157 HD
ATOM     15  H21 UNL     1       9.817 -13.678  23.736  1.00  0.00     0.157 HD
ENDBRANCH   1  11
TORSDOF 1
ENDMDL
