MODEL 3
REMARK VINA RESULT: -5.624264411      5.025      5.453
REMARK  1 active torsions:
REMARK  status: ('A' for Active; 'I' for Inactive)
REMARK    1  A    between atoms: C1_2  and  C2_6 
ROOT
HETATM    1  C2  UNL     1      15.773 -13.503  21.581  1.00  0.00     0.047 A 
HETATM    2  C3  UNL     1      16.926 -13.882  22.216  1.00  0.00     0.036 A 
HETATM    3  C4  UNL     1      18.069 -13.829  21.509  1.00  0.00    -0.001 A 
HETATM    4  C5  UNL     1      19.358 -14.170  21.965  1.00  0.00     0.018 A 
HETATM    5  I1  UNL     1      19.721 -14.851  23.921  1.00  0.00    -0.044 I 
HETATM    6  C6  UNL     1      20.430 -14.062  21.120  1.00  0.00     0.019 A 
HETATM    7  C7  UNL     1      20.359 -13.634  19.816  1.00  0.00     0.003 A 
HETATM    8  C8  UNL     1      19.094 -13.297  19.366  1.00  0.00     0.020 A 
HETATM    9  C9  UNL     1      17.981 -13.400  20.212  1.00  0.00     0.017 A 
HETATM   10  S1  UNL     1      16.319 -13.086  20.020  1.00  0.00    -0.086 SA
ENDROOT
BRANCH   1  11
HETATM   11  C1  UNL     1      14.405 -13.457  22.086  1.00  0.00     0.127 C 
HETATM   12  N1  UNL     1      13.795 -12.191  22.231  1.00  0.00    -0.082 NA
HETATM   13  N2  UNL     1      13.795 -14.534  22.382  1.00  0.00    -0.387 N 
ATOM     14  H22 UNL     1      12.840 -14.503  22.736  1.00  0.00     0.157 HD
ATOM     15  H21 UNL     1      14.235 -15.449  22.278  1.00  0.00     0.157 HD
ENDBRANCH   1  11
TORSDOF 1
ENDMDL
