MODEL 17
REMARK VINA RESULT: -4.257371060      4.811      6.017
REMARK  1 active torsions:
REMARK  status: ('A' for Active; 'I' for Inactive)
REMARK    1  A    between atoms: C1_2  and  C2_6 
ROOT
HETATM    1  C2  UNL     1      17.428 -13.142  20.967  1.00  0.00     0.004 A 
HETATM    2  C3  UNL     1      17.967 -13.084  19.714  1.00  0.00     0.015 A 
HETATM    3  C4  UNL     1      19.222 -13.623  19.400  1.00  0.00     0.001 A 
HETATM    4  C5  UNL     1      19.919 -14.228  20.399  1.00  0.00     0.000 A 
HETATM    5  C6  UNL     1      19.440 -14.326  21.689  1.00  0.00     0.001 A 
HETATM    6  C7  UNL     1      18.204 -13.781  21.949  1.00  0.00     0.015 A 
ENDROOT
BRANCH   1   7
HETATM    7  C1  UNL     1      16.139 -12.589  21.289  1.00  0.00     0.120 C 
HETATM    8  N1  UNL     1      15.297 -13.305  22.185  1.00  0.00    -0.082 NA
HETATM    9  N2  UNL     1      15.740 -11.496  20.805  1.00  0.00    -0.387 N 
ATOM     10  H22 UNL     1      14.826 -11.104  21.033  1.00  0.00     0.157 HD
ATOM     11  H21 UNL     1      16.344 -10.983  20.162  1.00  0.00     0.157 HD
ENDBRANCH   1   7
TORSDOF 1
ENDMDL
