MODEL 8
REMARK VINA RESULT: -4.829174878      1.177      1.984
REMARK  1 active torsions:
REMARK  status: ('A' for Active; 'I' for Inactive)
REMARK    1  A    between atoms: C1_2  and  C2_6 
ROOT
HETATM    1  C2  UNL     1      11.971 -12.161  22.376  1.00  0.00     0.004 A 
HETATM    2  C3  UNL     1      12.676 -11.356  21.527  1.00  0.00     0.015 A 
HETATM    3  C4  UNL     1      13.392 -11.851  20.429  1.00  0.00     0.001 A 
HETATM    4  C5  UNL     1      13.372 -13.195  20.213  1.00  0.00     0.000 A 
HETATM    5  C6  UNL     1      12.683 -14.070  21.026  1.00  0.00     0.001 A 
HETATM    6  C7  UNL     1      11.995 -13.537  22.092  1.00  0.00     0.015 A 
ENDROOT
BRANCH   1   7
HETATM    7  C1  UNL     1      11.235 -11.652  23.503  1.00  0.00     0.120 C 
HETATM    8  N1  UNL     1      11.449 -10.302  23.899  1.00  0.00    -0.082 NA
HETATM    9  N2  UNL     1      10.414 -12.363  24.142  1.00  0.00    -0.387 N 
ATOM     10  H22 UNL     1       9.893 -12.002  24.942  1.00  0.00     0.157 HD
ATOM     11  H21 UNL     1      10.261 -13.331  23.858  1.00  0.00     0.157 HD
ENDBRANCH   1   7
TORSDOF 1
ENDMDL
