MODEL 15
REMARK VINA RESULT: -4.365740434      5.343      6.506
REMARK  1 active torsions:
REMARK  status: ('A' for Active; 'I' for Inactive)
REMARK    1  A    between atoms: C1_2  and  C2_6 
ROOT
HETATM    1  C2  UNL     1      17.763 -13.089  20.581  1.00  0.00     0.004 A 
HETATM    2  C3  UNL     1      18.756 -13.419  19.704  1.00  0.00     0.015 A 
HETATM    3  C4  UNL     1      19.855 -14.212  20.061  1.00  0.00     0.001 A 
HETATM    4  C5  UNL     1      19.919 -14.663  21.344  1.00  0.00     0.000 A 
HETATM    5  C6  UNL     1      18.955 -14.371  22.285  1.00  0.00     0.001 A 
HETATM    6  C7  UNL     1      17.895 -13.590  21.888  1.00  0.00     0.015 A 
ENDROOT
BRANCH   1   7
HETATM    7  C1  UNL     1      16.634 -12.276  20.213  1.00  0.00     0.120 C 
HETATM    8  N1  UNL     1      16.413 -12.007  18.833  1.00  0.00    -0.082 NA
HETATM    9  N2  UNL     1      15.844 -11.800  21.071  1.00  0.00    -0.387 N 
ATOM     10  H22 UNL     1      15.044 -11.223  20.810  1.00  0.00     0.157 HD
ATOM     11  H21 UNL     1      16.003 -11.993  22.060  1.00  0.00     0.157 HD
ENDBRANCH   1   7
TORSDOF 1
ENDMDL
