MODEL 9
REMARK VINA RESULT: -4.778873090      1.192      1.248
REMARK  1 active torsions:
REMARK  status: ('A' for Active; 'I' for Inactive)
REMARK    1  A    between atoms: C1_2  and  C2_6 
ROOT
HETATM    1  C2  UNL     1      11.951 -12.258  22.347  1.00  0.00     0.004 A 
HETATM    2  C3  UNL     1      11.989 -13.583  22.019  1.00  0.00     0.015 A 
HETATM    3  C4  UNL     1      12.720 -14.075  20.928  1.00  0.00     0.001 A 
HETATM    4  C5  UNL     1      13.414 -13.179  20.175  1.00  0.00     0.000 A 
HETATM    5  C6  UNL     1      13.422 -11.827  20.445  1.00  0.00     0.001 A 
HETATM    6  C7  UNL     1      12.691 -11.391  21.526  1.00  0.00     0.015 A 
ENDROOT
BRANCH   1   7
HETATM    7  C1  UNL     1      11.201 -11.753  23.467  1.00  0.00     0.120 C 
HETATM    8  N1  UNL     1      11.435 -10.415  23.892  1.00  0.00    -0.082 NA
HETATM    9  N2  UNL     1      10.351 -12.457  24.075  1.00  0.00    -0.387 N 
ATOM     10  H22 UNL     1       9.820 -12.099  24.869  1.00  0.00     0.157 HD
ATOM     11  H21 UNL     1      10.184 -13.416  23.770  1.00  0.00     0.157 HD
ENDBRANCH   1   7
TORSDOF 1
ENDMDL
