MODEL 2
REMARK VINA RESULT: -5.185129928      0.036      1.587
REMARK  1 active torsions:
REMARK  status: ('A' for Active; 'I' for Inactive)
REMARK    1  A    between atoms: C1_2  and  C2_6 
ROOT
HETATM    1  C2  UNL     1      12.252 -11.814  23.008  1.00  0.00     0.004 A 
HETATM    2  C3  UNL     1      12.852 -10.732  22.430  1.00  0.00     0.015 A 
HETATM    3  C4  UNL     1      13.971 -10.839  21.593  1.00  0.00     0.001 A 
HETATM    4  C5  UNL     1      14.468 -12.084  21.357  1.00  0.00     0.000 A 
HETATM    5  C6  UNL     1      13.916 -13.223  21.906  1.00  0.00     0.001 A 
HETATM    6  C7  UNL     1      12.819 -13.067  22.721  1.00  0.00     0.015 A 
ENDROOT
BRANCH   1   7
HETATM    7  C1  UNL     1      11.103 -11.703  23.867  1.00  0.00     0.120 C 
HETATM    8  N1  UNL     1      10.974 -10.543  24.682  1.00  0.00    -0.082 NA
HETATM    9  N2  UNL     1      10.215 -12.595  23.917  1.00  0.00    -0.387 N 
ATOM     10  H22 UNL     1       9.401 -12.516  24.526  1.00  0.00     0.157 HD
ATOM     11  H21 UNL     1      10.308 -13.427  23.333  1.00  0.00     0.157 HD
ENDBRANCH   1   7
TORSDOF 1
ENDMDL
