MODEL 1
REMARK VINA RESULT: -5.187259823      0.000      0.000
REMARK  1 active torsions:
REMARK  status: ('A' for Active; 'I' for Inactive)
REMARK    1  A    between atoms: C1_2  and  C2_6 
ROOT
HETATM    1  C2  UNL     1      12.243 -11.846  23.006  1.00  0.00     0.004 A 
HETATM    2  C3  UNL     1      12.806 -13.056  22.719  1.00  0.00     0.015 A 
HETATM    3  C4  UNL     1      13.931 -13.196  21.893  1.00  0.00     0.001 A 
HETATM    4  C5  UNL     1      14.471 -12.065  21.364  1.00  0.00     0.000 A 
HETATM    5  C6  UNL     1      13.958 -10.808  21.608  1.00  0.00     0.001 A 
HETATM    6  C7  UNL     1      12.853 -10.721  22.424  1.00  0.00     0.015 A 
ENDROOT
BRANCH   1   7
HETATM    7  C1  UNL     1      11.089 -11.703  23.854  1.00  0.00     0.120 C 
HETATM    8  N1  UNL     1      10.949 -10.508  24.614  1.00  0.00    -0.082 NA
HETATM    9  N2  UNL     1      10.208 -12.599  23.941  1.00  0.00    -0.387 N 
ATOM     10  H22 UNL     1       9.390 -12.498  24.543  1.00  0.00     0.157 HD
ATOM     11  H21 UNL     1      10.309 -13.456  23.397  1.00  0.00     0.157 HD
ENDBRANCH   1   7
TORSDOF 1
ENDMDL
