MODEL 16
REMARK VINA RESULT: -4.365627464      4.338      5.559
REMARK  1 active torsions:
REMARK  status: ('A' for Active; 'I' for Inactive)
REMARK    1  A    between atoms: C1_2  and  C2_6 
ROOT
HETATM    1  C2  UNL     1      16.888 -12.634  20.496  1.00  0.00     0.004 A 
HETATM    2  C3  UNL     1      16.917 -12.955  19.169  1.00  0.00     0.015 A 
HETATM    3  C4  UNL     1      18.087 -13.353  18.507  1.00  0.00     0.001 A 
HETATM    4  C5  UNL     1      19.235 -13.415  19.235  1.00  0.00     0.000 A 
HETATM    5  C6  UNL     1      19.284 -13.106  20.578  1.00  0.00     0.001 A 
HETATM    6  C7  UNL     1      18.111 -12.720  21.184  1.00  0.00     0.015 A 
ENDROOT
BRANCH   1   7
HETATM    7  C1  UNL     1      15.687 -12.226  21.174  1.00  0.00     0.120 C 
HETATM    8  N1  UNL     1      15.093 -13.126  22.103  1.00  0.00    -0.082 NA
HETATM    9  N2  UNL     1      15.151 -11.104  20.971  1.00  0.00    -0.387 N 
ATOM     10  H22 UNL     1      14.299 -10.815  21.452  1.00  0.00     0.157 HD
ATOM     11  H21 UNL     1      15.577 -10.459  20.305  1.00  0.00     0.157 HD
ENDBRANCH   1   7
TORSDOF 1
ENDMDL
