MODEL 1
REMARK VINA RESULT: -5.648986783      0.000      0.000
REMARK  1 active torsions:
REMARK  status: ('A' for Active; 'I' for Inactive)
REMARK    1  A    between atoms: C1_2  and  C2_6 
ROOT
HETATM    1  C2  UNL     1      45.543  19.614  52.553  1.00  0.00     0.004 A 
HETATM    2  C3  UNL     1      46.108  20.855  52.609  1.00  0.00     0.015 A 
HETATM    3  C4  UNL     1      45.821  21.864  51.679  1.00  0.00     0.001 A 
HETATM    4  C5  UNL     1      44.939  21.576  50.684  1.00  0.00     0.000 A 
HETATM    5  C6  UNL     1      44.328  20.345  50.563  1.00  0.00     0.001 A 
HETATM    6  C7  UNL     1      44.641  19.387  51.499  1.00  0.00     0.015 A 
ENDROOT
BRANCH   1   7
HETATM    7  C1  UNL     1      45.837  18.578  53.508  1.00  0.00     0.120 C 
HETATM    8  N1  UNL     1      45.018  17.415  53.522  1.00  0.00    -0.082 NA
HETATM    9  N2  UNL     1      46.792  18.673  54.324  1.00  0.00    -0.387 N 
ATOM     10  H22 UNL     1      47.001  17.939  55.002  1.00  0.00     0.157 HD
ATOM     11  H21 UNL     1      47.379  19.507  54.315  1.00  0.00     0.157 HD
ENDBRANCH   1   7
TORSDOF 1
ENDMDL
