MODEL 4
REMARK VINA RESULT: -4.802935110      1.505      2.227
REMARK  1 active torsions:
REMARK  status: ('A' for Active; 'I' for Inactive)
REMARK    1  A    between atoms: C1_2  and  C2_6 
ROOT
HETATM    1  C2  UNL     1      45.164  20.599  52.532  1.00  0.00     0.004 A 
HETATM    2  C3  UNL     1      44.420  20.940  51.438  1.00  0.00     0.015 A 
HETATM    3  C4  UNL     1      43.867  22.216  51.263  1.00  0.00     0.001 A 
HETATM    4  C5  UNL     1      44.089  23.142  52.234  1.00  0.00     0.000 A 
HETATM    5  C6  UNL     1      44.829  22.871  53.366  1.00  0.00     0.001 A 
HETATM    6  C7  UNL     1      45.352  21.605  53.495  1.00  0.00     0.015 A 
ENDROOT
BRANCH   1   7
HETATM    7  C1  UNL     1      45.732  19.290  52.711  1.00  0.00     0.120 C 
HETATM    8  N1  UNL     1      45.390  18.268  51.781  1.00  0.00    -0.082 NA
HETATM    9  N2  UNL     1      46.519  19.025  53.659  1.00  0.00    -0.387 N 
ATOM     10  H22 UNL     1      46.921  18.096  53.786  1.00  0.00     0.157 HD
ATOM     11  H21 UNL     1      46.764  19.758  54.326  1.00  0.00     0.157 HD
ENDBRANCH   1   7
TORSDOF 1
ENDMDL
