MODEL 3
REMARK VINA RESULT: -5.145212841      0.840      1.816
REMARK  1 active torsions:
REMARK  status: ('A' for Active; 'I' for Inactive)
REMARK    1  A    between atoms: C1_2  and  C2_6 
ROOT
HETATM    1  C2  UNL     1      45.226  19.499  52.342  1.00  0.00     0.004 A 
HETATM    2  C3  UNL     1      44.576  19.960  51.233  1.00  0.00     0.015 A 
HETATM    3  C4  UNL     1      44.776  21.247  50.714  1.00  0.00     0.001 A 
HETATM    4  C5  UNL     1      45.658  22.059  51.358  1.00  0.00     0.000 A 
HETATM    5  C6  UNL     1      46.351  21.664  52.483  1.00  0.00     0.001 A 
HETATM    6  C7  UNL     1      46.122  20.392  52.955  1.00  0.00     0.015 A 
ENDROOT
BRANCH   1   7
HETATM    7  C1  UNL     1      45.021  18.178  52.874  1.00  0.00     0.120 C 
HETATM    8  N1  UNL     1      43.896  17.432  52.422  1.00  0.00    -0.082 NA
HETATM    9  N2  UNL     1      45.804  17.668  53.719  1.00  0.00    -0.387 N 
ATOM     10  H22 UNL     1      45.658  16.731  54.096  1.00  0.00     0.157 HD
ATOM     11  H21 UNL     1      46.610  18.203  54.043  1.00  0.00     0.157 HD
ENDBRANCH   1   7
TORSDOF 1
ENDMDL
