MODEL 2
REMARK VINA RESULT: -5.634740840      0.046      1.587
REMARK  1 active torsions:
REMARK  status: ('A' for Active; 'I' for Inactive)
REMARK    1  A    between atoms: C1_2  and  C2_6 
ROOT
HETATM    1  C2  UNL     1      45.499  19.567  52.507  1.00  0.00     0.004 A 
HETATM    2  C3  UNL     1      44.638  19.353  51.470  1.00  0.00     0.015 A 
HETATM    3  C4  UNL     1      44.333  20.337  50.519  1.00  0.00     0.001 A 
HETATM    4  C5  UNL     1      44.931  21.552  50.651  1.00  0.00     0.000 A 
HETATM    5  C6  UNL     1      45.812  21.842  51.672  1.00  0.00     0.001 A 
HETATM    6  C7  UNL     1      46.080  20.845  52.582  1.00  0.00     0.015 A 
ENDROOT
BRANCH   1   7
HETATM    7  C1  UNL     1      45.812  18.556  53.483  1.00  0.00     0.120 C 
HETATM    8  N1  UNL     1      44.998  17.390  53.536  1.00  0.00    -0.082 NA
HETATM    9  N2  UNL     1      46.778  18.675  54.283  1.00  0.00    -0.387 N 
ATOM     10  H22 UNL     1      46.999  17.958  54.975  1.00  0.00     0.157 HD
ATOM     11  H21 UNL     1      47.361  19.511  54.245  1.00  0.00     0.157 HD
ENDBRANCH   1   7
TORSDOF 1
ENDMDL
