MODEL 17
REMARK VINA RESULT: -4.436210594      3.674      4.696
REMARK  1 active torsions:
REMARK  status: ('A' for Active; 'I' for Inactive)
REMARK    1  A    between atoms: C1_2  and  C2_6 
ROOT
HETATM    1  C2  UNL     1      43.897  22.031  51.164  1.00  0.00     0.004 A 
HETATM    2  C3  UNL     1      44.166  20.755  50.758  1.00  0.00     0.015 A 
HETATM    3  C4  UNL     1      44.927  19.858  51.520  1.00  0.00     0.001 A 
HETATM    4  C5  UNL     1      45.411  20.295  52.715  1.00  0.00     0.000 A 
HETATM    5  C6  UNL     1      45.182  21.569  53.191  1.00  0.00     0.001 A 
HETATM    6  C7  UNL     1      44.430  22.413  52.407  1.00  0.00     0.015 A 
ENDROOT
BRANCH   1   7
HETATM    7  C1  UNL     1      43.116  22.951  50.381  1.00  0.00     0.120 C 
HETATM    8  N1  UNL     1      43.617  23.358  49.113  1.00  0.00    -0.082 NA
HETATM    9  N2  UNL     1      42.010  23.401  50.783  1.00  0.00    -0.387 N 
ATOM     10  H22 UNL     1      41.456  24.053  50.228  1.00  0.00     0.157 HD
ATOM     11  H21 UNL     1      41.651  23.109  51.693  1.00  0.00     0.157 HD
ENDBRANCH   1   7
TORSDOF 1
ENDMDL
