MODEL 5
REMARK VINA RESULT: -4.802861715      1.490      1.675
REMARK  1 active torsions:
REMARK  status: ('A' for Active; 'I' for Inactive)
REMARK    1  A    between atoms: C1_2  and  C2_6 
ROOT
HETATM    1  C2  UNL     1      45.170  20.614  52.568  1.00  0.00     0.004 A 
HETATM    2  C3  UNL     1      45.361  21.617  53.474  1.00  0.00     0.015 A 
HETATM    3  C4  UNL     1      44.832  22.904  53.308  1.00  0.00     0.001 A 
HETATM    4  C5  UNL     1      44.098  23.146  52.188  1.00  0.00     0.000 A 
HETATM    5  C6  UNL     1      43.862  22.184  51.228  1.00  0.00     0.001 A 
HETATM    6  C7  UNL     1      44.402  20.936  51.436  1.00  0.00     0.015 A 
ENDROOT
BRANCH   1   7
HETATM    7  C1  UNL     1      45.714  19.293  52.740  1.00  0.00     0.120 C 
HETATM    8  N1  UNL     1      45.361  18.286  51.797  1.00  0.00    -0.082 NA
HETATM    9  N2  UNL     1      46.487  19.006  53.692  1.00  0.00    -0.387 N 
ATOM     10  H22 UNL     1      46.872  18.069  53.814  1.00  0.00     0.157 HD
ATOM     11  H21 UNL     1      46.739  19.727  54.368  1.00  0.00     0.157 HD
ENDBRANCH   1   7
TORSDOF 1
ENDMDL
