MODEL 14
REMARK VINA RESULT: -4.509854865      3.736      4.967
REMARK  1 active torsions:
REMARK  status: ('A' for Active; 'I' for Inactive)
REMARK    1  A    between atoms: C1_2  and  C2_6 
ROOT
HETATM    1  C2  UNL     1      42.645  -0.988  30.859  1.00  0.00     0.047 A 
HETATM    2  C3  UNL     1      42.591  -2.323  30.557  1.00  0.00     0.036 A 
HETATM    3  C4  UNL     1      43.000  -2.699  29.332  1.00  0.00    -0.001 A 
HETATM    4  C5  UNL     1      43.028  -4.011  28.820  1.00  0.00     0.018 A 
HETATM    5  I1  UNL     1      42.404  -5.676  29.941  1.00  0.00    -0.044 I 
HETATM    6  C6  UNL     1      43.474  -4.234  27.544  1.00  0.00     0.019 A 
HETATM    7  C7  UNL     1      43.914  -3.255  26.686  1.00  0.00     0.003 A 
HETATM    8  C8  UNL     1      43.889  -1.965  27.188  1.00  0.00     0.020 A 
HETATM    9  C9  UNL     1      43.436  -1.711  28.490  1.00  0.00     0.017 A 
HETATM   10  S1  UNL     1      43.263  -0.300  29.425  1.00  0.00    -0.086 SA
ENDROOT
BRANCH   1  11
HETATM   11  C1  UNL     1      42.273  -0.296  32.089  1.00  0.00     0.127 C 
HETATM   12  N1  UNL     1      43.287   0.392  32.793  1.00  0.00    -0.082 NA
HETATM   13  N2  UNL     1      41.070  -0.324  32.500  1.00  0.00    -0.387 N 
ATOM     14  H22 UNL     1      40.810   0.159  33.360  1.00  0.00     0.157 HD
ATOM     15  H21 UNL     1      40.338  -0.820  31.993  1.00  0.00     0.157 HD
ENDBRANCH   1  11
TORSDOF 1
ENDMDL
