MODEL 1
REMARK VINA RESULT: -6.334493948      0.000      0.000
REMARK  1 active torsions:
REMARK  status: ('A' for Active; 'I' for Inactive)
REMARK    1  A    between atoms: C1_2  and  C2_6 
ROOT
HETATM    1  C2  UNL     1      43.975  -3.325  26.878  1.00  0.00     0.047 A 
HETATM    2  C3  UNL     1      43.552  -4.083  27.939  1.00  0.00     0.036 A 
HETATM    3  C4  UNL     1      43.419  -3.465  29.126  1.00  0.00    -0.001 A 
HETATM    4  C5  UNL     1      43.000  -4.051  30.337  1.00  0.00     0.018 A 
HETATM    5  I1  UNL     1      42.492  -6.085  30.492  1.00  0.00    -0.044 I 
HETATM    6  C6  UNL     1      42.914  -3.285  31.469  1.00  0.00     0.019 A 
HETATM    7  C7  UNL     1      43.211  -1.945  31.533  1.00  0.00     0.003 A 
HETATM    8  C8  UNL     1      43.621  -1.367  30.345  1.00  0.00     0.020 A 
HETATM    9  C9  UNL     1      43.718  -2.130  29.172  1.00  0.00     0.017 A 
HETATM   10  S1  UNL     1      44.173  -1.779  27.570  1.00  0.00    -0.086 SA
ENDROOT
BRANCH   1  11
HETATM   11  C1  UNL     1      44.209  -3.716  25.491  1.00  0.00     0.127 C 
HETATM   12  N1  UNL     1      44.338  -2.690  24.528  1.00  0.00    -0.082 NA
HETATM   13  N2  UNL     1      44.289  -4.946  25.177  1.00  0.00    -0.387 N 
ATOM     14  H22 UNL     1      44.452  -5.219  24.208  1.00  0.00     0.157 HD
ATOM     15  H21 UNL     1      44.196  -5.687  25.872  1.00  0.00     0.157 HD
ENDBRANCH   1  11
TORSDOF 1
ENDMDL
