MODEL 13
REMARK VINA RESULT: -4.556749624      4.420      5.644
REMARK  1 active torsions:
REMARK  status: ('A' for Active; 'I' for Inactive)
REMARK    1  A    between atoms: C1_2  and  C2_6 
ROOT
HETATM    1  C2  UNL     1      43.490  -1.411  32.171  1.00  0.00     0.047 A 
HETATM    2  C3  UNL     1      43.658  -1.528  30.816  1.00  0.00     0.036 A 
HETATM    3  C4  UNL     1      43.284  -2.687  30.244  1.00  0.00    -0.001 A 
HETATM    4  C5  UNL     1      43.369  -3.016  28.877  1.00  0.00     0.018 A 
HETATM    5  I1  UNL     1      44.131  -1.685  27.439  1.00  0.00    -0.044 I 
HETATM    6  C6  UNL     1      42.944  -4.245  28.445  1.00  0.00     0.019 A 
HETATM    7  C7  UNL     1      42.423  -5.223  29.257  1.00  0.00     0.003 A 
HETATM    8  C8  UNL     1      42.338  -4.901  30.600  1.00  0.00     0.020 A 
HETATM    9  C9  UNL     1      42.767  -3.651  31.067  1.00  0.00     0.017 A 
HETATM   10  S1  UNL     1      42.817  -2.918  32.602  1.00  0.00    -0.086 SA
ENDROOT
BRANCH   1  11
HETATM   11  C1  UNL     1      43.800  -0.290  33.053  1.00  0.00     0.127 C 
HETATM   12  N1  UNL     1      45.161   0.032  33.261  1.00  0.00    -0.082 NA
HETATM   13  N2  UNL     1      42.862   0.366  33.608  1.00  0.00    -0.387 N 
ATOM     14  H22 UNL     1      43.078   1.149  34.225  1.00  0.00     0.157 HD
ATOM     15  H21 UNL     1      41.880   0.135  33.459  1.00  0.00     0.157 HD
ENDBRANCH   1  11
TORSDOF 1
ENDMDL
