MODEL 3
REMARK VINA RESULT: -5.406052153      1.053      1.271
REMARK  1 active torsions:
REMARK  status: ('A' for Active; 'I' for Inactive)
REMARK    1  A    between atoms: C1_2  and  C2_6 
ROOT
HETATM    1  C2  UNL     1      43.915  -2.900  28.055  1.00  0.00     0.047 A 
HETATM    2  C3  UNL     1      43.627  -3.789  29.057  1.00  0.00     0.036 A 
HETATM    3  C4  UNL     1      43.363  -3.285  30.276  1.00  0.00    -0.001 A 
HETATM    4  C5  UNL     1      43.044  -4.014  31.438  1.00  0.00     0.018 A 
HETATM    5  I1  UNL     1      42.926  -6.113  31.457  1.00  0.00    -0.044 I 
HETATM    6  C6  UNL     1      42.798  -3.352  32.611  1.00  0.00     0.019 A 
HETATM    7  C7  UNL     1      42.837  -1.987  32.763  1.00  0.00     0.003 A 
HETATM    8  C8  UNL     1      43.148  -1.268  31.623  1.00  0.00     0.020 A 
HETATM    9  C9  UNL     1      43.404  -1.923  30.409  1.00  0.00     0.017 A 
HETATM   10  S1  UNL     1      43.808  -1.391  28.844  1.00  0.00    -0.086 SA
ENDROOT
BRANCH   1  11
HETATM   11  C1  UNL     1      44.238  -3.150  26.654  1.00  0.00     0.127 C 
HETATM   12  N1  UNL     1      44.983  -2.170  25.961  1.00  0.00    -0.082 NA
HETATM   13  N2  UNL     1      43.852  -4.223  26.090  1.00  0.00    -0.387 N 
ATOM     14  H22 UNL     1      44.076  -4.399  25.111  1.00  0.00     0.157 HD
ATOM     15  H21 UNL     1      43.314  -4.932  26.590  1.00  0.00     0.157 HD
ENDBRANCH   1  11
TORSDOF 1
ENDMDL
