MODEL 15
REMARK VINA RESULT: -4.436511986      4.886      5.628
REMARK  1 active torsions:
REMARK  status: ('A' for Active; 'I' for Inactive)
REMARK    1  A    between atoms: C1_2  and  C2_6 
ROOT
HETATM    1  C2  UNL     1      41.648  -1.522  29.914  1.00  0.00     0.047 A 
HETATM    2  C3  UNL     1      40.704  -0.821  30.617  1.00  0.00     0.036 A 
HETATM    3  C4  UNL     1      39.482  -1.372  30.733  1.00  0.00    -0.001 A 
HETATM    4  C5  UNL     1      38.373  -0.826  31.408  1.00  0.00     0.018 A 
HETATM    5  I1  UNL     1      38.451   1.030  32.393  1.00  0.00    -0.044 I 
HETATM    6  C6  UNL     1      37.188  -1.513  31.437  1.00  0.00     0.019 A 
HETATM    7  C7  UNL     1      36.976  -2.733  30.844  1.00  0.00     0.003 A 
HETATM    8  C8  UNL     1      38.065  -3.272  30.180  1.00  0.00     0.020 A 
HETATM    9  C9  UNL     1      39.288  -2.589  30.136  1.00  0.00     0.017 A 
HETATM   10  S1  UNL     1      40.803  -2.924  29.437  1.00  0.00    -0.086 SA
ENDROOT
BRANCH   1  11
HETATM   11  C1  UNL     1      43.038  -1.180  29.627  1.00  0.00     0.127 C 
HETATM   12  N1  UNL     1      44.002  -2.211  29.699  1.00  0.00    -0.082 NA
HETATM   13  N2  UNL     1      43.354   0.015  29.325  1.00  0.00    -0.387 N 
ATOM     14  H22 UNL     1      44.325   0.254  29.125  1.00  0.00     0.157 HD
ATOM     15  H21 UNL     1      42.659   0.760  29.273  1.00  0.00     0.157 HD
ENDBRANCH   1  11
TORSDOF 1
ENDMDL
