MODEL 2
REMARK VINA RESULT: -5.949136744      0.649      1.041
REMARK  1 active torsions:
REMARK  status: ('A' for Active; 'I' for Inactive)
REMARK    1  A    between atoms: C1_2  and  C2_6 
ROOT
HETATM    1  C2  UNL     1      43.898  -3.270  26.344  1.00  0.00     0.047 A 
HETATM    2  C3  UNL     1      43.480  -3.964  27.448  1.00  0.00     0.036 A 
HETATM    3  C4  UNL     1      43.457  -3.307  28.621  1.00  0.00    -0.001 A 
HETATM    4  C5  UNL     1      43.063  -3.827  29.870  1.00  0.00     0.018 A 
HETATM    5  I1  UNL     1      42.418  -5.813  30.114  1.00  0.00    -0.044 I 
HETATM    6  C6  UNL     1      43.094  -3.026  30.981  1.00  0.00     0.019 A 
HETATM    7  C7  UNL     1      43.490  -1.711  30.987  1.00  0.00     0.003 A 
HETATM    8  C8  UNL     1      43.876  -1.197  29.761  1.00  0.00     0.020 A 
HETATM    9  C9  UNL     1      43.854  -1.996  28.610  1.00  0.00     0.017 A 
HETATM   10  S1  UNL     1      44.245  -1.724  26.976  1.00  0.00    -0.086 SA
ENDROOT
BRANCH   1  11
HETATM   11  C1  UNL     1      44.027  -3.714  24.959  1.00  0.00     0.127 C 
HETATM   12  N1  UNL     1      43.285  -4.847  24.557  1.00  0.00    -0.082 NA
HETATM   13  N2  UNL     1      44.788  -3.088  24.154  1.00  0.00    -0.387 N 
ATOM     14  H22 UNL     1      44.878  -3.399  23.187  1.00  0.00     0.157 HD
ATOM     15  H21 UNL     1      45.323  -2.270  24.444  1.00  0.00     0.157 HD
ENDBRANCH   1  11
TORSDOF 1
ENDMDL
