MODEL 7
REMARK VINA RESULT: -5.445826996      0.694      1.167
REMARK  1 active torsions:
REMARK  status: ('A' for Active; 'I' for Inactive)
REMARK    1  A    between atoms: C1_2  and  C2_6 
ROOT
HETATM    1  C2  UNL     1      45.384  19.980  52.464  1.00  0.00     0.047 A 
HETATM    2  C3  UNL     1      45.849  21.182  52.910  1.00  0.00     0.035 A 
HETATM    3  C4  UNL     1      45.702  22.244  52.097  1.00  0.00    -0.018 A 
HETATM    4  C5  UNL     1      46.105  23.563  52.350  1.00  0.00     0.013 A 
HETATM    5  C6  UNL     1      45.907  24.574  51.450  1.00  0.00     0.001 A 
HETATM    6  C7  UNL     1      45.302  24.345  50.243  1.00  0.00     0.001 A 
HETATM    7  C8  UNL     1      44.896  23.067  49.963  1.00  0.00     0.019 A 
HETATM    8  C9  UNL     1      45.101  22.029  50.890  1.00  0.00     0.016 A 
HETATM    9  S1  UNL     1      44.755  20.361  50.922  1.00  0.00    -0.086 SA
ENDROOT
BRANCH   1  10
HETATM   10  C1  UNL     1      45.421  18.674  53.157  1.00  0.00     0.127 C 
HETATM   11  N1  UNL     1      46.278  18.497  54.261  1.00  0.00    -0.082 NA
HETATM   12  N2  UNL     1      44.681  17.707  52.759  1.00  0.00    -0.387 N 
ATOM     13  H22 UNL     1      44.707  16.807  53.237  1.00  0.00     0.157 HD
ATOM     14  H21 UNL     1      44.060  17.836  51.960  1.00  0.00     0.157 HD
ENDBRANCH   1  10
TORSDOF 1
ENDMDL
