MODEL 5
REMARK VINA RESULT: -5.460143186      3.449      4.930
REMARK  1 active torsions:
REMARK  status: ('A' for Active; 'I' for Inactive)
REMARK    1  A    between atoms: C1_2  and  C2_6 
ROOT
HETATM    1  C2  UNL     1      45.016  22.540  50.578  1.00  0.00     0.047 A 
HETATM    2  C3  UNL     1      45.630  22.319  51.776  1.00  0.00     0.035 A 
HETATM    3  C4  UNL     1      45.618  21.061  52.256  1.00  0.00    -0.018 A 
HETATM    4  C5  UNL     1      46.183  20.611  53.458  1.00  0.00     0.013 A 
HETATM    5  C6  UNL     1      46.114  19.305  53.855  1.00  0.00     0.001 A 
HETATM    6  C7  UNL     1      45.481  18.360  53.091  1.00  0.00     0.001 A 
HETATM    7  C8  UNL     1      44.917  18.766  51.910  1.00  0.00     0.019 A 
HETATM    8  C9  UNL     1      44.990  20.111  51.504  1.00  0.00     0.016 A 
HETATM    9  S1  UNL     1      44.436  20.989  50.154  1.00  0.00    -0.086 SA
ENDROOT
BRANCH   1  10
HETATM   10  C1  UNL     1      44.890  23.814  49.840  1.00  0.00     0.127 C 
HETATM   11  N1  UNL     1      43.911  23.944  48.836  1.00  0.00    -0.082 NA
HETATM   12  N2  UNL     1      45.665  24.799  50.109  1.00  0.00    -0.387 N 
ATOM     13  H22 UNL     1      45.579  25.678  49.600  1.00  0.00     0.157 HD
ATOM     14  H21 UNL     1      46.374  24.705  50.836  1.00  0.00     0.157 HD
ENDBRANCH   1  10
TORSDOF 1
ENDMDL
