MODEL 6
REMARK VINA RESULT: -5.455509407      1.038      1.384
REMARK  1 active torsions:
REMARK  status: ('A' for Active; 'I' for Inactive)
REMARK    1  A    between atoms: C1_2  and  C2_6 
ROOT
HETATM    1  C2  UNL     1      45.513  19.642  52.804  1.00  0.00     0.047 A 
HETATM    2  C3  UNL     1      46.099  20.574  53.609  1.00  0.00     0.035 A 
HETATM    3  C4  UNL     1      46.182  21.833  53.140  1.00  0.00    -0.018 A 
HETATM    4  C5  UNL     1      46.741  22.942  53.792  1.00  0.00     0.013 A 
HETATM    5  C6  UNL     1      46.775  24.184  53.224  1.00  0.00     0.001 A 
HETATM    6  C7  UNL     1      46.262  24.411  51.974  1.00  0.00     0.001 A 
HETATM    7  C8  UNL     1      45.708  23.350  51.308  1.00  0.00     0.019 A 
HETATM    8  C9  UNL     1      45.674  22.072  51.896  1.00  0.00     0.016 A 
HETATM    9  S1  UNL     1      45.094  20.544  51.414  1.00  0.00    -0.086 SA
ENDROOT
BRANCH   1  10
HETATM   10  C1  UNL     1      45.299  18.205  53.080  1.00  0.00     0.127 C 
HETATM   11  N1  UNL     1      44.258  17.518  52.425  1.00  0.00    -0.082 NA
HETATM   12  N2  UNL     1      46.053  17.584  53.909  1.00  0.00    -0.387 N 
ATOM     13  H22 UNL     1      45.906  16.593  54.099  1.00  0.00     0.157 HD
ATOM     14  H21 UNL     1      46.808  18.082  54.382  1.00  0.00     0.157 HD
ENDBRANCH   1  10
TORSDOF 1
ENDMDL
