MODEL 8
REMARK VINA RESULT: -5.282142513      3.717      5.381
REMARK  1 active torsions:
REMARK  status: ('A' for Active; 'I' for Inactive)
REMARK    1  A    between atoms: C1_2  and  C2_6 
ROOT
HETATM    1  C2  UNL     1      45.161  23.011  50.455  1.00  0.00     0.047 A 
HETATM    2  C3  UNL     1      44.692  21.735  50.338  1.00  0.00     0.035 A 
HETATM    3  C4  UNL     1      45.067  20.848  51.278  1.00  0.00    -0.018 A 
HETATM    4  C5  UNL     1      44.707  19.495  51.354  1.00  0.00     0.013 A 
HETATM    5  C6  UNL     1      45.146  18.676  52.356  1.00  0.00     0.001 A 
HETATM    6  C7  UNL     1      45.971  19.140  53.347  1.00  0.00     0.001 A 
HETATM    7  C8  UNL     1      46.343  20.459  53.303  1.00  0.00     0.019 A 
HETATM    8  C9  UNL     1      45.889  21.299  52.271  1.00  0.00     0.016 A 
HETATM    9  S1  UNL     1      46.115  22.939  51.871  1.00  0.00    -0.086 SA
ENDROOT
BRANCH   1  10
HETATM   10  C1  UNL     1      44.901  24.163  49.565  1.00  0.00     0.127 C 
HETATM   11  N1  UNL     1      45.585  25.375  49.778  1.00  0.00    -0.082 NA
HETATM   12  N2  UNL     1      44.058  24.064  48.606  1.00  0.00    -0.387 N 
ATOM     13  H22 UNL     1      43.878  24.858  47.992  1.00  0.00     0.157 HD
ATOM     14  H21 UNL     1      43.562  23.185  48.451  1.00  0.00     0.157 HD
ENDBRANCH   1  10
TORSDOF 1
ENDMDL
