MODEL 2
REMARK VINA RESULT: -6.031697991      1.050      1.708
REMARK  1 active torsions:
REMARK  status: ('A' for Active; 'I' for Inactive)
REMARK    1  A    between atoms: C1_2  and  C2_6 
ROOT
HETATM    1  C2  UNL     1      45.889  19.964  53.082  1.00  0.00     0.047 A 
HETATM    2  C3  UNL     1      45.371  20.227  51.848  1.00  0.00     0.035 A 
HETATM    3  C4  UNL     1      45.364  21.510  51.439  1.00  0.00    -0.018 A 
HETATM    4  C5  UNL     1      44.883  22.004  50.218  1.00  0.00     0.013 A 
HETATM    5  C6  UNL     1      44.922  23.332  49.900  1.00  0.00     0.001 A 
HETATM    6  C7  UNL     1      45.437  24.259  50.768  1.00  0.00     0.001 A 
HETATM    7  C8  UNL     1      45.915  23.810  51.972  1.00  0.00     0.019 A 
HETATM    8  C9  UNL     1      45.873  22.442  52.296  1.00  0.00     0.016 A 
HETATM    9  S1  UNL     1      46.349  21.512  53.641  1.00  0.00    -0.086 SA
ENDROOT
BRANCH   1  10
HETATM   10  C1  UNL     1      46.013  18.656  53.758  1.00  0.00     0.127 C 
HETATM   11  N1  UNL     1      45.180  17.589  53.368  1.00  0.00    -0.082 NA
HETATM   12  N2  UNL     1      46.872  18.488  54.693  1.00  0.00    -0.387 N 
ATOM     13  H22 UNL     1      46.959  17.585  55.160  1.00  0.00     0.157 HD
ATOM     14  H21 UNL     1      47.476  19.260  54.976  1.00  0.00     0.157 HD
ENDBRANCH   1  10
TORSDOF 1
ENDMDL
