MODEL 3
REMARK VINA RESULT: -5.534361865      3.707      5.265
REMARK  1 active torsions:
REMARK  status: ('A' for Active; 'I' for Inactive)
REMARK    1  A    between atoms: C1_2  and  C2_6 
ROOT
HETATM    1  C2  UNL     1      44.370  22.606  50.590  1.00  0.00     0.047 A 
HETATM    2  C3  UNL     1      44.253  21.248  50.536  1.00  0.00     0.035 A 
HETATM    3  C4  UNL     1      44.825  20.537  51.526  1.00  0.00    -0.018 A 
HETATM    4  C5  UNL     1      44.830  19.142  51.670  1.00  0.00     0.013 A 
HETATM    5  C6  UNL     1      45.443  18.517  52.719  1.00  0.00     0.001 A 
HETATM    6  C7  UNL     1      46.093  19.229  53.692  1.00  0.00     0.001 A 
HETATM    7  C8  UNL     1      46.108  20.595  53.583  1.00  0.00     0.019 A 
HETATM    8  C9  UNL     1      45.476  21.235  52.502  1.00  0.00     0.016 A 
HETATM    9  S1  UNL     1      45.274  22.856  52.018  1.00  0.00    -0.086 SA
ENDROOT
BRANCH   1  10
HETATM   10  C1  UNL     1      43.838  23.604  49.638  1.00  0.00     0.127 C 
HETATM   11  N1  UNL     1      42.519  24.074  49.786  1.00  0.00    -0.082 NA
HETATM   12  N2  UNL     1      44.570  24.042  48.681  1.00  0.00    -0.387 N 
ATOM     13  H22 UNL     1      44.203  24.731  48.024  1.00  0.00     0.157 HD
ATOM     14  H21 UNL     1      45.525  23.702  48.574  1.00  0.00     0.157 HD
ENDBRANCH   1  10
TORSDOF 1
ENDMDL
