MODEL 1
REMARK VINA RESULT: -6.254735833      0.000      0.000
REMARK  1 active torsions:
REMARK  status: ('A' for Active; 'I' for Inactive)
REMARK    1  A    between atoms: C1_2  and  C2_6 
ROOT
HETATM    1  C2  UNL     1      45.799  19.696  52.970  1.00  0.00     0.047 A 
HETATM    2  C3  UNL     1      46.232  20.969  53.200  1.00  0.00     0.035 A 
HETATM    3  C4  UNL     1      45.908  21.908  52.291  1.00  0.00    -0.018 A 
HETATM    4  C5  UNL     1      46.246  23.268  52.326  1.00  0.00     0.013 A 
HETATM    5  C6  UNL     1      45.865  24.142  51.346  1.00  0.00     0.001 A 
HETATM    6  C7  UNL     1      45.128  23.727  50.268  1.00  0.00     0.001 A 
HETATM    7  C8  UNL     1      44.781  22.403  50.202  1.00  0.00     0.019 A 
HETATM    8  C9  UNL     1      45.174  21.507  51.213  1.00  0.00     0.016 A 
HETATM    9  S1  UNL     1      44.954  19.841  51.492  1.00  0.00    -0.086 SA
ENDROOT
BRANCH   1  10
HETATM   10  C1  UNL     1      46.016  18.495  53.804  1.00  0.00     0.127 C 
HETATM   11  N1  UNL     1      45.213  17.355  53.606  1.00  0.00    -0.082 NA
HETATM   12  N2  UNL     1      46.928  18.487  54.704  1.00  0.00    -0.387 N 
ATOM     13  H22 UNL     1      47.079  17.658  55.280  1.00  0.00     0.157 HD
ATOM     14  H21 UNL     1      47.510  19.312  54.848  1.00  0.00     0.157 HD
ENDBRANCH   1  10
TORSDOF 1
ENDMDL
