MODEL 2
REMARK VINA RESULT: -6.028280858      1.396      4.836
REMARK  1 active torsions:
REMARK  status: ('A' for Active; 'I' for Inactive)
REMARK    1  A    between atoms: C1_2  and  C2_6 
ROOT
HETATM    1  C2  UNL     1      44.531  21.697  50.863  1.00  0.00     0.048 A 
HETATM    2  C3  UNL     1      45.215  21.698  52.045  1.00  0.00     0.036 A 
HETATM    3  C4  UNL     1      45.337  20.515  52.696  1.00  0.00    -0.001 A 
HETATM    4  C5  UNL     1      45.988  20.241  53.921  1.00  0.00     0.015 A 
HETATM    5  C6  UNL     1      46.019  18.978  54.445  1.00  0.00     0.018 A 
HETATM    6  C7  UNL     1      45.423  17.915  53.809  1.00  0.00     0.089 A 
HETATM    7  N3  UNL     1      44.806  18.162  52.651  1.00  0.00    -0.360 N 
ATOM      8  H3  UNL     1      44.356  17.392  52.156  1.00  0.00     0.166 HD
HETATM    9  C8  UNL     1      44.763  19.424  52.108  1.00  0.00     0.085 A 
HETATM   10  S1  UNL     1      44.076  20.074  50.680  1.00  0.00    -0.068 SA
ENDROOT
BRANCH   1  11
HETATM   11  C1  UNL     1      44.271  22.861  49.981  1.00  0.00     0.127 C 
HETATM   12  N1  UNL     1      42.935  23.302  49.830  1.00  0.00    -0.082 NA
HETATM   13  N2  UNL     1      45.228  23.448  49.375  1.00  0.00    -0.387 N 
ATOM     14  H22 UNL     1      45.049  24.248  48.769  1.00  0.00     0.157 HD
ATOM     15  H21 UNL     1      46.190  23.129  49.483  1.00  0.00     0.157 HD
ENDBRANCH   1  11
TORSDOF 1
ENDMDL
