MODEL 5
REMARK VINA RESULT: -5.976753626      1.848      5.197
REMARK  1 active torsions:
REMARK  status: ('A' for Active; 'I' for Inactive)
REMARK    1  A    between atoms: C1_2  and  C2_6 
ROOT
HETATM    1  C2  UNL     1      43.858  22.445  51.220  1.00  0.00     0.048 A 
HETATM    2  C3  UNL     1      44.016  21.098  51.058  1.00  0.00     0.036 A 
HETATM    3  C4  UNL     1      44.713  20.433  52.011  1.00  0.00    -0.001 A 
HETATM    4  C5  UNL     1      45.018  19.055  52.086  1.00  0.00     0.015 A 
HETATM    5  C6  UNL     1      45.739  18.539  53.128  1.00  0.00     0.018 A 
HETATM    6  C7  UNL     1      46.200  19.331  54.152  1.00  0.00     0.089 A 
HETATM    7  N3  UNL     1      45.917  20.635  54.093  1.00  0.00    -0.360 N 
ATOM      8  H3  UNL     1      46.245  21.247  54.839  1.00  0.00     0.166 HD
HETATM    9  C8  UNL     1      45.195  21.172  53.054  1.00  0.00     0.085 A 
HETATM   10  S1  UNL     1      44.668  22.757  52.676  1.00  0.00    -0.068 SA
ENDROOT
BRANCH   1  11
HETATM   11  C1  UNL     1      43.140  23.375  50.314  1.00  0.00     0.127 C 
HETATM   12  N1  UNL     1      43.759  23.733  49.094  1.00  0.00    -0.082 NA
HETATM   13  N2  UNL     1      41.995  23.839  50.629  1.00  0.00    -0.387 N 
ATOM     14  H22 UNL     1      41.501  24.479  50.007  1.00  0.00     0.157 HD
ATOM     15  H21 UNL     1      41.548  23.582  51.510  1.00  0.00     0.157 HD
ENDBRANCH   1  11
TORSDOF 1
ENDMDL
