MODEL 1
REMARK VINA RESULT: -6.455326519      0.000      0.000
REMARK  1 active torsions:
REMARK  status: ('A' for Active; 'I' for Inactive)
REMARK    1  A    between atoms: C1_2  and  C2_6 
ROOT
HETATM    1  C2  UNL     1      45.375  19.651  52.993  1.00  0.00     0.048 A 
HETATM    2  C3  UNL     1      45.483  20.995  53.209  1.00  0.00     0.036 A 
HETATM    3  C4  UNL     1      44.894  21.821  52.309  1.00  0.00    -0.001 A 
HETATM    4  C5  UNL     1      44.855  23.234  52.296  1.00  0.00     0.015 A 
HETATM    5  C6  UNL     1      44.210  23.921  51.306  1.00  0.00     0.018 A 
HETATM    6  C7  UNL     1      43.568  23.275  50.276  1.00  0.00     0.089 A 
HETATM    7  N3  UNL     1      43.597  21.940  50.277  1.00  0.00    -0.360 N 
ATOM      8  H3  UNL     1      43.129  21.434  49.527  1.00  0.00     0.166 HD
HETATM    9  C8  UNL     1      44.241  21.232  51.264  1.00  0.00     0.085 A 
HETATM   10  S1  UNL     1      44.467  19.561  51.564  1.00  0.00    -0.068 SA
ENDROOT
BRANCH   1  11
HETATM   11  C1  UNL     1      45.933  18.564  53.834  1.00  0.00     0.127 C 
HETATM   12  N1  UNL     1      45.296  17.301  53.804  1.00  0.00    -0.082 NA
HETATM   13  N2  UNL     1      46.960  18.764  54.563  1.00  0.00    -0.387 N 
ATOM     14  H22 UNL     1      47.343  18.016  55.141  1.00  0.00     0.157 HD
ATOM     15  H21 UNL     1      47.418  19.674  54.584  1.00  0.00     0.157 HD
ENDBRANCH   1  11
TORSDOF 1
ENDMDL
