MODEL 6
REMARK VINA RESULT: -5.847962977      0.927      1.017
REMARK  1 active torsions:
REMARK  status: ('A' for Active; 'I' for Inactive)
REMARK    1  A    between atoms: C1_2  and  C2_6 
ROOT
HETATM    1  C2  UNL     1      45.736  19.937  53.251  1.00  0.00     0.048 A 
HETATM    2  C3  UNL     1      45.886  21.211  53.722  1.00  0.00     0.036 A 
HETATM    3  C4  UNL     1      45.554  22.227  52.888  1.00  0.00    -0.001 A 
HETATM    4  C5  UNL     1      45.613  23.620  53.122  1.00  0.00     0.015 A 
HETATM    5  C6  UNL     1      45.237  24.521  52.164  1.00  0.00     0.018 A 
HETATM    6  C7  UNL     1      44.784  24.119  50.930  1.00  0.00     0.089 A 
HETATM    7  N3  UNL     1      44.724  22.806  50.697  1.00  0.00    -0.360 N 
ATOM      8  H3  UNL     1      44.390  22.478  49.791  1.00  0.00     0.166 HD
HETATM    9  C8  UNL     1      45.098  21.885  51.647  1.00  0.00     0.085 A 
HETATM   10  S1  UNL     1      45.144  20.173  51.679  1.00  0.00    -0.068 SA
ENDROOT
BRANCH   1  11
HETATM   11  C1  UNL     1      46.032  18.677  53.975  1.00  0.00     0.127 C 
HETATM   12  N1  UNL     1      45.223  17.547  53.710  1.00  0.00    -0.082 NA
HETATM   13  N2  UNL     1      46.990  18.615  54.813  1.00  0.00    -0.387 N 
ATOM     14  H22 UNL     1      47.193  17.748  55.311  1.00  0.00     0.157 HD
ATOM     15  H21 UNL     1      47.573  19.430  55.005  1.00  0.00     0.157 HD
ENDBRANCH   1  11
TORSDOF 1
ENDMDL
