MODEL 3
REMARK VINA RESULT: -6.014274222      1.631      1.888
REMARK  1 active torsions:
REMARK  status: ('A' for Active; 'I' for Inactive)
REMARK    1  A    between atoms: C1_2  and  C2_6 
ROOT
HETATM    1  C2  UNL     1      45.833  20.069  53.335  1.00  0.00     0.048 A 
HETATM    2  C3  UNL     1      45.505  20.315  52.032  1.00  0.00     0.036 A 
HETATM    3  C4  UNL     1      45.312  21.607  51.671  1.00  0.00    -0.001 A 
HETATM    4  C5  UNL     1      44.970  22.132  50.404  1.00  0.00     0.015 A 
HETATM    5  C6  UNL     1      44.812  23.475  50.206  1.00  0.00     0.018 A 
HETATM    6  C7  UNL     1      44.979  24.382  51.226  1.00  0.00     0.089 A 
HETATM    7  N3  UNL     1      45.304  23.899  52.428  1.00  0.00    -0.360 N 
ATOM      8  H3  UNL     1      45.435  24.547  53.203  1.00  0.00     0.166 HD
HETATM    9  C8  UNL     1      45.466  22.551  52.646  1.00  0.00     0.085 A 
HETATM   10  S1  UNL     1      45.869  21.618  54.024  1.00  0.00    -0.068 SA
ENDROOT
BRANCH   1  11
HETATM   11  C1  UNL     1      46.090  18.747  53.957  1.00  0.00     0.127 C 
HETATM   12  N1  UNL     1      45.266  17.659  53.582  1.00  0.00    -0.082 NA
HETATM   13  N2  UNL     1      47.029  18.595  54.806  1.00  0.00    -0.387 N 
ATOM     14  H22 UNL     1      47.205  17.686  55.233  1.00  0.00     0.157 HD
ATOM     15  H21 UNL     1      47.623  19.379  55.076  1.00  0.00     0.157 HD
ENDBRANCH   1  11
TORSDOF 1
ENDMDL
