MODEL 4
REMARK VINA RESULT: -5.996579124      1.663      5.104
REMARK  1 active torsions:
REMARK  status: ('A' for Active; 'I' for Inactive)
REMARK    1  A    between atoms: C1_2  and  C2_6 
ROOT
HETATM    1  C2  UNL     1      44.768  21.995  51.101  1.00  0.00     0.048 A 
HETATM    2  C3  UNL     1      44.551  20.646  51.128  1.00  0.00     0.036 A 
HETATM    3  C4  UNL     1      45.008  19.963  52.206  1.00  0.00    -0.001 A 
HETATM    4  C5  UNL     1      44.917  18.579  52.481  1.00  0.00     0.015 A 
HETATM    5  C6  UNL     1      45.435  18.043  53.627  1.00  0.00     0.018 A 
HETATM    6  C7  UNL     1      46.069  18.821  54.567  1.00  0.00     0.089 A 
HETATM    7  N3  UNL     1      46.161  20.129  54.319  1.00  0.00    -0.360 N 
ATOM      8  H3  UNL     1      46.625  20.731  54.999  1.00  0.00     0.166 HD
HETATM    9  C8  UNL     1      45.647  20.686  53.172  1.00  0.00     0.085 A 
HETATM   10  S1  UNL     1      45.592  22.283  52.556  1.00  0.00    -0.068 SA
ENDROOT
BRANCH   1  11
HETATM   11  C1  UNL     1      44.363  22.943  50.036  1.00  0.00     0.127 C 
HETATM   12  N1  UNL     1      42.982  23.181  49.840  1.00  0.00    -0.082 NA
HETATM   13  N2  UNL     1      45.238  23.529  49.316  1.00  0.00    -0.387 N 
ATOM     14  H22 UNL     1      44.959  24.181  48.583  1.00  0.00     0.157 HD
ATOM     15  H21 UNL     1      46.233  23.357  49.456  1.00  0.00     0.157 HD
ENDBRANCH   1  11
TORSDOF 1
ENDMDL
