MODEL 1
REMARK VINA RESULT: -6.498029738      0.000      0.000
REMARK  1 active torsions:
REMARK  status: ('A' for Active; 'I' for Inactive)
REMARK    1  A    between atoms: C1_2  and  C2_6 
ROOT
HETATM    1  C2  UNL     1       8.523   1.093  25.390  1.00  0.00     0.047 A 
HETATM    2  C3  UNL     1       8.197   2.201  26.128  1.00  0.00     0.036 A 
HETATM    3  C4  UNL     1       8.436   3.404  25.576  1.00  0.00    -0.001 A 
HETATM    4  C5  UNL     1       8.179   4.662  26.156  1.00  0.00     0.018 A 
HETATM    5  I1  UNL     1       7.340   4.873  28.072  1.00  0.00    -0.044 I 
HETATM    6  C6  UNL     1       8.479   5.805  25.463  1.00  0.00     0.019 A 
HETATM    7  C7  UNL     1       9.029   5.836  24.204  1.00  0.00     0.003 A 
HETATM    8  C8  UNL     1       9.282   4.601  23.632  1.00  0.00     0.020 A 
HETATM    9  C9  UNL     1       8.984   3.417  24.321  1.00  0.00     0.017 A 
HETATM   10  S1  UNL     1       9.150   1.764  23.953  1.00  0.00    -0.086 SA
ENDROOT
BRANCH   1  11
HETATM   11  C1  UNL     1       8.380  -0.321  25.724  1.00  0.00     0.127 C 
HETATM   12  N1  UNL     1       8.444  -1.259  24.669  1.00  0.00    -0.082 NA
HETATM   13  N2  UNL     1       8.205  -0.679  26.932  1.00  0.00    -0.387 N 
ATOM     14  H22 UNL     1       8.105  -1.667  27.166  1.00  0.00     0.157 HD
ATOM     15  H21 UNL     1       8.159  -0.002  27.694  1.00  0.00     0.157 HD
ENDBRANCH   1  11
TORSDOF 1
ENDMDL
