MODEL 12
REMARK VINA RESULT: -4.784814692      3.716      4.604
REMARK  1 active torsions:
REMARK  status: ('A' for Active; 'I' for Inactive)
REMARK    1  A    between atoms: C1_2  and  C2_6 
ROOT
HETATM    1  C2  UNL     1       8.001   4.985  23.606  1.00  0.00     0.047 A 
HETATM    2  C3  UNL     1       6.806   5.458  24.079  1.00  0.00     0.036 A 
HETATM    3  C4  UNL     1       6.525   6.756  23.866  1.00  0.00    -0.001 A 
HETATM    4  C5  UNL     1       5.360   7.441  24.264  1.00  0.00     0.018 A 
HETATM    5  I1  UNL     1       3.797   6.501  25.309  1.00  0.00    -0.044 I 
HETATM    6  C6  UNL     1       5.220   8.772  23.970  1.00  0.00     0.019 A 
HETATM    7  C7  UNL     1       6.149   9.527  23.297  1.00  0.00     0.003 A 
HETATM    8  C8  UNL     1       7.293   8.856  22.903  1.00  0.00     0.020 A 
HETATM    9  C9  UNL     1       7.460   7.494  23.192  1.00  0.00     0.017 A 
HETATM   10  S1  UNL     1       8.694   6.364  22.880  1.00  0.00    -0.086 SA
ENDROOT
BRANCH   1  11
HETATM   11  C1  UNL     1       8.569   3.643  23.688  1.00  0.00     0.127 C 
HETATM   12  N1  UNL     1       8.204   2.837  24.790  1.00  0.00    -0.082 NA
HETATM   13  N2  UNL     1       9.365   3.228  22.786  1.00  0.00    -0.387 N 
ATOM     14  H22 UNL     1       9.762   2.291  22.843  1.00  0.00     0.157 HD
ATOM     15  H21 UNL     1       9.628   3.809  21.991  1.00  0.00     0.157 HD
ENDBRANCH   1  11
TORSDOF 1
ENDMDL
