MODEL 13
REMARK VINA RESULT: -4.766638101      5.098      6.170
REMARK  1 active torsions:
REMARK  status: ('A' for Active; 'I' for Inactive)
REMARK    1  A    between atoms: C1_2  and  C2_6 
ROOT
HETATM    1  C2  UNL     1      11.477   7.035  23.881  1.00  0.00     0.047 A 
HETATM    2  C3  UNL     1      10.883   5.804  23.786  1.00  0.00     0.036 A 
HETATM    3  C4  UNL     1       9.652   5.668  24.309  1.00  0.00    -0.001 A 
HETATM    4  C5  UNL     1       8.866   4.498  24.320  1.00  0.00     0.018 A 
HETATM    5  I1  UNL     1       9.524   2.687  23.479  1.00  0.00    -0.044 I 
HETATM    6  C6  UNL     1       7.623   4.519  24.894  1.00  0.00     0.019 A 
HETATM    7  C7  UNL     1       7.051   5.620  25.484  1.00  0.00     0.003 A 
HETATM    8  C8  UNL     1       7.820   6.770  25.475  1.00  0.00     0.020 A 
HETATM    9  C9  UNL     1       9.096   6.775  24.893  1.00  0.00     0.017 A 
HETATM   10  S1  UNL     1      10.300   7.962  24.696  1.00  0.00    -0.086 SA
ENDROOT
BRANCH   1  11
HETATM   11  C1  UNL     1      12.788   7.475  23.413  1.00  0.00     0.127 C 
HETATM   12  N1  UNL     1      13.770   7.776  24.383  1.00  0.00    -0.082 NA
HETATM   13  N2  UNL     1      13.020   7.578  22.166  1.00  0.00    -0.387 N 
ATOM     14  H22 UNL     1      13.936   7.885  21.839  1.00  0.00     0.157 HD
ATOM     15  H21 UNL     1      12.312   7.361  21.466  1.00  0.00     0.157 HD
ENDBRANCH   1  11
TORSDOF 1
ENDMDL
