MODEL 2
REMARK VINA RESULT: -5.764897182      0.718      1.162
REMARK  1 active torsions:
REMARK  status: ('A' for Active; 'I' for Inactive)
REMARK    1  A    between atoms: C1_2  and  C2_6 
ROOT
HETATM    1  C2  UNL     1       8.678   1.601  24.790  1.00  0.00     0.047 A 
HETATM    2  C3  UNL     1       8.297   2.583  25.666  1.00  0.00     0.036 A 
HETATM    3  C4  UNL     1       8.548   3.857  25.315  1.00  0.00    -0.001 A 
HETATM    4  C5  UNL     1       8.242   5.012  26.062  1.00  0.00     0.018 A 
HETATM    5  I1  UNL     1       7.299   4.927  27.939  1.00  0.00    -0.044 I 
HETATM    6  C6  UNL     1       8.563   6.248  25.566  1.00  0.00     0.019 A 
HETATM    7  C7  UNL     1       9.180   6.471  24.359  1.00  0.00     0.003 A 
HETATM    8  C8  UNL     1       9.481   5.339  23.623  1.00  0.00     0.020 A 
HETATM    9  C9  UNL     1       9.163   4.063  24.109  1.00  0.00     0.017 A 
HETATM   10  S1  UNL     1       9.372   2.485  23.507  1.00  0.00    -0.086 SA
ENDROOT
BRANCH   1  11
HETATM   11  C1  UNL     1       8.538   0.152  24.899  1.00  0.00     0.127 C 
HETATM   12  N1  UNL     1       8.240  -0.389  26.170  1.00  0.00    -0.082 NA
HETATM   13  N2  UNL     1       8.684  -0.584  23.872  1.00  0.00    -0.387 N 
ATOM     14  H22 UNL     1       8.587  -1.597  23.949  1.00  0.00     0.157 HD
ATOM     15  H21 UNL     1       8.899  -0.194  22.955  1.00  0.00     0.157 HD
ENDBRANCH   1  11
TORSDOF 1
ENDMDL
