MODEL 8
REMARK VINA RESULT: -5.174742430      3.595      4.859
REMARK  1 active torsions:
REMARK  status: ('A' for Active; 'I' for Inactive)
REMARK    1  A    between atoms: C1_2  and  C2_6 
ROOT
HETATM    1  C2  UNL     1       9.261   5.182  23.626  1.00  0.00     0.047 A 
HETATM    2  C3  UNL     1       8.820   4.873  24.886  1.00  0.00     0.036 A 
HETATM    3  C4  UNL     1       8.709   3.570  25.202  1.00  0.00    -0.001 A 
HETATM    4  C5  UNL     1       8.279   3.036  26.432  1.00  0.00     0.018 A 
HETATM    5  I1  UNL     1       7.713   4.247  28.055  1.00  0.00    -0.044 I 
HETATM    6  C6  UNL     1       8.219   1.677  26.600  1.00  0.00     0.019 A 
HETATM    7  C7  UNL     1       8.553   0.754  25.639  1.00  0.00     0.003 A 
HETATM    8  C8  UNL     1       8.977   1.277  24.430  1.00  0.00     0.020 A 
HETATM    9  C9  UNL     1       9.046   2.663  24.233  1.00  0.00     0.017 A 
HETATM   10  S1  UNL     1       9.505   3.648  22.923  1.00  0.00    -0.086 SA
ENDROOT
BRANCH   1  11
HETATM   11  C1  UNL     1       9.476   6.488  23.011  1.00  0.00     0.127 C 
HETATM   12  N1  UNL     1      10.798   6.841  22.655  1.00  0.00    -0.082 NA
HETATM   13  N2  UNL     1       8.494   7.271  22.809  1.00  0.00    -0.387 N 
ATOM     14  H22 UNL     1       8.645   8.183  22.380  1.00  0.00     0.157 HD
ATOM     15  H21 UNL     1       7.540   7.016  23.066  1.00  0.00     0.157 HD
ENDBRANCH   1  11
TORSDOF 1
ENDMDL
