MODEL 1
REMARK VINA RESULT: -6.662539430      0.000      0.000
REMARK  1 active torsions:
REMARK  status: ('A' for Active; 'I' for Inactive)
REMARK    1  A    between atoms: C1_2  and  C2_6 
ROOT
HETATM    1  C2  UNL     1       8.688   1.014  25.040  1.00  0.00     0.048 A 
HETATM    2  C3  UNL     1       8.400   2.228  25.595  1.00  0.00     0.036 A 
HETATM    3  C4  UNL     1       8.660   3.331  24.852  1.00  0.00    -0.001 A 
HETATM    4  C5  UNL     1       8.458   4.691  25.183  1.00  0.00     0.015 A 
HETATM    5  C6  UNL     1       8.776   5.693  24.309  1.00  0.00     0.018 A 
HETATM    6  C7  UNL     1       9.306   5.431  23.068  1.00  0.00     0.089 A 
HETATM    7  N3  UNL     1       9.500   4.150  22.743  1.00  0.00    -0.360 N 
ATOM      8  H3  UNL     1       9.891   3.925  21.829  1.00  0.00     0.166 HD
HETATM    9  C8  UNL     1       9.188   3.129  23.608  1.00  0.00     0.085 A 
HETATM   10  S1  UNL     1       9.305   1.423  23.515  1.00  0.00    -0.068 SA
ENDROOT
BRANCH   1  11
HETATM   11  C1  UNL     1       8.492  -0.320  25.658  1.00  0.00     0.127 C 
HETATM   12  N1  UNL     1       8.350  -1.440  24.805  1.00  0.00    -0.082 NA
HETATM   13  N2  UNL     1       8.453  -0.453  26.926  1.00  0.00    -0.387 N 
ATOM     14  H22 UNL     1       8.318  -1.370  27.350  1.00  0.00     0.157 HD
ATOM     15  H21 UNL     1       8.555   0.354  27.541  1.00  0.00     0.157 HD
ENDBRANCH   1  11
TORSDOF 1
ENDMDL
