MODEL 3
REMARK VINA RESULT: -6.223848816      1.640      5.160
REMARK  1 active torsions:
REMARK  status: ('A' for Active; 'I' for Inactive)
REMARK    1  A    between atoms: C1_2  and  C2_6 
ROOT
HETATM    1  C2  UNL     1       9.346   3.753  23.864  1.00  0.00     0.048 A 
HETATM    2  C3  UNL     1       9.384   2.470  23.394  1.00  0.00     0.036 A 
HETATM    3  C4  UNL     1       8.992   1.485  24.239  1.00  0.00    -0.001 A 
HETATM    4  C5  UNL     1       8.935   0.091  24.009  1.00  0.00     0.015 A 
HETATM    5  C6  UNL     1       8.512  -0.775  24.978  1.00  0.00     0.018 A 
HETATM    6  C7  UNL     1       8.120  -0.337  26.220  1.00  0.00     0.089 A 
HETATM    7  N3  UNL     1       8.168   0.977  26.450  1.00  0.00    -0.360 N 
ATOM      8  H3  UNL     1       7.883   1.332  27.362  1.00  0.00     0.166 HD
HETATM    9  C8  UNL     1       8.592   1.864  25.489  1.00  0.00     0.085 A 
HETATM   10  S1  UNL     1       8.773   3.567  25.449  1.00  0.00    -0.068 SA
ENDROOT
BRANCH   1  11
HETATM   11  C1  UNL     1       9.723   4.984  23.129  1.00  0.00     0.127 C 
HETATM   12  N1  UNL     1      11.018   5.516  23.333  1.00  0.00    -0.082 NA
HETATM   13  N2  UNL     1       8.901   5.548  22.334  1.00  0.00    -0.387 N 
ATOM     14  H22 UNL     1       9.161   6.395  21.829  1.00  0.00     0.157 HD
ATOM     15  H21 UNL     1       7.968   5.165  22.187  1.00  0.00     0.157 HD
ENDBRANCH   1  11
TORSDOF 1
ENDMDL
