MODEL 4
REMARK VINA RESULT: -6.140853510      1.803      5.178
REMARK  1 active torsions:
REMARK  status: ('A' for Active; 'I' for Inactive)
REMARK    1  A    between atoms: C1_2  and  C2_6 
ROOT
HETATM    1  C2  UNL     1       9.474   4.296  23.798  1.00  0.00     0.048 A 
HETATM    2  C3  UNL     1       9.602   3.033  23.294  1.00  0.00     0.036 A 
HETATM    3  C4  UNL     1       9.190   2.005  24.075  1.00  0.00    -0.001 A 
HETATM    4  C5  UNL     1       9.210   0.619  23.798  1.00  0.00     0.015 A 
HETATM    5  C6  UNL     1       8.751  -0.297  24.705  1.00  0.00     0.018 A 
HETATM    6  C7  UNL     1       8.248   0.084  25.926  1.00  0.00     0.089 A 
HETATM    7  N3  UNL     1       8.223   1.390  26.199  1.00  0.00    -0.360 N 
ATOM      8  H3  UNL     1       7.854   1.702  27.097  1.00  0.00     0.166 HD
HETATM    9  C8  UNL     1       8.680   2.326  25.301  1.00  0.00     0.085 A 
HETATM   10  S1  UNL     1       8.791   4.034  25.328  1.00  0.00    -0.068 SA
ENDROOT
BRANCH   1  11
HETATM   11  C1  UNL     1       9.854   5.566  23.133  1.00  0.00     0.127 C 
HETATM   12  N1  UNL     1       8.865   6.257  22.394  1.00  0.00    -0.082 NA
HETATM   13  N2  UNL     1      11.041   6.023  23.225  1.00  0.00    -0.387 N 
ATOM     14  H22 UNL     1      11.302   6.896  22.768  1.00  0.00     0.157 HD
ATOM     15  H21 UNL     1      11.754   5.524  23.757  1.00  0.00     0.157 HD
ENDBRANCH   1  11
TORSDOF 1
ENDMDL
