MODEL 7
REMARK VINA RESULT: -5.998261573      0.976      1.380
REMARK  1 active torsions:
REMARK  status: ('A' for Active; 'I' for Inactive)
REMARK    1  A    between atoms: C1_2  and  C2_6 
ROOT
HETATM    1  C2  UNL     1       8.899   1.738  24.384  1.00  0.00     0.048 A 
HETATM    2  C3  UNL     1       8.508   2.840  25.090  1.00  0.00     0.036 A 
HETATM    3  C4  UNL     1       8.837   4.054  24.585  1.00  0.00    -0.001 A 
HETATM    4  C5  UNL     1       8.558   5.337  25.109  1.00  0.00     0.015 A 
HETATM    5  C6  UNL     1       8.964   6.474  24.467  1.00  0.00     0.018 A 
HETATM    6  C7  UNL     1       9.661   6.427  23.283  1.00  0.00     0.089 A 
HETATM    7  N3  UNL     1       9.930   5.221  22.777  1.00  0.00    -0.360 N 
ATOM      8  H3  UNL     1      10.444   5.155  21.900  1.00  0.00     0.166 HD
HETATM    9  C8  UNL     1       9.530   4.066  23.408  1.00  0.00     0.085 A 
HETATM   10  S1  UNL     1       9.703   2.402  23.046  1.00  0.00    -0.068 SA
ENDROOT
BRANCH   1  11
HETATM   11  C1  UNL     1       8.655   0.318  24.737  1.00  0.00     0.127 C 
HETATM   12  N1  UNL     1       8.459  -0.009  26.099  1.00  0.00    -0.082 NA
HETATM   13  N2  UNL     1       8.623  -0.583  23.835  1.00  0.00    -0.387 N 
ATOM     14  H22 UNL     1       8.456  -1.559  24.078  1.00  0.00     0.157 HD
ATOM     15  H21 UNL     1       8.765  -0.347  22.853  1.00  0.00     0.157 HD
ENDBRANCH   1  11
TORSDOF 1
ENDMDL
