MODEL 2
REMARK VINA RESULT: -6.260318831      1.940      5.257
REMARK  1 active torsions:
REMARK  status: ('A' for Active; 'I' for Inactive)
REMARK    1  A    between atoms: C1_2  and  C2_6 
ROOT
HETATM    1  C2  UNL     1       8.971   4.706  23.543  1.00  0.00     0.048 A 
HETATM    2  C3  UNL     1       9.343   3.449  23.159  1.00  0.00     0.036 A 
HETATM    3  C4  UNL     1       9.070   2.430  24.010  1.00  0.00    -0.001 A 
HETATM    4  C5  UNL     1       9.344   1.051  23.859  1.00  0.00     0.015 A 
HETATM    5  C6  UNL     1       8.999   0.145  24.822  1.00  0.00     0.018 A 
HETATM    6  C7  UNL     1       8.369   0.527  25.983  1.00  0.00     0.089 A 
HETATM    7  N3  UNL     1       8.104   1.826  26.137  1.00  0.00    -0.360 N 
ATOM      8  H3  UNL     1       7.636   2.139  26.988  1.00  0.00     0.166 HD
HETATM    9  C8  UNL     1       8.444   2.753  25.180  1.00  0.00     0.085 A 
HETATM   10  S1  UNL     1       8.257   4.451  25.060  1.00  0.00    -0.068 SA
ENDROOT
BRANCH   1  11
HETATM   11  C1  UNL     1       9.163   5.966  22.784  1.00  0.00     0.127 C 
HETATM   12  N1  UNL     1      10.485   6.412  22.551  1.00  0.00    -0.082 NA
HETATM   13  N2  UNL     1       8.162   6.628  22.353  1.00  0.00    -0.387 N 
ATOM     14  H22 UNL     1       8.295   7.494  21.831  1.00  0.00     0.157 HD
ATOM     15  H21 UNL     1       7.209   6.306  22.521  1.00  0.00     0.157 HD
ENDBRANCH   1  11
TORSDOF 1
ENDMDL
