MODEL 10
REMARK VINA RESULT: -5.362805104      1.525      2.056
REMARK  1 active torsions:
REMARK  status: ('A' for Active; 'I' for Inactive)
REMARK    1  A    between atoms: C1_2  and  C2_6 
ROOT
HETATM    1  C2  UNL     1       8.365   0.566  25.444  1.00  0.00     0.048 A 
HETATM    2  C3  UNL     1       8.889   0.992  24.257  1.00  0.00     0.036 A 
HETATM    3  C4  UNL     1       9.184   2.310  24.142  1.00  0.00    -0.001 A 
HETATM    4  C5  UNL     1       9.729   3.004  23.038  1.00  0.00     0.015 A 
HETATM    5  C6  UNL     1       9.969   4.349  23.087  1.00  0.00     0.018 A 
HETATM    6  C7  UNL     1       9.693   5.093  24.210  1.00  0.00     0.089 A 
HETATM    7  N3  UNL     1       9.179   4.449  25.260  1.00  0.00    -0.360 N 
ATOM      8  H3  UNL     1       8.965   4.974  26.107  1.00  0.00     0.166 HD
HETATM    9  C8  UNL     1       8.930   3.097  25.229  1.00  0.00     0.085 A 
HETATM   10  S1  UNL     1       8.294   1.987  26.367  1.00  0.00    -0.068 SA
ENDROOT
BRANCH   1  11
HETATM   11  C1  UNL     1       7.967  -0.818  25.799  1.00  0.00     0.127 C 
HETATM   12  N1  UNL     1       6.861  -0.997  26.663  1.00  0.00    -0.082 NA
HETATM   13  N2  UNL     1       8.606  -1.820  25.337  1.00  0.00    -0.387 N 
ATOM     14  H22 UNL     1       8.333  -2.772  25.581  1.00  0.00     0.157 HD
ATOM     15  H21 UNL     1       9.404  -1.692  24.715  1.00  0.00     0.157 HD
ENDBRANCH   1  11
TORSDOF 1
ENDMDL
