MODEL 7
REMARK VINA RESULT: -10.664268043      1.952      3.790
REMARK  14 active torsions:
REMARK  status: ('A' for Active; 'I' for Inactive)
REMARK    1  A    between atoms: C2_2  and  N1_5 
REMARK       I    between atoms: N1_5  and  C5_7 
REMARK    2  A    between atoms: C5_7  and  C6_9 
REMARK    3  A    between atoms: N2_11  and  C8_12 
REMARK    4  A    between atoms: C8_12  and  C9_13 
REMARK    5  A    between atoms: N3_24  and  C19_25 
REMARK    6  A    between atoms: C19_25  and  C20_26 
REMARK    7  A    between atoms: C20_26  and  O3_27 
REMARK    8  A    between atoms: C20_26  and  C21_29 
REMARK    9  A    between atoms: C21_29  and  C22_30 
REMARK   10  A    between atoms: C22_30  and  C23_31 
REMARK   11  A    between atoms: C22_30  and  C30_38 
REMARK   12  A    between atoms: C23_31  and  C24_32 
REMARK       I    between atoms: C30_38  and  N4_40 
REMARK   13  A    between atoms: N4_40  and  C31_42 
REMARK   14  A    between atoms: C39_50  and  O5_51 
ROOT
HETATM    1  C20 UNL     1      13.725  24.102   5.213  1.00  0.00     0.150 C 
ENDROOT
BRANCH   1   2
HETATM    2  C19 UNL     1      12.253  23.778   5.151  1.00  0.00     0.305 C 
BRANCH   2   3
HETATM    3  N3  UNL     1      11.352  24.864   5.029  1.00  0.00     0.108 N 
HETATM    4  C6  UNL     1       9.971  24.456   5.352  1.00  0.00     0.342 C 
HETATM    5  C7  UNL     1       9.165  25.542   5.972  1.00  0.00     0.318 C 
HETATM    6  N2  UNL     1       9.673  25.915   7.260  1.00  0.00     0.098 N 
HETATM    7  C17 UNL     1      11.124  25.888   7.237  1.00  0.00     0.303 C 
HETATM    8  C18 UNL     1      11.601  26.030   5.804  1.00  0.00     0.303 C 
BRANCH   4   9
HETATM    9  C5  UNL     1       9.313  24.055   4.073  1.00  0.00     0.253 C 
HETATM   10  N1  UNL     1       8.264  23.083   4.052  1.00  0.00    -0.351 N 
ATOM     11  H1  UNL     1       7.974  22.675   4.941  1.00  0.00     0.163 HD
HETATM   12  O1  UNL     1       9.621  24.525   2.950  1.00  0.00    -0.271 OA
BRANCH  10  13
HETATM   13  C2  UNL     1       7.597  22.646   2.867  1.00  0.00     0.022 C 
HETATM   14  C1  UNL     1       6.867  23.782   2.164  1.00  0.00     0.037 C 
HETATM   15  C3  UNL     1       8.499  21.993   1.854  1.00  0.00     0.037 C 
HETATM   16  C4  UNL     1       6.508  21.625   3.221  1.00  0.00     0.037 C 
ENDBRANCH  10  13
ENDBRANCH   4   9
BRANCH   6  17
HETATM   17  C8  UNL     1       9.183  27.201   7.704  1.00  0.00     0.337 C 
BRANCH  17  18
HETATM   18  C9  UNL     1       7.729  27.393   7.414  1.00  0.00     0.083 A 
HETATM   19  C10 UNL     1       7.222  28.516   6.771  1.00  0.00     0.049 A 
HETATM   20  C11 UNL     1       5.853  28.377   6.661  1.00  0.00     0.000 A 
HETATM   21  C12 UNL     1       4.807  29.122   6.142  1.00  0.00     0.014 A 
HETATM   22  C16 UNL     1       5.590  27.150   7.256  1.00  0.00     0.086 A 
HETATM   23  C13 UNL     1       3.506  28.694   6.189  1.00  0.00     0.001 A 
HETATM   24  C14 UNL     1       3.243  27.486   6.774  1.00  0.00     0.003 A 
HETATM   25  C15 UNL     1       4.278  26.728   7.299  1.00  0.00     0.038 A 
HETATM   26  O2  UNL     1       6.712  26.604   7.684  1.00  0.00    -0.312 OA
ENDBRANCH  17  18
ENDBRANCH   6  17
ENDBRANCH   2   3
ENDBRANCH   1   2
BRANCH   1  27
HETATM   27  O3  UNL     1      14.088  25.168   4.449  1.00  0.00    -0.394 OA
ATOM     28  H3  UNL     1      14.710  25.750   4.870  1.00  0.00     0.210 HD
ENDBRANCH   1  27
BRANCH   1  29
HETATM   29  C21 UNL     1      14.313  23.964   6.573  1.00  0.00     0.073 C 
BRANCH  29  30
HETATM   30  C22 UNL     1      15.561  23.202   6.719  1.00  0.00    -0.006 C 
BRANCH  30  31
HETATM   31  C23 UNL     1      16.325  23.513   7.956  1.00  0.00     0.078 C 
BRANCH  31  32
HETATM   32  C24 UNL     1      16.667  22.400   8.833  1.00  0.00    -0.054 A 
HETATM   33  C25 UNL     1      15.742  21.892   9.708  1.00  0.00     0.007 A 
HETATM   34  C26 UNL     1      16.065  20.819  10.491  1.00  0.00     0.001 A 
HETATM   35  C27 UNL     1      17.295  20.226  10.436  1.00  0.00     0.000 A 
HETATM   36  C28 UNL     1      18.243  20.720   9.564  1.00  0.00     0.001 A 
HETATM   37  C29 UNL     1      17.902  21.815   8.769  1.00  0.00     0.007 A 
ENDBRANCH  31  32
ENDBRANCH  30  31
BRANCH  30  38
HETATM   38  C30 UNL     1      15.530  21.799   6.382  1.00  0.00     0.244 C 
HETATM   39  O4  UNL     1      14.554  21.088   6.676  1.00  0.00    -0.268 OA
HETATM   40  N4  UNL     1      16.589  21.125   5.699  1.00  0.00    -0.346 N 
ATOM     41  H4  UNL     1      17.406  21.679   5.440  1.00  0.00     0.163 HD
BRANCH  40  42
HETATM   42  C31 UNL     1      16.601  19.729   5.345  1.00  0.00     0.147 C 
HETATM   43  C32 UNL     1      16.346  19.561   3.873  1.00  0.00    -0.027 A 
HETATM   44  C33 UNL     1      15.393  20.086   3.014  1.00  0.00     0.010 A 
HETATM   45  C37 UNL     1      17.279  18.704   3.346  1.00  0.00    -0.047 A 
HETATM   46  C34 UNL     1      15.357  19.773   1.663  1.00  0.00     0.001 A 
HETATM   47  C35 UNL     1      16.296  18.923   1.183  1.00  0.00     0.001 A 
HETATM   48  C36 UNL     1      17.256  18.387   2.014  1.00  0.00     0.008 A 
HETATM   49  C38 UNL     1      18.202  18.246   4.407  1.00  0.00     0.073 C 
HETATM   50  C39 UNL     1      18.031  19.259   5.483  1.00  0.00     0.149 C 
BRANCH  50  51
HETATM   51  O5  UNL     1      18.867  20.366   5.220  1.00  0.00    -0.393 OA
ATOM     52  H5  UNL     1      19.765  20.060   5.258  1.00  0.00     0.210 HD
ENDBRANCH  50  51
ENDBRANCH  40  42
ENDBRANCH  30  38
ENDBRANCH  29  30
ENDBRANCH   1  29
TORSDOF 14
ENDMDL
