MODEL 2
REMARK VINA RESULT: -11.407085648      1.321      2.043
REMARK  14 active torsions:
REMARK  status: ('A' for Active; 'I' for Inactive)
REMARK    1  A    between atoms: C2_2  and  N1_5 
REMARK       I    between atoms: N1_5  and  C5_7 
REMARK    2  A    between atoms: C5_7  and  C6_9 
REMARK    3  A    between atoms: N2_11  and  C8_12 
REMARK    4  A    between atoms: C8_12  and  C9_13 
REMARK    5  A    between atoms: N3_24  and  C19_25 
REMARK    6  A    between atoms: C19_25  and  C20_26 
REMARK    7  A    between atoms: C20_26  and  O3_27 
REMARK    8  A    between atoms: C20_26  and  C21_29 
REMARK    9  A    between atoms: C21_29  and  C22_30 
REMARK   10  A    between atoms: C22_30  and  C23_31 
REMARK   11  A    between atoms: C22_30  and  C30_38 
REMARK   12  A    between atoms: C23_31  and  C24_32 
REMARK       I    between atoms: C30_38  and  N4_40 
REMARK   13  A    between atoms: N4_40  and  C31_42 
REMARK   14  A    between atoms: C39_50  and  O5_51 
ROOT
HETATM    1  C20 UNL     1      14.286  24.353   4.954  1.00  0.00     0.150 C 
ENDROOT
BRANCH   1   2
HETATM    2  C19 UNL     1      13.122  25.211   4.525  1.00  0.00     0.305 C 
BRANCH   2   3
HETATM    3  N3  UNL     1      11.860  24.580   4.403  1.00  0.00     0.108 N 
HETATM    4  C6  UNL     1      10.769  25.472   4.845  1.00  0.00     0.342 C 
HETATM    5  C7  UNL     1       9.497  25.258   4.104  1.00  0.00     0.318 C 
HETATM    6  N2  UNL     1       9.623  25.607   2.718  1.00  0.00     0.098 N 
HETATM    7  C17 UNL     1      10.928  25.201   2.231  1.00  0.00     0.303 C 
HETATM    8  C18 UNL     1      11.471  24.101   3.123  1.00  0.00     0.303 C 
BRANCH   4   9
HETATM    9  C5  UNL     1      10.521  25.193   6.291  1.00  0.00     0.253 C 
HETATM   10  N1  UNL     1      10.127  26.232   7.189  1.00  0.00    -0.351 N 
ATOM     11  H1  UNL     1      10.012  27.173   6.810  1.00  0.00     0.163 HD
HETATM   12  O1  UNL     1      10.639  24.057   6.815  1.00  0.00    -0.271 OA
BRANCH  10  13
HETATM   13  C2  UNL     1       9.881  26.040   8.584  1.00  0.00     0.022 C 
HETATM   14  C1  UNL     1       8.902  24.905   8.845  1.00  0.00     0.037 C 
HETATM   15  C3  UNL     1      11.118  25.765   9.397  1.00  0.00     0.037 C 
HETATM   16  C4  UNL     1       9.222  27.289   9.181  1.00  0.00     0.037 C 
ENDBRANCH  10  13
ENDBRANCH   4   9
BRANCH   6  17
HETATM   17  C8  UNL     1       8.566  25.049   1.903  1.00  0.00     0.337 C 
BRANCH  17  18
HETATM   18  C9  UNL     1       8.427  23.571   2.076  1.00  0.00     0.083 A 
HETATM   19  C10 UNL     1       7.286  22.968   2.589  1.00  0.00     0.049 A 
HETATM   20  C11 UNL     1       7.486  21.602   2.615  1.00  0.00     0.000 A 
HETATM   21  C12 UNL     1       6.758  20.488   3.000  1.00  0.00     0.014 A 
HETATM   22  C16 UNL     1       8.768  21.440   2.106  1.00  0.00     0.086 A 
HETATM   23  C13 UNL     1       7.254  19.214   2.898  1.00  0.00     0.001 A 
HETATM   24  C14 UNL     1       8.517  19.051   2.397  1.00  0.00     0.003 A 
HETATM   25  C15 UNL     1       9.258  20.155   2.008  1.00  0.00     0.038 A 
HETATM   26  O2  UNL     1       9.286  22.613   1.802  1.00  0.00    -0.312 OA
ENDBRANCH  17  18
ENDBRANCH   6  17
ENDBRANCH   2   3
ENDBRANCH   1   2
BRANCH   1  27
HETATM   27  O3  UNL     1      15.497  24.821   4.546  1.00  0.00    -0.394 OA
ATOM     28  H3  UNL     1      16.095  25.016   5.258  1.00  0.00     0.210 HD
ENDBRANCH   1  27
BRANCH   1  29
HETATM   29  C21 UNL     1      14.157  23.813   6.334  1.00  0.00     0.073 C 
BRANCH  29  30
HETATM   30  C22 UNL     1      15.252  22.991   6.868  1.00  0.00    -0.006 C 
BRANCH  30  31
HETATM   31  C23 UNL     1      15.531  23.208   8.312  1.00  0.00     0.078 C 
BRANCH  31  32
HETATM   32  C24 UNL     1      16.391  22.241   8.984  1.00  0.00    -0.054 A 
HETATM   33  C25 UNL     1      15.860  21.317   9.847  1.00  0.00     0.007 A 
HETATM   34  C26 UNL     1      16.675  20.389  10.434  1.00  0.00     0.001 A 
HETATM   35  C27 UNL     1      18.020  20.348  10.190  1.00  0.00     0.000 A 
HETATM   36  C28 UNL     1      18.576  21.269   9.326  1.00  0.00     0.001 A 
HETATM   37  C29 UNL     1      17.735  22.210   8.732  1.00  0.00     0.007 A 
ENDBRANCH  31  32
ENDBRANCH  30  31
BRANCH  30  38
HETATM   38  C30 UNL     1      15.310  21.609   6.457  1.00  0.00     0.244 C 
HETATM   39  O4  UNL     1      14.348  20.843   6.639  1.00  0.00    -0.268 OA
HETATM   40  N4  UNL     1      16.446  21.018   5.822  1.00  0.00    -0.346 N 
ATOM     41  H4  UNL     1      17.253  21.619   5.655  1.00  0.00     0.163 HD
BRANCH  40  42
HETATM   42  C31 UNL     1      16.547  19.645   5.398  1.00  0.00     0.147 C 
HETATM   43  C32 UNL     1      16.312  19.538   3.917  1.00  0.00    -0.027 A 
HETATM   44  C33 UNL     1      15.334  20.045   3.077  1.00  0.00     0.010 A 
HETATM   45  C37 UNL     1      17.300  18.768   3.356  1.00  0.00    -0.047 A 
HETATM   46  C34 UNL     1      15.325  19.801   1.712  1.00  0.00     0.001 A 
HETATM   47  C35 UNL     1      16.319  19.036   1.198  1.00  0.00     0.001 A 
HETATM   48  C36 UNL     1      17.305  18.519   2.009  1.00  0.00     0.008 A 
HETATM   49  C38 UNL     1      18.244  18.315   4.401  1.00  0.00     0.073 C 
HETATM   50  C39 UNL     1      18.003  19.259   5.525  1.00  0.00     0.149 C 
BRANCH  50  51
HETATM   51  O5  UNL     1      18.769  20.428   5.326  1.00  0.00    -0.393 OA
ATOM     52  H5  UNL     1      19.666  20.224   5.564  1.00  0.00     0.210 HD
ENDBRANCH  50  51
ENDBRANCH  40  42
ENDBRANCH  30  38
ENDBRANCH  29  30
ENDBRANCH   1  29
TORSDOF 14
ENDMDL
