MODEL 8
REMARK VINA RESULT: -10.596281729      2.025     11.049
REMARK  14 active torsions:
REMARK  status: ('A' for Active; 'I' for Inactive)
REMARK    1  A    between atoms: C2_2  and  N1_5 
REMARK       I    between atoms: N1_5  and  C5_7 
REMARK    2  A    between atoms: C5_7  and  C6_9 
REMARK    3  A    between atoms: N2_11  and  C8_12 
REMARK    4  A    between atoms: C8_12  and  C9_13 
REMARK    5  A    between atoms: N3_24  and  C19_25 
REMARK    6  A    between atoms: C19_25  and  C20_26 
REMARK    7  A    between atoms: C20_26  and  O3_27 
REMARK    8  A    between atoms: C20_26  and  C21_29 
REMARK    9  A    between atoms: C21_29  and  C22_30 
REMARK   10  A    between atoms: C22_30  and  C23_31 
REMARK   11  A    between atoms: C22_30  and  C30_38 
REMARK   12  A    between atoms: C23_31  and  C24_32 
REMARK       I    between atoms: C30_38  and  N4_40 
REMARK   13  A    between atoms: N4_40  and  C31_42 
REMARK   14  A    between atoms: C39_50  and  O5_51 
ROOT
HETATM    1  C20 UNL     1      14.032  24.275   4.733  1.00  0.00     0.150 C 
ENDROOT
BRANCH   1   2
HETATM    2  C19 UNL     1      15.288  23.504   5.054  1.00  0.00     0.305 C 
BRANCH   2   3
HETATM    3  N3  UNL     1      15.209  22.529   6.078  1.00  0.00     0.108 N 
HETATM    4  C6  UNL     1      16.357  21.603   6.027  1.00  0.00     0.342 C 
HETATM    5  C7  UNL     1      16.767  21.098   7.366  1.00  0.00     0.318 C 
HETATM    6  N2  UNL     1      17.271  22.150   8.201  1.00  0.00     0.098 N 
HETATM    7  C17 UNL     1      16.491  23.356   7.987  1.00  0.00     0.303 C 
HETATM    8  C18 UNL     1      15.135  22.977   7.425  1.00  0.00     0.303 C 
BRANCH   4   9
HETATM    9  C5  UNL     1      15.953  20.435   5.190  1.00  0.00     0.253 C 
HETATM   10  N1  UNL     1      16.672  20.088   4.004  1.00  0.00    -0.351 N 
ATOM     11  H1  UNL     1      17.477  20.662   3.749  1.00  0.00     0.163 HD
HETATM   12  O1  UNL     1      14.977  19.689   5.454  1.00  0.00    -0.271 OA
BRANCH  10  13
HETATM   13  C2  UNL     1      16.338  18.992   3.151  1.00  0.00     0.022 C 
HETATM   14  C1  UNL     1      16.019  17.728   3.937  1.00  0.00     0.037 C 
HETATM   15  C3  UNL     1      15.176  19.256   2.231  1.00  0.00     0.037 C 
HETATM   16  C4  UNL     1      17.535  18.626   2.267  1.00  0.00     0.037 C 
ENDBRANCH  10  13
ENDBRANCH   4   9
BRANCH   6  17
HETATM   17  C8  UNL     1      17.297  21.788   9.602  1.00  0.00     0.337 C 
BRANCH  17  18
HETATM   18  C9  UNL     1      17.691  20.363   9.818  1.00  0.00     0.083 A 
HETATM   19  C10 UNL     1      16.846  19.417  10.384  1.00  0.00     0.049 A 
HETATM   20  C11 UNL     1      17.514  18.210  10.440  1.00  0.00     0.000 A 
HETATM   21  C12 UNL     1      17.233  16.926  10.878  1.00  0.00     0.014 A 
HETATM   22  C16 UNL     1      18.761  18.490   9.895  1.00  0.00     0.086 A 
HETATM   23  C13 UNL     1      18.143  15.905  10.795  1.00  0.00     0.001 A 
HETATM   24  C14 UNL     1      19.372  16.177  10.259  1.00  0.00     0.003 A 
HETATM   25  C15 UNL     1      19.670  17.456   9.816  1.00  0.00     0.038 A 
HETATM   26  O2  UNL     1      18.827  19.759   9.543  1.00  0.00    -0.312 OA
ENDBRANCH  17  18
ENDBRANCH   6  17
ENDBRANCH   2   3
ENDBRANCH   1   2
BRANCH   1  27
HETATM   27  O3  UNL     1      14.244  25.594   4.476  1.00  0.00    -0.394 OA
ATOM     28  H3  UNL     1      13.519  26.157   4.723  1.00  0.00     0.210 HD
ENDBRANCH   1  27
BRANCH   1  29
HETATM   29  C21 UNL     1      13.069  23.526   3.882  1.00  0.00     0.073 C 
BRANCH  29  30
HETATM   30  C22 UNL     1      11.810  24.184   3.507  1.00  0.00    -0.006 C 
BRANCH  30  31
HETATM   31  C23 UNL     1      11.207  23.677   2.245  1.00  0.00     0.078 C 
BRANCH  31  32
HETATM   32  C24 UNL     1       9.831  24.060   1.955  1.00  0.00    -0.054 A 
HETATM   33  C25 UNL     1       8.807  23.165   2.124  1.00  0.00     0.007 A 
HETATM   34  C26 UNL     1       7.518  23.554   1.890  1.00  0.00     0.001 A 
HETATM   35  C27 UNL     1       7.206  24.823   1.487  1.00  0.00     0.000 A 
HETATM   36  C28 UNL     1       8.219  25.741   1.309  1.00  0.00     0.001 A 
HETATM   37  C29 UNL     1       9.532  25.333   1.552  1.00  0.00     0.007 A 
ENDBRANCH  31  32
ENDBRANCH  30  31
BRANCH  30  38
HETATM   38  C30 UNL     1      10.852  24.441   4.556  1.00  0.00     0.244 C 
HETATM   39  O4  UNL     1      10.455  23.529   5.301  1.00  0.00    -0.268 OA
HETATM   40  N4  UNL     1      10.295  25.730   4.821  1.00  0.00    -0.346 N 
ATOM     41  H4  UNL     1      10.600  26.502   4.229  1.00  0.00     0.163 HD
BRANCH  40  42
HETATM   42  C31 UNL     1       9.337  26.030   5.855  1.00  0.00     0.147 C 
HETATM   43  C32 UNL     1      10.039  26.521   7.090  1.00  0.00    -0.027 A 
HETATM   44  C33 UNL     1      11.126  26.048   7.809  1.00  0.00     0.010 A 
HETATM   45  C37 UNL     1       9.424  27.663   7.538  1.00  0.00    -0.047 A 
HETATM   46  C34 UNL     1      11.599  26.685   8.946  1.00  0.00     0.001 A 
HETATM   47  C35 UNL     1      10.964  27.810   9.354  1.00  0.00     0.001 A 
HETATM   48  C36 UNL     1       9.881  28.303   8.659  1.00  0.00     0.008 A 
HETATM   49  C38 UNL     1       8.291  28.008   6.653  1.00  0.00     0.073 C 
HETATM   50  C39 UNL     1       8.582  27.258   5.401  1.00  0.00     0.149 C 
BRANCH  50  51
HETATM   51  O5  UNL     1       9.456  28.018   4.593  1.00  0.00    -0.393 OA
ATOM     52  H5  UNL     1       9.939  28.600   5.168  1.00  0.00     0.210 HD
ENDBRANCH  50  51
ENDBRANCH  40  42
ENDBRANCH  30  38
ENDBRANCH  29  30
ENDBRANCH   1  29
TORSDOF 14
ENDMDL
