MODEL 6
REMARK VINA RESULT: -10.714988514      2.302     11.219
REMARK  14 active torsions:
REMARK  status: ('A' for Active; 'I' for Inactive)
REMARK    1  A    between atoms: C2_2  and  N1_5 
REMARK       I    between atoms: N1_5  and  C5_7 
REMARK    2  A    between atoms: C5_7  and  C6_9 
REMARK    3  A    between atoms: N2_11  and  C8_12 
REMARK    4  A    between atoms: C8_12  and  C9_13 
REMARK    5  A    between atoms: N3_24  and  C19_25 
REMARK    6  A    between atoms: C19_25  and  C20_26 
REMARK    7  A    between atoms: C20_26  and  O3_27 
REMARK    8  A    between atoms: C20_26  and  C21_29 
REMARK    9  A    between atoms: C21_29  and  C22_30 
REMARK   10  A    between atoms: C22_30  and  C23_31 
REMARK   11  A    between atoms: C22_30  and  C30_38 
REMARK   12  A    between atoms: C23_31  and  C24_32 
REMARK       I    between atoms: C30_38  and  N4_40 
REMARK   13  A    between atoms: N4_40  and  C31_42 
REMARK   14  A    between atoms: C39_50  and  O5_51 
ROOT
HETATM    1  C20 UNL     1      14.671  23.521   4.857  1.00  0.00     0.150 C 
ENDROOT
BRANCH   1   2
HETATM    2  C19 UNL     1      15.448  23.465   6.148  1.00  0.00     0.305 C 
BRANCH   2   3
HETATM    3  N3  UNL     1      15.302  22.302   6.944  1.00  0.00     0.108 N 
HETATM    4  C6  UNL     1      16.396  21.342   6.697  1.00  0.00     0.342 C 
HETATM    5  C7  UNL     1      16.762  20.544   7.898  1.00  0.00     0.318 C 
HETATM    6  N2  UNL     1      17.316  21.365   8.935  1.00  0.00     0.098 N 
HETATM    7  C17 UNL     1      16.610  22.632   8.982  1.00  0.00     0.303 C 
HETATM    8  C18 UNL     1      15.240  22.460   8.355  1.00  0.00     0.303 C 
BRANCH   4   9
HETATM    9  C5  UNL     1      15.934  20.402   5.633  1.00  0.00     0.253 C 
HETATM   10  N1  UNL     1      16.720  20.161   4.464  1.00  0.00    -0.351 N 
ATOM     11  H1  UNL     1      17.613  20.648   4.381  1.00  0.00     0.163 HD
HETATM   12  O1  UNL     1      14.849  19.770   5.680  1.00  0.00    -0.271 OA
BRANCH  10  13
HETATM   13  C2  UNL     1      16.338  19.284   3.403  1.00  0.00     0.022 C 
HETATM   14  C1  UNL     1      15.788  17.962   3.919  1.00  0.00     0.037 C 
HETATM   15  C3  UNL     1      15.315  19.862   2.462  1.00  0.00     0.037 C 
HETATM   16  C4  UNL     1      17.562  18.911   2.559  1.00  0.00     0.037 C 
ENDBRANCH  10  13
ENDBRANCH   4   9
BRANCH   6  17
HETATM   17  C8  UNL     1      17.308  20.715  10.228  1.00  0.00     0.337 C 
BRANCH  17  18
HETATM   18  C9  UNL     1      17.946  19.364  10.195  1.00  0.00     0.083 A 
HETATM   19  C10 UNL     1      17.261  18.191  10.488  1.00  0.00     0.049 A 
HETATM   20  C11 UNL     1      18.137  17.131  10.365  1.00  0.00     0.000 A 
HETATM   21  C12 UNL     1      18.075  15.755  10.517  1.00  0.00     0.014 A 
HETATM   22  C16 UNL     1      19.337  17.725   9.997  1.00  0.00     0.086 A 
HETATM   23  C13 UNL     1      19.161  14.944  10.316  1.00  0.00     0.001 A 
HETATM   24  C14 UNL     1      20.345  15.526   9.953  1.00  0.00     0.003 A 
HETATM   25  C15 UNL     1      20.423  16.901   9.797  1.00  0.00     0.038 A 
HETATM   26  O2  UNL     1      19.186  19.032   9.907  1.00  0.00    -0.312 OA
ENDBRANCH  17  18
ENDBRANCH   6  17
ENDBRANCH   2   3
ENDBRANCH   1   2
BRANCH   1  27
HETATM   27  O3  UNL     1      15.370  23.091   3.772  1.00  0.00    -0.394 OA
ATOM     28  H3  UNL     1      16.024  23.708   3.465  1.00  0.00     0.210 HD
ENDBRANCH   1  27
BRANCH   1  29
HETATM   29  C21 UNL     1      13.246  23.116   4.996  1.00  0.00     0.073 C 
BRANCH  29  30
HETATM   30  C22 UNL     1      12.205  24.079   4.609  1.00  0.00    -0.006 C 
BRANCH  30  31
HETATM   31  C23 UNL     1      11.008  23.464   3.978  1.00  0.00     0.078 C 
BRANCH  31  32
HETATM   32  C24 UNL     1      10.146  24.330   3.183  1.00  0.00    -0.054 A 
HETATM   33  C25 UNL     1      10.626  24.951   2.059  1.00  0.00     0.007 A 
HETATM   34  C26 UNL     1       9.792  25.724   1.301  1.00  0.00     0.001 A 
HETATM   35  C27 UNL     1       8.477  25.907   1.627  1.00  0.00     0.000 A 
HETATM   36  C28 UNL     1       7.971  25.294   2.754  1.00  0.00     0.001 A 
HETATM   37  C29 UNL     1       8.831  24.505   3.520  1.00  0.00     0.007 A 
ENDBRANCH  31  32
ENDBRANCH  30  31
BRANCH  30  38
HETATM   38  C30 UNL     1      11.903  25.143   5.536  1.00  0.00     0.244 C 
HETATM   39  O4  UNL     1      12.551  26.204   5.532  1.00  0.00    -0.268 OA
HETATM   40  N4  UNL     1      10.859  25.072   6.510  1.00  0.00    -0.346 N 
ATOM     41  H4  UNL     1      10.305  24.216   6.540  1.00  0.00     0.163 HD
BRANCH  40  42
HETATM   42  C31 UNL     1      10.525  26.107   7.454  1.00  0.00     0.147 C 
HETATM   43  C32 UNL     1       9.316  26.869   6.986  1.00  0.00    -0.027 A 
HETATM   44  C33 UNL     1       8.973  27.441   5.772  1.00  0.00     0.010 A 
HETATM   45  C37 UNL     1       8.423  26.983   8.022  1.00  0.00    -0.047 A 
HETATM   46  C34 UNL     1       7.775  28.113   5.578  1.00  0.00     0.001 A 
HETATM   47  C35 UNL     1       6.921  28.202   6.626  1.00  0.00     0.001 A 
HETATM   48  C36 UNL     1       7.236  27.643   7.845  1.00  0.00     0.008 A 
HETATM   49  C38 UNL     1       8.961  26.320   9.230  1.00  0.00     0.073 C 
HETATM   50  C39 UNL     1      10.011  25.412   8.694  1.00  0.00     0.149 C 
BRANCH  50  51
HETATM   51  O5  UNL     1       9.415  24.200   8.283  1.00  0.00    -0.393 OA
ATOM     52  H5  UNL     1       8.483  24.270   8.453  1.00  0.00     0.210 HD
ENDBRANCH  50  51
ENDBRANCH  40  42
ENDBRANCH  30  38
ENDBRANCH  29  30
ENDBRANCH   1  29
TORSDOF 14
ENDMDL
