MODEL 3
REMARK VINA RESULT: -6.732752037      3.315      6.102
REMARK  3 active torsions:
REMARK  status: ('A' for Active; 'I' for Inactive)
REMARK    1  A    between atoms: C1_2  and  C2_4 
REMARK       I    between atoms: C2_4  and  N1_6 
REMARK    2  A    between atoms: N1_6  and  C3_8 
REMARK    3  A    between atoms: C10_17  and  C11_18 
ROOT
HETATM    1  C3  UNL     1      44.311  12.929   1.250  1.00  0.00     0.054 A 
HETATM    2  C4  UNL     1      43.842  14.151   1.689  1.00  0.00     0.061 A 
HETATM    3  C5  UNL     1      44.383  14.751   2.835  1.00  0.00     0.044 A 
HETATM    4  N2  UNL     1      44.110  15.911   3.461  1.00  0.00    -0.365 N 
ATOM      5  H2  UNL     1      43.408  16.592   3.173  1.00  0.00     0.165 HD
HETATM    6  C6  UNL     1      44.920  16.023   4.530  1.00  0.00     0.089 A 
HETATM    7  C7  UNL     1      45.736  14.932   4.620  1.00  0.00     0.030 A 
HETATM    8  C8  UNL     1      45.386  14.123   3.532  1.00  0.00    -0.007 A 
HETATM    9  C9  UNL     1      45.859  12.916   3.108  1.00  0.00     0.034 A 
HETATM   10  C10 UNL     1      45.318  12.304   1.951  1.00  0.00     0.068 A 
ENDROOT
BRANCH   1  11
HETATM   11  N1  UNL     1      43.722  12.312   0.124  1.00  0.00    -0.317 N 
HETATM   12  C2  UNL     1      43.933  12.639  -1.237  1.00  0.00     0.322 C 
HETATM   13  O3  UNL     1      44.695  13.536  -1.578  1.00  0.00    -0.261 OA
ATOM     14  H1  UNL     1      43.074  11.548   0.312  1.00  0.00     0.169 HD
BRANCH  12  15
HETATM   15  C1  UNL     1      43.220  11.886  -2.291  1.00  0.00     0.270 C 
HETATM   16  O1  UNL     1      43.452  10.671  -2.476  1.00  0.00    -0.640 OA
HETATM   17  O2  UNL     1      42.283  12.512  -3.092  1.00  0.00    -0.640 OA
ENDBRANCH  12  15
ENDBRANCH   1  11
BRANCH  10  18
HETATM   18  C11 UNL     1      45.905  11.056   1.567  1.00  0.00     0.211 C 
HETATM   19  O4  UNL     1      46.014  10.067   2.289  1.00  0.00    -0.644 OA
HETATM   20  O5  UNL     1      46.431  10.860   0.258  1.00  0.00    -0.644 OA
ENDBRANCH  10  18
TORSDOF 3
ENDMDL
