MODEL 1
REMARK VINA RESULT: -8.412837107      0.000      0.000
REMARK  3 active torsions:
REMARK  status: ('A' for Active; 'I' for Inactive)
REMARK    1  A    between atoms: C1_2  and  C2_4 
REMARK       I    between atoms: C2_4  and  N1_6 
REMARK    2  A    between atoms: N1_6  and  C3_8 
REMARK    3  A    between atoms: C10_17  and  C11_18 
ROOT
HETATM    1  C3  UNL     1      44.810  14.001   2.356  1.00  0.00     0.054 A 
HETATM    2  C4  UNL     1      45.510  12.892   2.786  1.00  0.00     0.061 A 
HETATM    3  C5  UNL     1      45.501  11.709   2.033  1.00  0.00     0.044 A 
HETATM    4  N2  UNL     1      46.087  10.512   2.226  1.00  0.00    -0.365 N 
ATOM      5  H2  UNL     1      46.680  10.259   3.017  1.00  0.00     0.165 HD
HETATM    6  C6  UNL     1      45.761   9.705   1.200  1.00  0.00     0.089 A 
HETATM    7  C7  UNL     1      44.953  10.364   0.319  1.00  0.00     0.030 A 
HETATM    8  C8  UNL     1      44.791  11.646   0.860  1.00  0.00    -0.007 A 
HETATM    9  C9  UNL     1      44.096  12.734   0.424  1.00  0.00     0.034 A 
HETATM   10  C10 UNL     1      44.101  13.934   1.178  1.00  0.00     0.068 A 
ENDROOT
BRANCH   1  11
HETATM   11  N1  UNL     1      44.786  15.170   3.150  1.00  0.00    -0.317 N 
HETATM   12  C2  UNL     1      45.412  15.363   4.405  1.00  0.00     0.322 C 
HETATM   13  O3  UNL     1      46.073  14.483   4.942  1.00  0.00    -0.261 OA
ATOM     14  H1  UNL     1      44.260  15.961   2.778  1.00  0.00     0.169 HD
BRANCH  12  15
HETATM   15  C1  UNL     1      45.272  16.660   5.101  1.00  0.00     0.270 C 
HETATM   16  O1  UNL     1      46.233  17.154   5.732  1.00  0.00    -0.640 OA
HETATM   17  O2  UNL     1      44.075  17.351   5.068  1.00  0.00    -0.640 OA
ENDBRANCH  12  15
ENDBRANCH   1  11
BRANCH  10  18
HETATM   18  C11 UNL     1      43.370  15.031   0.619  1.00  0.00     0.211 C 
HETATM   19  O4  UNL     1      42.835  15.932   1.261  1.00  0.00    -0.644 OA
HETATM   20  O5  UNL     1      43.203  15.163  -0.789  1.00  0.00    -0.644 OA
ENDBRANCH  10  18
TORSDOF 3
ENDMDL
