MODEL 5
REMARK VINA RESULT: -6.280306729      3.906      6.832
REMARK  3 active torsions:
REMARK  status: ('A' for Active; 'I' for Inactive)
REMARK    1  A    between atoms: C1_2  and  C2_4 
REMARK       I    between atoms: C2_4  and  N1_6 
REMARK    2  A    between atoms: N1_6  and  C3_8 
REMARK    3  A    between atoms: C10_17  and  C11_18 
ROOT
HETATM    1  C3  UNL     1      44.315  11.182   0.943  1.00  0.00     0.054 A 
HETATM    2  C4  UNL     1      43.660  12.393   1.037  1.00  0.00     0.061 A 
HETATM    3  C5  UNL     1      44.151  13.404   1.875  1.00  0.00     0.044 A 
HETATM    4  N2  UNL     1      43.710  14.648   2.142  1.00  0.00    -0.365 N 
ATOM      5  H2  UNL     1      42.880  15.085   1.742  1.00  0.00     0.165 HD
HETATM    6  C6  UNL     1      44.549  15.219   3.026  1.00  0.00     0.089 A 
HETATM    7  C7  UNL     1      45.553  14.354   3.352  1.00  0.00     0.030 A 
HETATM    8  C8  UNL     1      45.291  13.194   2.611  1.00  0.00    -0.007 A 
HETATM    9  C9  UNL     1      45.948  12.003   2.527  1.00  0.00     0.034 A 
HETATM   10  C10 UNL     1      45.459  10.976   1.682  1.00  0.00     0.068 A 
ENDROOT
BRANCH   1  11
HETATM   11  N1  UNL     1      43.781  10.153   0.134  1.00  0.00    -0.317 N 
HETATM   12  C2  UNL     1      43.691  10.137  -1.279  1.00  0.00     0.322 C 
HETATM   13  O3  UNL     1      44.098  11.067  -1.965  1.00  0.00    -0.261 OA
ATOM     14  H1  UNL     1      43.421   9.333   0.621  1.00  0.00     0.169 HD
BRANCH  12  15
HETATM   15  C1  UNL     1      43.091   8.971  -1.961  1.00  0.00     0.270 C 
HETATM   16  O1  UNL     1      43.346   8.732  -3.162  1.00  0.00    -0.640 OA
HETATM   17  O2  UNL     1      42.235   8.122  -1.283  1.00  0.00    -0.640 OA
ENDBRANCH  12  15
ENDBRANCH   1  11
BRANCH  10  18
HETATM   18  C11 UNL     1      46.238   9.776   1.634  1.00  0.00     0.211 C 
HETATM   19  O4  UNL     1      46.631   9.142   2.610  1.00  0.00    -0.644 OA
HETATM   20  O5  UNL     1      46.635   9.204   0.391  1.00  0.00    -0.644 OA
ENDBRANCH  10  18
TORSDOF 3
ENDMDL
