MODEL 2
REMARK VINA RESULT: -8.355363136      0.077      1.059
REMARK  3 active torsions:
REMARK  status: ('A' for Active; 'I' for Inactive)
REMARK    1  A    between atoms: C1_2  and  C2_4 
REMARK       I    between atoms: C2_4  and  N1_6 
REMARK    2  A    between atoms: N1_6  and  C3_8 
REMARK    3  A    between atoms: C10_17  and  C11_18 
ROOT
HETATM    1  C3  UNL     1      44.792  13.997   2.337  1.00  0.00     0.054 A 
HETATM    2  C4  UNL     1      45.487  12.892   2.785  1.00  0.00     0.061 A 
HETATM    3  C5  UNL     1      45.495  11.706   2.038  1.00  0.00     0.044 A 
HETATM    4  N2  UNL     1      46.081  10.512   2.247  1.00  0.00    -0.365 N 
ATOM      5  H2  UNL     1      46.660  10.264   3.050  1.00  0.00     0.165 HD
HETATM    6  C6  UNL     1      45.776   9.699   1.219  1.00  0.00     0.089 A 
HETATM    7  C7  UNL     1      44.982  10.351   0.320  1.00  0.00     0.030 A 
HETATM    8  C8  UNL     1      44.807  11.635   0.852  1.00  0.00    -0.007 A 
HETATM    9  C9  UNL     1      44.117  12.720   0.398  1.00  0.00     0.034 A 
HETATM   10  C10 UNL     1      44.104  13.922   1.146  1.00  0.00     0.068 A 
ENDROOT
BRANCH   1  11
HETATM   11  N1  UNL     1      44.750  15.170   3.125  1.00  0.00    -0.317 N 
HETATM   12  C2  UNL     1      45.348  15.369   4.392  1.00  0.00     0.322 C 
HETATM   13  O3  UNL     1      45.996  14.492   4.948  1.00  0.00    -0.261 OA
ATOM     14  H1  UNL     1      44.232  15.959   2.737  1.00  0.00     0.169 HD
BRANCH  12  15
HETATM   15  C1  UNL     1      45.192  16.669   5.080  1.00  0.00     0.270 C 
HETATM   16  O1  UNL     1      44.104  17.284   5.044  1.00  0.00    -0.640 OA
HETATM   17  O2  UNL     1      46.249  17.229   5.773  1.00  0.00    -0.640 OA
ENDBRANCH  12  15
ENDBRANCH   1  11
BRANCH  10  18
HETATM   18  C11 UNL     1      43.381  15.014   0.569  1.00  0.00     0.211 C 
HETATM   19  O4  UNL     1      43.259  15.232  -0.634  1.00  0.00    -0.644 OA
HETATM   20  O5  UNL     1      42.719  15.974   1.387  1.00  0.00    -0.644 OA
ENDBRANCH  10  18
TORSDOF 3
ENDMDL
