MODEL 4
REMARK VINA RESULT: -6.630817649      3.855      5.959
REMARK  3 active torsions:
REMARK  status: ('A' for Active; 'I' for Inactive)
REMARK    1  A    between atoms: C1_2  and  C2_4 
REMARK       I    between atoms: C2_4  and  N1_6 
REMARK    2  A    between atoms: N1_6  and  C3_8 
REMARK    3  A    between atoms: C10_17  and  C11_18 
ROOT
HETATM    1  C3  UNL     1      45.430  11.381   1.798  1.00  0.00     0.054 A 
HETATM    2  C4  UNL     1      45.760  12.354   2.719  1.00  0.00     0.061 A 
HETATM    3  C5  UNL     1      45.083  13.581   2.731  1.00  0.00     0.044 A 
HETATM    4  N2  UNL     1      45.209  14.675   3.507  1.00  0.00    -0.365 N 
ATOM      5  H2  UNL     1      45.873  14.788   4.273  1.00  0.00     0.165 HD
HETATM    6  C6  UNL     1      44.311  15.592   3.104  1.00  0.00     0.089 A 
HETATM    7  C7  UNL     1      43.584  15.112   2.054  1.00  0.00     0.030 A 
HETATM    8  C8  UNL     1      44.084  13.824   1.821  1.00  0.00    -0.007 A 
HETATM    9  C9  UNL     1      43.747  12.871   0.906  1.00  0.00     0.034 A 
HETATM   10  C10 UNL     1      44.426  11.628   0.888  1.00  0.00     0.068 A 
ENDROOT
BRANCH   1  11
HETATM   11  N1  UNL     1      46.155  10.168   1.764  1.00  0.00    -0.317 N 
HETATM   12  C2  UNL     1      47.199   9.821   0.873  1.00  0.00     0.322 C 
HETATM   13  O3  UNL     1      47.591  10.590   0.004  1.00  0.00    -0.261 OA
ATOM     14  H1  UNL     1      45.898   9.466   2.458  1.00  0.00     0.169 HD
BRANCH  12  15
HETATM   15  C1  UNL     1      47.843   8.495   0.980  1.00  0.00     0.270 C 
HETATM   16  O1  UNL     1      47.484   7.549   0.245  1.00  0.00    -0.640 OA
HETATM   17  O2  UNL     1      48.856   8.276   1.896  1.00  0.00    -0.640 OA
ENDBRANCH  12  15
ENDBRANCH   1  11
BRANCH  10  18
HETATM   18  C11 UNL     1      43.976  10.680  -0.085  1.00  0.00     0.211 C 
HETATM   19  O4  UNL     1      43.787   9.483   0.119  1.00  0.00    -0.644 OA
HETATM   20  O5  UNL     1      43.703  11.074  -1.427  1.00  0.00    -0.644 OA
ENDBRANCH  10  18
TORSDOF 3
ENDMDL
