MODEL 5
REMARK VINA RESULT: -7.182605211      2.767      4.874
REMARK  3 active torsions:
REMARK  status: ('A' for Active; 'I' for Inactive)
REMARK    1  A    between atoms: C1_2  and  C2_4 
REMARK       I    between atoms: C2_4  and  N1_6 
REMARK    2  A    between atoms: N1_6  and  C3_8 
REMARK    3  A    between atoms: C12_17  and  C13_18 
ROOT
HETATM    1  C3  UNL     1      43.471  14.355  -0.910  1.00  0.00     0.053 A 
HETATM    2  C4  UNL     1      43.532  13.255  -1.763  1.00  0.00     0.043 A 
HETATM    3  C5  UNL     1      43.756  11.967  -1.289  1.00  0.00    -0.024 A 
HETATM    4  C6  UNL     1      43.807  10.907  -2.180  1.00  0.00     0.012 A 
HETATM    5  C7  UNL     1      44.032   9.624  -1.685  1.00  0.00     0.001 A 
HETATM    6  C8  UNL     1      44.194   9.480  -0.323  1.00  0.00     0.001 A 
HETATM    7  C9  UNL     1      44.141  10.537   0.550  1.00  0.00     0.012 A 
HETATM    8  C10 UNL     1      43.915  11.832   0.067  1.00  0.00    -0.025 A 
HETATM    9  C11 UNL     1      43.857  12.905   0.919  1.00  0.00     0.033 A 
HETATM   10  C12 UNL     1      43.631  14.212   0.450  1.00  0.00     0.068 A 
ENDROOT
BRANCH   1  11
HETATM   11  N1  UNL     1      43.277  15.649  -1.425  1.00  0.00    -0.317 N 
HETATM   12  C2  UNL     1      44.025  16.236  -2.486  1.00  0.00     0.322 C 
HETATM   13  O3  UNL     1      44.943  15.644  -3.081  1.00  0.00    -0.261 OA
ATOM     14  H1  UNL     1      42.540  16.214  -1.004  1.00  0.00     0.169 HD
BRANCH  12  15
HETATM   15  C1  UNL     1      43.691  17.614  -2.899  1.00  0.00     0.270 C 
HETATM   16  O1  UNL     1      42.659  17.873  -3.544  1.00  0.00    -0.640 OA
HETATM   17  O2  UNL     1      44.552  18.626  -2.556  1.00  0.00    -0.640 OA
ENDBRANCH  12  15
ENDBRANCH   1  11
BRANCH  10  18
HETATM   18  C13 UNL     1      43.567  15.276   1.440  1.00  0.00     0.211 C 
HETATM   19  O4  UNL     1      44.300  15.411   2.415  1.00  0.00    -0.644 OA
HETATM   20  O5  UNL     1      42.578  16.289   1.321  1.00  0.00    -0.644 OA
ENDBRANCH  10  18
TORSDOF 3
ENDMDL
