MODEL 2
REMARK VINA RESULT: -7.757804910      1.445      2.032
REMARK  3 active torsions:
REMARK  status: ('A' for Active; 'I' for Inactive)
REMARK    1  A    between atoms: C1_2  and  C2_4 
REMARK       I    between atoms: C2_4  and  N1_6 
REMARK    2  A    between atoms: N1_6  and  C3_8 
REMARK    3  A    between atoms: C12_17  and  C13_18 
ROOT
HETATM    1  C3  UNL     1      44.030  13.843   1.366  1.00  0.00     0.053 A 
HETATM    2  C4  UNL     1      44.400  12.511   1.541  1.00  0.00     0.043 A 
HETATM    3  C5  UNL     1      44.313  11.581   0.509  1.00  0.00    -0.024 A 
HETATM    4  C6  UNL     1      44.694  10.269   0.735  1.00  0.00     0.012 A 
HETATM    5  C7  UNL     1      44.598   9.353  -0.312  1.00  0.00     0.001 A 
HETATM    6  C8  UNL     1      44.126   9.809  -1.524  1.00  0.00     0.001 A 
HETATM    7  C9  UNL     1      43.751  11.112  -1.735  1.00  0.00     0.012 A 
HETATM    8  C10 UNL     1      43.841  12.043  -0.693  1.00  0.00    -0.025 A 
HETATM    9  C11 UNL     1      43.474  13.351  -0.881  1.00  0.00     0.033 A 
HETATM   10  C12 UNL     1      43.559  14.299   0.156  1.00  0.00     0.068 A 
ENDROOT
BRANCH   1  11
HETATM   11  N1  UNL     1      44.099  14.750   2.439  1.00  0.00    -0.317 N 
HETATM   12  C2  UNL     1      45.129  14.789   3.423  1.00  0.00     0.322 C 
HETATM   13  O3  UNL     1      46.097  14.008   3.426  1.00  0.00    -0.261 OA
ATOM     14  H1  UNL     1      43.349  15.436   2.519  1.00  0.00     0.169 HD
BRANCH  12  15
HETATM   15  C1  UNL     1      45.040  15.807   4.489  1.00  0.00     0.270 C 
HETATM   16  O1  UNL     1      45.973  15.998   5.290  1.00  0.00    -0.640 OA
HETATM   17  O2  UNL     1      43.892  16.553   4.586  1.00  0.00    -0.640 OA
ENDBRANCH  12  15
ENDBRANCH   1  11
BRANCH  10  18
HETATM   18  C13 UNL     1      43.164  15.665  -0.154  1.00  0.00     0.211 C 
HETATM   19  O4  UNL     1      43.359  16.259  -1.210  1.00  0.00    -0.644 OA
HETATM   20  O5  UNL     1      42.484  16.440   0.823  1.00  0.00    -0.644 OA
ENDBRANCH  10  18
TORSDOF 3
ENDMDL
