MODEL 4
REMARK VINA RESULT: -7.219497769      3.984      6.880
REMARK  3 active torsions:
REMARK  status: ('A' for Active; 'I' for Inactive)
REMARK    1  A    between atoms: C1_2  and  C2_4 
REMARK       I    between atoms: C2_4  and  N1_6 
REMARK    2  A    between atoms: N1_6  and  C3_8 
REMARK    3  A    between atoms: C12_17  and  C13_18 
ROOT
HETATM    1  C3  UNL     1      44.418  11.696   0.673  1.00  0.00     0.053 A 
HETATM    2  C4  UNL     1      43.866  12.932   1.005  1.00  0.00     0.043 A 
HETATM    3  C5  UNL     1      44.427  13.750   1.981  1.00  0.00    -0.024 A 
HETATM    4  C6  UNL     1      43.840  14.970   2.274  1.00  0.00     0.012 A 
HETATM    5  C7  UNL     1      44.417  15.774   3.255  1.00  0.00     0.001 A 
HETATM    6  C8  UNL     1      45.550  15.307   3.885  1.00  0.00     0.001 A 
HETATM    7  C9  UNL     1      46.123  14.096   3.586  1.00  0.00     0.012 A 
HETATM    8  C10 UNL     1      45.554  13.277   2.603  1.00  0.00    -0.025 A 
HETATM    9  C11 UNL     1      46.109  12.064   2.286  1.00  0.00     0.033 A 
HETATM   10  C12 UNL     1      45.550  11.229   1.301  1.00  0.00     0.068 A 
ENDROOT
BRANCH   1  11
HETATM   11  N1  UNL     1      43.807  10.879  -0.295  1.00  0.00    -0.317 N 
HETATM   12  C2  UNL     1      43.793  11.128  -1.697  1.00  0.00     0.322 C 
HETATM   13  O3  UNL     1      44.340  12.116  -2.219  1.00  0.00    -0.261 OA
ATOM     14  H1  UNL     1      43.334  10.037   0.036  1.00  0.00     0.169 HD
BRANCH  12  15
HETATM   15  C1  UNL     1      43.096  10.164  -2.573  1.00  0.00     0.270 C 
HETATM   16  O1  UNL     1      42.301   9.322  -2.117  1.00  0.00    -0.640 OA
HETATM   17  O2  UNL     1      43.343  10.210  -3.922  1.00  0.00    -0.640 OA
ENDBRANCH  12  15
ENDBRANCH   1  11
BRANCH  10  18
HETATM   18  C13 UNL     1      46.229   9.971   1.026  1.00  0.00     0.211 C 
HETATM   19  O4  UNL     1      46.084   9.265   0.032  1.00  0.00    -0.644 OA
HETATM   20  O5  UNL     1      47.163   9.457   1.964  1.00  0.00    -0.644 OA
ENDBRANCH  10  18
TORSDOF 3
ENDMDL
