MODEL 1
REMARK VINA RESULT: -8.426807359      0.000      0.000
REMARK  3 active torsions:
REMARK  status: ('A' for Active; 'I' for Inactive)
REMARK    1  A    between atoms: C1_2  and  C2_4 
REMARK       I    between atoms: C2_4  and  N1_6 
REMARK    2  A    between atoms: N1_6  and  C3_8 
REMARK    3  A    between atoms: C12_17  and  C13_18 
ROOT
HETATM    1  C3  UNL     1      44.941  14.349   2.478  1.00  0.00     0.053 A 
HETATM    2  C4  UNL     1      45.715  13.207   2.672  1.00  0.00     0.043 A 
HETATM    3  C5  UNL     1      45.570  12.075   1.877  1.00  0.00    -0.024 A 
HETATM    4  C6  UNL     1      46.365  10.965   2.111  1.00  0.00     0.012 A 
HETATM    5  C7  UNL     1      46.204   9.841   1.303  1.00  0.00     0.001 A 
HETATM    6  C8  UNL     1      45.254   9.897   0.306  1.00  0.00     0.001 A 
HETATM    7  C9  UNL     1      44.471  11.003   0.083  1.00  0.00     0.012 A 
HETATM    8  C10 UNL     1      44.622  12.139   0.887  1.00  0.00    -0.025 A 
HETATM    9  C11 UNL     1      43.853  13.256   0.683  1.00  0.00     0.033 A 
HETATM   10  C12 UNL     1      43.992  14.406   1.483  1.00  0.00     0.068 A 
ENDROOT
BRANCH   1  11
HETATM   11  N1  UNL     1      45.089  15.465   3.322  1.00  0.00    -0.317 N 
HETATM   12  C2  UNL     1      46.281  15.825   4.013  1.00  0.00     0.322 C 
HETATM   13  O3  UNL     1      47.339  15.174   3.931  1.00  0.00    -0.261 OA
ATOM     14  H1  UNL     1      44.274  16.065   3.449  1.00  0.00     0.169 HD
BRANCH  12  15
HETATM   15  C1  UNL     1      46.259  17.029   4.867  1.00  0.00     0.270 C 
HETATM   16  O1  UNL     1      45.200  17.469   5.350  1.00  0.00    -0.640 OA
HETATM   17  O2  UNL     1      47.445  17.670   5.124  1.00  0.00    -0.640 OA
ENDBRANCH  12  15
ENDBRANCH   1  11
BRANCH  10  18
HETATM   18  C13 UNL     1      43.142  15.545   1.169  1.00  0.00     0.211 C 
HETATM   19  O4  UNL     1      42.599  16.295   1.975  1.00  0.00    -0.644 OA
HETATM   20  O5  UNL     1      42.876  15.871  -0.188  1.00  0.00    -0.644 OA
ENDBRANCH  10  18
TORSDOF 3
ENDMDL
