MODEL 3
REMARK VINA RESULT: -7.346114389      4.038      6.101
REMARK  3 active torsions:
REMARK  status: ('A' for Active; 'I' for Inactive)
REMARK    1  A    between atoms: C1_2  and  C2_4 
REMARK       I    between atoms: C2_4  and  N1_6 
REMARK    2  A    between atoms: N1_6  and  C3_8 
REMARK    3  A    between atoms: C12_17  and  C13_18 
ROOT
HETATM    1  C3  UNL     1      45.622  11.348   1.432  1.00  0.00     0.053 A 
HETATM    2  C4  UNL     1      46.047  12.254   2.402  1.00  0.00     0.043 A 
HETATM    3  C5  UNL     1      45.394  13.464   2.616  1.00  0.00    -0.024 A 
HETATM    4  C6  UNL     1      45.856  14.329   3.594  1.00  0.00     0.012 A 
HETATM    5  C7  UNL     1      45.188  15.536   3.792  1.00  0.00     0.001 A 
HETATM    6  C8  UNL     1      44.095  15.804   2.996  1.00  0.00     0.001 A 
HETATM    7  C9  UNL     1      43.646  14.938   2.030  1.00  0.00     0.012 A 
HETATM    8  C10 UNL     1      44.307  13.722   1.819  1.00  0.00    -0.025 A 
HETATM    9  C11 UNL     1      43.877  12.841   0.861  1.00  0.00     0.033 A 
HETATM   10  C12 UNL     1      44.531  11.614   0.637  1.00  0.00     0.068 A 
ENDROOT
BRANCH   1  11
HETATM   11  N1  UNL     1      46.325  10.148   1.218  1.00  0.00    -0.317 N 
HETATM   12  C2  UNL     1      47.450   9.992   0.358  1.00  0.00     0.322 C 
HETATM   13  O3  UNL     1      47.937  10.927  -0.301  1.00  0.00    -0.261 OA
ATOM     14  H1  UNL     1      46.002   9.322   1.721  1.00  0.00     0.169 HD
BRANCH  12  15
HETATM   15  C1  UNL     1      48.065   8.655   0.247  1.00  0.00     0.270 C 
HETATM   16  O1  UNL     1      47.545   7.749  -0.431  1.00  0.00    -0.640 OA
HETATM   17  O2  UNL     1      49.240   8.418   0.915  1.00  0.00    -0.640 OA
ENDBRANCH  12  15
ENDBRANCH   1  11
BRANCH  10  18
HETATM   18  C13 UNL     1      43.981  10.742  -0.390  1.00  0.00     0.211 C 
HETATM   19  O4  UNL     1      43.518  11.090  -1.472  1.00  0.00    -0.644 OA
HETATM   20  O5  UNL     1      43.948   9.338  -0.176  1.00  0.00    -0.644 OA
ENDBRANCH  10  18
TORSDOF 3
ENDMDL
