MODEL 1
REMARK VINA RESULT: -7.180528022      0.000      0.000
REMARK  3 active torsions:
REMARK  status: ('A' for Active; 'I' for Inactive)
REMARK    1  A    between atoms: C1_2  and  C2_4 
REMARK       I    between atoms: C2_4  and  N1_6 
REMARK    2  A    between atoms: N1_6  and  C3_8 
REMARK    3  A    between atoms: C6_12  and  C7_13 
ROOT
HETATM    1  C3  UNL     1      10.295  46.672  20.504  1.00  0.00     0.095 A 
HETATM    2  S1  UNL     1      12.016  46.665  20.675  1.00  0.00    -0.073 SA
HETATM    3  C4  UNL     1      12.419  45.870  19.244  1.00  0.00     0.016 A 
HETATM    4  C5  UNL     1      11.212  45.620  18.655  1.00  0.00    -0.021 A 
HETATM    5  C6  UNL     1      10.106  46.038  19.309  1.00  0.00     0.082 A 
HETATM    6  C8  UNL     1      11.351  44.884  17.329  1.00  0.00     0.067 C 
HETATM    7  C9  UNL     1      12.430  43.840  17.407  1.00  0.00     0.172 C 
HETATM    8  O6  UNL     1      13.469  44.092  18.246  1.00  0.00    -0.386 OA
HETATM    9  C10 UNL     1      13.677  45.419  18.534  1.00  0.00     0.214 C 
ENDROOT
BRANCH   1  10
HETATM   10  N1  UNL     1       9.351  47.231  21.442  1.00  0.00    -0.311 N 
HETATM   11  C2  UNL     1       9.518  48.608  21.822  1.00  0.00     0.323 C 
HETATM   12  O3  UNL     1      10.472  49.244  21.317  1.00  0.00    -0.260 OA
ATOM     13  H1  UNL     1       8.590  46.668  21.822  1.00  0.00     0.170 HD
BRANCH  11  14
HETATM   14  C1  UNL     1       8.610  49.244  22.759  1.00  0.00     0.270 C 
HETATM   15  O1  UNL     1       7.862  48.587  23.518  1.00  0.00    -0.640 OA
HETATM   16  O2  UNL     1       8.565  50.624  22.823  1.00  0.00    -0.640 OA
ENDBRANCH  11  14
ENDBRANCH   1  10
BRANCH   5  17
HETATM   17  C7  UNL     1       8.724  45.837  18.768  1.00  0.00     0.212 C 
HETATM   18  O4  UNL     1       7.808  45.307  19.446  1.00  0.00    -0.644 OA
HETATM   19  O5  UNL     1       8.357  46.216  17.495  1.00  0.00    -0.644 OA
ENDBRANCH   5  17
TORSDOF 3
ENDMDL
