MODEL 2
REMARK VINA RESULT: -6.421100204      0.831      1.123
REMARK  3 active torsions:
REMARK  status: ('A' for Active; 'I' for Inactive)
REMARK    1  A    between atoms: C1_2  and  C2_4 
REMARK       I    between atoms: C2_4  and  N1_6 
REMARK    2  A    between atoms: N1_6  and  C3_8 
REMARK    3  A    between atoms: C6_12  and  C7_13 
ROOT
HETATM    1  C3  UNL     1      10.333  46.252  20.192  1.00  0.00     0.095 A 
HETATM    2  S1  UNL     1      12.034  46.484  20.408  1.00  0.00    -0.073 SA
HETATM    3  C4  UNL     1      12.560  46.014  18.877  1.00  0.00     0.016 A 
HETATM    4  C5  UNL     1      11.409  45.682  18.220  1.00  0.00    -0.021 A 
HETATM    5  C6  UNL     1      10.249  45.806  18.903  1.00  0.00     0.082 A 
HETATM    6  C8  UNL     1      11.665  45.210  16.796  1.00  0.00     0.067 C 
HETATM    7  C9  UNL     1      12.896  44.349  16.730  1.00  0.00     0.172 C 
HETATM    8  O6  UNL     1      13.881  44.615  17.629  1.00  0.00    -0.386 OA
HETATM    9  C10 UNL     1      13.875  45.890  18.138  1.00  0.00     0.214 C 
ENDROOT
BRANCH   1  10
HETATM   10  N1  UNL     1       9.310  46.491  21.181  1.00  0.00    -0.311 N 
HETATM   11  C2  UNL     1       9.235  47.804  21.765  1.00  0.00     0.323 C 
HETATM   12  O3  UNL     1      10.060  48.664  21.379  1.00  0.00    -0.260 OA
ATOM     13  H1  UNL     1       8.662  45.753  21.458  1.00  0.00     0.170 HD
BRANCH  11  14
HETATM   14  C1  UNL     1       8.235  48.124  22.766  1.00  0.00     0.270 C 
HETATM   15  O1  UNL     1       8.333  49.121  23.518  1.00  0.00    -0.640 OA
HETATM   16  O2  UNL     1       7.129  47.306  22.900  1.00  0.00    -0.640 OA
ENDBRANCH  11  14
ENDBRANCH   1  10
BRANCH   5  17
HETATM   17  C7  UNL     1       8.918  45.485  18.297  1.00  0.00     0.212 C 
HETATM   18  O4  UNL     1       7.856  45.487  18.969  1.00  0.00    -0.644 OA
HETATM   19  O5  UNL     1       8.760  45.167  16.965  1.00  0.00    -0.644 OA
ENDBRANCH   5  17
TORSDOF 3
ENDMDL
