MODEL 5
REMARK VINA RESULT: -5.550371001      3.424      6.204
REMARK  3 active torsions:
REMARK  status: ('A' for Active; 'I' for Inactive)
REMARK    1  A    between atoms: C1_2  and  C2_4 
REMARK       I    between atoms: C2_4  and  N1_6 
REMARK    2  A    between atoms: N1_6  and  C3_8 
REMARK    3  A    between atoms: C6_12  and  C7_13 
ROOT
HETATM    1  C3  UNL     1      13.706  46.269  18.620  1.00  0.00     0.095 A 
HETATM    2  S1  UNL     1      12.534  46.320  19.891  1.00  0.00    -0.073 SA
HETATM    3  C4  UNL     1      11.230  45.634  19.074  1.00  0.00     0.016 A 
HETATM    4  C5  UNL     1      11.721  45.377  17.825  1.00  0.00    -0.021 A 
HETATM    5  C6  UNL     1      13.010  45.706  17.588  1.00  0.00     0.082 A 
HETATM    6  C8  UNL     1      10.681  44.753  16.905  1.00  0.00     0.067 C 
HETATM    7  C9  UNL     1       9.333  45.385  17.115  1.00  0.00     0.172 C 
HETATM    8  O6  UNL     1       9.060  45.850  18.363  1.00  0.00    -0.386 OA
HETATM    9  C10 UNL     1       9.791  45.272  19.373  1.00  0.00     0.214 C 
ENDROOT
BRANCH   1  10
HETATM   10  N1  UNL     1      15.071  46.732  18.703  1.00  0.00    -0.311 N 
HETATM   11  C2  UNL     1      16.015  45.911  19.414  1.00  0.00     0.323 C 
HETATM   12  O3  UNL     1      15.599  44.842  19.918  1.00  0.00    -0.260 OA
ATOM     13  H1  UNL     1      15.356  47.611  18.273  1.00  0.00     0.170 HD
BRANCH  11  14
HETATM   14  C1  UNL     1      17.405  46.306  19.542  1.00  0.00     0.270 C 
HETATM   15  O1  UNL     1      17.770  47.249  20.280  1.00  0.00    -0.640 OA
HETATM   16  O2  UNL     1      18.370  45.619  18.828  1.00  0.00    -0.640 OA
ENDBRANCH  11  14
ENDBRANCH   1  10
BRANCH   5  17
HETATM   17  C7  UNL     1      13.674  45.468  16.267  1.00  0.00     0.212 C 
HETATM   18  O4  UNL     1      14.192  46.397  15.598  1.00  0.00    -0.644 OA
HETATM   19  O5  UNL     1      13.766  44.218  15.692  1.00  0.00    -0.644 OA
ENDBRANCH   5  17
TORSDOF 3
ENDMDL
