MODEL 4
REMARK VINA RESULT: -5.643978274      1.360      1.506
REMARK  3 active torsions:
REMARK  status: ('A' for Active; 'I' for Inactive)
REMARK    1  A    between atoms: C1_2  and  C2_4 
REMARK       I    between atoms: C2_4  and  N1_6 
REMARK    2  A    between atoms: N1_6  and  C3_8 
REMARK    3  A    between atoms: C6_12  and  C7_13 
ROOT
HETATM    1  C3  UNL     1      10.708  45.905  19.661  1.00  0.00     0.095 A 
HETATM    2  S1  UNL     1      12.427  46.071  19.753  1.00  0.00    -0.073 SA
HETATM    3  C4  UNL     1      12.797  45.876  18.120  1.00  0.00     0.016 A 
HETATM    4  C5  UNL     1      11.582  45.683  17.527  1.00  0.00    -0.021 A 
HETATM    5  C6  UNL     1      10.493  45.700  18.327  1.00  0.00     0.082 A 
HETATM    6  C8  UNL     1      11.692  45.472  16.024  1.00  0.00     0.067 C 
HETATM    7  C9  UNL     1      12.885  44.619  15.689  1.00  0.00     0.172 C 
HETATM    8  O6  UNL     1      13.955  44.704  16.523  1.00  0.00    -0.386 OA
HETATM    9  C10 UNL     1      14.035  45.868  17.249  1.00  0.00     0.214 C 
ENDROOT
BRANCH   1  10
HETATM   10  N1  UNL     1       9.787  45.978  20.770  1.00  0.00    -0.311 N 
HETATM   11  C2  UNL     1       9.567  47.263  21.376  1.00  0.00     0.323 C 
HETATM   12  O3  UNL     1      10.185  48.247  20.906  1.00  0.00    -0.260 OA
ATOM     13  H1  UNL     1       9.308  45.144  21.113  1.00  0.00     0.170 HD
BRANCH  11  14
HETATM   14  C1  UNL     1       8.656  47.420  22.495  1.00  0.00     0.270 C 
HETATM   15  O1  UNL     1       7.741  46.599  22.736  1.00  0.00    -0.640 OA
HETATM   16  O2  UNL     1       8.797  48.510  23.333  1.00  0.00    -0.640 OA
ENDBRANCH  11  14
ENDBRANCH   1  10
BRANCH   5  17
HETATM   17  C7  UNL     1       9.103  45.513  17.804  1.00  0.00     0.212 C 
HETATM   18  O4  UNL     1       8.094  45.532  18.553  1.00  0.00    -0.644 OA
HETATM   19  O5  UNL     1       8.829  45.308  16.469  1.00  0.00    -0.644 OA
ENDBRANCH   5  17
TORSDOF 3
ENDMDL
