MODEL 6
REMARK VINA RESULT: -5.211314620      4.769      6.662
REMARK  3 active torsions:
REMARK  status: ('A' for Active; 'I' for Inactive)
REMARK    1  A    between atoms: C1_2  and  C2_4 
REMARK       I    between atoms: C2_4  and  N1_6 
REMARK    2  A    between atoms: N1_6  and  C3_8 
REMARK    3  A    between atoms: C6_12  and  C7_13 
ROOT
HETATM    1  C3  UNL     1      14.573  47.258  17.212  1.00  0.00     0.095 A 
HETATM    2  S1  UNL     1      14.025  47.404  15.578  1.00  0.00    -0.073 SA
HETATM    3  C4  UNL     1      12.934  46.120  15.552  1.00  0.00     0.016 A 
HETATM    4  C5  UNL     1      13.011  45.595  16.811  1.00  0.00    -0.021 A 
HETATM    5  C6  UNL     1      13.863  46.187  17.677  1.00  0.00     0.082 A 
HETATM    6  C8  UNL     1      12.095  44.394  17.001  1.00  0.00     0.067 C 
HETATM    7  C9  UNL     1      12.092  43.524  15.775  1.00  0.00     0.172 C 
HETATM    8  O6  UNL     1      12.292  44.143  14.581  1.00  0.00    -0.386 OA
HETATM    9  C10 UNL     1      11.984  45.481  14.561  1.00  0.00     0.214 C 
ENDROOT
BRANCH   1  10
HETATM   10  N1  UNL     1      15.550  48.102  17.859  1.00  0.00    -0.311 N 
HETATM   11  C2  UNL     1      16.923  47.676  17.838  1.00  0.00     0.323 C 
HETATM   12  O3  UNL     1      17.194  46.598  17.260  1.00  0.00    -0.260 OA
ATOM     13  H1  UNL     1      15.274  48.972  18.315  1.00  0.00     0.170 HD
BRANCH  11  14
HETATM   14  C1  UNL     1      17.965  48.468  18.466  1.00  0.00     0.270 C 
HETATM   15  O1  UNL     1      18.865  49.036  17.806  1.00  0.00    -0.640 OA
HETATM   16  O2  UNL     1      17.970  48.608  19.841  1.00  0.00    -0.640 OA
ENDBRANCH  11  14
ENDBRANCH   1  10
BRANCH   5  17
HETATM   17  C7  UNL     1      14.036  45.719  19.088  1.00  0.00     0.212 C 
HETATM   18  O4  UNL     1      15.123  45.255  19.514  1.00  0.00    -0.644 OA
HETATM   19  O5  UNL     1      13.020  45.761  20.019  1.00  0.00    -0.644 OA
ENDBRANCH   5  17
TORSDOF 3
ENDMDL
