MODEL 7
REMARK VINA RESULT: -5.092068854      3.778      6.339
REMARK  3 active torsions:
REMARK  status: ('A' for Active; 'I' for Inactive)
REMARK    1  A    between atoms: C1_2  and  C2_4 
REMARK       I    between atoms: C2_4  and  N1_6 
REMARK    2  A    between atoms: N1_6  and  C3_8 
REMARK    3  A    between atoms: C6_12  and  C7_13 
ROOT
HETATM    1  C3  UNL     1      14.073  46.486  18.233  1.00  0.00     0.095 A 
HETATM    2  S1  UNL     1      12.920  46.351  19.515  1.00  0.00    -0.073 SA
HETATM    3  C4  UNL     1      11.701  45.535  18.687  1.00  0.00     0.016 A 
HETATM    4  C5  UNL     1      12.205  45.379  17.426  1.00  0.00    -0.021 A 
HETATM    5  C6  UNL     1      13.440  45.873  17.189  1.00  0.00     0.082 A 
HETATM    6  C8  UNL     1      11.239  44.660  16.495  1.00  0.00     0.067 C 
HETATM    7  C9  UNL     1       9.825  45.113  16.737  1.00  0.00     0.172 C 
HETATM    8  O6  UNL     1       9.512  45.501  18.002  1.00  0.00    -0.386 OA
HETATM    9  C10 UNL     1      10.321  44.988  18.985  1.00  0.00     0.214 C 
ENDROOT
BRANCH   1  10
HETATM   10  N1  UNL     1      15.371  47.111  18.320  1.00  0.00    -0.311 N 
HETATM   11  C2  UNL     1      16.371  46.472  19.134  1.00  0.00     0.323 C 
HETATM   12  O3  UNL     1      16.058  45.410  19.719  1.00  0.00    -0.260 OA
ATOM     13  H1  UNL     1      15.573  47.978  17.820  1.00  0.00     0.170 HD
BRANCH  11  14
HETATM   14  C1  UNL     1      17.700  47.038  19.272  1.00  0.00     0.270 C 
HETATM   15  O1  UNL     1      18.738  46.380  19.027  1.00  0.00    -0.640 OA
HETATM   16  O2  UNL     1      17.835  48.349  19.687  1.00  0.00    -0.640 OA
ENDBRANCH  11  14
ENDBRANCH   1  10
BRANCH   5  17
HETATM   17  C7  UNL     1      14.112  45.760  15.856  1.00  0.00     0.212 C 
HETATM   18  O4  UNL     1      14.446  46.768  15.183  1.00  0.00    -0.644 OA
HETATM   19  O5  UNL     1      14.413  44.548  15.271  1.00  0.00    -0.644 OA
ENDBRANCH   5  17
TORSDOF 3
ENDMDL
