MODEL 3
REMARK VINA RESULT: -5.774151971      2.995      5.221
REMARK  3 active torsions:
REMARK  status: ('A' for Active; 'I' for Inactive)
REMARK    1  A    between atoms: C1_2  and  C2_4 
REMARK       I    between atoms: C2_4  and  N1_6 
REMARK    2  A    between atoms: N1_6  and  C3_8 
REMARK    3  A    between atoms: C6_12  and  C7_13 
ROOT
HETATM    1  C3  UNL     1      10.417  44.103  15.763  1.00  0.00     0.095 A 
HETATM    2  S1  UNL     1      11.943  43.498  15.219  1.00  0.00    -0.073 SA
HETATM    3  C4  UNL     1      12.844  43.760  16.619  1.00  0.00     0.016 A 
HETATM    4  C5  UNL     1      11.948  44.314  17.489  1.00  0.00    -0.021 A 
HETATM    5  C6  UNL     1      10.684  44.493  17.045  1.00  0.00     0.082 A 
HETATM    6  C8  UNL     1      12.572  44.645  18.837  1.00  0.00     0.067 C 
HETATM    7  C9  UNL     1      13.960  45.197  18.665  1.00  0.00     0.172 C 
HETATM    8  O6  UNL     1      14.667  44.757  17.590  1.00  0.00    -0.386 OA
HETATM    9  C10 UNL     1      14.266  43.543  17.087  1.00  0.00     0.214 C 
ENDROOT
BRANCH   1  10
HETATM   10  N1  UNL     1       9.198  44.153  14.991  1.00  0.00    -0.311 N 
HETATM   11  C2  UNL     1       9.010  45.272  14.106  1.00  0.00     0.323 C 
HETATM   12  O3  UNL     1       9.915  46.137  14.055  1.00  0.00    -0.260 OA
ATOM     13  H1  UNL     1       8.494  43.420  15.070  1.00  0.00     0.170 HD
BRANCH  11  14
HETATM   14  C1  UNL     1       7.813  45.394  13.295  1.00  0.00     0.270 C 
HETATM   15  O1  UNL     1       7.562  46.419  12.619  1.00  0.00    -0.640 OA
HETATM   16  O2  UNL     1       6.911  44.347  13.261  1.00  0.00    -0.640 OA
ENDBRANCH  11  14
ENDBRANCH   1  10
BRANCH   5  17
HETATM   17  C7  UNL     1       9.604  45.079  17.900  1.00  0.00     0.212 C 
HETATM   18  O4  UNL     1       8.418  45.194  17.500  1.00  0.00    -0.644 OA
HETATM   19  O5  UNL     1       9.829  45.535  19.181  1.00  0.00    -0.644 OA
ENDBRANCH   5  17
TORSDOF 3
ENDMDL
