MODEL 7
REMARK VINA RESULT: -5.500415569      3.544      5.234
REMARK  3 active torsions:
REMARK  status: ('A' for Active; 'I' for Inactive)
REMARK    1  A    between atoms: C1_2  and  C2_4 
REMARK       I    between atoms: C2_4  and  N1_6 
REMARK    2  A    between atoms: N1_6  and  C3_8 
REMARK    3  A    between atoms: C6_12  and  C7_13 
ROOT
HETATM    1  C3  UNL     1      10.135  44.195  15.035  1.00  0.00     0.095 A 
HETATM    2  S1  UNL     1      11.265  43.377  14.012  1.00  0.00    -0.073 SA
HETATM    3  C4  UNL     1      12.472  43.068  15.148  1.00  0.00     0.016 A 
HETATM    4  C5  UNL     1      11.982  43.605  16.304  1.00  0.00    -0.021 A 
HETATM    5  C6  UNL     1      10.765  44.191  16.248  1.00  0.00     0.082 A 
HETATM    6  C8  UNL     1      12.939  43.442  17.476  1.00  0.00     0.067 C 
HETATM    7  C9  UNL     1      14.362  43.657  17.039  1.00  0.00     0.172 C 
HETATM    8  O6  UNL     1      14.668  43.323  15.758  1.00  0.00    -0.386 OA
HETATM    9  C10 UNL     1      13.830  42.400  15.180  1.00  0.00     0.214 C 
ENDROOT
BRANCH   1  10
HETATM   10  N1  UNL     1       8.856  44.727  14.632  1.00  0.00    -0.311 N 
HETATM   11  C2  UNL     1       8.824  46.057  14.086  1.00  0.00     0.323 C 
HETATM   12  O3  UNL     1       9.908  46.677  13.989  1.00  0.00    -0.260 OA
ATOM     13  H1  UNL     1       8.002  44.177  14.732  1.00  0.00     0.170 HD
BRANCH  11  14
HETATM   14  C1  UNL     1       7.577  46.663  13.657  1.00  0.00     0.270 C 
HETATM   15  O1  UNL     1       7.260  46.764  12.449  1.00  0.00    -0.640 OA
HETATM   16  O2  UNL     1       6.699  47.146  14.609  1.00  0.00    -0.640 OA
ENDBRANCH  11  14
ENDBRANCH   1  10
BRANCH   5  17
HETATM   17  C7  UNL     1      10.109  44.808  17.443  1.00  0.00     0.212 C 
HETATM   18  O4  UNL     1       8.880  45.070  17.477  1.00  0.00    -0.644 OA
HETATM   19  O5  UNL     1      10.801  45.132  18.591  1.00  0.00    -0.644 OA
ENDBRANCH   5  17
TORSDOF 3
ENDMDL
