MODEL 2
REMARK VINA RESULT: -6.401738959      0.675      1.012
REMARK  3 active torsions:
REMARK  status: ('A' for Active; 'I' for Inactive)
REMARK    1  A    between atoms: C1_2  and  C2_4 
REMARK       I    between atoms: C2_4  and  N1_6 
REMARK    2  A    between atoms: N1_6  and  C3_8 
REMARK    3  A    between atoms: C6_12  and  C7_13 
ROOT
HETATM    1  C3  UNL     1      10.801  45.338  19.032  1.00  0.00     0.095 A 
HETATM    2  S1  UNL     1      12.468  45.375  19.492  1.00  0.00    -0.073 SA
HETATM    3  C4  UNL     1      13.156  44.908  18.026  1.00  0.00     0.016 A 
HETATM    4  C5  UNL     1      12.083  44.728  17.201  1.00  0.00    -0.021 A 
HETATM    5  C6  UNL     1      10.856  44.953  17.722  1.00  0.00     0.082 A 
HETATM    6  C8  UNL     1      12.489  44.285  15.802  1.00  0.00     0.067 C 
HETATM    7  C9  UNL     1      13.621  43.298  15.861  1.00  0.00     0.172 C 
HETATM    8  O6  UNL     1      14.490  43.421  16.899  1.00  0.00    -0.386 OA
HETATM    9  C10 UNL     1      14.543  44.669  17.470  1.00  0.00     0.214 C 
ENDROOT
BRANCH   1  10
HETATM   10  N1  UNL     1       9.678  45.650  19.883  1.00  0.00    -0.311 N 
HETATM   11  C2  UNL     1       9.851  46.680  20.872  1.00  0.00     0.323 C 
HETATM   12  O3  UNL     1      10.966  47.249  20.937  1.00  0.00    -0.260 OA
ATOM     13  H1  UNL     1       8.791  45.156  19.787  1.00  0.00     0.170 HD
BRANCH  11  14
HETATM   14  C1  UNL     1       8.770  47.053  21.765  1.00  0.00     0.270 C 
HETATM   15  O1  UNL     1       7.729  46.366  21.882  1.00  0.00    -0.640 OA
HETATM   16  O2  UNL     1       8.886  48.205  22.519  1.00  0.00    -0.640 OA
ENDBRANCH  11  14
ENDBRANCH   1  10
BRANCH   5  17
HETATM   17  C7  UNL     1       9.599  44.803  16.924  1.00  0.00     0.212 C 
HETATM   18  O4  UNL     1       8.490  45.235  17.327  1.00  0.00    -0.644 OA
HETATM   19  O5  UNL     1       9.565  44.183  15.693  1.00  0.00    -0.644 OA
ENDBRANCH   5  17
TORSDOF 3
ENDMDL
