MODEL 1
REMARK VINA RESULT: -6.628248597      0.000      0.000
REMARK  3 active torsions:
REMARK  status: ('A' for Active; 'I' for Inactive)
REMARK    1  A    between atoms: C1_2  and  C2_4 
REMARK       I    between atoms: C2_4  and  N1_6 
REMARK    2  A    between atoms: N1_6  and  C3_8 
REMARK    3  A    between atoms: C6_12  and  C7_13 
ROOT
HETATM    1  C3  UNL     1      10.463  45.646  19.488  1.00  0.00     0.095 A 
HETATM    2  S1  UNL     1      12.137  45.748  19.912  1.00  0.00    -0.073 SA
HETATM    3  C4  UNL     1      12.807  45.198  18.467  1.00  0.00     0.016 A 
HETATM    4  C5  UNL     1      11.723  44.942  17.676  1.00  0.00    -0.021 A 
HETATM    5  C6  UNL     1      10.502  45.175  18.206  1.00  0.00     0.082 A 
HETATM    6  C8  UNL     1      12.113  44.415  16.303  1.00  0.00     0.067 C 
HETATM    7  C9  UNL     1      13.268  43.457  16.405  1.00  0.00     0.172 C 
HETATM    8  O6  UNL     1      14.153  43.667  17.415  1.00  0.00    -0.386 OA
HETATM    9  C10 UNL     1      14.189  44.952  17.900  1.00  0.00     0.214 C 
ENDROOT
BRANCH   1  10
HETATM   10  N1  UNL     1       9.349  45.991  20.338  1.00  0.00    -0.311 N 
HETATM   11  C2  UNL     1       9.446  47.199  21.113  1.00  0.00     0.323 C 
HETATM   12  O3  UNL     1      10.490  47.883  21.005  1.00  0.00    -0.260 OA
ATOM     13  H1  UNL     1       8.520  45.398  20.388  1.00  0.00     0.170 HD
BRANCH  11  14
HETATM   14  C1  UNL     1       8.368  47.616  21.992  1.00  0.00     0.270 C 
HETATM   15  O1  UNL     1       8.427  48.663  22.677  1.00  0.00    -0.640 OA
HETATM   16  O2  UNL     1       7.230  46.836  22.080  1.00  0.00    -0.640 OA
ENDBRANCH  11  14
ENDBRANCH   1  10
BRANCH   5  17
HETATM   17  C7  UNL     1       9.234  44.946  17.444  1.00  0.00     0.212 C 
HETATM   18  O4  UNL     1       8.100  45.121  17.957  1.00  0.00    -0.644 OA
HETATM   19  O5  UNL     1       9.217  44.529  16.130  1.00  0.00    -0.644 OA
ENDBRANCH   5  17
TORSDOF 3
ENDMDL
