MODEL 6
REMARK VINA RESULT: -5.510777519      3.913      6.250
REMARK  3 active torsions:
REMARK  status: ('A' for Active; 'I' for Inactive)
REMARK    1  A    between atoms: C1_2  and  C2_4 
REMARK       I    between atoms: C2_4  and  N1_6 
REMARK    2  A    between atoms: N1_6  and  C3_8 
REMARK    3  A    between atoms: C6_12  and  C7_13 
ROOT
HETATM    1  C3  UNL     1       9.977  43.730  14.270  1.00  0.00     0.095 A 
HETATM    2  S1  UNL     1      11.409  42.785  14.048  1.00  0.00    -0.073 SA
HETATM    3  C4  UNL     1      12.151  43.080  15.532  1.00  0.00     0.016 A 
HETATM    4  C5  UNL     1      11.279  43.909  16.178  1.00  0.00    -0.021 A 
HETATM    5  C6  UNL     1      10.146  44.247  15.524  1.00  0.00     0.082 A 
HETATM    6  C8  UNL     1      11.773  44.314  17.560  1.00  0.00     0.067 C 
HETATM    7  C9  UNL     1      13.254  44.574  17.544  1.00  0.00     0.172 C 
HETATM    8  O6  UNL     1      13.994  43.860  16.654  1.00  0.00    -0.386 OA
HETATM    9  C10 UNL     1      13.427  42.679  16.241  1.00  0.00     0.214 C 
ENDROOT
BRANCH   1  10
HETATM   10  N1  UNL     1       8.906  43.887  13.316  1.00  0.00    -0.311 N 
HETATM   11  C2  UNL     1       7.697  43.140  13.536  1.00  0.00     0.323 C 
HETATM   12  O3  UNL     1       7.641  42.397  14.543  1.00  0.00    -0.260 OA
ATOM     13  H1  UNL     1       9.004  44.507  12.512  1.00  0.00     0.170 HD
BRANCH  11  14
HETATM   14  C1  UNL     1       6.574  43.244  12.622  1.00  0.00     0.270 C 
HETATM   15  O1  UNL     1       6.622  42.809  11.448  1.00  0.00    -0.640 OA
HETATM   16  O2  UNL     1       5.405  43.840  13.055  1.00  0.00    -0.640 OA
ENDBRANCH  11  14
ENDBRANCH   1  10
BRANCH   5  17
HETATM   17  C7  UNL     1       9.104  45.139  16.122  1.00  0.00     0.212 C 
HETATM   18  O4  UNL     1       8.482  45.996  15.445  1.00  0.00    -0.644 OA
HETATM   19  O5  UNL     1       8.749  45.086  17.454  1.00  0.00    -0.644 OA
ENDBRANCH   5  17
TORSDOF 3
ENDMDL
