MODEL 4
REMARK VINA RESULT: -5.074881758      4.599      6.556
REMARK  3 active torsions:
REMARK  status: ('A' for Active; 'I' for Inactive)
REMARK    1  A    between atoms: C1_2  and  C2_4 
REMARK       I    between atoms: C2_4  and  N1_6 
REMARK    2  A    between atoms: N1_6  and  C3_8 
REMARK    3  A    between atoms: C6_12  and  C7_13 
ROOT
HETATM    1  C3  UNL     1      47.620  11.003  -0.384  1.00  0.00     0.095 A 
HETATM    2  S1  UNL     1      47.746  11.643  -2.012  1.00  0.00    -0.070 SA
HETATM    3  C4  UNL     1      46.208  12.324  -2.168  1.00  0.00     0.029 A 
HETATM    4  C5  UNL     1      45.625  12.054  -0.967  1.00  0.00    -0.018 A 
HETATM    5  C6  UNL     1      46.367  11.374  -0.043  1.00  0.00     0.082 A 
HETATM    6  C8  UNL     1      44.193  12.555  -0.890  1.00  0.00     0.060 C 
HETATM    7  C9  UNL     1      43.519  12.383  -2.226  1.00  0.00     0.123 C 
HETATM    8  N2  UNL     1      44.158  13.039  -3.301  1.00  0.00    -0.397 N 
ATOM      9  H2  UNL     1      43.623  13.473  -4.052  1.00  0.00     0.158 HD
HETATM   10  C10 UNL     1      45.564  13.068  -3.291  1.00  0.00     0.102 C 
ENDROOT
BRANCH   1  11
HETATM   11  N1  UNL     1      48.705  10.331   0.242  1.00  0.00    -0.311 N 
HETATM   12  C2  UNL     1      49.122   9.021   0.010  1.00  0.00     0.323 C 
HETATM   13  O3  UNL     1      48.617   8.263  -0.833  1.00  0.00    -0.260 OA
ATOM     14  H1  UNL     1      49.234  10.863   0.932  1.00  0.00     0.170 HD
BRANCH  12  15
HETATM   15  C1  UNL     1      50.252   8.493   0.826  1.00  0.00     0.270 C 
HETATM   16  O1  UNL     1      51.331   8.141   0.282  1.00  0.00    -0.640 OA
HETATM   17  O2  UNL     1      50.109   8.391   2.180  1.00  0.00    -0.640 OA
ENDBRANCH  12  15
ENDBRANCH   1  11
BRANCH   5  18
HETATM   18  C7  UNL     1      45.911  11.317   1.387  1.00  0.00     0.212 C 
HETATM   19  O4  UNL     1      46.001  10.241   2.026  1.00  0.00    -0.644 OA
HETATM   20  O5  UNL     1      45.374  12.376   2.068  1.00  0.00    -0.644 OA
ENDBRANCH   5  18
TORSDOF 3
ENDMDL
