MODEL 2
REMARK VINA RESULT: -5.505524577      4.231      6.090
REMARK  3 active torsions:
REMARK  status: ('A' for Active; 'I' for Inactive)
REMARK    1  A    between atoms: C1_2  and  C2_4 
REMARK       I    between atoms: C2_4  and  N1_6 
REMARK    2  A    between atoms: N1_6  and  C3_8 
REMARK    3  A    between atoms: C6_12  and  C7_13 
ROOT
HETATM    1  C3  UNL     1      45.965  11.104   1.102  1.00  0.00     0.095 A 
HETATM    2  S1  UNL     1      45.668  12.239   2.406  1.00  0.00    -0.070 SA
HETATM    3  C4  UNL     1      44.636  13.316   1.612  1.00  0.00     0.029 A 
HETATM    4  C5  UNL     1      44.533  12.784   0.363  1.00  0.00    -0.018 A 
HETATM    5  C6  UNL     1      45.220  11.632   0.107  1.00  0.00     0.082 A 
HETATM    6  C8  UNL     1      43.661  13.623  -0.556  1.00  0.00     0.060 C 
HETATM    7  C9  UNL     1      43.870  15.087  -0.263  1.00  0.00     0.123 C 
HETATM    8  N2  UNL     1      43.601  15.468   1.070  1.00  0.00    -0.397 N 
ATOM      9  H2  UNL     1      43.173  16.367   1.289  1.00  0.00     0.158 HD
HETATM   10  C10 UNL     1      43.948  14.556   2.082  1.00  0.00     0.102 C 
ENDROOT
BRANCH   1  11
HETATM   11  N1  UNL     1      46.787   9.958   1.281  1.00  0.00    -0.311 N 
HETATM   12  C2  UNL     1      47.999   9.691   0.646  1.00  0.00     0.323 C 
HETATM   13  O3  UNL     1      48.560  10.464  -0.147  1.00  0.00    -0.260 OA
ATOM     14  H1  UNL     1      46.455   9.258   1.944  1.00  0.00     0.170 HD
BRANCH  12  15
HETATM   15  C1  UNL     1      48.669   8.392   0.937  1.00  0.00     0.270 C 
HETATM   16  O1  UNL     1      48.702   7.477   0.072  1.00  0.00    -0.640 OA
HETATM   17  O2  UNL     1      49.251   8.196   2.156  1.00  0.00    -0.640 OA
ENDBRANCH  12  15
ENDBRANCH   1  11
BRANCH   5  18
HETATM   18  C7  UNL     1      44.909  10.833  -1.127  1.00  0.00     0.212 C 
HETATM   19  O4  UNL     1      45.838  10.501  -1.902  1.00  0.00    -0.644 OA
HETATM   20  O5  UNL     1      43.652  10.439  -1.493  1.00  0.00    -0.644 OA
ENDBRANCH   5  18
TORSDOF 3
ENDMDL
