MODEL 1
REMARK VINA RESULT: -5.540634605      0.000      0.000
REMARK  3 active torsions:
REMARK  status: ('A' for Active; 'I' for Inactive)
REMARK    1  A    between atoms: C1_2  and  C2_4 
REMARK       I    between atoms: C2_4  and  N1_6 
REMARK    2  A    between atoms: N1_6  and  C3_8 
REMARK    3  A    between atoms: C6_12  and  C7_13 
ROOT
HETATM    1  C3  UNL     1      44.723  14.149   2.304  1.00  0.00     0.095 A 
HETATM    2  S1  UNL     1      45.666  12.691   2.555  1.00  0.00    -0.070 SA
HETATM    3  C4  UNL     1      45.414  11.931   1.068  1.00  0.00     0.029 A 
HETATM    4  C5  UNL     1      44.615  12.810   0.401  1.00  0.00    -0.018 A 
HETATM    5  C6  UNL     1      44.266  13.962   1.047  1.00  0.00     0.082 A 
HETATM    6  C8  UNL     1      44.223  12.308  -0.978  1.00  0.00     0.060 C 
HETATM    7  C9  UNL     1      44.008  10.817  -0.937  1.00  0.00     0.123 C 
HETATM    8  N2  UNL     1      45.123  10.071  -0.497  1.00  0.00    -0.397 N 
ATOM      9  H2  UNL     1      45.347   9.162  -0.902  1.00  0.00     0.158 HD
HETATM   10  C10 UNL     1      45.911  10.633   0.523  1.00  0.00     0.102 C 
ENDROOT
BRANCH   1  11
HETATM   11  N1  UNL     1      44.634  15.162   3.296  1.00  0.00    -0.311 N 
HETATM   12  C2  UNL     1      45.675  15.659   4.079  1.00  0.00     0.323 C 
HETATM   13  O3  UNL     1      46.861  15.305   3.976  1.00  0.00    -0.260 OA
ATOM     14  H1  UNL     1      43.712  15.569   3.452  1.00  0.00     0.170 HD
BRANCH  12  15
HETATM   15  C1  UNL     1      45.347  16.684   5.110  1.00  0.00     0.270 C 
HETATM   16  O1  UNL     1      46.231  17.113   5.897  1.00  0.00    -0.640 OA
HETATM   17  O2  UNL     1      44.070  17.159   5.199  1.00  0.00    -0.640 OA
ENDBRANCH  12  15
ENDBRANCH   1  11
BRANCH   5  18
HETATM   18  C7  UNL     1      43.659  15.098   0.274  1.00  0.00     0.212 C 
HETATM   19  O4  UNL     1      43.129  16.054   0.889  1.00  0.00    -0.644 OA
HETATM   20  O5  UNL     1      43.622  15.169  -1.091  1.00  0.00    -0.644 OA
ENDBRANCH   5  18
TORSDOF 3
ENDMDL
