MODEL 3
REMARK VINA RESULT: -5.170291610      4.355      6.188
REMARK  3 active torsions:
REMARK  status: ('A' for Active; 'I' for Inactive)
REMARK    1  A    between atoms: C1_2  and  C2_4 
REMARK       I    between atoms: C2_4  and  N1_6 
REMARK    2  A    between atoms: N1_6  and  C3_8 
REMARK    3  A    between atoms: C6_12  and  C7_13 
ROOT
HETATM    1  C3  UNL     1      46.423  10.854   0.810  1.00  0.00     0.095 A 
HETATM    2  S1  UNL     1      45.947  11.904   2.132  1.00  0.00    -0.070 SA
HETATM    3  C4  UNL     1      44.808  12.863   1.334  1.00  0.00     0.029 A 
HETATM    4  C5  UNL     1      44.808  12.359   0.069  1.00  0.00    -0.018 A 
HETATM    5  C6  UNL     1      45.644  11.311  -0.194  1.00  0.00     0.082 A 
HETATM    6  C8  UNL     1      43.862  13.107  -0.855  1.00  0.00     0.060 C 
HETATM    7  C9  UNL     1      43.874  14.576  -0.518  1.00  0.00     0.123 C 
HETATM    8  N2  UNL     1      43.522  14.881   0.815  1.00  0.00    -0.397 N 
ATOM      9  H2  UNL     1      42.977  15.711   1.043  1.00  0.00     0.158 HD
HETATM   10  C10 UNL     1      43.955  13.991   1.814  1.00  0.00     0.102 C 
ENDROOT
BRANCH   1  11
HETATM   11  N1  UNL     1      47.380   9.817   0.985  1.00  0.00    -0.311 N 
HETATM   12  C2  UNL     1      47.322   8.775   1.909  1.00  0.00     0.323 C 
HETATM   13  O3  UNL     1      46.377   8.581   2.691  1.00  0.00    -0.260 OA
ATOM     14  H1  UNL     1      48.193   9.838   0.371  1.00  0.00     0.170 HD
BRANCH  12  15
HETATM   15  C1  UNL     1      48.471   7.826   1.965  1.00  0.00     0.270 C 
HETATM   16  O1  UNL     1      48.466   6.768   1.283  1.00  0.00    -0.640 OA
HETATM   17  O2  UNL     1      49.538   8.113   2.768  1.00  0.00    -0.640 OA
ENDBRANCH  12  15
ENDBRANCH   1  11
BRANCH   5  18
HETATM   18  C7  UNL     1      45.472  10.516  -1.457  1.00  0.00     0.212 C 
HETATM   19  O4  UNL     1      46.480  10.203  -2.135  1.00  0.00    -0.644 OA
HETATM   20  O5  UNL     1      44.264  10.105  -1.950  1.00  0.00    -0.644 OA
ENDBRANCH   5  18
TORSDOF 3
ENDMDL
