MODEL 6
REMARK VINA RESULT: -6.796683349      3.539      5.884
REMARK  5 active torsions:
REMARK  status: ('A' for Active; 'I' for Inactive)
REMARK    1  A    between atoms: C1_2  and  C2_4 
REMARK    2  A    between atoms: C2_4  and  C3_5 
REMARK    3  A    between atoms: C3_5  and  C4_6 
REMARK    4  A    between atoms: C3_5  and  C11_13 
REMARK    5  A    between atoms: C4_6  and  C5_7 
ROOT
HETATM    1  C3  UNL     1      -2.532  29.116 -12.554  1.00  0.00     0.101 C 
ENDROOT
BRANCH   1   2
HETATM    2  C2  UNL     1      -1.623  30.293 -12.870  1.00  0.00     0.128 C 
BRANCH   2   3
HETATM    3  C1  UNL     1      -0.264  29.914 -13.242  1.00  0.00     0.173 C 
HETATM    4  O1  UNL     1       0.206  30.202 -14.360  1.00  0.00    -0.648 OA
HETATM    5  O2  UNL     1       0.588  29.211 -12.376  1.00  0.00    -0.648 OA
ENDBRANCH   2   3
ENDBRANCH   1   2
BRANCH   1   6
HETATM    6  C4  UNL     1      -3.647  29.687 -11.696  1.00  0.00     0.054 C 
BRANCH   6   7
HETATM    7  C5  UNL     1      -3.225  29.942 -10.302  1.00  0.00    -0.057 A 
HETATM    8  C6  UNL     1      -3.206  31.223  -9.788  1.00  0.00     0.007 A 
HETATM    9  C7  UNL     1      -2.832  31.520  -8.497  1.00  0.00     0.001 A 
HETATM   10  C8  UNL     1      -2.461  30.441  -7.702  1.00  0.00     0.000 A 
HETATM   11  C9  UNL     1      -2.459  29.148  -8.154  1.00  0.00     0.001 A 
HETATM   12  C10 UNL     1      -2.848  28.910  -9.475  1.00  0.00     0.007 A 
ENDBRANCH   6   7
ENDBRANCH   1   6
BRANCH   1  13
HETATM   13  C11 UNL     1      -3.128  28.545 -13.765  1.00  0.00     0.177 C 
HETATM   14  O3  UNL     1      -4.144  29.038 -14.267  1.00  0.00    -0.648 OA
HETATM   15  O4  UNL     1      -2.556  27.434 -14.369  1.00  0.00    -0.648 OA
ENDBRANCH   1  13
TORSDOF 5
ENDMDL
