MODEL 5
REMARK VINA RESULT: -6.834512708      3.519      5.903
REMARK  5 active torsions:
REMARK  status: ('A' for Active; 'I' for Inactive)
REMARK    1  A    between atoms: C1_2  and  C2_4 
REMARK    2  A    between atoms: C2_4  and  C3_5 
REMARK    3  A    between atoms: C3_5  and  C4_6 
REMARK    4  A    between atoms: C3_5  and  C11_13 
REMARK    5  A    between atoms: C4_6  and  C5_7 
ROOT
HETATM    1  C3  UNL     1      -2.534  29.121 -12.549  1.00  0.00     0.101 C 
ENDROOT
BRANCH   1   2
HETATM    2  C2  UNL     1      -1.598  30.275 -12.868  1.00  0.00     0.128 C 
BRANCH   2   3
HETATM    3  C1  UNL     1      -0.236  29.866 -13.197  1.00  0.00     0.173 C 
HETATM    4  O1  UNL     1       0.468  29.244 -12.379  1.00  0.00    -0.648 OA
HETATM    5  O2  UNL     1       0.358  30.145 -14.438  1.00  0.00    -0.648 OA
ENDBRANCH   2   3
ENDBRANCH   1   2
BRANCH   1   6
HETATM    6  C4  UNL     1      -3.643  29.722 -11.704  1.00  0.00     0.054 C 
BRANCH   6   7
HETATM    7  C5  UNL     1      -3.227  29.970 -10.307  1.00  0.00    -0.057 A 
HETATM    8  C6  UNL     1      -2.815  28.934  -9.493  1.00  0.00     0.007 A 
HETATM    9  C7  UNL     1      -2.409  29.105  -8.189  1.00  0.00     0.001 A 
HETATM   10  C8  UNL     1      -2.429  30.409  -7.706  1.00  0.00     0.000 A 
HETATM   11  C9  UNL     1      -2.827  31.478  -8.464  1.00  0.00     0.001 A 
HETATM   12  C10 UNL     1      -3.230  31.241  -9.781  1.00  0.00     0.007 A 
ENDBRANCH   6   7
ENDBRANCH   1   6
BRANCH   1  13
HETATM   13  C11 UNL     1      -3.135  28.555 -13.761  1.00  0.00     0.177 C 
HETATM   14  O3  UNL     1      -4.155  29.046 -14.255  1.00  0.00    -0.648 OA
HETATM   15  O4  UNL     1      -2.561  27.449 -14.374  1.00  0.00    -0.648 OA
ENDBRANCH   1  13
TORSDOF 5
ENDMDL
