MODEL 1
REMARK VINA RESULT: -7.701729899      0.000      0.000
REMARK  5 active torsions:
REMARK  status: ('A' for Active; 'I' for Inactive)
REMARK    1  A    between atoms: C1_2  and  C2_4 
REMARK    2  A    between atoms: C2_4  and  C3_5 
REMARK    3  A    between atoms: C3_5  and  C4_6 
REMARK    4  A    between atoms: C3_5  and  C11_13 
REMARK    5  A    between atoms: C4_6  and  C5_7 
ROOT
HETATM    1  C3  UNL     1      -2.351  30.009  -8.106  1.00  0.00     0.101 C 
ENDROOT
BRANCH   1   2
HETATM    2  C2  UNL     1      -2.735  30.605  -6.761  1.00  0.00     0.128 C 
BRANCH   2   3
HETATM    3  C1  UNL     1      -2.809  29.631  -5.676  1.00  0.00     0.173 C 
HETATM    4  O1  UNL     1      -3.596  28.666  -5.726  1.00  0.00    -0.648 OA
HETATM    5  O2  UNL     1      -2.011  29.720  -4.525  1.00  0.00    -0.648 OA
ENDBRANCH   2   3
ENDBRANCH   1   2
BRANCH   1   6
HETATM    6  C4  UNL     1      -2.387  31.169  -9.086  1.00  0.00     0.054 C 
BRANCH   6   7
HETATM    7  C5  UNL     1      -2.544  30.729 -10.488  1.00  0.00    -0.057 A 
HETATM    8  C6  UNL     1      -1.454  30.628 -11.329  1.00  0.00     0.007 A 
HETATM    9  C7  UNL     1      -1.538  30.216 -12.639  1.00  0.00     0.001 A 
HETATM   10  C8  UNL     1      -2.809  29.891 -13.100  1.00  0.00     0.000 A 
HETATM   11  C9  UNL     1      -3.929  29.970 -12.316  1.00  0.00     0.001 A 
HETATM   12  C10 UNL     1      -3.780  30.397 -10.994  1.00  0.00     0.007 A 
ENDBRANCH   6   7
ENDBRANCH   1   6
BRANCH   1  13
HETATM   13  C11 UNL     1      -0.992  29.460  -8.092  1.00  0.00     0.177 C 
HETATM   14  O3  UNL     1      -0.719  28.421  -8.702  1.00  0.00    -0.648 OA
HETATM   15  O4  UNL     1       0.015  30.106  -7.386  1.00  0.00    -0.648 OA
ENDBRANCH   1  13
TORSDOF 5
ENDMDL
