MODEL 7
REMARK VINA RESULT: -6.628721787      3.356      5.796
REMARK  5 active torsions:
REMARK  status: ('A' for Active; 'I' for Inactive)
REMARK    1  A    between atoms: C1_2  and  C2_4 
REMARK    2  A    between atoms: C2_4  and  C3_5 
REMARK    3  A    between atoms: C3_5  and  C4_6 
REMARK    4  A    between atoms: C3_5  and  C11_13 
REMARK    5  A    between atoms: C4_6  and  C5_7 
ROOT
HETATM    1  C3  UNL     1      -2.384  29.939 -11.666  1.00  0.00     0.101 C 
ENDROOT
BRANCH   1   2
HETATM    2  C2  UNL     1      -1.450  30.745 -12.554  1.00  0.00     0.128 C 
BRANCH   2   3
HETATM    3  C1  UNL     1      -0.345  29.973 -13.114  1.00  0.00     0.173 C 
HETATM    4  O1  UNL     1       0.272  29.136 -12.429  1.00  0.00    -0.648 OA
HETATM    5  O2  UNL     1       0.087  30.125 -14.441  1.00  0.00    -0.648 OA
ENDBRANCH   2   3
ENDBRANCH   1   2
BRANCH   1   6
HETATM    6  C4  UNL     1      -2.990  30.943 -10.701  1.00  0.00     0.054 C 
BRANCH   6   7
HETATM    7  C5  UNL     1      -2.814  30.555  -9.285  1.00  0.00    -0.057 A 
HETATM    8  C6  UNL     1      -3.104  31.437  -8.265  1.00  0.00     0.007 A 
HETATM    9  C7  UNL     1      -2.969  31.129  -6.930  1.00  0.00     0.001 A 
HETATM   10  C8  UNL     1      -2.515  29.848  -6.639  1.00  0.00     0.000 A 
HETATM   11  C9  UNL     1      -2.212  28.927  -7.606  1.00  0.00     0.001 A 
HETATM   12  C10 UNL     1      -2.368  29.299  -8.944  1.00  0.00     0.007 A 
ENDBRANCH   6   7
ENDBRANCH   1   6
BRANCH   1  13
HETATM   13  C11 UNL     1      -3.471  29.323 -12.433  1.00  0.00     0.177 C 
HETATM   14  O3  UNL     1      -4.411  30.001 -12.861  1.00  0.00    -0.648 OA
HETATM   15  O4  UNL     1      -3.459  27.958 -12.690  1.00  0.00    -0.648 OA
ENDBRANCH   1  13
TORSDOF 5
ENDMDL
