MODEL 2
REMARK VINA RESULT: -7.671744240      0.030      1.236
REMARK  5 active torsions:
REMARK  status: ('A' for Active; 'I' for Inactive)
REMARK    1  A    between atoms: C1_2  and  C2_4 
REMARK    2  A    between atoms: C2_4  and  C3_5 
REMARK    3  A    between atoms: C3_5  and  C4_6 
REMARK    4  A    between atoms: C3_5  and  C11_13 
REMARK    5  A    between atoms: C4_6  and  C5_7 
ROOT
HETATM    1  C3  UNL     1      -2.356  30.004  -8.083  1.00  0.00     0.101 C 
ENDROOT
BRANCH   1   2
HETATM    2  C2  UNL     1      -2.725  30.601  -6.735  1.00  0.00     0.128 C 
BRANCH   2   3
HETATM    3  C1  UNL     1      -2.817  29.624  -5.654  1.00  0.00     0.173 C 
HETATM    4  O1  UNL     1      -3.607  28.663  -5.717  1.00  0.00    -0.648 OA
HETATM    5  O2  UNL     1      -2.033  29.706  -4.493  1.00  0.00    -0.648 OA
ENDBRANCH   2   3
ENDBRANCH   1   2
BRANCH   1   6
HETATM    6  C4  UNL     1      -2.400  31.162  -9.063  1.00  0.00     0.054 C 
BRANCH   6   7
HETATM    7  C5  UNL     1      -2.533  30.720 -10.468  1.00  0.00    -0.057 A 
HETATM    8  C6  UNL     1      -3.761  30.366 -10.989  1.00  0.00     0.007 A 
HETATM    9  C7  UNL     1      -3.948  29.957 -12.289  1.00  0.00     0.001 A 
HETATM   10  C8  UNL     1      -2.811  29.912 -13.087  1.00  0.00     0.000 A 
HETATM   11  C9  UNL     1      -1.565  30.250 -12.630  1.00  0.00     0.001 A 
HETATM   12  C10 UNL     1      -1.439  30.657 -11.299  1.00  0.00     0.007 A 
ENDBRANCH   6   7
ENDBRANCH   1   6
BRANCH   1  13
HETATM   13  C11 UNL     1      -0.998  29.451  -8.083  1.00  0.00     0.177 C 
HETATM   14  O3  UNL     1      -0.734  28.412  -8.696  1.00  0.00    -0.648 OA
HETATM   15  O4  UNL     1       0.017  30.093  -7.386  1.00  0.00    -0.648 OA
ENDBRANCH   1  13
TORSDOF 5
ENDMDL
