MODEL 3
REMARK VINA RESULT: -7.608061938      0.084      1.166
REMARK  5 active torsions:
REMARK  status: ('A' for Active; 'I' for Inactive)
REMARK    1  A    between atoms: C1_2  and  C2_4 
REMARK    2  A    between atoms: C2_4  and  C3_5 
REMARK    3  A    between atoms: C3_5  and  C4_6 
REMARK    4  A    between atoms: C3_5  and  C11_13 
REMARK    5  A    between atoms: C4_6  and  C5_7 
ROOT
HETATM    1  C3  UNL     1      -2.322  30.075  -8.070  1.00  0.00     0.101 C 
ENDROOT
BRANCH   1   2
HETATM    2  C2  UNL     1      -2.682  30.683  -6.725  1.00  0.00     0.128 C 
BRANCH   2   3
HETATM    3  C1  UNL     1      -2.759  29.716  -5.634  1.00  0.00     0.173 C 
HETATM    4  O1  UNL     1      -2.018  29.805  -4.637  1.00  0.00    -0.648 OA
HETATM    5  O2  UNL     1      -3.659  28.639  -5.641  1.00  0.00    -0.648 OA
ENDBRANCH   2   3
ENDBRANCH   1   2
BRANCH   1   6
HETATM    6  C4  UNL     1      -2.373  31.226  -9.060  1.00  0.00     0.054 C 
BRANCH   6   7
HETATM    7  C5  UNL     1      -2.533  30.772 -10.458  1.00  0.00    -0.057 A 
HETATM    8  C6  UNL     1      -1.443  30.654 -11.297  1.00  0.00     0.007 A 
HETATM    9  C7  UNL     1      -1.530  30.229 -12.602  1.00  0.00     0.001 A 
HETATM   10  C8  UNL     1      -2.803  29.910 -13.060  1.00  0.00     0.000 A 
HETATM   11  C9  UNL     1      -3.923  30.007 -12.278  1.00  0.00     0.001 A 
HETATM   12  C10 UNL     1      -3.771  30.446 -10.960  1.00  0.00     0.007 A 
ENDBRANCH   6   7
ENDBRANCH   1   6
BRANCH   1  13
HETATM   13  C11 UNL     1      -0.963  29.524  -8.074  1.00  0.00     0.177 C 
HETATM   14  O3  UNL     1      -0.046  30.089  -7.468  1.00  0.00    -0.648 OA
HETATM   15  O4  UNL     1      -0.686  28.352  -8.764  1.00  0.00    -0.648 OA
ENDBRANCH   1  13
TORSDOF 5
ENDMDL
