MODEL 4
REMARK VINA RESULT: -7.259541152      0.894      1.904
REMARK  5 active torsions:
REMARK  status: ('A' for Active; 'I' for Inactive)
REMARK    1  A    between atoms: C1_2  and  C2_4 
REMARK    2  A    between atoms: C2_4  and  C3_5 
REMARK    3  A    between atoms: C3_5  and  C4_6 
REMARK    4  A    between atoms: C3_5  and  C11_13 
REMARK    5  A    between atoms: C4_6  and  C5_7 
ROOT
HETATM    1  C3  UNL     1      -2.563  30.144  -8.816  1.00  0.00     0.101 C 
ENDROOT
BRANCH   1   2
HETATM    2  C2  UNL     1      -3.016  30.944  -7.606  1.00  0.00     0.128 C 
BRANCH   2   3
HETATM    3  C1  UNL     1      -2.824  30.259  -6.332  1.00  0.00     0.173 C 
HETATM    4  O1  UNL     1      -2.230  30.809  -5.385  1.00  0.00    -0.648 OA
HETATM    5  O2  UNL     1      -3.288  28.956  -6.097  1.00  0.00    -0.648 OA
ENDBRANCH   2   3
ENDBRANCH   1   2
BRANCH   1   6
HETATM    6  C4  UNL     1      -2.762  31.065 -10.007  1.00  0.00     0.054 C 
BRANCH   6   7
HETATM    7  C5  UNL     1      -2.492  30.398 -11.298  1.00  0.00    -0.057 A 
HETATM    8  C6  UNL     1      -3.433  29.578 -11.887  1.00  0.00     0.007 A 
HETATM    9  C7  UNL     1      -3.241  28.940 -13.090  1.00  0.00     0.001 A 
HETATM   10  C8  UNL     1      -2.019  29.162 -13.715  1.00  0.00     0.000 A 
HETATM   11  C9  UNL     1      -1.045  29.964 -13.183  1.00  0.00     0.001 A 
HETATM   12  C10 UNL     1      -1.298  30.584 -11.956  1.00  0.00     0.007 A 
ENDBRANCH   6   7
ENDBRANCH   1   6
BRANCH   1  13
HETATM   13  C11 UNL     1      -1.142  29.793  -8.738  1.00  0.00     0.177 C 
HETATM   14  O3  UNL     1      -0.282  30.659  -8.547  1.00  0.00    -0.648 OA
HETATM   15  O4  UNL     1      -0.740  28.471  -8.879  1.00  0.00    -0.648 OA
ENDBRANCH   1  13
TORSDOF 5
ENDMDL
