MODEL 11
REMARK VINA RESULT: -5.714491731      1.416      2.479
REMARK  5 active torsions:
REMARK  status: ('A' for Active; 'I' for Inactive)
REMARK    1  A    between atoms: C1_2  and  C2_4 
REMARK    2  A    between atoms: C2_4  and  O3_5 
REMARK    3  A    between atoms: C2_4  and  C3_7 
REMARK    4  A    between atoms: C3_7  and  O4_8 
REMARK    5  A    between atoms: C3_7  and  C4_10 
ROOT
HETATM    1  C2  UNL     1       2.827  -6.608  85.513  1.00  0.00     0.258 C 
ENDROOT
BRANCH   1   2
HETATM    2  C1  UNL     1       3.749  -6.406  86.627  1.00  0.00     0.206 C 
HETATM    3  O1  UNL     1       4.389  -7.383  87.087  1.00  0.00    -0.646 OA
HETATM    4  O2  UNL     1       3.952  -5.165  87.206  1.00  0.00    -0.646 OA
ENDBRANCH   1   2
BRANCH   1   5
HETATM    5  O3  UNL     1       3.074  -7.759  84.792  1.00  0.00    -0.382 OA
ATOM      6  H3  UNL     1       2.522  -8.491  85.042  1.00  0.00     0.210 HD
ENDBRANCH   1   5
BRANCH   1   7
HETATM    7  C3  UNL     1       1.376  -6.633  85.933  1.00  0.00     0.258 C 
BRANCH   7   8
HETATM    8  O4  UNL     1       0.687  -7.718  85.457  1.00  0.00    -0.382 OA
ATOM      9  H4  UNL     1       0.517  -8.379  86.118  1.00  0.00     0.210 HD
ENDBRANCH   7   8
BRANCH   7  10
HETATM   10  C4  UNL     1       0.748  -5.354  85.444  1.00  0.00     0.206 C 
HETATM   11  O5  UNL     1      -0.002  -4.673  86.187  1.00  0.00    -0.646 OA
HETATM   12  O6  UNL     1       0.969  -4.878  84.159  1.00  0.00    -0.646 OA
ENDBRANCH   7  10
ENDBRANCH   1   7
TORSDOF 5
ENDMDL
