MODEL 1
REMARK VINA RESULT: -6.289250548      0.000      0.000
REMARK  5 active torsions:
REMARK  status: ('A' for Active; 'I' for Inactive)
REMARK    1  A    between atoms: C1_2  and  C2_4 
REMARK    2  A    between atoms: C2_4  and  O3_5 
REMARK    3  A    between atoms: C2_4  and  C3_7 
REMARK    4  A    between atoms: C3_7  and  O4_8 
REMARK    5  A    between atoms: C3_7  and  C4_10 
ROOT
HETATM    1  C2  UNL     1       2.798  -6.636  85.285  1.00  0.00     0.258 C 
ENDROOT
BRANCH   1   2
HETATM    2  C1  UNL     1       2.516  -5.944  84.031  1.00  0.00     0.206 C 
HETATM    3  O1  UNL     1       1.627  -6.390  83.264  1.00  0.00    -0.646 OA
HETATM    4  O2  UNL     1       3.196  -4.802  83.645  1.00  0.00    -0.646 OA
ENDBRANCH   1   2
BRANCH   1   5
HETATM    5  O3  UNL     1       3.828  -6.071  86.010  1.00  0.00    -0.382 OA
ATOM      6  H3  UNL     1       4.682  -6.430  85.800  1.00  0.00     0.210 HD
ENDBRANCH   1   5
BRANCH   1   7
HETATM    7  C3  UNL     1       1.597  -6.737  86.198  1.00  0.00     0.258 C 
BRANCH   7   8
HETATM    8  O4  UNL     1       0.534  -7.393  85.633  1.00  0.00    -0.382 OA
ATOM      9  H4  UNL     1       0.365  -8.244  86.020  1.00  0.00     0.210 HD
ENDBRANCH   7   8
BRANCH   7  10
HETATM   10  C4  UNL     1       1.207  -5.333  86.578  1.00  0.00     0.206 C 
HETATM   11  O5  UNL     1       1.917  -4.650  87.358  1.00  0.00    -0.646 OA
HETATM   12  O6  UNL     1       0.054  -4.737  86.086  1.00  0.00    -0.646 OA
ENDBRANCH   7  10
ENDBRANCH   1   7
TORSDOF 5
ENDMDL
