MODEL 3
REMARK VINA RESULT: -6.204282848      0.093      1.013
REMARK  5 active torsions:
REMARK  status: ('A' for Active; 'I' for Inactive)
REMARK    1  A    between atoms: C1_2  and  C2_4 
REMARK    2  A    between atoms: C2_4  and  O3_5 
REMARK    3  A    between atoms: C2_4  and  C3_7 
REMARK    4  A    between atoms: C3_7  and  O4_8 
REMARK    5  A    between atoms: C3_7  and  C4_10 
ROOT
HETATM    1  C2  UNL     1       2.850  -6.615  85.360  1.00  0.00     0.258 C 
ENDROOT
BRANCH   1   2
HETATM    2  C1  UNL     1       2.599  -5.935  84.093  1.00  0.00     0.206 C 
HETATM    3  O1  UNL     1       3.273  -4.919  83.791  1.00  0.00    -0.646 OA
HETATM    4  O2  UNL     1       1.635  -6.366  83.197  1.00  0.00    -0.646 OA
ENDBRANCH   1   2
BRANCH   1   5
HETATM    5  O3  UNL     1       3.855  -6.038  86.109  1.00  0.00    -0.382 OA
ATOM      6  H3  UNL     1       3.607  -5.862  87.009  1.00  0.00     0.210 HD
ENDBRANCH   1   5
BRANCH   1   7
HETATM    7  C3  UNL     1       1.624  -6.718  86.239  1.00  0.00     0.258 C 
BRANCH   7   8
HETATM    8  O4  UNL     1       0.583  -7.386  85.649  1.00  0.00    -0.382 OA
ATOM      9  H4  UNL     1       0.331  -7.028  84.807  1.00  0.00     0.210 HD
ENDBRANCH   7   8
BRANCH   7  10
HETATM   10  C4  UNL     1       1.214  -5.314  86.596  1.00  0.00     0.206 C 
HETATM   11  O5  UNL     1       1.908  -4.612  87.374  1.00  0.00    -0.646 OA
HETATM   12  O6  UNL     1       0.058  -4.738  86.087  1.00  0.00    -0.646 OA
ENDBRANCH   7  10
ENDBRANCH   1   7
TORSDOF 5
ENDMDL
