MODEL 12
REMARK VINA RESULT: -5.672081643      1.080      3.561
REMARK  5 active torsions:
REMARK  status: ('A' for Active; 'I' for Inactive)
REMARK    1  A    between atoms: C1_2  and  C2_4 
REMARK    2  A    between atoms: C2_4  and  O3_5 
REMARK    3  A    between atoms: C2_4  and  C3_7 
REMARK    4  A    between atoms: C3_7  and  O4_8 
REMARK    5  A    between atoms: C3_7  and  C4_10 
ROOT
HETATM    1  C2  UNL     1       1.352  -6.432  85.903  1.00  0.00     0.258 C 
ENDROOT
BRANCH   1   2
HETATM    2  C1  UNL     1       0.808  -5.171  86.399  1.00  0.00     0.206 C 
HETATM    3  O1  UNL     1      -0.305  -4.770  85.981  1.00  0.00    -0.646 OA
HETATM    4  O2  UNL     1       1.477  -4.388  87.325  1.00  0.00    -0.646 OA
ENDBRANCH   1   2
BRANCH   1   5
HETATM    5  O3  UNL     1       0.385  -7.351  85.548  1.00  0.00    -0.382 OA
ATOM      6  H3  UNL     1       0.579  -8.236  85.830  1.00  0.00     0.210 HD
ENDBRANCH   1   5
BRANCH   1   7
HETATM    7  C3  UNL     1       2.278  -6.262  84.721  1.00  0.00     0.258 C 
BRANCH   7   8
HETATM    8  O4  UNL     1       1.653  -6.410  83.510  1.00  0.00    -0.382 OA
ATOM      9  H4  UNL     1       1.368  -5.589  83.129  1.00  0.00     0.210 HD
ENDBRANCH   7   8
BRANCH   7  10
HETATM   10  C4  UNL     1       3.383  -7.275  84.871  1.00  0.00     0.206 C 
HETATM   11  O5  UNL     1       3.636  -8.098  83.956  1.00  0.00    -0.646 OA
HETATM   12  O6  UNL     1       4.163  -7.342  86.017  1.00  0.00    -0.646 OA
ENDBRANCH   7  10
ENDBRANCH   1   7
TORSDOF 5
ENDMDL
