MODEL 6
REMARK VINA RESULT: -6.167155130      0.147      3.438
REMARK  5 active torsions:
REMARK  status: ('A' for Active; 'I' for Inactive)
REMARK    1  A    between atoms: C1_2  and  C2_4 
REMARK    2  A    between atoms: C2_4  and  O3_5 
REMARK    3  A    between atoms: C2_4  and  C3_7 
REMARK    4  A    between atoms: C3_7  and  O4_8 
REMARK    5  A    between atoms: C3_7  and  C4_10 
ROOT
HETATM    1  C2  UNL     1       1.648  -6.678  86.228  1.00  0.00     0.258 C 
ENDROOT
BRANCH   1   2
HETATM    2  C1  UNL     1       1.217  -5.325  86.568  1.00  0.00     0.206 C 
HETATM    3  O1  UNL     1       1.906  -4.637  87.360  1.00  0.00    -0.646 OA
HETATM    4  O2  UNL     1       0.066  -4.760  86.047  1.00  0.00    -0.646 OA
ENDBRANCH   1   2
BRANCH   1   5
HETATM    5  O3  UNL     1       0.694  -7.408  85.548  1.00  0.00    -0.382 OA
ATOM      6  H3  UNL     1       0.914  -7.568  84.638  1.00  0.00     0.210 HD
ENDBRANCH   1   5
BRANCH   1   7
HETATM    7  C3  UNL     1       2.921  -6.716  85.414  1.00  0.00     0.258 C 
BRANCH   7   8
HETATM    8  O4  UNL     1       3.993  -6.145  86.049  1.00  0.00    -0.382 OA
ATOM      9  H4  UNL     1       4.710  -5.933  85.464  1.00  0.00     0.210 HD
ENDBRANCH   7   8
BRANCH   7  10
HETATM   10  C4  UNL     1       2.640  -6.007  84.115  1.00  0.00     0.206 C 
HETATM   11  O5  UNL     1       1.834  -6.484  83.276  1.00  0.00    -0.646 OA
HETATM   12  O6  UNL     1       3.255  -4.806  83.790  1.00  0.00    -0.646 OA
ENDBRANCH   7  10
ENDBRANCH   1   7
TORSDOF 5
ENDMDL
