MODEL 4
REMARK VINA RESULT: -5.591821587      1.347      1.875
REMARK  3 active torsions:
REMARK  status: ('A' for Active; 'I' for Inactive)
REMARK    1  A    between atoms: N1_1  and  C1_5 
REMARK    2  A    between atoms: C1_5  and  C2_6 
REMARK    3  A    between atoms: C5_9  and  C6_10 
ROOT
HETATM    1  C2  UNL     1      19.661  -1.155  41.690  1.00  0.00     0.011 C 
HETATM    2  C3  UNL     1      19.863  -1.718  40.334  1.00  0.00     0.007 C 
HETATM    3  C4  UNL     1      21.267  -1.983  39.931  1.00  0.00     0.015 C 
HETATM    4  C5  UNL     1      22.155  -2.554  40.968  1.00  0.00     0.087 C 
HETATM    5  C7  UNL     1      21.499  -2.580  42.309  1.00  0.00     0.015 C 
HETATM    6  C8  UNL     1      20.930  -1.168  42.514  1.00  0.00     0.007 C 
ENDROOT
BRANCH   1   7
HETATM    7  C1  UNL     1      19.005   0.211  41.676  1.00  0.00     0.234 C 
BRANCH   7   8
HETATM    8  N1  UNL     1      18.406   0.443  40.374  1.00  0.00    -0.079 N 
ATOM      9  H13 UNL     1      18.998   0.113  39.612  1.00  0.00     0.274 HD
ATOM     10  H12 UNL     1      17.601  -0.163  40.206  1.00  0.00     0.274 HD
ATOM     11  H11 UNL     1      18.171   1.431  40.282  1.00  0.00     0.274 HD
ENDBRANCH   7   8
ENDBRANCH   1   7
BRANCH   4  12
HETATM   12  C6  UNL     1      22.586  -3.953  40.653  1.00  0.00     0.177 C 
HETATM   13  O1  UNL     1      21.687  -4.739  40.257  1.00  0.00    -0.648 OA
HETATM   14  O2  UNL     1      23.886  -4.364  40.786  1.00  0.00    -0.648 OA
ENDBRANCH   4  12
TORSDOF 3
ENDMDL
