MODEL 2
REMARK VINA RESULT: -5.758740499      0.715      1.649
REMARK  3 active torsions:
REMARK  status: ('A' for Active; 'I' for Inactive)
REMARK    1  A    between atoms: N1_1  and  C1_5 
REMARK    2  A    between atoms: C1_5  and  C2_6 
REMARK    3  A    between atoms: C5_9  and  C6_10 
ROOT
HETATM    1  C2  UNL     1      19.822  -2.012  40.507  1.00  0.00     0.011 C 
HETATM    2  C3  UNL     1      21.099  -2.267  39.799  1.00  0.00     0.007 C 
HETATM    3  C4  UNL     1      22.244  -2.703  40.638  1.00  0.00     0.015 C 
HETATM    4  C5  UNL     1      21.942  -3.666  41.718  1.00  0.00     0.087 C 
HETATM    5  C7  UNL     1      20.473  -3.878  41.880  1.00  0.00     0.015 C 
HETATM    6  C8  UNL     1      19.861  -2.471  41.949  1.00  0.00     0.007 C 
ENDROOT
BRANCH   1   7
HETATM    7  C1  UNL     1      19.346  -0.579  40.378  1.00  0.00     0.234 C 
BRANCH   7   8
HETATM    8  N1  UNL     1      17.973  -0.486  40.841  1.00  0.00    -0.079 N 
ATOM      9  H13 UNL     1      17.517   0.371  40.528  1.00  0.00     0.274 HD
ATOM     10  H12 UNL     1      17.361  -1.155  40.373  1.00  0.00     0.274 HD
ATOM     11  H11 UNL     1      17.951  -0.587  41.856  1.00  0.00     0.274 HD
ENDBRANCH   7   8
ENDBRANCH   1   7
BRANCH   4  12
HETATM   12  C6  UNL     1      22.566  -5.008  41.487  1.00  0.00     0.177 C 
HETATM   13  O1  UNL     1      22.090  -5.966  42.150  1.00  0.00    -0.648 OA
HETATM   14  O2  UNL     1      23.596  -5.193  40.604  1.00  0.00    -0.648 OA
ENDBRANCH   4  12
TORSDOF 3
ENDMDL
