MODEL 8
REMARK VINA RESULT: -5.303968220      3.685      4.768
REMARK  3 active torsions:
REMARK  status: ('A' for Active; 'I' for Inactive)
REMARK    1  A    between atoms: N1_1  and  C1_5 
REMARK    2  A    between atoms: C1_5  and  C2_6 
REMARK    3  A    between atoms: C5_9  and  C6_10 
ROOT
HETATM    1  C2  UNL     1      22.513  -2.608  40.970  1.00  0.00     0.011 C 
HETATM    2  C3  UNL     1      21.616  -2.275  39.838  1.00  0.00     0.007 C 
HETATM    3  C4  UNL     1      20.171  -2.151  40.156  1.00  0.00     0.015 C 
HETATM    4  C5  UNL     1      19.830  -1.473  41.425  1.00  0.00     0.087 C 
HETATM    5  C7  UNL     1      21.041  -1.203  42.255  1.00  0.00     0.015 C 
HETATM    6  C8  UNL     1      21.808  -2.534  42.307  1.00  0.00     0.007 C 
ENDROOT
BRANCH   1   7
HETATM    7  C1  UNL     1      23.244  -3.923  40.784  1.00  0.00     0.234 C 
BRANCH   7   8
HETATM    8  N1  UNL     1      22.275  -4.988  40.595  1.00  0.00    -0.079 N 
ATOM      9  H13 UNL     1      22.434  -5.772  41.229  1.00  0.00     0.274 HD
ATOM     10  H12 UNL     1      21.343  -4.725  40.918  1.00  0.00     0.274 HD
ATOM     11  H11 UNL     1      22.277  -5.276  39.616  1.00  0.00     0.274 HD
ENDBRANCH   7   8
ENDBRANCH   1   7
BRANCH   4  12
HETATM   12  C6  UNL     1      19.131  -0.166  41.213  1.00  0.00     0.177 C 
HETATM   13  O1  UNL     1      18.476  -0.049  40.145  1.00  0.00    -0.648 OA
HETATM   14  O2  UNL     1      19.196   0.853  42.126  1.00  0.00    -0.648 OA
ENDBRANCH   4  12
TORSDOF 3
ENDMDL
