MODEL 1
REMARK VINA RESULT: -6.277598704      0.000      0.000
REMARK  3 active torsions:
REMARK  status: ('A' for Active; 'I' for Inactive)
REMARK    1  A    between atoms: N1_1  and  C1_5 
REMARK    2  A    between atoms: C1_5  and  C2_6 
REMARK    3  A    between atoms: C5_9  and  C6_10 
ROOT
HETATM    1  C2  UNL     1      20.228  -1.314  40.858  1.00  0.00     0.011 C 
HETATM    2  C3  UNL     1      19.994  -2.387  41.854  1.00  0.00     0.007 C 
HETATM    3  C4  UNL     1      20.282  -3.774  41.409  1.00  0.00     0.015 C 
HETATM    4  C5  UNL     1      21.492  -3.964  40.580  1.00  0.00     0.087 C 
HETATM    5  C7  UNL     1      22.104  -2.662  40.183  1.00  0.00     0.015 C 
HETATM    6  C8  UNL     1      20.948  -1.818  39.626  1.00  0.00     0.007 C 
ENDROOT
BRANCH   1   7
HETATM    7  C1  UNL     1      18.972  -0.542  40.508  1.00  0.00     0.234 C 
BRANCH   7   8
HETATM    8  N1  UNL     1      18.155  -0.388  41.698  1.00  0.00    -0.079 N 
ATOM      9  H13 UNL     1      18.327  -1.125  42.383  1.00  0.00     0.274 HD
ATOM     10  H12 UNL     1      18.446   0.408  42.267  1.00  0.00     0.274 HD
ATOM     11  H11 UNL     1      17.173  -0.332  41.429  1.00  0.00     0.274 HD
ENDBRANCH   7   8
ENDBRANCH   1   7
BRANCH   4  12
HETATM   12  C6  UNL     1      22.550  -4.764  41.276  1.00  0.00     0.177 C 
HETATM   13  O1  UNL     1      22.428  -4.886  42.523  1.00  0.00    -0.648 OA
HETATM   14  O2  UNL     1      23.596  -5.335  40.602  1.00  0.00    -0.648 OA
ENDBRANCH   4  12
TORSDOF 3
ENDMDL
