MODEL 15
REMARK VINA RESULT: -4.813255948      3.757      4.670
REMARK  3 active torsions:
REMARK  status: ('A' for Active; 'I' for Inactive)
REMARK    1  A    between atoms: N1_1  and  C1_5 
REMARK    2  A    between atoms: C1_5  and  C2_6 
REMARK    3  A    between atoms: C5_9  and  C6_10 
ROOT
HETATM    1  C2  UNL     1      21.699  -2.004  40.501  1.00  0.00     0.011 C 
HETATM    2  C3  UNL     1      20.440  -1.403  40.000  1.00  0.00     0.007 C 
HETATM    3  C4  UNL     1      19.269  -1.470  40.911  1.00  0.00     0.015 C 
HETATM    4  C5  UNL     1      19.533  -1.227  42.345  1.00  0.00     0.087 C 
HETATM    5  C7  UNL     1      20.995  -1.144  42.635  1.00  0.00     0.015 C 
HETATM    6  C8  UNL     1      21.618  -2.378  41.965  1.00  0.00     0.007 C 
ENDROOT
BRANCH   1   7
HETATM    7  C1  UNL     1      22.191  -3.154  39.646  1.00  0.00     0.234 C 
BRANCH   7   8
HETATM    8  N1  UNL     1      21.448  -4.355  39.982  1.00  0.00    -0.079 N 
ATOM      9  H13 UNL     1      21.767  -4.775  40.855  1.00  0.00     0.274 HD
ATOM     10  H12 UNL     1      20.488  -4.150  40.261  1.00  0.00     0.274 HD
ATOM     11  H11 UNL     1      21.491  -5.009  39.200  1.00  0.00     0.274 HD
ENDBRANCH   7   8
ENDBRANCH   1   7
BRANCH   4  12
HETATM   12  C6  UNL     1      18.905   0.038  42.842  1.00  0.00     0.177 C 
HETATM   13  O1  UNL     1      17.967  -0.093  43.672  1.00  0.00    -0.648 OA
HETATM   14  O2  UNL     1      19.321   1.274  42.425  1.00  0.00    -0.648 OA
ENDBRANCH   4  12
TORSDOF 3
ENDMDL
