MODEL 3
REMARK VINA RESULT: -5.597211378      0.666      1.844
REMARK  3 active torsions:
REMARK  status: ('A' for Active; 'I' for Inactive)
REMARK    1  A    between atoms: N1_1  and  C1_5 
REMARK    2  A    between atoms: C1_5  and  C2_6 
REMARK    3  A    between atoms: C5_9  and  C6_10 
ROOT
HETATM    1  C2  UNL     1      19.726  -1.922  40.552  1.00  0.00     0.011 C 
HETATM    2  C3  UNL     1      21.004  -2.093  39.821  1.00  0.00     0.007 C 
HETATM    3  C4  UNL     1      22.191  -2.447  40.640  1.00  0.00     0.015 C 
HETATM    4  C5  UNL     1      21.974  -3.425  41.728  1.00  0.00     0.087 C 
HETATM    5  C7  UNL     1      20.526  -3.735  41.917  1.00  0.00     0.015 C 
HETATM    6  C8  UNL     1      19.822  -2.372  41.993  1.00  0.00     0.007 C 
ENDROOT
BRANCH   1   7
HETATM    7  C1  UNL     1      19.152  -0.525  40.429  1.00  0.00     0.234 C 
BRANCH   7   8
HETATM    8  N1  UNL     1      17.988  -0.407  41.288  1.00  0.00    -0.079 N 
ATOM      9  H13 UNL     1      17.697  -1.307  41.671  1.00  0.00     0.274 HD
ATOM     10  H12 UNL     1      18.202   0.064  42.168  1.00  0.00     0.274 HD
ATOM     11  H11 UNL     1      17.236   0.056  40.776  1.00  0.00     0.274 HD
ENDBRANCH   7   8
ENDBRANCH   1   7
BRANCH   4  12
HETATM   12  C6  UNL     1      22.683  -4.723  41.488  1.00  0.00     0.177 C 
HETATM   13  O1  UNL     1      23.460  -4.761  40.499  1.00  0.00    -0.648 OA
HETATM   14  O2  UNL     1      22.502  -5.814  42.295  1.00  0.00    -0.648 OA
ENDBRANCH   4  12
TORSDOF 3
ENDMDL
