MODEL 6
REMARK VINA RESULT: -5.518118083      3.583      4.639
REMARK  3 active torsions:
REMARK  status: ('A' for Active; 'I' for Inactive)
REMARK    1  A    between atoms: N1_1  and  C1_5 
REMARK    2  A    between atoms: C1_5  and  C2_6 
REMARK    3  A    between atoms: C5_9  and  C6_10 
ROOT
HETATM    1  C2  UNL     1      20.901  -3.987  40.662  1.00  0.00     0.011 C 
HETATM    2  C3  UNL     1      19.971  -3.613  41.753  1.00  0.00     0.007 C 
HETATM    3  C4  UNL     1      20.097  -2.231  42.283  1.00  0.00     0.015 C 
HETATM    4  C5  UNL     1      20.336  -1.162  41.290  1.00  0.00     0.087 C 
HETATM    5  C7  UNL     1      20.598  -1.716  39.929  1.00  0.00     0.015 C 
HETATM    6  C8  UNL     1      21.669  -2.799  40.125  1.00  0.00     0.007 C 
ENDROOT
BRANCH   1   7
HETATM    7  C1  UNL     1      21.817  -5.138  41.030  1.00  0.00     0.234 C 
BRANCH   7   8
HETATM    8  N1  UNL     1      23.181  -4.802  40.664  1.00  0.00    -0.079 N 
ATOM      9  H13 UNL     1      23.426  -5.138  39.733  1.00  0.00     0.274 HD
ATOM     10  H12 UNL     1      23.301  -3.803  40.494  1.00  0.00     0.274 HD
ATOM     11  H11 UNL     1      23.818  -5.150  41.381  1.00  0.00     0.274 HD
ENDBRANCH   7   8
ENDBRANCH   1   7
BRANCH   4  12
HETATM   12  C6  UNL     1      19.184  -0.212  41.174  1.00  0.00     0.177 C 
HETATM   13  O1  UNL     1      18.321  -0.485  40.300  1.00  0.00    -0.648 OA
HETATM   14  O2  UNL     1      19.067   0.894  41.972  1.00  0.00    -0.648 OA
ENDBRANCH   4  12
TORSDOF 3
ENDMDL
