MODEL 5
REMARK VINA RESULT: -5.518776222      1.320      1.892
REMARK  3 active torsions:
REMARK  status: ('A' for Active; 'I' for Inactive)
REMARK    1  A    between atoms: N1_1  and  C1_5 
REMARK    2  A    between atoms: C1_5  and  C2_6 
REMARK    3  A    between atoms: C5_9  and  C6_10 
ROOT
HETATM    1  C2  UNL     1      19.661  -1.244  41.377  1.00  0.00     0.011 C 
HETATM    2  C3  UNL     1      20.037  -1.864  40.084  1.00  0.00     0.007 C 
HETATM    3  C4  UNL     1      21.486  -2.109  39.866  1.00  0.00     0.015 C 
HETATM    4  C5  UNL     1      22.254  -2.605  41.028  1.00  0.00     0.087 C 
HETATM    5  C7  UNL     1      21.442  -2.587  42.281  1.00  0.00     0.015 C 
HETATM    6  C8  UNL     1      20.821  -1.183  42.347  1.00  0.00     0.007 C 
ENDROOT
BRANCH   1   7
HETATM    7  C1  UNL     1      18.982   0.101  41.216  1.00  0.00     0.234 C 
BRANCH   7   8
HETATM    8  N1  UNL     1      19.197   0.894  42.413  1.00  0.00    -0.079 N 
ATOM      9  H13 UNL     1      20.082   0.672  42.870  1.00  0.00     0.274 HD
ATOM     10  H12 UNL     1      19.385   1.874  42.200  1.00  0.00     0.274 HD
ATOM     11  H11 UNL     1      18.400   0.781  43.040  1.00  0.00     0.274 HD
ENDBRANCH   7   8
ENDBRANCH   1   7
BRANCH   4  12
HETATM   12  C6  UNL     1      22.751  -4.005  40.837  1.00  0.00     0.177 C 
HETATM   13  O1  UNL     1      23.997  -4.170  40.913  1.00  0.00    -0.648 OA
HETATM   14  O2  UNL     1      21.906  -5.054  40.594  1.00  0.00    -0.648 OA
ENDBRANCH   4  12
TORSDOF 3
ENDMDL
