MODEL 3
REMARK VINA RESULT: -5.944797495      3.966      8.419
REMARK  8 active torsions:
REMARK  status: ('A' for Active; 'I' for Inactive)
REMARK    1  A    between atoms: C2_2  and  N1_3 
REMARK    2  A    between atoms: N1_3  and  C3_4 
REMARK    3  A    between atoms: N1_3  and  C5_6 
REMARK    4  A    between atoms: C5_6  and  C6_7 
REMARK    5  A    between atoms: C6_7  and  C7_8 
REMARK    6  A    between atoms: C7_8  and  C8_9 
REMARK    7  A    between atoms: C8_9  and  N2_11 
REMARK    8  A    between atoms: N2_11  and  C10_13 
ROOT
HETATM    1  C10 UNL     1      35.691  12.475  16.906  1.00  0.00     0.042 A 
HETATM    2  C11 UNL     1      36.048  13.807  17.165  1.00  0.00     0.047 A 
HETATM    3  C12 UNL     1      35.921  14.299  18.439  1.00  0.00     0.090 A 
HETATM    4  N3  UNL     1      35.457  13.502  19.412  1.00  0.00    -0.365 N 
ATOM      5  H3  UNL     1      35.364  13.876  20.356  1.00  0.00     0.165 HD
HETATM    6  C13 UNL     1      35.112  12.227  19.180  1.00  0.00     0.046 A 
HETATM    7  C14 UNL     1      34.635  11.416  20.196  1.00  0.00     0.054 A 
HETATM    8  C15 UNL     1      34.269  10.103  19.996  1.00  0.00     0.036 A 
HETATM    9 CL1  UNL     1      33.678   9.146  21.320  1.00  0.00    -0.084 Cl
HETATM   10  C16 UNL     1      34.371   9.541  18.744  1.00  0.00     0.025 A 
HETATM   11  C17 UNL     1      34.847  10.344  17.721  1.00  0.00     0.018 A 
HETATM   12  C18 UNL     1      35.217  11.659  17.907  1.00  0.00     0.017 A 
ENDROOT
BRANCH   1  13
HETATM   13  N2  UNL     1      35.832  11.962  15.594  1.00  0.00    -0.385 N 
ATOM     14  H2  UNL     1      36.598  11.328  15.366  1.00  0.00     0.160 HD
BRANCH  13  15
HETATM   15  C8  UNL     1      34.864  12.355  14.571  1.00  0.00     0.077 C 
HETATM   16  C9  UNL     1      33.884  11.235  14.298  1.00  0.00     0.032 C 
BRANCH  15  17
HETATM   17  C7  UNL     1      35.614  12.635  13.297  1.00  0.00     0.026 C 
BRANCH  17  18
HETATM   18  C6  UNL     1      35.827  14.093  13.059  1.00  0.00     0.032 C 
BRANCH  18  19
HETATM   19  C5  UNL     1      35.911  14.405  11.587  1.00  0.00     0.272 C 
BRANCH  19  20
HETATM   20  N1  UNL     1      34.828  15.343  11.306  1.00  0.00     0.087 N 
BRANCH  20  21
HETATM   21  C2  UNL     1      35.426  16.557  10.829  1.00  0.00     0.268 C 
HETATM   22  C1  UNL     1      34.701  17.128   9.628  1.00  0.00     0.037 C 
ENDBRANCH  20  21
BRANCH  20  23
HETATM   23  C3  UNL     1      33.886  14.793  10.357  1.00  0.00     0.268 C 
HETATM   24  C4  UNL     1      34.363  13.471   9.837  1.00  0.00     0.037 C 
ENDBRANCH  20  23
ENDBRANCH  19  20
ENDBRANCH  18  19
ENDBRANCH  17  18
ENDBRANCH  15  17
ENDBRANCH  13  15
ENDBRANCH   1  13
TORSDOF 8
ENDMDL
