MODEL 2
REMARK VINA RESULT: -5.975190173      3.913      8.553
REMARK  8 active torsions:
REMARK  status: ('A' for Active; 'I' for Inactive)
REMARK    1  A    between atoms: C2_2  and  N1_3 
REMARK    2  A    between atoms: N1_3  and  C3_4 
REMARK    3  A    between atoms: N1_3  and  C5_6 
REMARK    4  A    between atoms: C5_6  and  C6_7 
REMARK    5  A    between atoms: C6_7  and  C7_8 
REMARK    6  A    between atoms: C7_8  and  C8_9 
REMARK    7  A    between atoms: C8_9  and  N2_11 
REMARK    8  A    between atoms: N2_11  and  C10_13 
ROOT
HETATM    1  C10 UNL     1      35.628  12.287  16.902  1.00  0.00     0.042 A 
HETATM    2  C11 UNL     1      35.985  13.621  17.151  1.00  0.00     0.047 A 
HETATM    3  C12 UNL     1      35.860  14.121  18.423  1.00  0.00     0.090 A 
HETATM    4  N3  UNL     1      35.400  13.330  19.402  1.00  0.00    -0.365 N 
ATOM      5  H3  UNL     1      35.309  13.710  20.344  1.00  0.00     0.165 HD
HETATM    6  C13 UNL     1      35.056  12.053  19.179  1.00  0.00     0.046 A 
HETATM    7  C14 UNL     1      34.582  11.248  20.201  1.00  0.00     0.054 A 
HETATM    8  C15 UNL     1      34.218   9.933  20.011  1.00  0.00     0.036 A 
HETATM    9 CL1  UNL     1      33.632   8.983  21.343  1.00  0.00    -0.084 Cl
HETATM   10  C16 UNL     1      34.317   9.363  18.762  1.00  0.00     0.025 A 
HETATM   11  C17 UNL     1      34.789  10.160  17.733  1.00  0.00     0.018 A 
HETATM   12  C18 UNL     1      35.158  11.477  17.910  1.00  0.00     0.017 A 
ENDROOT
BRANCH   1  13
HETATM   13  N2  UNL     1      35.766  11.766  15.593  1.00  0.00    -0.385 N 
ATOM     14  H2  UNL     1      36.518  11.113  15.372  1.00  0.00     0.160 HD
BRANCH  13  15
HETATM   15  C8  UNL     1      34.815  12.178  14.562  1.00  0.00     0.077 C 
HETATM   16  C9  UNL     1      33.848  11.059  14.242  1.00  0.00     0.032 C 
BRANCH  15  17
HETATM   17  C7  UNL     1      35.587  12.494  13.310  1.00  0.00     0.026 C 
BRANCH  17  18
HETATM   18  C6  UNL     1      35.802  13.959  13.117  1.00  0.00     0.032 C 
BRANCH  18  19
HETATM   19  C5  UNL     1      35.094  14.463  11.885  1.00  0.00     0.272 C 
BRANCH  19  20
HETATM   20  N1  UNL     1      36.051  15.316  11.186  1.00  0.00     0.087 N 
BRANCH  20  21
HETATM   21  C2  UNL     1      36.433  14.636   9.982  1.00  0.00     0.268 C 
HETATM   22  C1  UNL     1      37.862  14.136  10.026  1.00  0.00     0.037 C 
ENDBRANCH  20  21
BRANCH  20  23
HETATM   23  C3  UNL     1      35.493  16.623  10.916  1.00  0.00     0.268 C 
HETATM   24  C4  UNL     1      34.694  16.611   9.649  1.00  0.00     0.037 C 
ENDBRANCH  20  23
ENDBRANCH  19  20
ENDBRANCH  18  19
ENDBRANCH  17  18
ENDBRANCH  15  17
ENDBRANCH  13  15
ENDBRANCH   1  13
TORSDOF 8
ENDMDL
