MODEL 5
REMARK VINA RESULT: -5.893738165      3.710      6.963
REMARK  8 active torsions:
REMARK  status: ('A' for Active; 'I' for Inactive)
REMARK    1  A    between atoms: C2_2  and  N1_3 
REMARK    2  A    between atoms: N1_3  and  C3_4 
REMARK    3  A    between atoms: N1_3  and  C5_6 
REMARK    4  A    between atoms: C5_6  and  C6_7 
REMARK    5  A    between atoms: C6_7  and  C7_8 
REMARK    6  A    between atoms: C7_8  and  C8_9 
REMARK    7  A    between atoms: C8_9  and  N2_11 
REMARK    8  A    between atoms: N2_11  and  C10_13 
ROOT
HETATM    1  C10 UNL     1      36.666  13.758  16.284  1.00  0.00     0.042 A 
HETATM    2  C11 UNL     1      37.072  15.093  16.437  1.00  0.00     0.047 A 
HETATM    3  C12 UNL     1      36.837  15.733  17.628  1.00  0.00     0.090 A 
HETATM    4  N3  UNL     1      36.224  15.074  18.622  1.00  0.00    -0.365 N 
ATOM      5  H3  UNL     1      36.052  15.558  19.503  1.00  0.00     0.165 HD
HETATM    6  C13 UNL     1      35.830  13.799  18.491  1.00  0.00     0.046 A 
HETATM    7  C14 UNL     1      35.198  13.133  19.527  1.00  0.00     0.054 A 
HETATM    8  C15 UNL     1      34.778  11.824  19.430  1.00  0.00     0.036 A 
HETATM    9 CL1  UNL     1      33.991  11.053  20.773  1.00  0.00    -0.084 Cl
HETATM   10  C16 UNL     1      34.981  11.119  18.265  1.00  0.00     0.025 A 
HETATM   11  C17 UNL     1      35.612  11.777  17.223  1.00  0.00     0.018 A 
HETATM   12  C18 UNL     1      36.038  13.085  17.307  1.00  0.00     0.017 A 
ENDROOT
BRANCH   1  13
HETATM   13  N2  UNL     1      36.917  13.093  15.060  1.00  0.00    -0.385 N 
ATOM     14  H2  UNL     1      37.625  12.361  15.005  1.00  0.00     0.160 HD
BRANCH  13  15
HETATM   15  C8  UNL     1      36.147  13.472  13.877  1.00  0.00     0.077 C 
HETATM   16  C9  UNL     1      34.775  12.832  13.899  1.00  0.00     0.032 C 
BRANCH  15  17
HETATM   17  C7  UNL     1      36.874  12.965  12.661  1.00  0.00     0.026 C 
BRANCH  17  18
HETATM   18  C6  UNL     1      37.477  11.615  12.868  1.00  0.00     0.032 C 
BRANCH  18  19
HETATM   19  C5  UNL     1      36.960  10.620  11.860  1.00  0.00     0.272 C 
BRANCH  19  20
HETATM   20  N1  UNL     1      36.499   9.466  12.626  1.00  0.00     0.087 N 
BRANCH  20  21
HETATM   21  C2  UNL     1      37.011   9.605  13.959  1.00  0.00     0.268 C 
HETATM   22  C1  UNL     1      36.150   8.900  14.987  1.00  0.00     0.037 C 
ENDBRANCH  20  21
BRANCH  20  23
HETATM   23  C3  UNL     1      35.057   9.361  12.606  1.00  0.00     0.268 C 
HETATM   24  C4  UNL     1      34.491  10.010  11.381  1.00  0.00     0.037 C 
ENDBRANCH  20  23
ENDBRANCH  19  20
ENDBRANCH  18  19
ENDBRANCH  17  18
ENDBRANCH  15  17
ENDBRANCH  13  15
ENDBRANCH   1  13
TORSDOF 8
ENDMDL
