MODEL 1
REMARK VINA RESULT: -10.446528746      0.000      0.000
REMARK  6 active torsions:
REMARK  status: ('A' for Active; 'I' for Inactive)
REMARK    1  A    between atoms: C9_9  and  O1_10 
REMARK    2  A    between atoms: O1_10  and  C10_11 
REMARK    3  A    between atoms: C11_13  and  C12_14 
REMARK    4  A    between atoms: C13_17  and  O5_18 
REMARK    5  A    between atoms: C14_20  and  O6_21 
REMARK    6  A    between atoms: C15_23  and  O7_24 
ROOT
HETATM    1  C1  UNL     1      62.952  25.256  13.595  1.00  0.00     0.024 C 
HETATM    2  C2  UNL     1      62.439  23.841  13.671  1.00  0.00     0.021 C 
HETATM    3  C3  UNL     1      63.260  22.874  12.886  1.00  0.00     0.018 C 
HETATM    4  C4  UNL     1      63.392  23.497  11.491  1.00  0.00     0.011 C 
HETATM    5  C5  UNL     1      62.038  23.509  10.872  1.00  0.00     0.024 C 
HETATM    6  C6  UNL     1      62.001  24.129   9.533  1.00  0.00    -0.047 A 
HETATM    7  C7  UNL     1      63.126  24.556   8.879  1.00  0.00     0.011 A 
HETATM    8  C8  UNL     1      63.085  25.144   7.608  1.00  0.00     0.037 A 
HETATM    9  C9  UNL     1      61.853  25.284   7.020  1.00  0.00     0.072 A 
HETATM   10  C16 UNL     1      60.713  24.841   7.706  1.00  0.00     0.044 A 
HETATM   11  C17 UNL     1      60.765  24.266   8.949  1.00  0.00    -0.049 A 
HETATM   12  C18 UNL     1      59.524  23.806   9.645  1.00  0.00     0.039 C 
HETATM   13  C19 UNL     1      59.631  23.718  11.117  1.00  0.00     0.010 C 
HETATM   14  C20 UNL     1      60.966  24.164  11.696  1.00  0.00    -0.000 C 
HETATM   15  C21 UNL     1      61.013  23.732  13.109  1.00  0.00     0.006 C 
HETATM   16  C22 UNL     1      60.269  24.556  14.091  1.00  0.00     0.013 C 
HETATM   17  C23 UNL     1      60.879  24.089  15.422  1.00  0.00     0.079 C 
HETATM   18  C24 UNL     1      62.189  23.490  15.065  1.00  0.00     0.135 C 
HETATM   19  O8  UNL     1      62.912  22.837  15.778  1.00  0.00    -0.297 OA
ENDROOT
BRANCH   9  20
HETATM   20  O1  UNL     1      61.692  25.845   5.782  1.00  0.00    -0.318 OA
BRANCH  20  21
HETATM   21  C10 UNL     1      61.310  25.242   4.609  1.00  0.00     0.298 C 
HETATM   22  O2  UNL     1      62.475  24.886   3.927  1.00  0.00    -0.340 OA
HETATM   23  C11 UNL     1      62.332  24.653   2.593  1.00  0.00     0.256 C 
HETATM   24  C13 UNL     1      60.952  24.202   2.229  1.00  0.00     0.189 C 
HETATM   25  C14 UNL     1      59.979  25.297   2.580  1.00  0.00     0.183 C 
HETATM   26  C15 UNL     1      60.419  26.123   3.742  1.00  0.00     0.205 C 
BRANCH  23  27
HETATM   27  C12 UNL     1      62.838  25.760   1.740  1.00  0.00     0.206 C 
HETATM   28  O3  UNL     1      63.649  26.567   2.218  1.00  0.00    -0.646 OA
HETATM   29  O4  UNL     1      62.440  25.930   0.426  1.00  0.00    -0.646 OA
ENDBRANCH  23  27
BRANCH  24  30
HETATM   30  O5  UNL     1      60.694  23.008   2.902  1.00  0.00    -0.390 OA
ATOM     31  H5  UNL     1      59.760  22.840   2.858  1.00  0.00     0.210 HD
ENDBRANCH  24  30
BRANCH  25  32
HETATM   32  O6  UNL     1      59.717  26.069   1.441  1.00  0.00    -0.390 OA
ATOM     33  H6  UNL     1      60.110  26.928   1.544  1.00  0.00     0.210 HD
ENDBRANCH  25  32
BRANCH  26  34
HETATM   34  O7  UNL     1      59.298  26.424   4.519  1.00  0.00    -0.388 OA
ATOM     35  H7  UNL     1      58.544  26.291   3.957  1.00  0.00     0.210 HD
ENDBRANCH  26  34
ENDBRANCH  20  21
ENDBRANCH   9  20
TORSDOF 6
ENDMDL
