MODEL 7
REMARK VINA RESULT: -9.351625514      1.804      9.937
REMARK  6 active torsions:
REMARK  status: ('A' for Active; 'I' for Inactive)
REMARK    1  A    between atoms: C9_9  and  O1_10 
REMARK    2  A    between atoms: O1_10  and  C10_11 
REMARK    3  A    between atoms: C11_13  and  C12_14 
REMARK    4  A    between atoms: C13_17  and  O5_18 
REMARK    5  A    between atoms: C14_20  and  O6_21 
REMARK    6  A    between atoms: C15_23  and  O7_24 
ROOT
HETATM    1  C1  UNL     1      63.355  23.906   4.233  1.00  0.00     0.024 C 
HETATM    2  C2  UNL     1      62.576  25.190   4.107  1.00  0.00     0.021 C 
HETATM    3  C3  UNL     1      63.191  26.327   4.852  1.00  0.00     0.018 C 
HETATM    4  C4  UNL     1      63.438  25.794   6.268  1.00  0.00     0.011 C 
HETATM    5  C5  UNL     1      62.111  25.542   6.893  1.00  0.00     0.024 C 
HETATM    6  C6  UNL     1      62.191  24.977   8.255  1.00  0.00    -0.047 A 
HETATM    7  C7  UNL     1      63.376  24.802   8.919  1.00  0.00     0.011 A 
HETATM    8  C8  UNL     1      63.446  24.265  10.211  1.00  0.00     0.037 A 
HETATM    9  C9  UNL     1      62.263  23.910  10.809  1.00  0.00     0.072 A 
HETATM   10  C16 UNL     1      61.061  24.097  10.113  1.00  0.00     0.044 A 
HETATM   11  C17 UNL     1      61.004  24.624   8.849  1.00  0.00    -0.049 A 
HETATM   12  C18 UNL     1      59.699  24.808   8.141  1.00  0.00     0.039 C 
HETATM   13  C19 UNL     1      59.791  24.860   6.667  1.00  0.00     0.010 C 
HETATM   14  C20 UNL     1      61.189  24.661   6.099  1.00  0.00    -0.000 C 
HETATM   15  C21 UNL     1      61.155  25.040   4.670  1.00  0.00     0.006 C 
HETATM   16  C22 UNL     1      60.589  24.052   3.723  1.00  0.00     0.013 C 
HETATM   17  C23 UNL     1      61.100  24.578   2.373  1.00  0.00     0.079 C 
HETATM   18  C24 UNL     1      62.267  25.434   2.702  1.00  0.00     0.135 C 
HETATM   19  O8  UNL     1      62.851  26.188   1.962  1.00  0.00    -0.297 OA
ENDROOT
BRANCH   9  20
HETATM   20  O1  UNL     1      62.211  23.375  12.068  1.00  0.00    -0.318 OA
BRANCH  20  21
HETATM   21  C10 UNL     1      62.346  24.010  13.277  1.00  0.00     0.298 C 
HETATM   22  O2  UNL     1      63.632  23.739  13.747  1.00  0.00    -0.340 OA
HETATM   23  C11 UNL     1      63.827  23.927  15.082  1.00  0.00     0.256 C 
HETATM   24  C13 UNL     1      62.897  24.944  15.665  1.00  0.00     0.189 C 
HETATM   25  C14 UNL     1      61.482  24.452  15.502  1.00  0.00     0.183 C 
HETATM   26  C15 UNL     1      61.294  23.592  14.298  1.00  0.00     0.205 C 
BRANCH  23  27
HETATM   27  C12 UNL     1      63.881  22.660  15.857  1.00  0.00     0.206 C 
HETATM   28  O3  UNL     1      64.127  21.600  15.263  1.00  0.00    -0.646 OA
HETATM   29  O4  UNL     1      63.666  22.612  17.223  1.00  0.00    -0.646 OA
ENDBRANCH  23  27
BRANCH  24  30
HETATM   30  O5  UNL     1      63.127  26.161  15.024  1.00  0.00    -0.390 OA
ATOM     31  H5  UNL     1      63.765  26.647  15.533  1.00  0.00     0.210 HD
ENDBRANCH  24  30
BRANCH  25  32
HETATM   32  O6  UNL     1      61.070  23.821  16.683  1.00  0.00    -0.390 OA
ATOM     33  H6  UNL     1      60.521  23.076  16.467  1.00  0.00     0.210 HD
ENDBRANCH  25  32
BRANCH  26  34
HETATM   34  O7  UNL     1      60.057  23.898  13.725  1.00  0.00    -0.388 OA
ATOM     35  H7  UNL     1      59.881  23.208  13.097  1.00  0.00     0.210 HD
ENDBRANCH  26  34
ENDBRANCH  20  21
ENDBRANCH   9  20
TORSDOF 6
ENDMDL
