MODEL 4
REMARK VINA RESULT: -9.540327575      2.384      4.618
REMARK  6 active torsions:
REMARK  status: ('A' for Active; 'I' for Inactive)
REMARK    1  A    between atoms: C9_9  and  O1_10 
REMARK    2  A    between atoms: O1_10  and  C10_11 
REMARK    3  A    between atoms: C11_13  and  C12_14 
REMARK    4  A    between atoms: C13_17  and  O5_18 
REMARK    5  A    between atoms: C14_20  and  O6_21 
REMARK    6  A    between atoms: C15_23  and  O7_24 
ROOT
HETATM    1  C1  UNL     1      60.999  22.327   9.405  1.00  0.00     0.024 C 
HETATM    2  C2  UNL     1      61.040  23.733   9.946  1.00  0.00     0.021 C 
HETATM    3  C3  UNL     1      59.881  24.566   9.512  1.00  0.00     0.018 C 
HETATM    4  C4  UNL     1      59.816  24.403   7.989  1.00  0.00     0.011 C 
HETATM    5  C5  UNL     1      61.036  25.037   7.416  1.00  0.00     0.024 C 
HETATM    6  C6  UNL     1      61.135  24.917   5.948  1.00  0.00    -0.047 A 
HETATM    7  C7  UNL     1      60.147  24.367   5.177  1.00  0.00     0.011 A 
HETATM    8  C8  UNL     1      60.247  24.255   3.785  1.00  0.00     0.037 A 
HETATM    9  C9  UNL     1      61.395  24.725   3.197  1.00  0.00     0.072 A 
HETATM   10  C16 UNL     1      62.396  25.284   4.003  1.00  0.00     0.044 A 
HETATM   11  C17 UNL     1      62.287  25.389   5.366  1.00  0.00    -0.049 A 
HETATM   12  C18 UNL     1      63.379  25.994   6.189  1.00  0.00     0.039 C 
HETATM   13  C19 UNL     1      63.396  25.577   7.607  1.00  0.00     0.010 C 
HETATM   14  C20 UNL     1      62.336  24.554   7.992  1.00  0.00    -0.000 C 
HETATM   15  C21 UNL     1      62.294  24.480   9.468  1.00  0.00     0.006 C 
HETATM   16  C22 UNL     1      63.355  23.688  10.134  1.00  0.00     0.013 C 
HETATM   17  C23 UNL     1      62.763  23.484  11.537  1.00  0.00     0.079 C 
HETATM   18  C24 UNL     1      61.302  23.693  11.381  1.00  0.00     0.135 C 
HETATM   19  O8  UNL     1      60.483  23.810  12.261  1.00  0.00    -0.297 OA
ENDROOT
BRANCH   9  20
HETATM   20  O1  UNL     1      61.603  24.667   1.845  1.00  0.00    -0.318 OA
BRANCH  20  21
HETATM   21  C10 UNL     1      62.459  23.856   1.142  1.00  0.00     0.298 C 
HETATM   22  O2  UNL     1      62.836  22.815   1.991  1.00  0.00    -0.340 OA
HETATM   23  C11 UNL     1      63.968  22.144   1.639  1.00  0.00     0.256 C 
HETATM   24  C13 UNL     1      64.235  22.191   0.167  1.00  0.00     0.189 C 
HETATM   25  C14 UNL     1      64.442  23.628  -0.239  1.00  0.00     0.183 C 
HETATM   26  C15 UNL     1      63.681  24.593   0.606  1.00  0.00     0.205 C 
BRANCH  23  27
HETATM   27  C12 UNL     1      65.150  22.501   2.467  1.00  0.00     0.206 C 
HETATM   28  O3  UNL     1      64.974  22.909   3.625  1.00  0.00    -0.646 OA
HETATM   29  O4  UNL     1      66.447  22.398   1.998  1.00  0.00    -0.646 OA
ENDBRANCH  23  27
BRANCH  24  30
HETATM   30  O5  UNL     1      63.161  21.590  -0.488  1.00  0.00    -0.390 OA
ATOM     31  H5  UNL     1      63.066  22.002  -1.339  1.00  0.00     0.210 HD
ENDBRANCH  24  30
BRANCH  25  32
HETATM   32  O6  UNL     1      65.814  23.908  -0.273  1.00  0.00    -0.390 OA
ATOM     33  H6  UNL     1      66.167  23.653  -1.118  1.00  0.00     0.210 HD
ENDBRANCH  25  32
BRANCH  26  34
HETATM   34  O7  UNL     1      63.190  25.609  -0.216  1.00  0.00    -0.388 OA
ATOM     35  H7  UNL     1      62.572  25.195  -0.806  1.00  0.00     0.210 HD
ENDBRANCH  26  34
ENDBRANCH  20  21
ENDBRANCH   9  20
TORSDOF 6
ENDMDL
