MODEL 1
REMARK VINA RESULT: -8.397214281      0.000      0.000
REMARK  19 active torsions:
REMARK  status: ('A' for Active; 'I' for Inactive)
REMARK    1  A    between atoms: C2_2  and  C4_4 
REMARK    2  A    between atoms: C4_4  and  C5_5 
REMARK    3  A    between atoms: C5_5  and  N1_6 
REMARK    4  A    between atoms: C5_5  and  C18_26 
REMARK    5  A    between atoms: N1_6  and  C6_8 
REMARK    6  A    between atoms: C6_8  and  C7_9 
REMARK    7  A    between atoms: C6_8  and  C17_23 
REMARK    8  A    between atoms: C7_9  and  C8_10 
REMARK    9  A    between atoms: C8_10  and  N2_11 
REMARK       I    between atoms: N2_11  and  C9_13 
REMARK   10  A    between atoms: C9_13  and  O2_15 
REMARK   11  A    between atoms: O2_15  and  C10_16 
REMARK   12  A    between atoms: C10_16  and  C11_17 
REMARK       I    between atoms: C18_26  and  N3_28 
REMARK   13  A    between atoms: N3_28  and  C19_30 
REMARK   14  A    between atoms: C19_30  and  C20_31 
REMARK   15  A    between atoms: C19_30  and  C27_38 
REMARK   16  A    between atoms: C20_31  and  C21_32 
REMARK       I    between atoms: C27_38  and  N4_40 
REMARK   17  A    between atoms: N4_40  and  C28_42 
REMARK   18  A    between atoms: C28_42  and  C29_43 
REMARK   19  A    between atoms: C29_43  and  N5_44 
ROOT
HETATM    1  C5  UNL     1      31.025  42.702  -1.259  1.00  0.00     0.093 C 
ENDROOT
BRANCH   1   2
HETATM    2  C4  UNL     1      32.466  42.792  -1.086  1.00  0.00     0.012 C 
BRANCH   2   3
HETATM    3  C2  UNL     1      33.394  43.794  -1.521  1.00  0.00     0.002 C 
HETATM    4  C1  UNL     1      33.060  44.656  -2.700  1.00  0.00     0.013 C 
HETATM    5  C3  UNL     1      33.509  44.856  -0.357  1.00  0.00     0.013 C 
ENDBRANCH   2   3
ENDBRANCH   1   2
BRANCH   1   6
HETATM    6  N1  UNL     1      30.082  43.116  -0.285  1.00  0.00    -0.371 N 
ATOM      7  H1  UNL     1      29.864  42.517   0.511  1.00  0.00     0.160 HD
BRANCH   6   8
HETATM    8  C6  UNL     1      29.441  44.387  -0.435  1.00  0.00     0.184 C 
BRANCH   8   9
HETATM    9  C7  UNL     1      29.601  45.270   0.731  1.00  0.00     0.056 C 
BRANCH   9  10
HETATM   10  C8  UNL     1      30.089  46.640   0.692  1.00  0.00     0.127 C 
BRANCH  10  11
HETATM   11  N2  UNL     1      31.166  46.886   1.619  1.00  0.00    -0.337 N 
HETATM   12  C9  UNL     1      31.182  48.056   2.470  1.00  0.00     0.360 C 
HETATM   13  O1  UNL     1      30.249  48.863   2.376  1.00  0.00    -0.239 OA
ATOM     14  H2  UNL     1      31.936  46.219   1.677  1.00  0.00     0.164 HD
BRANCH  12  15
HETATM   15  O2  UNL     1      32.224  48.237   3.368  1.00  0.00    -0.299 OA
BRANCH  15  16
HETATM   16  C10 UNL     1      33.390  47.469   3.382  1.00  0.00     0.219 C 
BRANCH  16  17
HETATM   17  C11 UNL     1      34.431  48.240   2.673  1.00  0.00    -0.034 A 
HETATM   18  C12 UNL     1      34.606  49.564   2.960  1.00  0.00     0.009 A 
HETATM   19  C13 UNL     1      35.600  50.294   2.285  1.00  0.00     0.001 A 
HETATM   20  C14 UNL     1      36.379  49.655   1.342  1.00  0.00     0.000 A 
HETATM   21  C15 UNL     1      36.211  48.318   1.045  1.00  0.00     0.001 A 
HETATM   22  C16 UNL     1      35.221  47.634   1.735  1.00  0.00     0.009 A 
ENDBRANCH  16  17
ENDBRANCH  15  16
ENDBRANCH  12  15
ENDBRANCH  10  11
ENDBRANCH   9  10
ENDBRANCH   8   9
BRANCH   8  23
HETATM   23  C17 UNL     1      27.990  44.135  -0.668  1.00  0.00     0.196 C 
HETATM   24  O3  UNL     1      27.538  43.019  -1.026  1.00  0.00    -0.646 OA
HETATM   25  O4  UNL     1      27.042  45.161  -0.501  1.00  0.00    -0.646 OA
ENDBRANCH   8  23
ENDBRANCH   6   8
ENDBRANCH   1   6
BRANCH   1  26
HETATM   26  C18 UNL     1      30.666  41.315  -1.825  1.00  0.00     0.268 C 
HETATM   27  O5  UNL     1      31.476  40.808  -2.616  1.00  0.00    -0.266 OA
HETATM   28  N3  UNL     1      29.496  40.710  -1.453  1.00  0.00    -0.342 N 
ATOM     29  H3  UNL     1      28.942  41.236  -0.778  1.00  0.00     0.163 HD
BRANCH  28  30
HETATM   30  C19 UNL     1      28.915  39.445  -1.860  1.00  0.00     0.181 C 
BRANCH  30  31
HETATM   31  C20 UNL     1      29.515  38.274  -1.204  1.00  0.00     0.073 C 
BRANCH  31  32
HETATM   32  C21 UNL     1      29.916  37.200  -2.142  1.00  0.00    -0.056 A 
HETATM   33  C22 UNL     1      30.066  35.875  -1.934  1.00  0.00     0.007 A 
HETATM   34  C23 UNL     1      30.370  34.967  -2.936  1.00  0.00     0.001 A 
HETATM   35  C24 UNL     1      30.537  35.401  -4.219  1.00  0.00     0.000 A 
HETATM   36  C25 UNL     1      30.396  36.749  -4.479  1.00  0.00     0.001 A 
HETATM   37  C26 UNL     1      30.094  37.634  -3.477  1.00  0.00     0.007 A 
ENDBRANCH  31  32
ENDBRANCH  30  31
BRANCH  30  38
HETATM   38  C27 UNL     1      27.475  39.611  -1.750  1.00  0.00     0.240 C 
HETATM   39  O6  UNL     1      26.899  39.504  -0.633  1.00  0.00    -0.271 OA
HETATM   40  N4  UNL     1      26.683  39.871  -2.928  1.00  0.00    -0.358 N 
ATOM     41  H4  UNL     1      27.158  39.958  -3.826  1.00  0.00     0.162 HD
BRANCH  40  42
HETATM   42  C28 UNL     1      25.265  40.012  -2.891  1.00  0.00     0.152 C 
BRANCH  42  43
HETATM   43  C29 UNL     1      24.494  39.137  -3.783  1.00  0.00     0.292 C 
BRANCH  43  44
HETATM   44  N5  UNL     1      23.733  38.122  -3.101  1.00  0.00     0.094 N 
HETATM   45  C30 UNL     1      22.662  38.616  -2.282  1.00  0.00     0.298 C 
HETATM   46  C31 UNL     1      21.965  37.409  -1.650  1.00  0.00     0.198 C 
HETATM   47  O7  UNL     1      22.539  36.213  -2.046  1.00  0.00    -0.388 OA
HETATM   48  C32 UNL     1      23.893  36.142  -1.674  1.00  0.00     0.198 C 
HETATM   49  C33 UNL     1      24.623  37.267  -2.356  1.00  0.00     0.298 C 
ENDBRANCH  43  44
ENDBRANCH  42  43
ENDBRANCH  40  42
ENDBRANCH  30  38
ENDBRANCH  28  30
ENDBRANCH   1  26
TORSDOF 19
ENDMDL
