MODEL 3
REMARK VINA RESULT: -8.110539878      1.417      2.204
REMARK  19 active torsions:
REMARK  status: ('A' for Active; 'I' for Inactive)
REMARK    1  A    between atoms: C2_2  and  C4_4 
REMARK    2  A    between atoms: C4_4  and  C5_5 
REMARK    3  A    between atoms: C5_5  and  N1_6 
REMARK    4  A    between atoms: C5_5  and  C18_26 
REMARK    5  A    between atoms: N1_6  and  C6_8 
REMARK    6  A    between atoms: C6_8  and  C7_9 
REMARK    7  A    between atoms: C6_8  and  C17_23 
REMARK    8  A    between atoms: C7_9  and  C8_10 
REMARK    9  A    between atoms: C8_10  and  N2_11 
REMARK       I    between atoms: N2_11  and  C9_13 
REMARK   10  A    between atoms: C9_13  and  O2_15 
REMARK   11  A    between atoms: O2_15  and  C10_16 
REMARK   12  A    between atoms: C10_16  and  C11_17 
REMARK       I    between atoms: C18_26  and  N3_28 
REMARK   13  A    between atoms: N3_28  and  C19_30 
REMARK   14  A    between atoms: C19_30  and  C20_31 
REMARK   15  A    between atoms: C19_30  and  C27_38 
REMARK   16  A    between atoms: C20_31  and  C21_32 
REMARK       I    between atoms: C27_38  and  N4_40 
REMARK   17  A    between atoms: N4_40  and  C28_42 
REMARK   18  A    between atoms: C28_42  and  C29_43 
REMARK   19  A    between atoms: C29_43  and  N5_44 
ROOT
HETATM    1  C5  UNL     1      31.124  42.655  -1.198  1.00  0.00     0.093 C 
ENDROOT
BRANCH   1   2
HETATM    2  C4  UNL     1      32.564  42.713  -1.001  1.00  0.00     0.012 C 
BRANCH   2   3
HETATM    3  C2  UNL     1      33.513  43.723  -1.366  1.00  0.00     0.002 C 
HETATM    4  C1  UNL     1      33.278  44.557  -2.589  1.00  0.00     0.013 C 
HETATM    5  C3  UNL     1      33.500  44.809  -0.218  1.00  0.00     0.013 C 
ENDBRANCH   2   3
ENDBRANCH   1   2
BRANCH   1   6
HETATM    6  N1  UNL     1      30.175  43.079  -0.236  1.00  0.00    -0.371 N 
ATOM      7  H1  UNL     1      29.973  42.502   0.581  1.00  0.00     0.160 HD
BRANCH   6   8
HETATM    8  C6  UNL     1      29.503  44.329  -0.426  1.00  0.00     0.184 C 
BRANCH   8   9
HETATM    9  C7  UNL     1      29.660  45.260   0.702  1.00  0.00     0.056 C 
BRANCH   9  10
HETATM   10  C8  UNL     1      30.103  46.642   0.601  1.00  0.00     0.127 C 
BRANCH  10  11
HETATM   11  N2  UNL     1      31.204  46.953   1.480  1.00  0.00    -0.337 N 
HETATM   12  C9  UNL     1      31.089  47.956   2.515  1.00  0.00     0.360 C 
HETATM   13  O1  UNL     1      30.017  48.565   2.626  1.00  0.00    -0.239 OA
ATOM     14  H2  UNL     1      32.086  46.452   1.368  1.00  0.00     0.164 HD
BRANCH  12  15
HETATM   15  O2  UNL     1      32.165  48.201   3.356  1.00  0.00    -0.299 OA
BRANCH  15  16
HETATM   16  C10 UNL     1      33.326  47.426   3.390  1.00  0.00     0.219 C 
BRANCH  16  17
HETATM   17  C11 UNL     1      34.380  48.186   2.691  1.00  0.00    -0.034 A 
HETATM   18  C12 UNL     1      34.540  49.519   2.949  1.00  0.00     0.009 A 
HETATM   19  C13 UNL     1      35.547  50.239   2.284  1.00  0.00     0.001 A 
HETATM   20  C14 UNL     1      36.356  49.582   1.379  1.00  0.00     0.000 A 
HETATM   21  C15 UNL     1      36.205  48.237   1.110  1.00  0.00     0.001 A 
HETATM   22  C16 UNL     1      35.201  47.563   1.790  1.00  0.00     0.009 A 
ENDBRANCH  16  17
ENDBRANCH  15  16
ENDBRANCH  12  15
ENDBRANCH  10  11
ENDBRANCH   9  10
ENDBRANCH   8   9
BRANCH   8  23
HETATM   23  C17 UNL     1      28.055  44.037  -0.627  1.00  0.00     0.196 C 
HETATM   24  O3  UNL     1      27.640  43.007  -1.214  1.00  0.00    -0.646 OA
HETATM   25  O4  UNL     1      27.067  44.926  -0.165  1.00  0.00    -0.646 OA
ENDBRANCH   8  23
ENDBRANCH   6   8
ENDBRANCH   1   6
BRANCH   1  26
HETATM   26  C18 UNL     1      30.746  41.281  -1.784  1.00  0.00     0.268 C 
HETATM   27  O5  UNL     1      31.523  40.799  -2.622  1.00  0.00    -0.266 OA
HETATM   28  N3  UNL     1      29.596  40.662  -1.377  1.00  0.00    -0.342 N 
ATOM     29  H3  UNL     1      29.070  41.167  -0.664  1.00  0.00     0.163 HD
BRANCH  28  30
HETATM   30  C19 UNL     1      29.003  39.404  -1.791  1.00  0.00     0.181 C 
BRANCH  30  31
HETATM   31  C20 UNL     1      29.653  38.218  -1.215  1.00  0.00     0.073 C 
BRANCH  31  32
HETATM   32  C21 UNL     1      30.047  37.202  -2.218  1.00  0.00    -0.056 A 
HETATM   33  C22 UNL     1      30.341  35.894  -2.061  1.00  0.00     0.007 A 
HETATM   34  C23 UNL     1      30.617  35.035  -3.114  1.00  0.00     0.001 A 
HETATM   35  C24 UNL     1      30.602  35.504  -4.395  1.00  0.00     0.000 A 
HETATM   36  C25 UNL     1      30.309  36.836  -4.603  1.00  0.00     0.001 A 
HETATM   37  C26 UNL     1      30.037  37.672  -3.552  1.00  0.00     0.007 A 
ENDBRANCH  31  32
ENDBRANCH  30  31
BRANCH  30  38
HETATM   38  C27 UNL     1      27.570  39.550  -1.586  1.00  0.00     0.240 C 
HETATM   39  O6  UNL     1      27.115  39.923  -0.471  1.00  0.00    -0.271 OA
HETATM   40  N4  UNL     1      26.650  39.239  -2.654  1.00  0.00    -0.358 N 
ATOM     41  H4  UNL     1      27.029  38.941  -3.553  1.00  0.00     0.162 HD
BRANCH  40  42
HETATM   42  C28 UNL     1      25.235  39.331  -2.507  1.00  0.00     0.152 C 
BRANCH  42  43
HETATM   43  C29 UNL     1      24.521  40.130  -3.510  1.00  0.00     0.292 C 
BRANCH  43  44
HETATM   44  N5  UNL     1      24.337  41.511  -3.143  1.00  0.00     0.094 N 
HETATM   45  C30 UNL     1      25.260  42.427  -3.750  1.00  0.00     0.298 C 
HETATM   46  C31 UNL     1      24.911  43.834  -3.257  1.00  0.00     0.198 C 
HETATM   47  O7  UNL     1      23.824  43.828  -2.400  1.00  0.00    -0.388 OA
HETATM   48  C32 UNL     1      24.072  43.047  -1.258  1.00  0.00     0.198 C 
HETATM   49  C33 UNL     1      24.329  41.634  -1.707  1.00  0.00     0.298 C 
ENDBRANCH  43  44
ENDBRANCH  42  43
ENDBRANCH  40  42
ENDBRANCH  30  38
ENDBRANCH  28  30
ENDBRANCH   1  26
TORSDOF 19
ENDMDL
