MODEL 2
REMARK VINA RESULT: -8.307989909      1.740      2.551
REMARK  19 active torsions:
REMARK  status: ('A' for Active; 'I' for Inactive)
REMARK    1  A    between atoms: C2_2  and  C4_4 
REMARK    2  A    between atoms: C4_4  and  C5_5 
REMARK    3  A    between atoms: C5_5  and  N1_6 
REMARK    4  A    between atoms: C5_5  and  C18_26 
REMARK    5  A    between atoms: N1_6  and  C6_8 
REMARK    6  A    between atoms: C6_8  and  C7_9 
REMARK    7  A    between atoms: C6_8  and  C17_23 
REMARK    8  A    between atoms: C7_9  and  C8_10 
REMARK    9  A    between atoms: C8_10  and  N2_11 
REMARK       I    between atoms: N2_11  and  C9_13 
REMARK   10  A    between atoms: C9_13  and  O2_15 
REMARK   11  A    between atoms: O2_15  and  C10_16 
REMARK   12  A    between atoms: C10_16  and  C11_17 
REMARK       I    between atoms: C18_26  and  N3_28 
REMARK   13  A    between atoms: N3_28  and  C19_30 
REMARK   14  A    between atoms: C19_30  and  C20_31 
REMARK   15  A    between atoms: C19_30  and  C27_38 
REMARK   16  A    between atoms: C20_31  and  C21_32 
REMARK       I    between atoms: C27_38  and  N4_40 
REMARK   17  A    between atoms: N4_40  and  C28_42 
REMARK   18  A    between atoms: C28_42  and  C29_43 
REMARK   19  A    between atoms: C29_43  and  N5_44 
ROOT
HETATM    1  C5  UNL     1      31.027  42.685  -1.255  1.00  0.00     0.093 C 
ENDROOT
BRANCH   1   2
HETATM    2  C4  UNL     1      32.478  42.732  -1.165  1.00  0.00     0.012 C 
BRANCH   2   3
HETATM    3  C2  UNL     1      33.403  43.740  -1.591  1.00  0.00     0.002 C 
HETATM    4  C1  UNL     1      32.978  44.763  -2.600  1.00  0.00     0.013 C 
HETATM    5  C3  UNL     1      33.729  44.635  -0.330  1.00  0.00     0.013 C 
ENDBRANCH   2   3
ENDBRANCH   1   2
BRANCH   1   6
HETATM    6  N1  UNL     1      30.155  43.121  -0.227  1.00  0.00    -0.371 N 
ATOM      7  H1  UNL     1      29.941  42.512   0.563  1.00  0.00     0.160 HD
BRANCH   6   8
HETATM    8  C6  UNL     1      29.578  44.429  -0.313  1.00  0.00     0.184 C 
BRANCH   8   9
HETATM    9  C7  UNL     1      29.863  45.277   0.854  1.00  0.00     0.056 C 
BRANCH   9  10
HETATM   10  C8  UNL     1      30.270  46.673   0.804  1.00  0.00     0.127 C 
BRANCH  10  11
HETATM   11  N2  UNL     1      30.969  47.018  -0.410  1.00  0.00    -0.337 N 
HETATM   12  C9  UNL     1      32.132  47.878  -0.398  1.00  0.00     0.360 C 
HETATM   13  O1  UNL     1      32.514  48.334   0.687  1.00  0.00    -0.239 OA
ATOM     14  H2  UNL     1      30.635  46.646  -1.300  1.00  0.00     0.164 HD
BRANCH  12  15
HETATM   15  O2  UNL     1      32.790  48.159  -1.587  1.00  0.00    -0.299 OA
BRANCH  15  16
HETATM   16  C10 UNL     1      34.009  48.834  -1.668  1.00  0.00     0.219 C 
BRANCH  16  17
HETATM   17  C11 UNL     1      34.997  47.890  -2.226  1.00  0.00    -0.034 A 
HETATM   18  C12 UNL     1      34.992  47.616  -3.564  1.00  0.00     0.009 A 
HETATM   19  C13 UNL     1      35.936  46.719  -4.093  1.00  0.00     0.001 A 
HETATM   20  C14 UNL     1      36.852  46.131  -3.244  1.00  0.00     0.000 A 
HETATM   21  C15 UNL     1      36.867  46.401  -1.890  1.00  0.00     0.001 A 
HETATM   22  C16 UNL     1      35.920  47.293  -1.411  1.00  0.00     0.009 A 
ENDBRANCH  16  17
ENDBRANCH  15  16
ENDBRANCH  12  15
ENDBRANCH  10  11
ENDBRANCH   9  10
ENDBRANCH   8   9
BRANCH   8  23
HETATM   23  C17 UNL     1      28.103  44.262  -0.454  1.00  0.00     0.196 C 
HETATM   24  O3  UNL     1      27.272  45.040   0.077  1.00  0.00    -0.646 OA
HETATM   25  O4  UNL     1      27.564  43.197  -1.197  1.00  0.00    -0.646 OA
ENDBRANCH   8  23
ENDBRANCH   6   8
ENDBRANCH   1   6
BRANCH   1  26
HETATM   26  C18 UNL     1      30.596  41.311  -1.804  1.00  0.00     0.268 C 
HETATM   27  O5  UNL     1      31.338  40.791  -2.651  1.00  0.00    -0.266 OA
HETATM   28  N3  UNL     1      29.439  40.733  -1.357  1.00  0.00    -0.342 N 
ATOM     29  H3  UNL     1      28.945  41.267  -0.643  1.00  0.00     0.163 HD
BRANCH  28  30
HETATM   30  C19 UNL     1      28.800  39.486  -1.732  1.00  0.00     0.181 C 
BRANCH  30  31
HETATM   31  C20 UNL     1      29.416  38.295  -1.131  1.00  0.00     0.073 C 
BRANCH  31  32
HETATM   32  C21 UNL     1      29.869  37.289  -2.119  1.00  0.00    -0.056 A 
HETATM   33  C22 UNL     1      30.138  35.975  -1.962  1.00  0.00     0.007 A 
HETATM   34  C23 UNL     1      30.478  35.128  -3.005  1.00  0.00     0.001 A 
HETATM   35  C24 UNL     1      30.557  35.614  -4.277  1.00  0.00     0.000 A 
HETATM   36  C25 UNL     1      30.293  36.953  -4.486  1.00  0.00     0.001 A 
HETATM   37  C26 UNL     1      29.957  37.777  -3.443  1.00  0.00     0.007 A 
ENDBRANCH  31  32
ENDBRANCH  30  31
BRANCH  30  38
HETATM   38  C27 UNL     1      27.375  39.685  -1.518  1.00  0.00     0.240 C 
HETATM   39  O6  UNL     1      26.810  39.225  -0.489  1.00  0.00    -0.271 OA
HETATM   40  N4  UNL     1      26.586  40.387  -2.501  1.00  0.00    -0.358 N 
ATOM     41  H4  UNL     1      27.053  40.757  -3.329  1.00  0.00     0.162 HD
BRANCH  40  42
HETATM   42  C28 UNL     1      25.181  40.587  -2.365  1.00  0.00     0.152 C 
BRANCH  42  43
HETATM   43  C29 UNL     1      24.312  39.671  -3.113  1.00  0.00     0.292 C 
BRANCH  43  44
HETATM   44  N5  UNL     1      23.949  38.479  -2.390  1.00  0.00     0.094 N 
HETATM   45  C30 UNL     1      24.653  37.293  -2.789  1.00  0.00     0.298 C 
HETATM   46  C31 UNL     1      24.151  36.139  -1.918  1.00  0.00     0.198 C 
HETATM   47  O7  UNL     1      23.197  36.556  -1.005  1.00  0.00    -0.388 OA
HETATM   48  C32 UNL     1      22.071  37.100  -1.648  1.00  0.00     0.198 C 
HETATM   49  C33 UNL     1      22.521  38.295  -2.443  1.00  0.00     0.298 C 
ENDBRANCH  43  44
ENDBRANCH  42  43
ENDBRANCH  40  42
ENDBRANCH  30  38
ENDBRANCH  28  30
ENDBRANCH   1  26
TORSDOF 19
ENDMDL
