MODEL 3
REMARK VINA RESULT: -4.916137277      1.121      1.884
REMARK  2 active torsions:
REMARK  status: ('A' for Active; 'I' for Inactive)
REMARK    1  A    between atoms: N1_2  and  C2_3 
REMARK       I    between atoms: N1_2  and  C4_7 
REMARK    2  A    between atoms: C2_3  and  C3_4 
ROOT
HETATM    1  C1  UNL     1      30.088  56.149  43.876  1.00  0.00     0.154 C 
HETATM    2  N1  UNL     1      28.692  55.944  44.191  1.00  0.00    -0.331 N 
HETATM    3  C4  UNL     1      28.173  56.482  45.391  1.00  0.00     0.330 C 
HETATM    4  N2  UNL     1      26.800  56.288  45.712  1.00  0.00    -0.040 NA
HETATM    5  O3  UNL     1      28.949  57.120  46.140  1.00  0.00    -0.251 OA
ENDROOT
BRANCH   2   6
HETATM    6  C2  UNL     1      27.896  55.196  43.258  1.00  0.00     0.239 C 
BRANCH   6   7
HETATM    7  C3  UNL     1      28.325  55.374  41.868  1.00  0.00     0.191 C 
HETATM    8  O1  UNL     1      28.728  54.355  41.247  1.00  0.00    -0.647 OA
HETATM    9  O2  UNL     1      28.323  56.571  41.188  1.00  0.00    -0.647 OA
ENDBRANCH   6   7
ENDBRANCH   2   6
TORSDOF 2
ENDMDL
