MODEL 8
REMARK VINA RESULT: -4.150937352      1.568      1.950
REMARK  2 active torsions:
REMARK  status: ('A' for Active; 'I' for Inactive)
REMARK    1  A    between atoms: N1_2  and  C2_3 
REMARK       I    between atoms: N1_2  and  C4_7 
REMARK    2  A    between atoms: C2_3  and  C3_4 
ROOT
HETATM    1  C1  UNL     1      26.568  55.446  44.689  1.00  0.00     0.154 C 
HETATM    2  N1  UNL     1      27.877  55.949  45.039  1.00  0.00    -0.331 N 
HETATM    3  C4  UNL     1      27.988  56.941  46.039  1.00  0.00     0.330 C 
HETATM    4  N2  UNL     1      29.272  57.444  46.393  1.00  0.00    -0.040 NA
HETATM    5  O3  UNL     1      26.938  57.351  46.587  1.00  0.00    -0.251 OA
ENDROOT
BRANCH   2   6
HETATM    6  C2  UNL     1      29.012  55.405  44.345  1.00  0.00     0.239 C 
BRANCH   6   7
HETATM    7  C3  UNL     1      29.034  55.755  42.922  1.00  0.00     0.191 C 
HETATM    8  O1  UNL     1      29.408  56.916  42.612  1.00  0.00    -0.647 OA
HETATM    9  O2  UNL     1      28.676  54.909  41.896  1.00  0.00    -0.647 OA
ENDBRANCH   6   7
ENDBRANCH   2   6
TORSDOF 2
ENDMDL
