MODEL 2
REMARK VINA RESULT: -5.327385112      0.127      1.066
REMARK  2 active torsions:
REMARK  status: ('A' for Active; 'I' for Inactive)
REMARK    1  A    between atoms: N1_2  and  C2_3 
REMARK       I    between atoms: N1_2  and  C4_7 
REMARK    2  A    between atoms: C2_3  and  C3_4 
ROOT
HETATM    1  C1  UNL     1      26.866  55.842  44.559  1.00  0.00     0.154 C 
HETATM    2  N1  UNL     1      28.253  55.665  44.189  1.00  0.00    -0.331 N 
HETATM    3  C4  UNL     1      29.257  56.258  44.988  1.00  0.00     0.330 C 
HETATM    4  N2  UNL     1      30.626  56.091  44.635  1.00  0.00    -0.040 NA
HETATM    5  O3  UNL     1      28.904  56.918  45.993  1.00  0.00    -0.251 OA
ENDROOT
BRANCH   2   6
HETATM    6  C2  UNL     1      28.541  54.888  43.017  1.00  0.00     0.239 C 
BRANCH   6   7
HETATM    7  C3  UNL     1      28.413  55.656  41.774  1.00  0.00     0.191 C 
HETATM    8  O1  UNL     1      28.692  56.882  41.815  1.00  0.00    -0.647 OA
HETATM    9  O2  UNL     1      28.009  55.137  40.564  1.00  0.00    -0.647 OA
ENDBRANCH   6   7
ENDBRANCH   2   6
TORSDOF 2
ENDMDL
