MODEL 1
REMARK VINA RESULT: -5.528793383      0.000      0.000
REMARK  2 active torsions:
REMARK  status: ('A' for Active; 'I' for Inactive)
REMARK    1  A    between atoms: N1_2  and  C2_3 
REMARK       I    between atoms: N1_2  and  C4_7 
REMARK    2  A    between atoms: C2_3  and  C3_4 
ROOT
HETATM    1  C1  UNL     1      26.860  55.849  44.628  1.00  0.00     0.154 C 
HETATM    2  N1  UNL     1      28.222  55.664  44.180  1.00  0.00    -0.331 N 
HETATM    3  C4  UNL     1      29.277  56.214  44.944  1.00  0.00     0.330 C 
HETATM    4  N2  UNL     1      30.623  56.039  44.515  1.00  0.00    -0.040 NA
HETATM    5  O3  UNL     1      28.988  56.845  45.988  1.00  0.00    -0.251 OA
ENDROOT
BRANCH   2   6
HETATM    6  C2  UNL     1      28.436  54.923  42.969  1.00  0.00     0.239 C 
BRANCH   6   7
HETATM    7  C3  UNL     1      28.392  55.763  41.768  1.00  0.00     0.191 C 
HETATM    8  O1  UNL     1      28.042  55.218  40.688  1.00  0.00    -0.647 OA
HETATM    9  O2  UNL     1      28.706  57.102  41.730  1.00  0.00    -0.647 OA
ENDBRANCH   6   7
ENDBRANCH   2   6
TORSDOF 2
ENDMDL
