MODEL 4
REMARK VINA RESULT: -4.822982330      1.167      2.103
REMARK  2 active torsions:
REMARK  status: ('A' for Active; 'I' for Inactive)
REMARK    1  A    between atoms: N1_2  and  C2_3 
REMARK       I    between atoms: N1_2  and  C4_7 
REMARK    2  A    between atoms: C2_3  and  C3_4 
ROOT
HETATM    1  C1  UNL     1      30.035  56.145  43.790  1.00  0.00     0.154 C 
HETATM    2  N1  UNL     1      28.648  55.969  44.156  1.00  0.00    -0.331 N 
HETATM    3  C4  UNL     1      28.191  56.490  45.388  1.00  0.00     0.330 C 
HETATM    4  N2  UNL     1      26.827  56.325  45.760  1.00  0.00    -0.040 NA
HETATM    5  O3  UNL     1      29.014  57.089  46.121  1.00  0.00    -0.251 OA
ENDROOT
BRANCH   2   6
HETATM    6  C2  UNL     1      27.795  55.267  43.238  1.00  0.00     0.239 C 
BRANCH   6   7
HETATM    7  C3  UNL     1      28.286  55.303  41.857  1.00  0.00     0.191 C 
HETATM    8  O1  UNL     1      28.208  56.396  41.239  1.00  0.00    -0.647 OA
HETATM    9  O2  UNL     1      28.827  54.231  41.184  1.00  0.00    -0.647 OA
ENDBRANCH   6   7
ENDBRANCH   2   6
TORSDOF 2
ENDMDL
