MODEL 17
REMARK VINA RESULT: -11.875631610      3.601      6.414
REMARK  8 active torsions:
REMARK  status: ('A' for Active; 'I' for Inactive)
REMARK    1  A    between atoms: C1_2  and  C2_4 
REMARK    2  A    between atoms: C2_4  and  C3_5 
REMARK    3  A    between atoms: C2_4  and  N2_16 
REMARK    4  A    between atoms: C3_5  and  C4_6 
REMARK    5  A    between atoms: N2_16  and  S1_18 
REMARK    6  A    between atoms: S1_18  and  C12_21 
REMARK    7  A    between atoms: C15_24  and  N3_25 
REMARK    8  A    between atoms: C18_28  and  C19_29 
ROOT
HETATM    1  S1  UNL     1      29.163  48.986   1.327  1.00  0.00     0.259 S 
HETATM    2  O3  UNL     1      28.743  47.613   1.790  1.00  0.00    -0.201 OA
HETATM    3  O4  UNL     1      29.244  49.838   2.559  1.00  0.00    -0.201 OA
ENDROOT
BRANCH   1   4
HETATM    4  N2  UNL     1      30.693  48.884   0.532  1.00  0.00    -0.300 N 
ATOM      5  H2  UNL     1      30.928  48.181  -0.168  1.00  0.00     0.173 HD
BRANCH   4   6
HETATM    6  C2  UNL     1      31.601  49.918   0.981  1.00  0.00     0.198 C 
BRANCH   6   7
HETATM    7  C1  UNL     1      32.827  49.214   1.489  1.00  0.00     0.197 C 
HETATM    8  O1  UNL     1      32.924  47.960   1.530  1.00  0.00    -0.646 OA
HETATM    9  O2  UNL     1      33.931  49.940   1.945  1.00  0.00    -0.646 OA
ENDBRANCH   6   7
BRANCH   6  10
HETATM   10  C3  UNL     1      32.062  50.765  -0.183  1.00  0.00     0.077 C 
BRANCH  10  11
HETATM   11  C4  UNL     1      31.911  52.201   0.034  1.00  0.00    -0.028 A 
HETATM   12  C5  UNL     1      31.418  52.781   1.181  1.00  0.00     0.096 A 
HETATM   13  N1  UNL     1      31.431  54.112   1.012  1.00  0.00    -0.365 N 
HETATM   14  C6  UNL     1      31.907  54.440  -0.192  1.00  0.00     0.042 A 
ATOM     15  H1  UNL     1      31.119  54.785   1.711  1.00  0.00     0.165 HD
HETATM   16  C7  UNL     1      32.095  55.658  -0.782  1.00  0.00     0.030 A 
HETATM   17  C11 UNL     1      32.218  53.232  -0.828  1.00  0.00    -0.002 A 
HETATM   18  C8  UNL     1      32.612  55.705  -2.061  1.00  0.00     0.002 A 
HETATM   19  C9  UNL     1      32.926  54.514  -2.704  1.00  0.00     0.001 A 
HETATM   20  C10 UNL     1      32.737  53.281  -2.110  1.00  0.00     0.014 A 
ENDBRANCH  10  11
ENDBRANCH   6  10
ENDBRANCH   4   6
ENDBRANCH   1   4
BRANCH   1  21
HETATM   21  C12 UNL     1      27.926  49.659   0.280  1.00  0.00     0.079 A 
HETATM   22  C13 UNL     1      28.074  49.692  -1.086  1.00  0.00     0.027 A 
HETATM   23  C14 UNL     1      27.107  50.218  -1.891  1.00  0.00     0.031 A 
HETATM   24  C15 UNL     1      25.915  50.751  -1.396  1.00  0.00     0.030 A 
HETATM   25  C27 UNL     1      25.760  50.722  -0.035  1.00  0.00     0.031 A 
HETATM   26  C28 UNL     1      26.759  50.180   0.784  1.00  0.00     0.027 A 
BRANCH  24  27
HETATM   27  N3  UNL     1      24.957  51.283  -2.279  1.00  0.00    -0.381 N 
HETATM   28  C16 UNL     1      23.716  51.842  -1.743  1.00  0.00     0.123 C 
HETATM   29  C17 UNL     1      22.776  52.056  -2.938  1.00  0.00     0.029 C 
HETATM   30  C18 UNL     1      23.415  53.084  -3.825  1.00  0.00     0.021 C 
HETATM   31  C25 UNL     1      24.715  52.596  -4.348  1.00  0.00     0.029 C 
HETATM   32  C26 UNL     1      25.148  51.303  -3.690  1.00  0.00     0.123 C 
BRANCH  30  33
HETATM   33  C19 UNL     1      22.523  53.489  -4.941  1.00  0.00    -0.054 A 
HETATM   34  C20 UNL     1      22.404  52.681  -6.044  1.00  0.00     0.007 A 
HETATM   35  C21 UNL     1      21.601  52.974  -7.125  1.00  0.00     0.001 A 
HETATM   36  C22 UNL     1      20.879  54.172  -7.066  1.00  0.00     0.000 A 
HETATM   37  C23 UNL     1      20.989  54.986  -5.974  1.00  0.00     0.001 A 
HETATM   38  C24 UNL     1      21.808  54.654  -4.905  1.00  0.00     0.007 A 
ENDBRANCH  30  33
ENDBRANCH  24  27
ENDBRANCH   1  21
TORSDOF 8
ENDMDL
