MODEL 18
REMARK VINA RESULT: -11.857413695      2.532      5.032
REMARK  8 active torsions:
REMARK  status: ('A' for Active; 'I' for Inactive)
REMARK    1  A    between atoms: C1_2  and  C2_4 
REMARK    2  A    between atoms: C2_4  and  C3_5 
REMARK    3  A    between atoms: C2_4  and  N2_16 
REMARK    4  A    between atoms: C3_5  and  C4_6 
REMARK    5  A    between atoms: N2_16  and  S1_18 
REMARK    6  A    between atoms: S1_18  and  C12_21 
REMARK    7  A    between atoms: C15_24  and  N3_25 
REMARK    8  A    between atoms: C18_28  and  C19_29 
ROOT
HETATM    1  S1  UNL     1      28.264  48.659   1.322  1.00  0.00     0.259 S 
HETATM    2  O3  UNL     1      27.759  47.242   1.445  1.00  0.00    -0.201 OA
HETATM    3  O4  UNL     1      28.071  49.293   2.667  1.00  0.00    -0.201 OA
ENDROOT
BRANCH   1   4
HETATM    4  N2  UNL     1      29.930  48.641   0.869  1.00  0.00    -0.300 N 
ATOM      5  H2  UNL     1      30.276  48.910  -0.051  1.00  0.00     0.173 HD
BRANCH   4   6
HETATM    6  C2  UNL     1      30.776  48.196   1.956  1.00  0.00     0.198 C 
BRANCH   6   7
HETATM    7  C1  UNL     1      30.987  46.722   1.754  1.00  0.00     0.197 C 
HETATM    8  O1  UNL     1      31.229  45.934   2.705  1.00  0.00    -0.646 OA
HETATM    9  O2  UNL     1      30.920  46.158   0.478  1.00  0.00    -0.646 OA
ENDBRANCH   6   7
BRANCH   6  10
HETATM   10  C3  UNL     1      32.147  48.827   1.857  1.00  0.00     0.077 C 
BRANCH  10  11
HETATM   11  C4  UNL     1      32.386  49.525   0.597  1.00  0.00    -0.028 A 
HETATM   12  C5  UNL     1      32.821  48.933  -0.567  1.00  0.00     0.096 A 
HETATM   13  N1  UNL     1      32.921  49.887  -1.505  1.00  0.00    -0.365 N 
HETATM   14  C6  UNL     1      32.577  51.081  -1.018  1.00  0.00     0.042 A 
ATOM     15  H1  UNL     1      33.223  49.721  -2.466  1.00  0.00     0.165 HD
HETATM   16  C7  UNL     1      32.532  52.313  -1.608  1.00  0.00     0.030 A 
HETATM   17  C11 UNL     1      32.232  50.868   0.322  1.00  0.00    -0.002 A 
HETATM   18  C8  UNL     1      32.130  53.397  -0.854  1.00  0.00     0.002 A 
HETATM   19  C9  UNL     1      31.785  53.200   0.478  1.00  0.00     0.001 A 
HETATM   20  C10 UNL     1      31.829  51.956   1.076  1.00  0.00     0.014 A 
ENDBRANCH  10  11
ENDBRANCH   6  10
ENDBRANCH   4   6
ENDBRANCH   1   4
BRANCH   1  21
HETATM   21  C12 UNL     1      27.280  49.535   0.162  1.00  0.00     0.079 A 
HETATM   22  C13 UNL     1      27.653  49.660  -1.155  1.00  0.00     0.027 A 
HETATM   23  C14 UNL     1      26.883  50.343  -2.048  1.00  0.00     0.031 A 
HETATM   24  C15 UNL     1      25.678  50.957  -1.698  1.00  0.00     0.030 A 
HETATM   25  C27 UNL     1      25.300  50.837  -0.387  1.00  0.00     0.031 A 
HETATM   26  C28 UNL     1      26.097  50.133   0.523  1.00  0.00     0.027 A 
BRANCH  24  27
HETATM   27  N3  UNL     1      24.931  51.652  -2.667  1.00  0.00    -0.381 N 
HETATM   28  C16 UNL     1      25.193  51.411  -4.086  1.00  0.00     0.123 C 
HETATM   29  C17 UNL     1      24.451  52.507  -4.864  1.00  0.00     0.029 C 
HETATM   30  C18 UNL     1      22.984  52.314  -4.612  1.00  0.00     0.021 C 
HETATM   31  C25 UNL     1      22.669  52.482  -3.173  1.00  0.00     0.029 C 
HETATM   32  C26 UNL     1      23.916  52.589  -2.321  1.00  0.00     0.123 C 
BRANCH  30  33
HETATM   33  C19 UNL     1      22.153  53.226  -5.438  1.00  0.00    -0.054 A 
HETATM   34  C20 UNL     1      21.785  52.851  -6.707  1.00  0.00     0.007 A 
HETATM   35  C21 UNL     1      21.017  53.630  -7.543  1.00  0.00     0.001 A 
HETATM   36  C22 UNL     1      20.603  54.871  -7.044  1.00  0.00     0.000 A 
HETATM   37  C23 UNL     1      20.963  55.257  -5.784  1.00  0.00     0.001 A 
HETATM   38  C24 UNL     1      21.737  54.442  -4.971  1.00  0.00     0.007 A 
ENDBRANCH  30  33
ENDBRANCH  24  27
ENDBRANCH   1  21
TORSDOF 8
ENDMDL
