MODEL 19
REMARK VINA RESULT: -11.848175456      1.779      2.708
REMARK  8 active torsions:
REMARK  status: ('A' for Active; 'I' for Inactive)
REMARK    1  A    between atoms: C1_2  and  C2_4 
REMARK    2  A    between atoms: C2_4  and  C3_5 
REMARK    3  A    between atoms: C2_4  and  N2_16 
REMARK    4  A    between atoms: C3_5  and  C4_6 
REMARK    5  A    between atoms: N2_16  and  S1_18 
REMARK    6  A    between atoms: S1_18  and  C12_21 
REMARK    7  A    between atoms: C15_24  and  N3_25 
REMARK    8  A    between atoms: C18_28  and  C19_29 
ROOT
HETATM    1  S1  UNL     1      28.989  48.711   1.449  1.00  0.00     0.259 S 
HETATM    2  O3  UNL     1      29.139  49.589   2.668  1.00  0.00    -0.201 OA
HETATM    3  O4  UNL     1      30.329  48.695   0.776  1.00  0.00    -0.201 OA
ENDROOT
BRANCH   1   4
HETATM    4  N2  UNL     1      28.512  47.125   1.938  1.00  0.00    -0.300 N 
ATOM      5  H2  UNL     1      27.707  46.927   2.532  1.00  0.00     0.173 HD
BRANCH   4   6
HETATM    6  C2  UNL     1      29.393  46.110   1.401  1.00  0.00     0.198 C 
BRANCH   6   7
HETATM    7  C1  UNL     1      30.405  45.817   2.472  1.00  0.00     0.197 C 
HETATM    8  O1  UNL     1      30.132  45.143   3.499  1.00  0.00    -0.646 OA
HETATM    9  O2  UNL     1      31.716  46.290   2.367  1.00  0.00    -0.646 OA
ENDBRANCH   6   7
BRANCH   6  10
HETATM   10  C3  UNL     1      28.643  44.817   1.175  1.00  0.00     0.077 C 
BRANCH  10  11
HETATM   11  C4  UNL     1      29.489  43.712   0.732  1.00  0.00    -0.028 A 
HETATM   12  C5  UNL     1      30.739  43.847   0.171  1.00  0.00     0.096 A 
HETATM   13  N1  UNL     1      31.205  42.619  -0.102  1.00  0.00    -0.365 N 
HETATM   14  C6  UNL     1      30.325  41.679   0.250  1.00  0.00     0.042 A 
ATOM     15  H1  UNL     1      32.114  42.428  -0.524  1.00  0.00     0.165 HD
HETATM   16  C7  UNL     1      30.379  40.317   0.156  1.00  0.00     0.030 A 
HETATM   17  C11 UNL     1      29.225  42.360   0.784  1.00  0.00    -0.002 A 
HETATM   18  C8  UNL     1      29.305  39.576   0.606  1.00  0.00     0.002 A 
HETATM   19  C9  UNL     1      28.206  40.238   1.139  1.00  0.00     0.001 A 
HETATM   20  C10 UNL     1      28.148  41.615   1.235  1.00  0.00     0.014 A 
ENDBRANCH  10  11
ENDBRANCH   6  10
ENDBRANCH   4   6
ENDBRANCH   1   4
BRANCH   1  21
HETATM   21  C12 UNL     1      27.832  49.431   0.343  1.00  0.00     0.079 A 
HETATM   22  C13 UNL     1      26.587  49.835   0.761  1.00  0.00     0.027 A 
HETATM   23  C14 UNL     1      25.695  50.392  -0.107  1.00  0.00     0.031 A 
HETATM   24  C15 UNL     1      25.976  50.591  -1.461  1.00  0.00     0.030 A 
HETATM   25  C27 UNL     1      27.215  50.191  -1.884  1.00  0.00     0.031 A 
HETATM   26  C28 UNL     1      28.125  49.619  -0.986  1.00  0.00     0.027 A 
BRANCH  24  27
HETATM   27  N3  UNL     1      25.010  51.168  -2.306  1.00  0.00    -0.381 N 
HETATM   28  C16 UNL     1      23.834  51.811  -1.720  1.00  0.00     0.123 C 
HETATM   29  C17 UNL     1      22.851  52.066  -2.871  1.00  0.00     0.029 C 
HETATM   30  C18 UNL     1      23.507  53.038  -3.807  1.00  0.00     0.021 C 
HETATM   31  C25 UNL     1      24.746  52.463  -4.384  1.00  0.00     0.029 C 
HETATM   32  C26 UNL     1      25.131  51.155  -3.725  1.00  0.00     0.123 C 
BRANCH  30  33
HETATM   33  C19 UNL     1      22.586  53.481  -4.885  1.00  0.00    -0.054 A 
HETATM   34  C20 UNL     1      22.415  52.697  -5.999  1.00  0.00     0.007 A 
HETATM   35  C21 UNL     1      21.584  53.026  -7.047  1.00  0.00     0.001 A 
HETATM   36  C22 UNL     1      20.888  54.235  -6.942  1.00  0.00     0.000 A 
HETATM   37  C23 UNL     1      21.048  55.026  -5.839  1.00  0.00     0.001 A 
HETATM   38  C24 UNL     1      21.895  54.658  -4.804  1.00  0.00     0.007 A 
ENDBRANCH  30  33
ENDBRANCH  24  27
ENDBRANCH   1  21
TORSDOF 8
ENDMDL
