MODEL 3
REMARK VINA RESULT: -12.613232261      1.603      2.121
REMARK  8 active torsions:
REMARK  status: ('A' for Active; 'I' for Inactive)
REMARK    1  A    between atoms: C1_2  and  C2_4 
REMARK    2  A    between atoms: C2_4  and  C3_5 
REMARK    3  A    between atoms: C2_4  and  N2_16 
REMARK    4  A    between atoms: C3_5  and  C4_6 
REMARK    5  A    between atoms: N2_16  and  S1_18 
REMARK    6  A    between atoms: S1_18  and  C12_21 
REMARK    7  A    between atoms: C15_24  and  N3_25 
REMARK    8  A    between atoms: C18_28  and  C19_29 
ROOT
HETATM    1  S1  UNL     1      29.236  49.428   1.813  1.00  0.00     0.259 S 
HETATM    2  O3  UNL     1      28.519  48.882   3.023  1.00  0.00    -0.201 OA
HETATM    3  O4  UNL     1      30.013  50.620   2.287  1.00  0.00    -0.201 OA
ENDROOT
BRANCH   1   4
HETATM    4  N2  UNL     1      30.280  48.215   1.165  1.00  0.00    -0.300 N 
ATOM      5  H2  UNL     1      31.281  48.341   1.017  1.00  0.00     0.173 HD
BRANCH   4   6
HETATM    6  C2  UNL     1      29.561  46.997   0.857  1.00  0.00     0.198 C 
BRANCH   6   7
HETATM    7  C1  UNL     1      29.646  46.818  -0.632  1.00  0.00     0.197 C 
HETATM    8  O1  UNL     1      28.635  46.853  -1.379  1.00  0.00    -0.646 OA
HETATM    9  O2  UNL     1      30.877  46.603  -1.257  1.00  0.00    -0.646 OA
ENDBRANCH   6   7
BRANCH   6  10
HETATM   10  C3  UNL     1      30.260  45.799   1.459  1.00  0.00     0.077 C 
BRANCH  10  11
HETATM   11  C4  UNL     1      29.439  44.592   1.494  1.00  0.00    -0.028 A 
HETATM   12  C5  UNL     1      28.205  44.490   2.096  1.00  0.00     0.096 A 
HETATM   13  N1  UNL     1      27.760  43.237   1.920  1.00  0.00    -0.365 N 
HETATM   14  C6  UNL     1      28.639  42.504   1.233  1.00  0.00     0.042 A 
ATOM     15  H1  UNL     1      26.866  42.889   2.267  1.00  0.00     0.165 HD
HETATM   16  C7  UNL     1      28.602  41.199   0.832  1.00  0.00     0.030 A 
HETATM   17  C11 UNL     1      29.716  43.354   0.953  1.00  0.00    -0.002 A 
HETATM   18  C8  UNL     1      29.670  40.690   0.121  1.00  0.00     0.002 A 
HETATM   19  C9  UNL     1      30.746  41.522  -0.164  1.00  0.00     0.001 A 
HETATM   20  C10 UNL     1      30.786  42.843   0.239  1.00  0.00     0.014 A 
ENDBRANCH  10  11
ENDBRANCH   6  10
ENDBRANCH   4   6
ENDBRANCH   1   4
BRANCH   1  21
HETATM   21  C12 UNL     1      28.061  49.980   0.631  1.00  0.00     0.079 A 
HETATM   22  C13 UNL     1      26.838  50.482   1.007  1.00  0.00     0.027 A 
HETATM   23  C14 UNL     1      25.932  50.906   0.082  1.00  0.00     0.031 A 
HETATM   24  C15 UNL     1      26.174  50.864  -1.293  1.00  0.00     0.030 A 
HETATM   25  C27 UNL     1      27.391  50.365  -1.675  1.00  0.00     0.031 A 
HETATM   26  C28 UNL     1      28.316  49.931  -0.718  1.00  0.00     0.027 A 
BRANCH  24  27
HETATM   27  N3  UNL     1      25.195  51.314  -2.198  1.00  0.00    -0.381 N 
HETATM   28  C16 UNL     1      23.901  51.770  -1.690  1.00  0.00     0.123 C 
HETATM   29  C17 UNL     1      22.972  51.904  -2.904  1.00  0.00     0.029 C 
HETATM   30  C18 UNL     1      23.543  52.980  -3.781  1.00  0.00     0.021 C 
HETATM   31  C25 UNL     1      24.889  52.600  -4.275  1.00  0.00     0.029 C 
HETATM   32  C26 UNL     1      25.414  51.348  -3.605  1.00  0.00     0.123 C 
BRANCH  30  33
HETATM   33  C19 UNL     1      22.645  53.308  -4.917  1.00  0.00    -0.054 A 
HETATM   34  C20 UNL     1      21.853  54.428  -4.857  1.00  0.00     0.007 A 
HETATM   35  C21 UNL     1      20.990  54.811  -5.861  1.00  0.00     0.001 A 
HETATM   36  C22 UNL     1      20.939  53.990  -6.994  1.00  0.00     0.000 A 
HETATM   37  C23 UNL     1      21.722  52.872  -7.067  1.00  0.00     0.001 A 
HETATM   38  C24 UNL     1      22.579  52.522  -6.034  1.00  0.00     0.007 A 
ENDBRANCH  30  33
ENDBRANCH  24  27
ENDBRANCH   1  21
TORSDOF 8
ENDMDL
