MODEL 2
REMARK VINA RESULT: -12.886180896      0.810      1.661
REMARK  8 active torsions:
REMARK  status: ('A' for Active; 'I' for Inactive)
REMARK    1  A    between atoms: C1_2  and  C2_4 
REMARK    2  A    between atoms: C2_4  and  C3_5 
REMARK    3  A    between atoms: C2_4  and  N2_16 
REMARK    4  A    between atoms: C3_5  and  C4_6 
REMARK    5  A    between atoms: N2_16  and  S1_18 
REMARK    6  A    between atoms: S1_18  and  C12_21 
REMARK    7  A    between atoms: C15_24  and  N3_25 
REMARK    8  A    between atoms: C18_28  and  C19_29 
ROOT
HETATM    1  S1  UNL     1      29.346  49.213   1.753  1.00  0.00     0.259 S 
HETATM    2  O3  UNL     1      28.698  48.709   3.020  1.00  0.00    -0.201 OA
HETATM    3  O4  UNL     1      30.206  50.374   2.154  1.00  0.00    -0.201 OA
ENDROOT
BRANCH   1   4
HETATM    4  N2  UNL     1      30.285  47.950   1.043  1.00  0.00    -0.300 N 
ATOM      5  H2  UNL     1      31.116  48.106   0.473  1.00  0.00     0.173 HD
BRANCH   4   6
HETATM    6  C2  UNL     1      29.749  46.642   1.356  1.00  0.00     0.198 C 
BRANCH   6   7
HETATM    7  C1  UNL     1      28.644  46.389   0.370  1.00  0.00     0.197 C 
HETATM    8  O1  UNL     1      28.761  46.631  -0.859  1.00  0.00    -0.646 OA
HETATM    9  O2  UNL     1      27.419  45.864   0.788  1.00  0.00    -0.646 OA
ENDBRANCH   6   7
BRANCH   6  10
HETATM   10  C3  UNL     1      30.783  45.568   1.104  1.00  0.00     0.077 C 
BRANCH  10  11
HETATM   11  C4  UNL     1      30.599  44.368   1.916  1.00  0.00    -0.028 A 
HETATM   12  C5  UNL     1      31.088  44.191   3.190  1.00  0.00     0.096 A 
HETATM   13  N1  UNL     1      30.717  42.972   3.611  1.00  0.00    -0.365 N 
HETATM   14  C6  UNL     1      30.007  42.334   2.676  1.00  0.00     0.042 A 
ATOM     15  H1  UNL     1      30.947  42.584   4.525  1.00  0.00     0.165 HD
HETATM   16  C7  UNL     1      29.438  41.093   2.673  1.00  0.00     0.030 A 
HETATM   17  C11 UNL     1      29.923  43.212   1.589  1.00  0.00    -0.002 A 
HETATM   18  C8  UNL     1      28.748  40.680   1.551  1.00  0.00     0.002 A 
HETATM   19  C9  UNL     1      28.655  41.541   0.464  1.00  0.00     0.001 A 
HETATM   20  C10 UNL     1      29.230  42.797   0.465  1.00  0.00     0.014 A 
ENDBRANCH  10  11
ENDBRANCH   6  10
ENDBRANCH   4   6
ENDBRANCH   1   4
BRANCH   1  21
HETATM   21  C12 UNL     1      28.110  49.805   0.656  1.00  0.00     0.079 A 
HETATM   22  C13 UNL     1      28.330  49.903  -0.697  1.00  0.00     0.027 A 
HETATM   23  C14 UNL     1      27.364  50.365  -1.541  1.00  0.00     0.031 A 
HETATM   24  C15 UNL     1      26.101  50.766  -1.100  1.00  0.00     0.030 A 
HETATM   25  C27 UNL     1      25.874  50.672   0.247  1.00  0.00     0.031 A 
HETATM   26  C28 UNL     1      26.872  50.196   1.106  1.00  0.00     0.027 A 
BRANCH  24  27
HETATM   27  N3  UNL     1      25.148  51.238  -2.022  1.00  0.00    -0.381 N 
HETATM   28  C16 UNL     1      23.850  51.710  -1.537  1.00  0.00     0.123 C 
HETATM   29  C17 UNL     1      22.949  51.868  -2.769  1.00  0.00     0.029 C 
HETATM   30  C18 UNL     1      23.555  52.942  -3.626  1.00  0.00     0.021 C 
HETATM   31  C25 UNL     1      24.905  52.544  -4.095  1.00  0.00     0.029 C 
HETATM   32  C26 UNL     1      25.396  51.279  -3.424  1.00  0.00     0.123 C 
BRANCH  30  33
HETATM   33  C19 UNL     1      22.685  53.292  -4.777  1.00  0.00    -0.054 A 
HETATM   34  C20 UNL     1      21.917  54.429  -4.729  1.00  0.00     0.007 A 
HETATM   35  C21 UNL     1      21.082  54.833  -5.748  1.00  0.00     0.001 A 
HETATM   36  C22 UNL     1      21.035  54.017  -6.884  1.00  0.00     0.000 A 
HETATM   37  C23 UNL     1      21.794  52.882  -6.945  1.00  0.00     0.001 A 
HETATM   38  C24 UNL     1      22.624  52.510  -5.897  1.00  0.00     0.007 A 
ENDBRANCH  30  33
ENDBRANCH  24  27
ENDBRANCH   1  21
TORSDOF 8
ENDMDL
