MODEL 10
REMARK VINA RESULT: -12.168240980      1.654      2.433
REMARK  8 active torsions:
REMARK  status: ('A' for Active; 'I' for Inactive)
REMARK    1  A    between atoms: C1_2  and  C2_4 
REMARK    2  A    between atoms: C2_4  and  C3_5 
REMARK    3  A    between atoms: C2_4  and  N2_16 
REMARK    4  A    between atoms: C3_5  and  C4_6 
REMARK    5  A    between atoms: N2_16  and  S1_18 
REMARK    6  A    between atoms: S1_18  and  C12_21 
REMARK    7  A    between atoms: C15_24  and  N3_25 
REMARK    8  A    between atoms: C18_28  and  C19_29 
ROOT
HETATM    1  S1  UNL     1      29.216  49.379   1.750  1.00  0.00     0.259 S 
HETATM    2  O3  UNL     1      28.537  49.140   3.077  1.00  0.00    -0.201 OA
HETATM    3  O4  UNL     1      30.208  50.480   1.978  1.00  0.00    -0.201 OA
ENDROOT
BRANCH   1   4
HETATM    4  N2  UNL     1      29.995  47.928   1.231  1.00  0.00    -0.300 N 
ATOM      5  H2  UNL     1      30.795  47.903   0.599  1.00  0.00     0.173 HD
BRANCH   4   6
HETATM    6  C2  UNL     1      29.375  46.752   1.802  1.00  0.00     0.198 C 
BRANCH   6   7
HETATM    7  C1  UNL     1      28.593  46.104   0.695  1.00  0.00     0.197 C 
HETATM    8  O1  UNL     1      28.623  46.521  -0.492  1.00  0.00    -0.646 OA
HETATM    9  O2  UNL     1      27.787  44.991   0.946  1.00  0.00    -0.646 OA
ENDBRANCH   6   7
BRANCH   6  10
HETATM   10  C3  UNL     1      30.423  45.743   2.214  1.00  0.00     0.077 C 
BRANCH  10  11
HETATM   11  C4  UNL     1      31.323  45.351   1.132  1.00  0.00    -0.028 A 
HETATM   12  C5  UNL     1      32.303  46.151   0.587  1.00  0.00     0.096 A 
HETATM   13  N1  UNL     1      32.922  45.450  -0.375  1.00  0.00    -0.365 N 
HETATM   14  C6  UNL     1      32.399  44.227  -0.494  1.00  0.00     0.042 A 
ATOM     15  H1  UNL     1      33.692  45.806  -0.941  1.00  0.00     0.165 HD
HETATM   16  C7  UNL     1      32.713  43.195  -1.331  1.00  0.00     0.030 A 
HETATM   17  C11 UNL     1      31.379  44.148   0.460  1.00  0.00    -0.002 A 
HETATM   18  C8  UNL     1      31.995  42.020  -1.236  1.00  0.00     0.002 A 
HETATM   19  C9  UNL     1      30.979  41.927  -0.293  1.00  0.00     0.001 A 
HETATM   20  C10 UNL     1      30.660  42.969   0.555  1.00  0.00     0.014 A 
ENDBRANCH  10  11
ENDBRANCH   6  10
ENDBRANCH   4   6
ENDBRANCH   1   4
BRANCH   1  21
HETATM   21  C12 UNL     1      28.036  49.943   0.579  1.00  0.00     0.079 A 
HETATM   22  C13 UNL     1      26.848  50.514   0.966  1.00  0.00     0.027 A 
HETATM   23  C14 UNL     1      25.938  50.948   0.049  1.00  0.00     0.031 A 
HETATM   24  C15 UNL     1      26.142  50.847  -1.329  1.00  0.00     0.030 A 
HETATM   25  C27 UNL     1      27.324  50.278  -1.723  1.00  0.00     0.031 A 
HETATM   26  C28 UNL     1      28.253  49.835  -0.774  1.00  0.00     0.027 A 
BRANCH  24  27
HETATM   27  N3  UNL     1      25.161  51.310  -2.225  1.00  0.00    -0.381 N 
HETATM   28  C16 UNL     1      23.866  51.753  -1.707  1.00  0.00     0.123 C 
HETATM   29  C17 UNL     1      22.935  51.907  -2.919  1.00  0.00     0.029 C 
HETATM   30  C18 UNL     1      23.503  53.000  -3.777  1.00  0.00     0.021 C 
HETATM   31  C25 UNL     1      24.849  52.632  -4.279  1.00  0.00     0.029 C 
HETATM   32  C26 UNL     1      25.378  51.369  -3.632  1.00  0.00     0.123 C 
BRANCH  30  33
HETATM   33  C19 UNL     1      22.602  53.345  -4.906  1.00  0.00    -0.054 A 
HETATM   34  C20 UNL     1      21.898  54.523  -4.879  1.00  0.00     0.007 A 
HETATM   35  C21 UNL     1      21.040  54.926  -5.880  1.00  0.00     0.001 A 
HETATM   36  C22 UNL     1      20.900  54.063  -6.973  1.00  0.00     0.000 A 
HETATM   37  C23 UNL     1      21.595  52.888  -7.013  1.00  0.00     0.001 A 
HETATM   38  C24 UNL     1      22.449  52.518  -5.985  1.00  0.00     0.007 A 
ENDBRANCH  30  33
ENDBRANCH  24  27
ENDBRANCH   1  21
TORSDOF 8
ENDMDL
