MODEL 1
REMARK VINA RESULT: -6.663078504      0.000      0.000
REMARK  14 active torsions:
REMARK  status: ('A' for Active; 'I' for Inactive)
REMARK    1  A    between atoms: N1_1  and  S1_4 
REMARK    2  A    between atoms: S1_4  and  C1_7 
REMARK    3  A    between atoms: C4_10  and  C5_11 
REMARK       I    between atoms: C5_11  and  N2_13 
REMARK    4  A    between atoms: N2_13  and  C6_15 
REMARK    5  A    between atoms: C6_15  and  C7_16 
REMARK    6  A    between atoms: C7_16  and  O4_17 
REMARK    7  A    between atoms: O4_17  and  C8_18 
REMARK    8  A    between atoms: C8_18  and  C9_19 
REMARK    9  A    between atoms: C9_19  and  O5_20 
REMARK   10  A    between atoms: O5_20  and  C10_21 
REMARK   11  A    between atoms: C10_21  and  C11_22 
REMARK   12  A    between atoms: C11_22  and  N3_23 
REMARK       I    between atoms: N3_23  and  C12_25 
REMARK   13  A    between atoms: C12_25  and  C13_27 
REMARK   14  A    between atoms: C13_27  and  N4_28 
ROOT
HETATM    1  C6  UNL     1      -2.122   7.471  13.443  1.00  0.00     0.149 C 
ENDROOT
BRANCH   1   2
HETATM    2  N2  UNL     1      -2.657   6.300  14.118  1.00  0.00    -0.355 N 
HETATM    3  C5  UNL     1      -3.987   5.866  14.072  1.00  0.00     0.251 C 
HETATM    4  O3  UNL     1      -4.801   6.537  13.389  1.00  0.00    -0.268 OA
ATOM      5  H2  UNL     1      -2.006   5.746  14.675  1.00  0.00     0.162 HD
BRANCH   3   6
HETATM    6  C4  UNL     1      -4.489   4.684  14.763  1.00  0.00     0.032 A 
HETATM    7  C3  UNL     1      -3.631   3.672  15.162  1.00  0.00     0.018 A 
HETATM    8  C2  UNL     1      -4.033   2.541  15.813  1.00  0.00     0.026 A 
HETATM    9  C1  UNL     1      -5.386   2.412  16.083  1.00  0.00     0.079 A 
HETATM   10  C15 UNL     1      -6.289   3.367  15.721  1.00  0.00     0.026 A 
HETATM   11  C14 UNL     1      -5.819   4.492  15.063  1.00  0.00     0.018 A 
BRANCH   9  12
HETATM   12  S1  UNL     1      -5.926   0.970  16.917  1.00  0.00     0.256 S 
HETATM   13  O1  UNL     1      -5.359  -0.206  16.171  1.00  0.00    -0.201 OA
HETATM   14  O2  UNL     1      -5.413   0.931  18.322  1.00  0.00    -0.201 OA
BRANCH  12  15
HETATM   15  N1  UNL     1      -7.639   0.955  16.944  1.00  0.00    -0.324 N 
ATOM     16  H12 UNL     1      -8.210   1.063  16.106  1.00  0.00     0.169 HD
ATOM     17  H11 UNL     1      -8.008   0.826  17.886  1.00  0.00     0.169 HD
ENDBRANCH  12  15
ENDBRANCH   9  12
ENDBRANCH   3   6
ENDBRANCH   1   2
BRANCH   1  18
HETATM   18  C7  UNL     1      -0.739   7.268  12.937  1.00  0.00     0.187 C 
BRANCH  18  19
HETATM   19  O4  UNL     1      -0.448   5.932  12.841  1.00  0.00    -0.387 OA
BRANCH  19  20
HETATM   20  C8  UNL     1      -0.090   5.574  11.568  1.00  0.00     0.193 C 
BRANCH  20  21
HETATM   21  C9  UNL     1      -0.867   4.425  10.980  1.00  0.00     0.193 C 
BRANCH  21  22
HETATM   22  O5  UNL     1      -2.113   4.357  11.548  1.00  0.00    -0.387 OA
BRANCH  22  23
HETATM   23  C10 UNL     1      -3.127   4.641  10.698  1.00  0.00     0.187 C 
BRANCH  23  24
HETATM   24  C11 UNL     1      -4.346   3.799  10.999  1.00  0.00     0.148 C 
BRANCH  24  25
HETATM   25  N3  UNL     1      -3.997   2.732  11.910  1.00  0.00    -0.358 N 
HETATM   26  C12 UNL     1      -4.683   1.509  11.874  1.00  0.00     0.243 C 
HETATM   27  O6  UNL     1      -5.615   1.299  11.058  1.00  0.00    -0.272 OA
ATOM     28  H3  UNL     1      -3.245   2.869  12.585  1.00  0.00     0.162 HD
BRANCH  26  29
HETATM   29  C13 UNL     1      -4.282   0.435  12.841  1.00  0.00     0.331 C 
BRANCH  29  30
HETATM   30  N4  UNL     1      -4.354  -0.870  12.215  1.00  0.00    -0.071 N 
ATOM     31  H43 UNL     1      -5.303  -1.244  12.230  1.00  0.00     0.274 HD
ATOM     32  H42 UNL     1      -4.229  -0.812  11.205  1.00  0.00     0.274 HD
ATOM     33  H41 UNL     1      -3.688  -1.513  12.643  1.00  0.00     0.274 HD
ENDBRANCH  29  30
ENDBRANCH  26  29
ENDBRANCH  24  25
ENDBRANCH  23  24
ENDBRANCH  22  23
ENDBRANCH  21  22
ENDBRANCH  20  21
ENDBRANCH  19  20
ENDBRANCH  18  19
ENDBRANCH   1  18
TORSDOF 14
ENDMDL
