MODEL 2
REMARK VINA RESULT: -6.651829989      1.366      1.418
REMARK  14 active torsions:
REMARK  status: ('A' for Active; 'I' for Inactive)
REMARK    1  A    between atoms: N1_1  and  S1_4 
REMARK    2  A    between atoms: S1_4  and  C1_7 
REMARK    3  A    between atoms: C4_10  and  C5_11 
REMARK       I    between atoms: C5_11  and  N2_13 
REMARK    4  A    between atoms: N2_13  and  C6_15 
REMARK    5  A    between atoms: C6_15  and  C7_16 
REMARK    6  A    between atoms: C7_16  and  O4_17 
REMARK    7  A    between atoms: O4_17  and  C8_18 
REMARK    8  A    between atoms: C8_18  and  C9_19 
REMARK    9  A    between atoms: C9_19  and  O5_20 
REMARK   10  A    between atoms: O5_20  and  C10_21 
REMARK   11  A    between atoms: C10_21  and  C11_22 
REMARK   12  A    between atoms: C11_22  and  N3_23 
REMARK       I    between atoms: N3_23  and  C12_25 
REMARK   13  A    between atoms: C12_25  and  C13_27 
REMARK   14  A    between atoms: C13_27  and  N4_28 
ROOT
HETATM    1  C6  UNL     1      -3.911   7.533  12.306  1.00  0.00     0.149 C 
ENDROOT
BRANCH   1   2
HETATM    2  N2  UNL     1      -4.451   6.399  13.038  1.00  0.00    -0.355 N 
HETATM    3  C5  UNL     1      -3.778   5.666  14.022  1.00  0.00     0.251 C 
HETATM    4  O3  UNL     1      -2.603   6.008  14.309  1.00  0.00    -0.268 OA
ATOM      5  H2  UNL     1      -5.404   6.113  12.815  1.00  0.00     0.162 HD
BRANCH   3   6
HETATM    6  C4  UNL     1      -4.352   4.532  14.737  1.00  0.00     0.032 A 
HETATM    7  C3  UNL     1      -3.554   3.489  15.178  1.00  0.00     0.018 A 
HETATM    8  C2  UNL     1      -4.025   2.399  15.853  1.00  0.00     0.026 A 
HETATM    9  C1  UNL     1      -5.387   2.347  16.102  1.00  0.00     0.079 A 
HETATM   10  C15 UNL     1      -6.233   3.336  15.697  1.00  0.00     0.026 A 
HETATM   11  C14 UNL     1      -5.695   4.417  15.018  1.00  0.00     0.018 A 
BRANCH   9  12
HETATM   12  S1  UNL     1      -6.015   0.959  16.965  1.00  0.00     0.256 S 
HETATM   13  O1  UNL     1      -5.588  -0.263  16.199  1.00  0.00    -0.201 OA
HETATM   14  O2  UNL     1      -5.444   0.874  18.345  1.00  0.00    -0.201 OA
BRANCH  12  15
HETATM   15  N1  UNL     1      -7.719   1.095  17.069  1.00  0.00    -0.324 N 
ATOM     16  H12 UNL     1      -8.283   1.576  16.368  1.00  0.00     0.169 HD
ATOM     17  H11 UNL     1      -8.091   0.645  17.905  1.00  0.00     0.169 HD
ENDBRANCH  12  15
ENDBRANCH   9  12
ENDBRANCH   3   6
ENDBRANCH   1   2
BRANCH   1  18
HETATM   18  C7  UNL     1      -3.469   7.181  10.931  1.00  0.00     0.187 C 
BRANCH  18  19
HETATM   19  O4  UNL     1      -2.200   6.660  10.948  1.00  0.00    -0.387 OA
BRANCH  19  20
HETATM   20  C8  UNL     1      -2.151   5.408  10.397  1.00  0.00     0.193 C 
BRANCH  20  21
HETATM   21  C9  UNL     1      -1.648   4.322  11.311  1.00  0.00     0.193 C 
BRANCH  21  22
HETATM   22  O5  UNL     1      -2.659   3.444  11.604  1.00  0.00    -0.387 OA
BRANCH  22  23
HETATM   23  C10 UNL     1      -3.753   3.574  10.816  1.00  0.00     0.187 C 
BRANCH  23  24
HETATM   24  C11 UNL     1      -4.977   2.985  11.478  1.00  0.00     0.148 C 
BRANCH  24  25
HETATM   25  N3  UNL     1      -4.625   1.771  12.180  1.00  0.00    -0.358 N 
HETATM   26  C12 UNL     1      -4.715   0.525  11.543  1.00  0.00     0.243 C 
HETATM   27  O6  UNL     1      -5.100   0.419  10.352  1.00  0.00    -0.272 OA
ATOM     28  H3  UNL     1      -4.307   1.821  13.148  1.00  0.00     0.162 HD
BRANCH  26  29
HETATM   29  C13 UNL     1      -4.338  -0.703  12.317  1.00  0.00     0.331 C 
BRANCH  29  30
HETATM   30  N4  UNL     1      -4.261  -0.411  13.735  1.00  0.00    -0.071 N 
ATOM     31  H43 UNL     1      -3.369   0.013  13.986  1.00  0.00     0.274 HD
ATOM     32  H42 UNL     1      -4.876   0.360  13.995  1.00  0.00     0.274 HD
ATOM     33  H41 UNL     1      -4.451  -1.248  14.286  1.00  0.00     0.274 HD
ENDBRANCH  29  30
ENDBRANCH  26  29
ENDBRANCH  24  25
ENDBRANCH  23  24
ENDBRANCH  22  23
ENDBRANCH  21  22
ENDBRANCH  20  21
ENDBRANCH  19  20
ENDBRANCH  18  19
ENDBRANCH   1  18
TORSDOF 14
ENDMDL
