MODEL 3
REMARK VINA RESULT: -6.410052694      1.184      1.705
REMARK  14 active torsions:
REMARK  status: ('A' for Active; 'I' for Inactive)
REMARK    1  A    between atoms: N1_1  and  S1_4 
REMARK    2  A    between atoms: S1_4  and  C1_7 
REMARK    3  A    between atoms: C4_10  and  C5_11 
REMARK       I    between atoms: C5_11  and  N2_13 
REMARK    4  A    between atoms: N2_13  and  C6_15 
REMARK    5  A    between atoms: C6_15  and  C7_16 
REMARK    6  A    between atoms: C7_16  and  O4_17 
REMARK    7  A    between atoms: O4_17  and  C8_18 
REMARK    8  A    between atoms: C8_18  and  C9_19 
REMARK    9  A    between atoms: C9_19  and  O5_20 
REMARK   10  A    between atoms: O5_20  and  C10_21 
REMARK   11  A    between atoms: C10_21  and  C11_22 
REMARK   12  A    between atoms: C11_22  and  N3_23 
REMARK       I    between atoms: N3_23  and  C12_25 
REMARK   13  A    between atoms: C12_25  and  C13_27 
REMARK   14  A    between atoms: C13_27  and  N4_28 
ROOT
HETATM    1  C6  UNL     1      -1.795   6.619  12.734  1.00  0.00     0.149 C 
ENDROOT
BRANCH   1   2
HETATM    2  N2  UNL     1      -2.382   5.490  13.437  1.00  0.00    -0.355 N 
HETATM    3  C5  UNL     1      -3.580   5.511  14.160  1.00  0.00     0.251 C 
HETATM    4  O3  UNL     1      -4.215   6.594  14.214  1.00  0.00    -0.268 OA
ATOM      5  H2  UNL     1      -1.876   4.605  13.400  1.00  0.00     0.162 HD
BRANCH   3   6
HETATM    6  C4  UNL     1      -4.140   4.357  14.854  1.00  0.00     0.032 A 
HETATM    7  C3  UNL     1      -5.492   4.287  15.146  1.00  0.00     0.018 A 
HETATM    8  C2  UNL     1      -6.081   3.237  15.791  1.00  0.00     0.026 A 
HETATM    9  C1  UNL     1      -5.262   2.187  16.174  1.00  0.00     0.079 A 
HETATM   10  C15 UNL     1      -3.922   2.187  15.921  1.00  0.00     0.026 A 
HETATM   11  C14 UNL     1      -3.384   3.281  15.261  1.00  0.00     0.018 A 
BRANCH   9  12
HETATM   12  S1  UNL     1      -5.994   0.830  17.004  1.00  0.00     0.256 S 
HETATM   13  O1  UNL     1      -5.574  -0.412  16.269  1.00  0.00    -0.201 OA
HETATM   14  O2  UNL     1      -5.507   0.732  18.416  1.00  0.00    -0.201 OA
BRANCH  12  15
HETATM   15  N1  UNL     1      -7.695   1.036  17.010  1.00  0.00    -0.324 N 
ATOM     16  H12 UNL     1      -8.156   1.868  16.644  1.00  0.00     0.169 HD
ATOM     17  H11 UNL     1      -8.178   0.235  17.417  1.00  0.00     0.169 HD
ENDBRANCH  12  15
ENDBRANCH   9  12
ENDBRANCH   3   6
ENDBRANCH   1   2
BRANCH   1  18
HETATM   18  C7  UNL     1      -0.630   6.238  11.893  1.00  0.00     0.187 C 
BRANCH  18  19
HETATM   19  O4  UNL     1      -0.674   4.904  11.578  1.00  0.00    -0.387 OA
BRANCH  19  20
HETATM   20  C8  UNL     1      -0.338   4.673  10.271  1.00  0.00     0.193 C 
BRANCH  20  21
HETATM   21  C9  UNL     1      -1.226   5.337   9.252  1.00  0.00     0.193 C 
BRANCH  21  22
HETATM   22  O5  UNL     1      -2.210   4.472   8.848  1.00  0.00    -0.387 OA
BRANCH  22  23
HETATM   23  C10 UNL     1      -3.449   5.018   8.812  1.00  0.00     0.187 C 
BRANCH  23  24
HETATM   24  C11 UNL     1      -4.035   5.135  10.200  1.00  0.00     0.148 C 
BRANCH  24  25
HETATM   25  N3  UNL     1      -4.802   3.950  10.516  1.00  0.00    -0.358 N 
HETATM   26  C12 UNL     1      -4.250   2.931  11.305  1.00  0.00     0.243 C 
HETATM   27  O6  UNL     1      -3.082   3.009  11.762  1.00  0.00    -0.272 OA
ATOM     28  H3  UNL     1      -5.753   3.855  10.161  1.00  0.00     0.162 HD
BRANCH  26  29
HETATM   29  C13 UNL     1      -5.088   1.723  11.602  1.00  0.00     0.331 C 
BRANCH  29  30
HETATM   30  N4  UNL     1      -4.386   0.820  12.492  1.00  0.00    -0.071 N 
ATOM     31  H43 UNL     1      -3.908   0.079  11.980  1.00  0.00     0.274 HD
ATOM     32  H42 UNL     1      -3.571   1.263  12.915  1.00  0.00     0.274 HD
ATOM     33  H41 UNL     1      -5.020   0.444  13.197  1.00  0.00     0.274 HD
ENDBRANCH  29  30
ENDBRANCH  26  29
ENDBRANCH  24  25
ENDBRANCH  23  24
ENDBRANCH  22  23
ENDBRANCH  21  22
ENDBRANCH  20  21
ENDBRANCH  19  20
ENDBRANCH  18  19
ENDBRANCH   1  18
TORSDOF 14
ENDMDL
