MODEL 1
REMARK VINA RESULT: -6.551473602      0.000      0.000
REMARK  12 active torsions:
REMARK  status: ('A' for Active; 'I' for Inactive)
REMARK    1  A    between atoms: N1_1  and  S1_4 
REMARK    2  A    between atoms: S1_4  and  C1_7 
REMARK    3  A    between atoms: C4_10  and  C5_11 
REMARK       I    between atoms: C5_11  and  N2_13 
REMARK    4  A    between atoms: N2_13  and  C6_15 
REMARK    5  A    between atoms: C6_15  and  C7_16 
REMARK    6  A    between atoms: C7_16  and  O4_17 
REMARK    7  A    between atoms: O4_17  and  C8_18 
REMARK    8  A    between atoms: C8_18  and  C9_19 
REMARK    9  A    between atoms: C9_19  and  O5_20 
REMARK   10  A    between atoms: O5_20  and  C10_21 
REMARK   11  A    between atoms: C10_21  and  C11_22 
REMARK   12  A    between atoms: C11_22  and  N3_23 
ROOT
HETATM    1  C5  UNL     1      -2.894   4.618  13.916  1.00  0.00     0.251 C 
HETATM    2  O3  UNL     1      -3.316   5.695  13.379  1.00  0.00    -0.268 OA
HETATM    3  N2  UNL     1      -1.538   4.309  13.650  1.00  0.00    -0.355 N 
ATOM      4  H2  UNL     1      -1.143   3.459  14.054  1.00  0.00     0.162 HD
ENDROOT
BRANCH   1   5
HETATM    5  C4  UNL     1      -3.777   3.796  14.734  1.00  0.00     0.032 A 
HETATM    6  C3  UNL     1      -3.321   2.734  15.464  1.00  0.00     0.018 A 
HETATM    7  C2  UNL     1      -4.154   1.967  16.231  1.00  0.00     0.026 A 
HETATM    8  C1  UNL     1      -5.495   2.250  16.288  1.00  0.00     0.079 A 
HETATM    9  C13 UNL     1      -5.990   3.315  15.564  1.00  0.00     0.026 A 
HETATM   10  C12 UNL     1      -5.144   4.084  14.793  1.00  0.00     0.018 A 
BRANCH   8  11
HETATM   11  S1  UNL     1      -6.505   1.230  17.288  1.00  0.00     0.256 S 
HETATM   12  O1  UNL     1      -7.932   1.268  16.880  1.00  0.00    -0.201 OA
HETATM   13  O2  UNL     1      -6.023  -0.195  17.301  1.00  0.00    -0.201 OA
BRANCH  11  14
HETATM   14  N1  UNL     1      -6.396   1.800  18.931  1.00  0.00    -0.324 N 
ATOM     15  H12 UNL     1      -6.382   2.780  19.213  1.00  0.00     0.169 HD
ATOM     16  H11 UNL     1      -6.349   0.987  19.546  1.00  0.00     0.169 HD
ENDBRANCH  11  14
ENDBRANCH   8  11
ENDBRANCH   1   5
BRANCH   3  17
HETATM   17  C6  UNL     1      -0.688   5.144  12.833  1.00  0.00     0.149 C 
BRANCH  17  18
HETATM   18  C7  UNL     1      -0.245   4.465  11.553  1.00  0.00     0.187 C 
BRANCH  18  19
HETATM   19  O4  UNL     1      -1.349   3.796  11.040  1.00  0.00    -0.387 OA
BRANCH  19  20
HETATM   20  C8  UNL     1      -2.105   4.576  10.188  1.00  0.00     0.193 C 
BRANCH  20  21
HETATM   21  C9  UNL     1      -3.556   4.204  10.170  1.00  0.00     0.193 C 
BRANCH  21  22
HETATM   22  O5  UNL     1      -3.781   2.838  10.226  1.00  0.00    -0.387 OA
BRANCH  22  23
HETATM   23  C10 UNL     1      -4.672   2.611  11.274  1.00  0.00     0.195 C 
BRANCH  23  24
HETATM   24  C11 UNL     1      -4.922   1.122  11.457  1.00  0.00     0.255 C 
BRANCH  24  25
HETATM   25  N3  UNL     1      -4.223   0.674  12.633  1.00  0.00    -0.077 N 
ATOM     26  H33 UNL     1      -3.507  -0.021  12.421  1.00  0.00     0.274 HD
ATOM     27  H32 UNL     1      -3.612   1.393  13.021  1.00  0.00     0.274 HD
ATOM     28  H31 UNL     1      -4.905   0.334  13.312  1.00  0.00     0.274 HD
ENDBRANCH  24  25
ENDBRANCH  23  24
ENDBRANCH  22  23
ENDBRANCH  21  22
ENDBRANCH  20  21
ENDBRANCH  19  20
ENDBRANCH  18  19
ENDBRANCH  17  18
ENDBRANCH   3  17
TORSDOF 12
ENDMDL
