MODEL 2
REMARK VINA RESULT: -6.489370811      0.197      1.028
REMARK  12 active torsions:
REMARK  status: ('A' for Active; 'I' for Inactive)
REMARK    1  A    between atoms: N1_1  and  S1_4 
REMARK    2  A    between atoms: S1_4  and  C1_7 
REMARK    3  A    between atoms: C4_10  and  C5_11 
REMARK       I    between atoms: C5_11  and  N2_13 
REMARK    4  A    between atoms: N2_13  and  C6_15 
REMARK    5  A    between atoms: C6_15  and  C7_16 
REMARK    6  A    between atoms: C7_16  and  O4_17 
REMARK    7  A    between atoms: O4_17  and  C8_18 
REMARK    8  A    between atoms: C8_18  and  C9_19 
REMARK    9  A    between atoms: C9_19  and  O5_20 
REMARK   10  A    between atoms: O5_20  and  C10_21 
REMARK   11  A    between atoms: C10_21  and  C11_22 
REMARK   12  A    between atoms: C11_22  and  N3_23 
ROOT
HETATM    1  C5  UNL     1      -3.130   4.791  13.859  1.00  0.00     0.251 C 
HETATM    2  O3  UNL     1      -3.626   5.835  13.320  1.00  0.00    -0.268 OA
HETATM    3  N2  UNL     1      -1.761   4.567  13.577  1.00  0.00    -0.355 N 
ATOM      4  H2  UNL     1      -1.307   3.747  13.982  1.00  0.00     0.162 HD
ENDROOT
BRANCH   1   5
HETATM    5  C4  UNL     1      -3.948   3.923  14.698  1.00  0.00     0.032 A 
HETATM    6  C3  UNL     1      -5.296   4.103  14.842  1.00  0.00     0.018 A 
HETATM    7  C2  UNL     1      -6.058   3.286  15.629  1.00  0.00     0.026 A 
HETATM    8  C1  UNL     1      -5.478   2.243  16.308  1.00  0.00     0.079 A 
HETATM    9  C13 UNL     1      -4.121   2.032  16.184  1.00  0.00     0.026 A 
HETATM   10  C12 UNL     1      -3.359   2.860  15.389  1.00  0.00     0.018 A 
BRANCH   8  11
HETATM   11  S1  UNL     1      -6.511   1.236  17.297  1.00  0.00     0.256 S 
HETATM   12  O1  UNL     1      -7.935   1.300  16.880  1.00  0.00    -0.201 OA
HETATM   13  O2  UNL     1      -6.054  -0.197  17.307  1.00  0.00    -0.201 OA
BRANCH  11  14
HETATM   14  N1  UNL     1      -6.403   1.797  18.943  1.00  0.00    -0.324 N 
ATOM     15  H12 UNL     1      -7.196   1.939  19.568  1.00  0.00     0.169 HD
ATOM     16  H11 UNL     1      -5.418   1.954  19.160  1.00  0.00     0.169 HD
ENDBRANCH  11  14
ENDBRANCH   8  11
ENDBRANCH   1   5
BRANCH   3  17
HETATM   17  C6  UNL     1      -0.976   5.447  12.741  1.00  0.00     0.149 C 
BRANCH  17  18
HETATM   18  C7  UNL     1      -0.420   4.756  11.514  1.00  0.00     0.187 C 
BRANCH  18  19
HETATM   19  O4  UNL     1      -1.421   3.931  11.016  1.00  0.00    -0.387 OA
BRANCH  19  20
HETATM   20  C8  UNL     1      -2.231   4.562  10.094  1.00  0.00     0.193 C 
BRANCH  20  21
HETATM   21  C9  UNL     1      -3.671   4.159  10.191  1.00  0.00     0.193 C 
BRANCH  21  22
HETATM   22  O5  UNL     1      -3.864   2.788  10.218  1.00  0.00    -0.387 OA
BRANCH  22  23
HETATM   23  C10 UNL     1      -4.710   2.513  11.293  1.00  0.00     0.195 C 
BRANCH  23  24
HETATM   24  C11 UNL     1      -4.870   1.013  11.483  1.00  0.00     0.255 C 
BRANCH  24  25
HETATM   25  N3  UNL     1      -4.193   0.622  12.692  1.00  0.00    -0.077 N 
ATOM     26  H33 UNL     1      -3.493  -0.103  12.530  1.00  0.00     0.274 HD
ATOM     27  H32 UNL     1      -3.566   1.348  13.040  1.00  0.00     0.274 HD
ATOM     28  H31 UNL     1      -4.888   0.343  13.385  1.00  0.00     0.274 HD
ENDBRANCH  24  25
ENDBRANCH  23  24
ENDBRANCH  22  23
ENDBRANCH  21  22
ENDBRANCH  20  21
ENDBRANCH  19  20
ENDBRANCH  18  19
ENDBRANCH  17  18
ENDBRANCH   3  17
TORSDOF 12
ENDMDL
