MODEL 3
REMARK VINA RESULT: -6.409173418      1.816      2.412
REMARK  12 active torsions:
REMARK  status: ('A' for Active; 'I' for Inactive)
REMARK    1  A    between atoms: N1_1  and  S1_4 
REMARK    2  A    between atoms: S1_4  and  C1_7 
REMARK    3  A    between atoms: C4_10  and  C5_11 
REMARK       I    between atoms: C5_11  and  N2_13 
REMARK    4  A    between atoms: N2_13  and  C6_15 
REMARK    5  A    between atoms: C6_15  and  C7_16 
REMARK    6  A    between atoms: C7_16  and  O4_17 
REMARK    7  A    between atoms: O4_17  and  C8_18 
REMARK    8  A    between atoms: C8_18  and  C9_19 
REMARK    9  A    between atoms: C9_19  and  O5_20 
REMARK   10  A    between atoms: O5_20  and  C10_21 
REMARK   11  A    between atoms: C10_21  and  C11_22 
REMARK   12  A    between atoms: C11_22  and  N3_23 
ROOT
HETATM    1  C5  UNL     1      -4.184   5.650  13.871  1.00  0.00     0.251 C 
HETATM    2  O3  UNL     1      -3.062   6.209  14.109  1.00  0.00    -0.268 OA
HETATM    3  N2  UNL     1      -4.930   6.235  12.818  1.00  0.00    -0.355 N 
ATOM      4  H2  UNL     1      -5.836   5.830  12.580  1.00  0.00     0.162 HD
ENDROOT
BRANCH   1   5
HETATM    5  C4  UNL     1      -4.625   4.499  14.649  1.00  0.00     0.032 A 
HETATM    6  C3  UNL     1      -5.921   4.345  15.058  1.00  0.00     0.018 A 
HETATM    7  C2  UNL     1      -6.329   3.263  15.787  1.00  0.00     0.026 A 
HETATM    8  C1  UNL     1      -5.431   2.285  16.134  1.00  0.00     0.079 A 
HETATM    9  C13 UNL     1      -4.116   2.408  15.738  1.00  0.00     0.026 A 
HETATM   10  C12 UNL     1      -3.711   3.502  15.002  1.00  0.00     0.018 A 
BRANCH   8  11
HETATM   11  S1  UNL     1      -6.020   0.927  17.067  1.00  0.00     0.256 S 
HETATM   12  O1  UNL     1      -5.653  -0.379  16.462  1.00  0.00    -0.201 OA
HETATM   13  O2  UNL     1      -5.539   0.975  18.491  1.00  0.00    -0.201 OA
BRANCH  11  14
HETATM   14  N1  UNL     1      -7.758   1.025  17.132  1.00  0.00    -0.324 N 
ATOM     15  H12 UNL     1      -8.356   1.364  16.379  1.00  0.00     0.169 HD
ATOM     16  H11 UNL     1      -8.060   0.687  18.046  1.00  0.00     0.169 HD
ENDBRANCH  11  14
ENDBRANCH   8  11
ENDBRANCH   1   5
BRANCH   3  17
HETATM   17  C6  UNL     1      -4.465   7.377  12.066  1.00  0.00     0.149 C 
BRANCH  17  18
HETATM   18  C7  UNL     1      -4.520   7.161  10.568  1.00  0.00     0.187 C 
BRANCH  18  19
HETATM   19  O4  UNL     1      -4.844   5.826  10.356  1.00  0.00    -0.387 OA
BRANCH  19  20
HETATM   20  C8  UNL     1      -3.837   5.120   9.732  1.00  0.00     0.193 C 
BRANCH  20  21
HETATM   21  C9  UNL     1      -3.351   3.946  10.527  1.00  0.00     0.193 C 
BRANCH  21  22
HETATM   22  O5  UNL     1      -4.025   2.768  10.249  1.00  0.00    -0.387 OA
BRANCH  22  23
HETATM   23  C10 UNL     1      -4.732   2.417  11.399  1.00  0.00     0.195 C 
BRANCH  23  24
HETATM   24  C11 UNL     1      -4.819   0.905  11.538  1.00  0.00     0.255 C 
BRANCH  24  25
HETATM   25  N3  UNL     1      -4.028   0.494  12.669  1.00  0.00    -0.077 N 
ATOM     26  H33 UNL     1      -3.566   1.280  13.126  1.00  0.00     0.274 HD
ATOM     27  H32 UNL     1      -4.602   0.190  13.456  1.00  0.00     0.274 HD
ATOM     28  H31 UNL     1      -3.369  -0.223  12.367  1.00  0.00     0.274 HD
ENDBRANCH  24  25
ENDBRANCH  23  24
ENDBRANCH  22  23
ENDBRANCH  21  22
ENDBRANCH  20  21
ENDBRANCH  19  20
ENDBRANCH  18  19
ENDBRANCH  17  18
ENDBRANCH   3  17
TORSDOF 12
ENDMDL
