MODEL 2
REMARK VINA RESULT: -6.669541623      3.229      6.152
REMARK  16 active torsions:
REMARK  status: ('A' for Active; 'I' for Inactive)
REMARK    1  A    between atoms: N1_1  and  S1_4 
REMARK    2  A    between atoms: S1_4  and  C1_7 
REMARK    3  A    between atoms: C4_10  and  C5_11 
REMARK       I    between atoms: C5_11  and  N2_13 
REMARK    4  A    between atoms: N2_13  and  C6_15 
REMARK    5  A    between atoms: C6_15  and  C7_16 
REMARK    6  A    between atoms: C7_16  and  O4_17 
REMARK    7  A    between atoms: O4_17  and  C8_18 
REMARK    8  A    between atoms: C8_18  and  C9_19 
REMARK    9  A    between atoms: C9_19  and  O5_20 
REMARK   10  A    between atoms: O5_20  and  C10_21 
REMARK   11  A    between atoms: C10_21  and  C11_22 
REMARK   12  A    between atoms: C11_22  and  N3_23 
REMARK       I    between atoms: N3_23  and  C12_25 
REMARK   13  A    between atoms: C12_25  and  C13_27 
REMARK   14  A    between atoms: C13_27  and  N4_28 
REMARK   15  A    between atoms: C13_27  and  C14_32 
REMARK   16  A    between atoms: C14_32  and  C15_33 
ROOT
HETATM    1  C8  UNL     1      -7.021   2.081  16.950  1.00  0.00     0.193 C 
ENDROOT
BRANCH   1   2
HETATM    2  O4  UNL     1      -6.917   3.413  16.655  1.00  0.00    -0.387 OA
BRANCH   2   3
HETATM    3  C7  UNL     1      -6.296   3.703  15.470  1.00  0.00     0.187 C 
BRANCH   3   4
HETATM    4  C6  UNL     1      -6.414   5.127  15.041  1.00  0.00     0.149 C 
BRANCH   4   5
HETATM    5  N2  UNL     1      -5.065   5.603  14.693  1.00  0.00    -0.355 N 
HETATM    6  C5  UNL     1      -4.821   6.296  13.483  1.00  0.00     0.251 C 
HETATM    7  O3  UNL     1      -5.811   6.483  12.727  1.00  0.00    -0.268 OA
ATOM      8  H2  UNL     1      -4.292   5.430  15.336  1.00  0.00     0.162 HD
BRANCH   6   9
HETATM    9  C4  UNL     1      -3.486   6.789  13.097  1.00  0.00     0.032 A 
HETATM   10  C3  UNL     1      -2.344   6.492  13.798  1.00  0.00     0.018 A 
HETATM   11  C2  UNL     1      -1.112   6.987  13.384  1.00  0.00     0.026 A 
HETATM   12  C1  UNL     1      -1.019   7.786  12.259  1.00  0.00     0.079 A 
HETATM   13  C22 UNL     1      -2.150   8.100  11.536  1.00  0.00     0.026 A 
HETATM   14  C21 UNL     1      -3.355   7.598  11.967  1.00  0.00     0.018 A 
BRANCH  12  15
HETATM   15  S1  UNL     1       0.511   8.425  11.707  1.00  0.00     0.256 S 
HETATM   16  O1  UNL     1       0.555   8.528  10.210  1.00  0.00    -0.201 OA
HETATM   17  O2  UNL     1       1.595   7.519  12.215  1.00  0.00    -0.201 OA
BRANCH  15  18
HETATM   18  N1  UNL     1       0.707  10.012  12.407  1.00  0.00    -0.324 N 
ATOM     19  H12 UNL     1       1.472  10.278  13.027  1.00  0.00     0.169 HD
ATOM     20  H11 UNL     1      -0.055  10.617  12.101  1.00  0.00     0.169 HD
ENDBRANCH  15  18
ENDBRANCH  12  15
ENDBRANCH   6   9
ENDBRANCH   4   5
ENDBRANCH   3   4
ENDBRANCH   2   3
ENDBRANCH   1   2
BRANCH   1  21
HETATM   21  C9  UNL     1      -6.035   1.625  18.002  1.00  0.00     0.193 C 
BRANCH  21  22
HETATM   22  O5  UNL     1      -5.255   0.567  17.537  1.00  0.00    -0.387 OA
BRANCH  22  23
HETATM   23  C10 UNL     1      -4.347   1.092  16.602  1.00  0.00     0.187 C 
BRANCH  23  24
HETATM   24  C11 UNL     1      -4.417   0.299  15.315  1.00  0.00     0.148 C 
BRANCH  24  25
HETATM   25  N3  UNL     1      -4.176   1.210  14.217  1.00  0.00    -0.357 N 
HETATM   26  C12 UNL     1      -4.210   0.860  12.856  1.00  0.00     0.248 C 
HETATM   27  O6  UNL     1      -4.468  -0.333  12.552  1.00  0.00    -0.271 OA
ATOM     28  H3  UNL     1      -3.965   2.181  14.448  1.00  0.00     0.162 HD
BRANCH  26  29
HETATM   29  C13 UNL     1      -3.959   1.826  11.751  1.00  0.00     0.278 C 
BRANCH  29  30
HETATM   30  N4  UNL     1      -5.151   2.085  10.990  1.00  0.00    -0.066 N 
ATOM     31  H43 UNL     1      -5.610   1.218  10.712  1.00  0.00     0.275 HD
ATOM     32  H42 UNL     1      -5.888   2.475  11.576  1.00  0.00     0.275 HD
ATOM     33  H41 UNL     1      -4.962   2.680  10.184  1.00  0.00     0.275 HD
ENDBRANCH  29  30
BRANCH  29  34
HETATM   34  C14 UNL     1      -3.392   3.075  12.383  1.00  0.00     0.081 C 
BRANCH  34  35
HETATM   35  C15 UNL     1      -2.253   3.641  11.662  1.00  0.00    -0.056 A 
HETATM   36  C16 UNL     1      -0.981   3.444  12.143  1.00  0.00     0.007 A 
HETATM   37  C17 UNL     1       0.102   3.970  11.476  1.00  0.00     0.001 A 
HETATM   38  C18 UNL     1      -0.073   4.699  10.321  1.00  0.00     0.000 A 
HETATM   39  C19 UNL     1      -1.356   4.883   9.859  1.00  0.00     0.001 A 
HETATM   40  C20 UNL     1      -2.444   4.362  10.517  1.00  0.00     0.007 A 
ENDBRANCH  34  35
ENDBRANCH  29  34
ENDBRANCH  26  29
ENDBRANCH  24  25
ENDBRANCH  23  24
ENDBRANCH  22  23
ENDBRANCH  21  22
ENDBRANCH   1  21
TORSDOF 16
ENDMDL
