MODEL 3
REMARK VINA RESULT: -6.607707839      4.068      8.049
REMARK  16 active torsions:
REMARK  status: ('A' for Active; 'I' for Inactive)
REMARK    1  A    between atoms: N1_1  and  S1_4 
REMARK    2  A    between atoms: S1_4  and  C1_7 
REMARK    3  A    between atoms: C4_10  and  C5_11 
REMARK       I    between atoms: C5_11  and  N2_13 
REMARK    4  A    between atoms: N2_13  and  C6_15 
REMARK    5  A    between atoms: C6_15  and  C7_16 
REMARK    6  A    between atoms: C7_16  and  O4_17 
REMARK    7  A    between atoms: O4_17  and  C8_18 
REMARK    8  A    between atoms: C8_18  and  C9_19 
REMARK    9  A    between atoms: C9_19  and  O5_20 
REMARK   10  A    between atoms: O5_20  and  C10_21 
REMARK   11  A    between atoms: C10_21  and  C11_22 
REMARK   12  A    between atoms: C11_22  and  N3_23 
REMARK       I    between atoms: N3_23  and  C12_25 
REMARK   13  A    between atoms: C12_25  and  C13_27 
REMARK   14  A    between atoms: C13_27  and  N4_28 
REMARK   15  A    between atoms: C13_27  and  C14_32 
REMARK   16  A    between atoms: C14_32  and  C15_33 
ROOT
HETATM    1  C8  UNL     1      -1.165   4.695   8.390  1.00  0.00     0.193 C 
ENDROOT
BRANCH   1   2
HETATM    2  O4  UNL     1      -2.485   4.344   8.307  1.00  0.00    -0.387 OA
BRANCH   2   3
HETATM    3  C7  UNL     1      -3.333   5.345   7.917  1.00  0.00     0.187 C 
BRANCH   3   4
HETATM    4  C6  UNL     1      -4.295   5.787   8.968  1.00  0.00     0.149 C 
BRANCH   4   5
HETATM    5  N2  UNL     1      -4.395   4.709   9.967  1.00  0.00    -0.355 N 
HETATM    6  C5  UNL     1      -4.256   4.976  11.350  1.00  0.00     0.251 C 
HETATM    7  O3  UNL     1      -4.045   6.173  11.677  1.00  0.00    -0.268 OA
ATOM      8  H2  UNL     1      -4.568   3.753   9.656  1.00  0.00     0.162 HD
BRANCH   6   9
HETATM    9  C4  UNL     1      -4.349   3.926  12.381  1.00  0.00     0.032 A 
HETATM   10  C3  UNL     1      -4.116   2.599  12.125  1.00  0.00     0.018 A 
HETATM   11  C2  UNL     1      -4.219   1.654  13.141  1.00  0.00     0.026 A 
HETATM   12  C1  UNL     1      -4.557   2.040  14.425  1.00  0.00     0.079 A 
HETATM   13  C22 UNL     1      -4.797   3.366  14.711  1.00  0.00     0.026 A 
HETATM   14  C21 UNL     1      -4.688   4.279  13.689  1.00  0.00     0.018 A 
BRANCH  12  15
HETATM   15  S1  UNL     1      -4.695   0.883  15.728  1.00  0.00     0.256 S 
HETATM   16  O1  UNL     1      -3.491   0.921  16.625  1.00  0.00    -0.201 OA
HETATM   17  O2  UNL     1      -4.865  -0.477  15.115  1.00  0.00    -0.201 OA
BRANCH  15  18
HETATM   18  N1  UNL     1      -6.122   1.286  16.648  1.00  0.00    -0.324 N 
ATOM     19  H12 UNL     1      -6.111   1.657  17.598  1.00  0.00     0.169 HD
ATOM     20  H11 UNL     1      -6.954   1.093  16.090  1.00  0.00     0.169 HD
ENDBRANCH  15  18
ENDBRANCH  12  15
ENDBRANCH   6   9
ENDBRANCH   4   5
ENDBRANCH   3   4
ENDBRANCH   2   3
ENDBRANCH   1   2
BRANCH   1  21
HETATM   21  C9  UNL     1      -0.676   4.845   9.813  1.00  0.00     0.193 C 
BRANCH  21  22
HETATM   22  O5  UNL     1      -1.257   3.893  10.649  1.00  0.00    -0.387 OA
BRANCH  22  23
HETATM   23  C10 UNL     1      -0.670   4.029  11.918  1.00  0.00     0.187 C 
BRANCH  23  24
HETATM   24  C11 UNL     1      -0.186   5.450  12.111  1.00  0.00     0.148 C 
BRANCH  24  25
HETATM   25  N3  UNL     1      -1.161   6.147  12.921  1.00  0.00    -0.357 N 
HETATM   26  C12 UNL     1      -1.067   7.493  13.317  1.00  0.00     0.248 C 
HETATM   27  O6  UNL     1      -0.064   8.156  12.949  1.00  0.00    -0.271 OA
ATOM     28  H3  UNL     1      -1.980   5.622  13.228  1.00  0.00     0.162 HD
BRANCH  26  29
HETATM   29  C13 UNL     1      -2.094   8.178  14.151  1.00  0.00     0.278 C 
BRANCH  29  30
HETATM   30  N4  UNL     1      -3.132   7.274  14.564  1.00  0.00    -0.066 N 
ATOM     31  H43 UNL     1      -3.473   6.716  13.782  1.00  0.00     0.275 HD
ATOM     32  H42 UNL     1      -2.762   6.524  15.146  1.00  0.00     0.275 HD
ATOM     33  H41 UNL     1      -3.895   7.764  15.030  1.00  0.00     0.275 HD
ENDBRANCH  29  30
BRANCH  29  34
HETATM   34  C14 UNL     1      -1.365   8.798  15.319  1.00  0.00     0.081 C 
BRANCH  34  35
HETATM   35  C15 UNL     1      -1.036  10.211  15.132  1.00  0.00    -0.056 A 
HETATM   36  C16 UNL     1       0.145  10.702  15.630  1.00  0.00     0.007 A 
HETATM   37  C17 UNL     1       0.470  12.029  15.462  1.00  0.00     0.001 A 
HETATM   38  C18 UNL     1      -0.381  12.880  14.794  1.00  0.00     0.000 A 
HETATM   39  C19 UNL     1      -1.559  12.365  14.304  1.00  0.00     0.001 A 
HETATM   40  C20 UNL     1      -1.893  11.042  14.465  1.00  0.00     0.007 A 
ENDBRANCH  34  35
ENDBRANCH  29  34
ENDBRANCH  26  29
ENDBRANCH  24  25
ENDBRANCH  23  24
ENDBRANCH  22  23
ENDBRANCH  21  22
ENDBRANCH   1  21
TORSDOF 16
ENDMDL
