MODEL 1
REMARK VINA RESULT: -6.766020316      0.000      0.000
REMARK  16 active torsions:
REMARK  status: ('A' for Active; 'I' for Inactive)
REMARK    1  A    between atoms: N1_1  and  S1_4 
REMARK    2  A    between atoms: S1_4  and  C1_7 
REMARK    3  A    between atoms: C4_10  and  C5_11 
REMARK       I    between atoms: C5_11  and  N2_13 
REMARK    4  A    between atoms: N2_13  and  C6_15 
REMARK    5  A    between atoms: C6_15  and  C7_16 
REMARK    6  A    between atoms: C7_16  and  O4_17 
REMARK    7  A    between atoms: O4_17  and  C8_18 
REMARK    8  A    between atoms: C8_18  and  C9_19 
REMARK    9  A    between atoms: C9_19  and  O5_20 
REMARK   10  A    between atoms: O5_20  and  C10_21 
REMARK   11  A    between atoms: C10_21  and  C11_22 
REMARK   12  A    between atoms: C11_22  and  N3_23 
REMARK       I    between atoms: N3_23  and  C12_25 
REMARK   13  A    between atoms: C12_25  and  C13_27 
REMARK   14  A    between atoms: C13_27  and  N4_28 
REMARK   15  A    between atoms: C13_27  and  C14_32 
REMARK   16  A    between atoms: C14_32  and  C15_33 
ROOT
HETATM    1  C8  UNL     1      -0.576   4.763  12.452  1.00  0.00     0.193 C 
ENDROOT
BRANCH   1   2
HETATM    2  O4  UNL     1      -1.661   4.436  13.219  1.00  0.00    -0.387 OA
BRANCH   2   3
HETATM    3  C7  UNL     1      -1.802   5.160  14.371  1.00  0.00     0.187 C 
BRANCH   3   4
HETATM    4  C6  UNL     1      -3.207   5.543  14.695  1.00  0.00     0.149 C 
BRANCH   4   5
HETATM    5  N2  UNL     1      -3.649   6.521  13.687  1.00  0.00    -0.355 N 
HETATM    6  C5  UNL     1      -4.917   6.413  13.068  1.00  0.00     0.251 C 
HETATM    7  O3  UNL     1      -5.641   5.445  13.423  1.00  0.00    -0.268 OA
ATOM      8  H2  UNL     1      -3.030   7.290  13.430  1.00  0.00     0.162 HD
BRANCH   6   9
HETATM    9  C4  UNL     1      -5.398   7.370  12.054  1.00  0.00     0.032 A 
HETATM   10  C3  UNL     1      -6.728   7.575  11.786  1.00  0.00     0.018 A 
HETATM   11  C2  UNL     1      -7.120   8.493  10.817  1.00  0.00     0.026 A 
HETATM   12  C1  UNL     1      -6.174   9.213  10.110  1.00  0.00     0.079 A 
HETATM   13  C22 UNL     1      -4.831   9.027  10.358  1.00  0.00     0.026 A 
HETATM   14  C21 UNL     1      -4.471   8.113  11.320  1.00  0.00     0.018 A 
BRANCH  12  15
HETATM   15  S1  UNL     1      -6.628  10.377   8.887  1.00  0.00     0.256 S 
HETATM   16  O1  UNL     1      -5.642  10.395   7.755  1.00  0.00    -0.201 OA
HETATM   17  O2  UNL     1      -6.714  11.723   9.546  1.00  0.00    -0.201 OA
BRANCH  15  18
HETATM   18  N1  UNL     1      -8.203   9.925   8.284  1.00  0.00    -0.324 N 
ATOM     19  H12 UNL     1      -8.602  10.260   7.407  1.00  0.00     0.169 HD
ATOM     20  H11 UNL     1      -8.649   9.284   8.940  1.00  0.00     0.169 HD
ENDBRANCH  15  18
ENDBRANCH  12  15
ENDBRANCH   6   9
ENDBRANCH   4   5
ENDBRANCH   3   4
ENDBRANCH   2   3
ENDBRANCH   1   2
BRANCH   1  21
HETATM   21  C9  UNL     1      -0.944   5.182  11.046  1.00  0.00     0.193 C 
BRANCH  21  22
HETATM   22  O5  UNL     1      -2.299   5.494  10.951  1.00  0.00    -0.387 OA
BRANCH  22  23
HETATM   23  C10 UNL     1      -2.856   4.663   9.965  1.00  0.00     0.187 C 
BRANCH  23  24
HETATM   24  C11 UNL     1      -4.200   4.145  10.427  1.00  0.00     0.148 C 
BRANCH  24  25
HETATM   25  N3  UNL     1      -3.976   3.267  11.555  1.00  0.00    -0.357 N 
HETATM   26  C12 UNL     1      -4.833   2.225  11.951  1.00  0.00     0.248 C 
HETATM   27  O6  UNL     1      -5.881   2.028  11.284  1.00  0.00    -0.271 OA
ATOM     28  H3  UNL     1      -3.130   3.416  12.106  1.00  0.00     0.162 HD
BRANCH  26  29
HETATM   29  C13 UNL     1      -4.567   1.340  13.118  1.00  0.00     0.278 C 
BRANCH  29  30
HETATM   30  N4  UNL     1      -3.508   0.406  12.846  1.00  0.00    -0.066 N 
ATOM     31  H43 UNL     1      -2.633   0.886  12.638  1.00  0.00     0.275 HD
ATOM     32  H42 UNL     1      -3.222  -0.088  13.691  1.00  0.00     0.275 HD
ATOM     33  H41 UNL     1      -3.761  -0.244  12.103  1.00  0.00     0.275 HD
ENDBRANCH  29  30
BRANCH  29  34
HETATM   34  C14 UNL     1      -4.259   2.242  14.289  1.00  0.00     0.081 C 
BRANCH  34  35
HETATM   35  C15 UNL     1      -5.132   2.035  15.444  1.00  0.00    -0.056 A 
HETATM   36  C16 UNL     1      -4.999   0.894  16.198  1.00  0.00     0.007 A 
HETATM   37  C17 UNL     1      -5.812   0.684  17.288  1.00  0.00     0.001 A 
HETATM   38  C18 UNL     1      -6.768   1.611  17.638  1.00  0.00     0.000 A 
HETATM   39  C19 UNL     1      -6.883   2.746  16.868  1.00  0.00     0.001 A 
HETATM   40  C20 UNL     1      -6.076   2.966  15.778  1.00  0.00     0.007 A 
ENDBRANCH  34  35
ENDBRANCH  29  34
ENDBRANCH  26  29
ENDBRANCH  24  25
ENDBRANCH  23  24
ENDBRANCH  22  23
ENDBRANCH  21  22
ENDBRANCH   1  21
TORSDOF 16
ENDMDL
