MODEL 7
REMARK VINA RESULT: -6.324851679      1.333      1.608
REMARK  7 active torsions:
REMARK  status: ('A' for Active; 'I' for Inactive)
REMARK    1  A    between atoms: S1_2  and  N1_3 
REMARK    2  A    between atoms: S1_2  and  N2_6 
REMARK    3  A    between atoms: S1_2  and  C2_9 
REMARK    4  A    between atoms: C2_9  and  C3_10 
REMARK    5  A    between atoms: C3_10  and  C4_11 
REMARK    6  A    between atoms: C3_10  and  C11_18 
REMARK    7  A    between atoms: C4_11  and  C5_12 
ROOT
HETATM    1  C3  UNL     1      -1.799  30.112  -7.311  1.00  0.00     0.102 C 
ENDROOT
BRANCH   1   2
HETATM    2  C2  UNL     1      -2.674  30.088  -6.127  1.00  0.00     0.108 C 
BRANCH   2   3
HETATM    3  S1  UNL     1      -3.159  31.590  -5.408  1.00  0.00    -0.117 SA
HETATM    4  C1  UNL     1      -4.058  31.212  -3.882  1.00  0.00     0.111 C 
BRANCH   3   5
HETATM    5  N1  UNL     1      -1.964  32.486  -4.929  1.00  0.00    -0.377 N 
ATOM      6  H12 UNL     1      -2.012  33.439  -4.568  1.00  0.00     0.164 HD
ATOM      7  H11 UNL     1      -1.144  31.894  -5.065  1.00  0.00     0.164 HD
ENDBRANCH   3   5
BRANCH   3   8
HETATM    8  N2  UNL     1      -4.079  32.459  -6.260  1.00  0.00    -0.377 N 
ATOM      9  H22 UNL     1      -4.763  32.119  -6.937  1.00  0.00     0.164 HD
ATOM     10  H21 UNL     1      -3.876  33.429  -6.020  1.00  0.00     0.164 HD
ENDBRANCH   3   8
ENDBRANCH   2   3
ENDBRANCH   1   2
BRANCH   1  11
HETATM   11  C4  UNL     1      -2.013  31.343  -8.160  1.00  0.00     0.054 C 
BRANCH  11  12
HETATM   12  C5  UNL     1      -2.225  31.038  -9.593  1.00  0.00    -0.057 A 
HETATM   13  C6  UNL     1      -1.101  30.800 -10.353  1.00  0.00     0.007 A 
HETATM   14  C7  UNL     1      -1.160  30.505 -11.685  1.00  0.00     0.001 A 
HETATM   15  C8  UNL     1      -2.404  30.444 -12.291  1.00  0.00     0.000 A 
HETATM   16  C9  UNL     1      -3.534  30.677 -11.555  1.00  0.00     0.001 A 
HETATM   17  C10 UNL     1      -3.461  30.977 -10.198  1.00  0.00     0.007 A 
ENDBRANCH  11  12
ENDBRANCH   1  11
BRANCH   1  18
HETATM   18  C11 UNL     1      -0.379  29.970  -6.941  1.00  0.00     0.178 C 
HETATM   19  O1  UNL     1       0.361  29.072  -7.475  1.00  0.00    -0.648 OA
HETATM   20  O2  UNL     1       0.200  30.793  -6.014  1.00  0.00    -0.648 OA
ENDBRANCH   1  18
TORSDOF 7
ENDMDL
