MODEL 2
REMARK VINA RESULT: -6.778522835      0.867      1.326
REMARK  7 active torsions:
REMARK  status: ('A' for Active; 'I' for Inactive)
REMARK    1  A    between atoms: S1_2  and  N1_3 
REMARK    2  A    between atoms: S1_2  and  N2_6 
REMARK    3  A    between atoms: S1_2  and  C2_9 
REMARK    4  A    between atoms: C2_9  and  C3_10 
REMARK    5  A    between atoms: C3_10  and  C4_11 
REMARK    6  A    between atoms: C3_10  and  C11_18 
REMARK    7  A    between atoms: C4_11  and  C5_12 
ROOT
HETATM    1  C3  UNL     1      -1.952  30.763  -7.647  1.00  0.00     0.102 C 
ENDROOT
BRANCH   1   2
HETATM    2  C2  UNL     1      -2.477  31.401  -6.427  1.00  0.00     0.108 C 
BRANCH   2   3
HETATM    3  S1  UNL     1      -2.907  30.404  -5.075  1.00  0.00    -0.117 SA
HETATM    4  C1  UNL     1      -4.100  31.320  -4.066  1.00  0.00     0.111 C 
BRANCH   3   5
HETATM    5  N1  UNL     1      -3.673  29.092  -5.465  1.00  0.00    -0.377 N 
ATOM      6  H12 UNL     1      -3.714  28.220  -4.937  1.00  0.00     0.164 HD
ATOM      7  H11 UNL     1      -4.111  29.320  -6.357  1.00  0.00     0.164 HD
ENDBRANCH   3   5
BRANCH   3   8
HETATM    8  N2  UNL     1      -1.756  30.014  -4.153  1.00  0.00    -0.377 N 
ATOM      9  H22 UNL     1      -0.815  30.405  -4.176  1.00  0.00     0.164 HD
ATOM     10  H21 UNL     1      -2.113  29.296  -3.522  1.00  0.00     0.164 HD
ENDBRANCH   3   8
ENDBRANCH   2   3
ENDBRANCH   1   2
BRANCH   1  11
HETATM   11  C4  UNL     1      -1.836  31.734  -8.799  1.00  0.00     0.054 C 
BRANCH  11  12
HETATM   12  C5  UNL     1      -2.226  31.147 -10.101  1.00  0.00    -0.057 A 
HETATM   13  C6  UNL     1      -1.207  30.833 -10.974  1.00  0.00     0.007 A 
HETATM   14  C7  UNL     1      -1.433  30.285 -12.204  1.00  0.00     0.001 A 
HETATM   15  C8  UNL     1      -2.742  30.035 -12.584  1.00  0.00     0.000 A 
HETATM   16  C9  UNL     1      -3.768  30.340 -11.732  1.00  0.00     0.001 A 
HETATM   17  C10 UNL     1      -3.527  30.899 -10.481  1.00  0.00     0.007 A 
ENDBRANCH  11  12
ENDBRANCH   1  11
BRANCH   1  18
HETATM   18  C11 UNL     1      -0.664  30.090  -7.396  1.00  0.00     0.178 C 
HETATM   19  O1  UNL     1      -0.325  29.041  -8.046  1.00  0.00    -0.648 OA
HETATM   20  O2  UNL     1       0.216  30.563  -6.462  1.00  0.00    -0.648 OA
ENDBRANCH   1  18
TORSDOF 7
ENDMDL
