MODEL 13
REMARK VINA RESULT: -5.741579340      2.666      5.691
REMARK  7 active torsions:
REMARK  status: ('A' for Active; 'I' for Inactive)
REMARK    1  A    between atoms: S1_2  and  N1_3 
REMARK    2  A    between atoms: S1_2  and  N2_6 
REMARK    3  A    between atoms: S1_2  and  C2_9 
REMARK    4  A    between atoms: C2_9  and  C3_10 
REMARK    5  A    between atoms: C3_10  and  C4_11 
REMARK    6  A    between atoms: C3_10  and  C11_18 
REMARK    7  A    between atoms: C4_11  and  C5_12 
ROOT
HETATM    1  C3  UNL     1      -1.725  29.998  -7.296  1.00  0.00     0.102 C 
ENDROOT
BRANCH   1   2
HETATM    2  C2  UNL     1      -1.994  29.552  -8.674  1.00  0.00     0.108 C 
BRANCH   2   3
HETATM    3  S1  UNL     1      -2.321  30.741  -9.894  1.00  0.00    -0.117 SA
HETATM    4  C1  UNL     1      -1.524  30.199 -11.427  1.00  0.00     0.111 C 
BRANCH   3   5
HETATM    5  N1  UNL     1      -3.836  30.862 -10.281  1.00  0.00    -0.377 N 
ATOM      6  H12 UNL     1      -4.355  30.279 -10.938  1.00  0.00     0.164 HD
ATOM      7  H11 UNL     1      -4.169  31.650  -9.724  1.00  0.00     0.164 HD
ENDBRANCH   3   5
BRANCH   3   8
HETATM    8  N2  UNL     1      -1.803  32.145  -9.599  1.00  0.00    -0.377 N 
ATOM      9  H22 UNL     1      -0.836  32.456  -9.690  1.00  0.00     0.164 HD
ATOM     10  H21 UNL     1      -2.606  32.699  -9.299  1.00  0.00     0.164 HD
ENDBRANCH   3   8
ENDBRANCH   2   3
ENDBRANCH   1   2
BRANCH   1  11
HETATM   11  C4  UNL     1      -2.575  29.270  -6.280  1.00  0.00     0.054 C 
BRANCH  11  12
HETATM   12  C5  UNL     1      -3.052  30.142  -5.183  1.00  0.00    -0.057 A 
HETATM   13  C6  UNL     1      -3.334  31.452  -5.505  1.00  0.00     0.007 A 
HETATM   14  C7  UNL     1      -3.783  32.357  -4.587  1.00  0.00     0.001 A 
HETATM   15  C8  UNL     1      -3.962  31.934  -3.280  1.00  0.00     0.000 A 
HETATM   16  C9  UNL     1      -3.689  30.638  -2.938  1.00  0.00     0.001 A 
HETATM   17  C10 UNL     1      -3.230  29.725  -3.882  1.00  0.00     0.007 A 
ENDBRANCH  11  12
ENDBRANCH   1  11
BRANCH   1  18
HETATM   18  C11 UNL     1      -0.294  29.886  -6.958  1.00  0.00     0.178 C 
HETATM   19  O1  UNL     1       0.446  28.987  -7.489  1.00  0.00    -0.648 OA
HETATM   20  O2  UNL     1       0.295  30.740  -6.067  1.00  0.00    -0.648 OA
ENDBRANCH   1  18
TORSDOF 7
ENDMDL
