MODEL 10
REMARK VINA RESULT: -5.779882165      2.810      6.801
REMARK  7 active torsions:
REMARK  status: ('A' for Active; 'I' for Inactive)
REMARK    1  A    between atoms: S1_2  and  N1_3 
REMARK    2  A    between atoms: S1_2  and  N2_6 
REMARK    3  A    between atoms: S1_2  and  C2_9 
REMARK    4  A    between atoms: C2_9  and  C3_10 
REMARK    5  A    between atoms: C3_10  and  C4_11 
REMARK    6  A    between atoms: C3_10  and  C11_18 
REMARK    7  A    between atoms: C4_11  and  C5_12 
ROOT
HETATM    1  C3  UNL     1      -2.415  30.641  -5.249  1.00  0.00     0.102 C 
ENDROOT
BRANCH   1   2
HETATM    2  C2  UNL     1      -2.462  31.111  -6.644  1.00  0.00     0.108 C 
BRANCH   2   3
HETATM    3  S1  UNL     1      -1.697  30.163  -7.879  1.00  0.00    -0.117 SA
HETATM    4  C1  UNL     1      -1.176  31.286  -9.200  1.00  0.00     0.111 C 
BRANCH   3   5
HETATM    5  N1  UNL     1      -0.364  29.474  -7.423  1.00  0.00    -0.377 N 
ATOM      6  H12 UNL     1       0.548  29.914  -7.298  1.00  0.00     0.164 HD
ATOM      7  H11 UNL     1      -0.627  28.498  -7.286  1.00  0.00     0.164 HD
ENDBRANCH   3   5
BRANCH   3   8
HETATM    8  N2  UNL     1      -2.574  29.096  -8.525  1.00  0.00    -0.377 N 
ATOM      9  H22 UNL     1      -2.647  28.908  -9.525  1.00  0.00     0.164 HD
ATOM     10  H21 UNL     1      -3.063  28.616  -7.769  1.00  0.00     0.164 HD
ENDBRANCH   3   8
ENDBRANCH   2   3
ENDBRANCH   1   2
BRANCH   1  11
HETATM   11  C4  UNL     1      -3.450  31.314  -4.379  1.00  0.00     0.054 C 
BRANCH  11  12
HETATM   12  C5  UNL     1      -2.906  31.803  -3.092  1.00  0.00    -0.057 A 
HETATM   13  C6  UNL     1      -3.816  32.267  -2.167  1.00  0.00     0.007 A 
HETATM   14  C7  UNL     1      -3.445  32.743  -0.942  1.00  0.00     0.001 A 
HETATM   15  C8  UNL     1      -2.097  32.754  -0.621  1.00  0.00     0.000 A 
HETATM   16  C9  UNL     1      -1.177  32.297  -1.525  1.00  0.00     0.001 A 
HETATM   17  C10 UNL     1      -1.567  31.816  -2.771  1.00  0.00     0.007 A 
ENDBRANCH  11  12
ENDBRANCH   1  11
BRANCH   1  18
HETATM   18  C11 UNL     1      -2.536  29.173  -5.167  1.00  0.00     0.178 C 
HETATM   19  O1  UNL     1      -3.630  28.579  -5.461  1.00  0.00    -0.648 OA
HETATM   20  O2  UNL     1      -1.483  28.394  -4.773  1.00  0.00    -0.648 OA
ENDBRANCH   1  18
TORSDOF 7
ENDMDL
