MODEL 1
REMARK VINA RESULT: -6.813594047      0.000      0.000
REMARK  7 active torsions:
REMARK  status: ('A' for Active; 'I' for Inactive)
REMARK    1  A    between atoms: S1_2  and  N1_3 
REMARK    2  A    between atoms: S1_2  and  N2_6 
REMARK    3  A    between atoms: S1_2  and  C2_9 
REMARK    4  A    between atoms: C2_9  and  C3_10 
REMARK    5  A    between atoms: C3_10  and  C4_11 
REMARK    6  A    between atoms: C3_10  and  C11_18 
REMARK    7  A    between atoms: C4_11  and  C5_12 
ROOT
HETATM    1  C3  UNL     1      -2.019  30.880  -7.534  1.00  0.00     0.102 C 
ENDROOT
BRANCH   1   2
HETATM    2  C2  UNL     1      -2.503  31.549  -6.314  1.00  0.00     0.108 C 
BRANCH   2   3
HETATM    3  S1  UNL     1      -3.234  30.594  -5.064  1.00  0.00    -0.117 SA
HETATM    4  C1  UNL     1      -2.047  30.457  -3.703  1.00  0.00     0.111 C 
BRANCH   3   5
HETATM    5  N1  UNL     1      -4.489  31.260  -4.401  1.00  0.00    -0.377 N 
ATOM      6  H12 UNL     1      -4.687  31.351  -3.405  1.00  0.00     0.164 HD
ATOM      7  H11 UNL     1      -5.048  31.573  -5.195  1.00  0.00     0.164 HD
ENDBRANCH   3   5
BRANCH   3   8
HETATM    8  N2  UNL     1      -3.617  29.173  -5.462  1.00  0.00    -0.377 N 
ATOM      9  H22 UNL     1      -4.330  28.598  -5.011  1.00  0.00     0.164 HD
ATOM     10  H21 UNL     1      -3.028  28.918  -6.255  1.00  0.00     0.164 HD
ENDBRANCH   3   8
ENDBRANCH   2   3
ENDBRANCH   1   2
BRANCH   1  11
HETATM   11  C4  UNL     1      -1.907  31.829  -8.704  1.00  0.00     0.054 C 
BRANCH  11  12
HETATM   12  C5  UNL     1      -2.227  31.196 -10.004  1.00  0.00    -0.057 A 
HETATM   13  C6  UNL     1      -1.171  30.949 -10.854  1.00  0.00     0.007 A 
HETATM   14  C7  UNL     1      -1.331  30.368 -12.080  1.00  0.00     0.001 A 
HETATM   15  C8  UNL     1      -2.609  30.014 -12.478  1.00  0.00     0.000 A 
HETATM   16  C9  UNL     1      -3.672  30.251 -11.650  1.00  0.00     0.001 A 
HETATM   17  C10 UNL     1      -3.498  30.844 -10.404  1.00  0.00     0.007 A 
ENDBRANCH  11  12
ENDBRANCH   1  11
BRANCH   1  18
HETATM   18  C11 UNL     1      -0.741  30.182  -7.300  1.00  0.00     0.178 C 
HETATM   19  O1  UNL     1       0.100  30.608  -6.435  1.00  0.00    -0.648 OA
HETATM   20  O2  UNL     1      -0.409  29.054  -7.999  1.00  0.00    -0.648 OA
ENDBRANCH   1  18
TORSDOF 7
ENDMDL
