MODEL 6
REMARK VINA RESULT: -6.591687899      1.388      2.082
REMARK  7 active torsions:
REMARK  status: ('A' for Active; 'I' for Inactive)
REMARK    1  A    between atoms: S1_2  and  N1_3 
REMARK    2  A    between atoms: S1_2  and  N2_6 
REMARK    3  A    between atoms: S1_2  and  C2_9 
REMARK    4  A    between atoms: C2_9  and  C3_10 
REMARK    5  A    between atoms: C3_10  and  C4_11 
REMARK    6  A    between atoms: C3_10  and  C11_18 
REMARK    7  A    between atoms: C4_11  and  C5_12 
ROOT
HETATM    1  C3  UNL     1      -2.345  30.812  -8.742  1.00  0.00     0.102 C 
ENDROOT
BRANCH   1   2
HETATM    2  C2  UNL     1      -2.599  31.721  -7.611  1.00  0.00     0.108 C 
BRANCH   2   3
HETATM    3  S1  UNL     1      -2.667  31.068  -6.005  1.00  0.00    -0.117 SA
HETATM    4  C1  UNL     1      -3.851  32.054  -5.054  1.00  0.00     0.111 C 
BRANCH   3   5
HETATM    5  N1  UNL     1      -3.245  29.612  -5.930  1.00  0.00    -0.377 N 
ATOM      6  H12 UNL     1      -4.182  29.304  -6.189  1.00  0.00     0.164 HD
ATOM      7  H11 UNL     1      -2.468  29.059  -5.565  1.00  0.00     0.164 HD
ENDBRANCH   3   5
BRANCH   3   8
HETATM    8  N2  UNL     1      -1.353  31.088  -5.232  1.00  0.00    -0.377 N 
ATOM      9  H22 UNL     1      -1.135  30.523  -4.411  1.00  0.00     0.164 HD
ATOM     10  H21 UNL     1      -0.748  31.767  -5.694  1.00  0.00     0.164 HD
ENDBRANCH   3   8
ENDBRANCH   2   3
ENDBRANCH   1   2
BRANCH   1  11
HETATM   11  C4  UNL     1      -2.019  31.555 -10.016  1.00  0.00     0.054 C 
BRANCH  11  12
HETATM   12  C5  UNL     1      -2.058  30.698 -11.222  1.00  0.00    -0.057 A 
HETATM   13  C6  UNL     1      -3.266  30.109 -11.529  1.00  0.00     0.007 A 
HETATM   14  C7  UNL     1      -3.437  29.299 -12.614  1.00  0.00     0.001 A 
HETATM   15  C8  UNL     1      -2.349  29.064 -13.438  1.00  0.00     0.000 A 
HETATM   16  C9  UNL     1      -1.140  29.638 -13.152  1.00  0.00     0.001 A 
HETATM   17  C10 UNL     1      -0.978  30.461 -12.042  1.00  0.00     0.007 A 
ENDBRANCH  11  12
ENDBRANCH   1  11
BRANCH   1  18
HETATM   18  C11 UNL     1      -1.292  29.830  -8.423  1.00  0.00     0.178 C 
HETATM   19  O1  UNL     1      -0.116  30.203  -8.086  1.00  0.00    -0.648 OA
HETATM   20  O2  UNL     1      -1.534  28.485  -8.477  1.00  0.00    -0.648 OA
ENDBRANCH   1  18
TORSDOF 7
ENDMDL
