MODEL 3
REMARK VINA RESULT: -6.755543561      0.874      1.779
REMARK  7 active torsions:
REMARK  status: ('A' for Active; 'I' for Inactive)
REMARK    1  A    between atoms: S1_2  and  N1_3 
REMARK    2  A    between atoms: S1_2  and  N2_6 
REMARK    3  A    between atoms: S1_2  and  C2_9 
REMARK    4  A    between atoms: C2_9  and  C3_10 
REMARK    5  A    between atoms: C3_10  and  C4_11 
REMARK    6  A    between atoms: C3_10  and  C11_18 
REMARK    7  A    between atoms: C4_11  and  C5_12 
ROOT
HETATM    1  C3  UNL     1      -1.951  30.771  -7.638  1.00  0.00     0.102 C 
ENDROOT
BRANCH   1   2
HETATM    2  C2  UNL     1      -2.464  31.400  -6.409  1.00  0.00     0.108 C 
BRANCH   2   3
HETATM    3  S1  UNL     1      -2.906  30.390  -5.069  1.00  0.00    -0.117 SA
HETATM    4  C1  UNL     1      -4.094  31.304  -4.052  1.00  0.00     0.111 C 
BRANCH   3   5
HETATM    5  N1  UNL     1      -3.682  29.089  -5.475  1.00  0.00    -0.377 N 
ATOM      6  H12 UNL     1      -4.666  29.010  -5.729  1.00  0.00     0.164 HD
ATOM      7  H11 UNL     1      -2.974  28.356  -5.425  1.00  0.00     0.164 HD
ENDBRANCH   3   5
BRANCH   3   8
HETATM    8  N2  UNL     1      -1.760  29.980  -4.149  1.00  0.00    -0.377 N 
ATOM      9  H22 UNL     1      -1.239  30.602  -3.531  1.00  0.00     0.164 HD
ATOM     10  H21 UNL     1      -1.624  28.977  -4.275  1.00  0.00     0.164 HD
ENDBRANCH   3   8
ENDBRANCH   2   3
ENDBRANCH   1   2
BRANCH   1  11
HETATM   11  C4  UNL     1      -1.833  31.753  -8.780  1.00  0.00     0.054 C 
BRANCH  11  12
HETATM   12  C5  UNL     1      -2.139  31.157 -10.100  1.00  0.00    -0.057 A 
HETATM   13  C6  UNL     1      -3.467  30.933 -10.390  1.00  0.00     0.007 A 
HETATM   14  C7  UNL     1      -3.884  30.392 -11.572  1.00  0.00     0.001 A 
HETATM   15  C8  UNL     1      -2.926  30.057 -12.516  1.00  0.00     0.000 A 
HETATM   16  C9  UNL     1      -1.601  30.270 -12.248  1.00  0.00     0.001 A 
HETATM   17  C10 UNL     1      -1.189  30.822 -11.040  1.00  0.00     0.007 A 
ENDBRANCH  11  12
ENDBRANCH   1  11
BRANCH   1  18
HETATM   18  C11 UNL     1      -0.667  30.085  -7.402  1.00  0.00     0.178 C 
HETATM   19  O1  UNL     1      -0.348  29.031  -8.054  1.00  0.00    -0.648 OA
HETATM   20  O2  UNL     1       0.228  30.549  -6.478  1.00  0.00    -0.648 OA
ENDBRANCH   1  18
TORSDOF 7
ENDMDL
