MODEL 11
REMARK VINA RESULT: -5.770390738      2.798      6.645
REMARK  7 active torsions:
REMARK  status: ('A' for Active; 'I' for Inactive)
REMARK    1  A    between atoms: S1_2  and  N1_3 
REMARK    2  A    between atoms: S1_2  and  N2_6 
REMARK    3  A    between atoms: S1_2  and  C2_9 
REMARK    4  A    between atoms: C2_9  and  C3_10 
REMARK    5  A    between atoms: C3_10  and  C4_11 
REMARK    6  A    between atoms: C3_10  and  C11_18 
REMARK    7  A    between atoms: C4_11  and  C5_12 
ROOT
HETATM    1  C3  UNL     1      -2.440  30.651  -5.235  1.00  0.00     0.102 C 
ENDROOT
BRANCH   1   2
HETATM    2  C2  UNL     1      -2.451  31.140  -6.624  1.00  0.00     0.108 C 
BRANCH   2   3
HETATM    3  S1  UNL     1      -1.694  30.184  -7.859  1.00  0.00    -0.117 SA
HETATM    4  C1  UNL     1      -1.181  31.300  -9.190  1.00  0.00     0.111 C 
BRANCH   3   5
HETATM    5  N1  UNL     1      -0.358  29.498  -7.409  1.00  0.00    -0.377 N 
ATOM      6  H12 UNL     1       0.440  29.255  -7.995  1.00  0.00     0.164 HD
ATOM      7  H11 UNL     1      -0.482  29.356  -6.406  1.00  0.00     0.164 HD
ENDBRANCH   3   5
BRANCH   3   8
HETATM    8  N2  UNL     1      -2.576  29.114  -8.494  1.00  0.00    -0.377 N 
ATOM      9  H22 UNL     1      -3.261  28.538  -8.005  1.00  0.00     0.164 HD
ATOM     10  H21 UNL     1      -2.347  29.094  -9.488  1.00  0.00     0.164 HD
ENDBRANCH   3   8
ENDBRANCH   2   3
ENDBRANCH   1   2
BRANCH   1  11
HETATM   11  C4  UNL     1      -3.520  31.288  -4.393  1.00  0.00     0.054 C 
BRANCH  11  12
HETATM   12  C5  UNL     1      -3.027  31.795  -3.092  1.00  0.00    -0.057 A 
HETATM   13  C6  UNL     1      -1.661  31.835  -2.917  1.00  0.00     0.007 A 
HETATM   14  C7  UNL     1      -1.078  32.283  -1.766  1.00  0.00     0.001 A 
HETATM   15  C8  UNL     1      -1.899  32.715  -0.737  1.00  0.00     0.000 A 
HETATM   16  C9  UNL     1      -3.258  32.683  -0.890  1.00  0.00     0.001 A 
HETATM   17  C10 UNL     1      -3.841  32.224  -2.067  1.00  0.00     0.007 A 
ENDBRANCH  11  12
ENDBRANCH   1  11
BRANCH   1  18
HETATM   18  C11 UNL     1      -2.528  29.180  -5.177  1.00  0.00     0.178 C 
HETATM   19  O1  UNL     1      -1.527  28.468  -4.817  1.00  0.00    -0.648 OA
HETATM   20  O2  UNL     1      -3.683  28.523  -5.503  1.00  0.00    -0.648 OA
ENDBRANCH   1  18
TORSDOF 7
ENDMDL
