MODEL 6
REMARK VINA RESULT: -7.461005093      4.114      7.019
REMARK  5 active torsions:
REMARK  status: ('A' for Active; 'I' for Inactive)
REMARK    1  A    between atoms: N5_13  and  C6_14 
REMARK    2  A    between atoms: C8_16  and  O1_17 
REMARK    3  A    between atoms: O1_17  and  P1_18 
REMARK    4  A    between atoms: C9_22  and  C10_23 
REMARK    5  A    between atoms: C10_23  and  O5_24 
ROOT
HETATM    1  N1  UNL     1      56.768  -5.507  56.343  1.00  0.00    -0.080 NA
HETATM    2  C1  UNL     1      57.405  -6.771  56.343  1.00  0.00     0.148 A 
HETATM    3  N2  UNL     1      58.548  -6.999  57.042  1.00  0.00    -0.339 N 
ATOM      4  H2  UNL     1      58.953  -6.234  57.580  1.00  0.00     0.167 HD
HETATM    5  C2  UNL     1      59.164  -8.193  57.053  1.00  0.00     0.183 A 
HETATM    6  N3  UNL     1      58.665  -9.212  56.365  1.00  0.00    -0.336 N 
ATOM      7  H3  UNL     1      59.141 -10.115  56.379  1.00  0.00     0.168 HD
HETATM    8  C3  UNL     1      57.523  -9.062  55.641  1.00  0.00     0.142 A 
HETATM    9  C4  UNL     1      56.904  -7.850  55.634  1.00  0.00     0.119 A 
HETATM   10  N4  UNL     1      55.820  -7.981  54.852  1.00  0.00    -0.346 N 
ATOM     11  H4  UNL     1      55.143  -7.248  54.642  1.00  0.00     0.167 HD
HETATM   12  C5  UNL     1      55.779  -9.246  54.392  1.00  0.00     0.188 A 
HETATM   13  N5  UNL     1      56.829  -9.922  54.875  1.00  0.00    -0.300 N 
ENDROOT
BRANCH  13  14
HETATM   14  C6  UNL     1      57.225 -11.294  54.674  1.00  0.00     0.233 C 
HETATM   15  C7  UNL     1      56.451 -12.006  53.624  1.00  0.00     0.089 C 
HETATM   16  C8  UNL     1      57.526 -12.804  52.909  1.00  0.00     0.170 C 
HETATM   17  C9  UNL     1      58.736 -11.926  53.150  1.00  0.00     0.177 C 
HETATM   18  O6  UNL     1      58.556 -11.334  54.370  1.00  0.00    -0.356 OA
BRANCH  16  19
HETATM   19  O1  UNL     1      57.707 -13.990  53.582  1.00  0.00    -0.275 OA
BRANCH  19  20
HETATM   20  P1  UNL     1      57.401 -15.352  52.648  1.00  0.00     0.422 P 
HETATM   21  O2  UNL     1      55.896 -15.571  52.515  1.00  0.00    -0.617 OA
HETATM   22  O3  UNL     1      57.976 -15.031  51.076  1.00  0.00    -0.617 OA
HETATM   23  O4  UNL     1      58.127 -16.738  53.239  1.00  0.00    -0.617 OA
ENDBRANCH  19  20
ENDBRANCH  16  19
BRANCH  17  24
HETATM   24  C10 UNL     1      58.952 -10.935  52.022  1.00  0.00     0.198 C 
BRANCH  24  25
HETATM   25  O5  UNL     1      60.230 -10.436  51.974  1.00  0.00    -0.398 OA
ATOM     26  H5  UNL     1      60.806 -10.933  51.405  1.00  0.00     0.209 HD
ENDBRANCH  24  25
ENDBRANCH  17  24
ENDBRANCH  13  14
TORSDOF 5
ENDMDL
