MODEL 2
REMARK VINA RESULT: -7.806112273      1.936      3.513
REMARK  5 active torsions:
REMARK  status: ('A' for Active; 'I' for Inactive)
REMARK    1  A    between atoms: N5_13  and  C6_14 
REMARK    2  A    between atoms: C8_16  and  O1_17 
REMARK    3  A    between atoms: O1_17  and  P1_18 
REMARK    4  A    between atoms: C9_22  and  C10_23 
REMARK    5  A    between atoms: C10_23  and  O5_24 
ROOT
HETATM    1  N1  UNL     1      56.365 -18.340  52.005  1.00  0.00    -0.080 NA
HETATM    2  C1  UNL     1      55.806 -17.041  52.095  1.00  0.00     0.148 A 
HETATM    3  N2  UNL     1      54.558 -16.763  51.638  1.00  0.00    -0.339 N 
ATOM      4  H2  UNL     1      54.012 -17.516  51.219  1.00  0.00     0.167 HD
HETATM    5  C2  UNL     1      54.013 -15.538  51.716  1.00  0.00     0.183 A 
HETATM    6  N3  UNL     1      54.695 -14.534  52.256  1.00  0.00    -0.336 N 
ATOM      7  H3  UNL     1      54.272 -13.607  52.311  1.00  0.00     0.168 HD
HETATM    8  C3  UNL     1      55.951 -14.734  52.737  1.00  0.00     0.142 A 
HETATM    9  C4  UNL     1      56.497 -15.979  52.654  1.00  0.00     0.119 A 
HETATM   10  N4  UNL     1      57.724 -15.893  53.193  1.00  0.00    -0.346 N 
ATOM     11  H4  UNL     1      58.392 -16.658  53.283  1.00  0.00     0.167 HD
HETATM   12  C5  UNL     1      57.922 -14.624  53.596  1.00  0.00     0.188 A 
HETATM   13  N5  UNL     1      56.831 -13.900  53.318  1.00  0.00    -0.300 N 
ENDROOT
BRANCH  13  14
HETATM   14  C6  UNL     1      56.556 -12.503  53.553  1.00  0.00     0.233 C 
HETATM   15  C7  UNL     1      57.475 -11.854  54.522  1.00  0.00     0.089 C 
HETATM   16  C8  UNL     1      57.730 -10.504  53.877  1.00  0.00     0.170 C 
HETATM   17  C9  UNL     1      57.542 -10.849  52.415  1.00  0.00     0.177 C 
HETATM   18  O6  UNL     1      56.595 -11.836  52.361  1.00  0.00    -0.356 OA
BRANCH  16  19
HETATM   19  O1  UNL     1      56.723  -9.645  54.254  1.00  0.00    -0.275 OA
BRANCH  19  20
HETATM   20  P1  UNL     1      57.149  -8.611  55.508  1.00  0.00     0.422 P 
HETATM   21  O2  UNL     1      56.352  -8.952  56.764  1.00  0.00    -0.617 OA
HETATM   22  O3  UNL     1      58.784  -8.913  55.883  1.00  0.00    -0.617 OA
HETATM   23  O4  UNL     1      56.949  -6.994  55.130  1.00  0.00    -0.617 OA
ENDBRANCH  19  20
ENDBRANCH  16  19
BRANCH  17  24
HETATM   24  C10 UNL     1      58.851 -11.230  51.748  1.00  0.00     0.198 C 
BRANCH  24  25
HETATM   25  O5  UNL     1      59.906 -10.441  52.130  1.00  0.00    -0.398 OA
ATOM     26  H5  UNL     1      60.438 -10.146  51.401  1.00  0.00     0.209 HD
ENDBRANCH  24  25
ENDBRANCH  17  24
ENDBRANCH  13  14
TORSDOF 5
ENDMDL
