MODEL 9
REMARK VINA RESULT: -7.369857541      1.208      1.229
REMARK  5 active torsions:
REMARK  status: ('A' for Active; 'I' for Inactive)
REMARK    1  A    between atoms: N5_13  and  C6_14 
REMARK    2  A    between atoms: C8_16  and  O1_17 
REMARK    3  A    between atoms: O1_17  and  P1_18 
REMARK    4  A    between atoms: C9_22  and  C10_23 
REMARK    5  A    between atoms: C10_23  and  O5_24 
ROOT
HETATM    1  N1  UNL     1      54.679 -15.263  51.002  1.00  0.00    -0.080 NA
HETATM    2  C1  UNL     1      55.465 -14.845  52.103  1.00  0.00     0.148 A 
HETATM    3  N2  UNL     1      56.312 -15.692  52.744  1.00  0.00    -0.339 N 
ATOM      4  H2  UNL     1      56.379 -16.656  52.417  1.00  0.00     0.167 HD
HETATM    5  C2  UNL     1      57.064 -15.311  53.790  1.00  0.00     0.183 A 
HETATM    6  N3  UNL     1      57.002 -14.065  54.242  1.00  0.00    -0.336 N 
ATOM      7  H3  UNL     1      57.577 -13.785  55.037  1.00  0.00     0.168 HD
HETATM    8  C3  UNL     1      56.178 -13.157  53.652  1.00  0.00     0.142 A 
HETATM    9  C4  UNL     1      55.418 -13.550  52.593  1.00  0.00     0.119 A 
HETATM   10  N4  UNL     1      54.710 -12.474  52.213  1.00  0.00    -0.346 N 
ATOM     11  H4  UNL     1      54.043 -12.440  51.442  1.00  0.00     0.167 HD
HETATM   12  C5  UNL     1      55.031 -11.448  53.022  1.00  0.00     0.188 A 
HETATM   13  N5  UNL     1      55.938 -11.861  53.916  1.00  0.00    -0.300 N 
ENDROOT
BRANCH  13  14
HETATM   14  C6  UNL     1      56.588 -11.141  54.984  1.00  0.00     0.233 C 
HETATM   15  C7  UNL     1      57.719 -10.285  54.543  1.00  0.00     0.089 C 
HETATM   16  C8  UNL     1      57.523  -9.030  55.375  1.00  0.00     0.170 C 
HETATM   17  C9  UNL     1      56.023  -9.061  55.584  1.00  0.00     0.177 C 
HETATM   18  O6  UNL     1      55.660 -10.380  55.636  1.00  0.00    -0.356 OA
BRANCH  16  19
HETATM   19  O1  UNL     1      58.135  -9.217  56.594  1.00  0.00    -0.275 OA
BRANCH  19  20
HETATM   20  P1  UNL     1      58.688  -7.795  57.298  1.00  0.00     0.422 P 
HETATM   21  O2  UNL     1      60.214  -7.753  57.269  1.00  0.00    -0.617 OA
HETATM   22  O3  UNL     1      58.158  -6.503  56.320  1.00  0.00    -0.617 OA
HETATM   23  O4  UNL     1      58.143  -7.574  58.863  1.00  0.00    -0.617 OA
ENDBRANCH  19  20
ENDBRANCH  16  19
BRANCH  17  24
HETATM   24  C10 UNL     1      55.285  -8.272  54.520  1.00  0.00     0.198 C 
BRANCH  24  25
HETATM   25  O5  UNL     1      55.932  -7.121  54.149  1.00  0.00    -0.398 OA
ATOM     26  H5  UNL     1      56.529  -7.243  53.421  1.00  0.00     0.209 HD
ENDBRANCH  24  25
ENDBRANCH  17  24
ENDBRANCH  13  14
TORSDOF 5
ENDMDL
