MODEL 7
REMARK VINA RESULT: -7.398404275      1.299      1.704
REMARK  5 active torsions:
REMARK  status: ('A' for Active; 'I' for Inactive)
REMARK    1  A    between atoms: N5_13  and  C6_14 
REMARK    2  A    between atoms: C8_16  and  O1_17 
REMARK    3  A    between atoms: O1_17  and  P1_18 
REMARK    4  A    between atoms: C9_22  and  C10_23 
REMARK    5  A    between atoms: C10_23  and  O5_24 
ROOT
HETATM    1  N1  UNL     1      55.538 -14.226  50.565  1.00  0.00    -0.080 NA
HETATM    2  C1  UNL     1      55.994 -13.895  51.865  1.00  0.00     0.148 A 
HETATM    3  N2  UNL     1      56.491 -14.832  52.712  1.00  0.00    -0.339 N 
ATOM      4  H2  UNL     1      56.534 -15.802  52.398  1.00  0.00     0.167 HD
HETATM    5  C2  UNL     1      56.928 -14.534  53.947  1.00  0.00     0.183 A 
HETATM    6  N3  UNL     1      56.887 -13.284  54.390  1.00  0.00    -0.336 N 
ATOM      7  H3  UNL     1      57.221 -13.067  55.329  1.00  0.00     0.168 HD
HETATM    8  C3  UNL     1      56.404 -12.288  53.599  1.00  0.00     0.142 A 
HETATM    9  C4  UNL     1      55.962 -12.597  52.348  1.00  0.00     0.119 A 
HETATM   10  N4  UNL     1      55.546 -11.445  51.797  1.00  0.00    -0.346 N 
ATOM     11  H4  UNL     1      55.157 -11.339  50.860  1.00  0.00     0.167 HD
HETATM   12  C5  UNL     1      55.729 -10.456  52.691  1.00  0.00     0.188 A 
HETATM   13  N5  UNL     1      56.260 -10.968  53.808  1.00  0.00    -0.300 N 
ENDROOT
BRANCH  13  14
HETATM   14  C6  UNL     1      56.635 -10.320  55.042  1.00  0.00     0.233 C 
HETATM   15  C7  UNL     1      56.942  -8.874  54.903  1.00  0.00     0.089 C 
HETATM   16  C8  UNL     1      56.292  -8.281  56.139  1.00  0.00     0.170 C 
HETATM   17  C9  UNL     1      55.174  -9.275  56.375  1.00  0.00     0.177 C 
HETATM   18  O6  UNL     1      55.637 -10.494  55.957  1.00  0.00    -0.356 OA
BRANCH  16  19
HETATM   19  O1  UNL     1      57.182  -8.372  57.185  1.00  0.00    -0.275 OA
BRANCH  19  20
HETATM   20  P1  UNL     1      58.364  -7.178  57.173  1.00  0.00     0.422 P 
HETATM   21  O2  UNL     1      58.580  -6.638  58.584  1.00  0.00    -0.617 OA
HETATM   22  O3  UNL     1      59.830  -7.918  56.716  1.00  0.00    -0.617 OA
HETATM   23  O4  UNL     1      58.023  -5.917  56.128  1.00  0.00    -0.617 OA
ENDBRANCH  19  20
ENDBRANCH  16  19
BRANCH  17  24
HETATM   24  C10 UNL     1      53.885  -8.852  55.695  1.00  0.00     0.198 C 
BRANCH  24  25
HETATM   25  O5  UNL     1      52.764  -9.397  56.268  1.00  0.00    -0.398 OA
ATOM     26  H5  UNL     1      52.627  -9.118  57.165  1.00  0.00     0.209 HD
ENDBRANCH  24  25
ENDBRANCH  17  24
ENDBRANCH  13  14
TORSDOF 5
ENDMDL
