MODEL 1
REMARK VINA RESULT: -9.432818991      0.000      0.000
REMARK  15 active torsions:
REMARK  status: ('A' for Active; 'I' for Inactive)
REMARK       I    between atoms: C1_2  and  N1_3 
REMARK    1  A    between atoms: C1_2  and  C20_38 
REMARK    2  A    between atoms: N1_3  and  C2_5 
REMARK    3  A    between atoms: C5_8  and  C6_9 
REMARK    4  A    between atoms: C6_9  and  P1_10 
REMARK    5  A    between atoms: P1_10  and  O4_13 
REMARK    6  A    between atoms: O4_13  and  C7_14 
REMARK    7  A    between atoms: C7_14  and  C8_15 
REMARK    8  A    between atoms: C7_14  and  C14_24 
REMARK    9  A    between atoms: C11_18  and  N2_19 
REMARK   10  A    between atoms: C14_24  and  C15_25 
REMARK   11  A    between atoms: C14_24  and  N3_28 
REMARK   12  A    between atoms: C15_25  and  O7_26 
REMARK   13  A    between atoms: N3_28  and  C16_30 
REMARK   14  A    between atoms: C16_30  and  O8_31 
REMARK   15  A    between atoms: C16_30  and  C17_33 
ROOT
HETATM    1  C7  UNL     1      49.429  32.180  31.520  1.00  0.00     0.189 C 
ENDROOT
BRANCH   1   2
HETATM    2  O4  UNL     1      48.324  32.762  30.972  1.00  0.00    -0.299 OA
BRANCH   2   3
HETATM    3  P1  UNL     1      47.727  32.103  29.573  1.00  0.00     0.254 P 
HETATM    4  O2  UNL     1      47.039  33.140  28.699  1.00  0.00    -0.646 OA
HETATM    5  O3  UNL     1      49.065  31.551  28.656  1.00  0.00    -0.646 OA
BRANCH   3   6
HETATM    6  C6  UNL     1      46.664  30.658  29.821  1.00  0.00     0.174 C 
BRANCH   6   7
HETATM    7  C5  UNL     1      47.521  29.491  30.116  1.00  0.00    -0.046 A 
HETATM    8  C4  UNL     1      47.837  29.067  31.386  1.00  0.00     0.010 A 
HETATM    9  C3  UNL     1      48.647  27.955  31.633  1.00  0.00     0.030 A 
HETATM   10  C2  UNL     1      49.155  27.248  30.573  1.00  0.00     0.035 A 
HETATM   11  C19 UNL     1      48.844  27.667  29.286  1.00  0.00     0.030 A 
HETATM   12  C18 UNL     1      48.045  28.763  29.077  1.00  0.00     0.010 A 
BRANCH  10  13
HETATM   13  N1  UNL     1      49.983  26.112  30.680  1.00  0.00    -0.320 N 
HETATM   14  C1  UNL     1      49.579  24.797  31.008  1.00  0.00     0.330 C 
HETATM   15  O1  UNL     1      48.397  24.525  31.239  1.00  0.00    -0.263 OA
ATOM     16  H1  UNL     1      50.978  26.253  30.503  1.00  0.00     0.169 HD
BRANCH  14  17
HETATM   17  C20 UNL     1      50.587  23.681  31.083  1.00  0.00     0.472 C 
HETATM   18  F1  UNL     1      50.547  23.229  32.409  1.00  0.00    -0.162 F 
HETATM   19  F2  UNL     1      50.192  22.632  30.305  1.00  0.00    -0.162 F 
HETATM   20  F3  UNL     1      51.853  24.112  30.786  1.00  0.00    -0.162 F 
ENDBRANCH  14  17
ENDBRANCH  10  13
ENDBRANCH   6   7
ENDBRANCH   3   6
ENDBRANCH   2   3
ENDBRANCH   1   2
BRANCH   1  21
HETATM   21  C8  UNL     1      49.218  31.997  32.976  1.00  0.00    -0.027 A 
HETATM   22  C9  UNL     1      48.342  32.767  33.693  1.00  0.00     0.012 A 
HETATM   23  C10 UNL     1      48.158  32.593  35.071  1.00  0.00     0.037 A 
HETATM   24  C11 UNL     1      48.858  31.633  35.763  1.00  0.00     0.102 A 
HETATM   25  C12 UNL     1      49.742  30.854  35.048  1.00  0.00     0.037 A 
HETATM   26  C13 UNL     1      49.924  31.024  33.694  1.00  0.00     0.012 A 
BRANCH  24  27
HETATM   27  N2  UNL     1      48.670  31.454  37.174  1.00  0.00    -0.116 N 
HETATM   28  O5  UNL     1      47.845  32.168  37.745  1.00  0.00    -0.532 OA
HETATM   29  O6  UNL     1      49.360  30.536  37.898  1.00  0.00    -0.532 OA
ENDBRANCH  24  27
ENDBRANCH   1  21
BRANCH   1  30
HETATM   30  C14 UNL     1      50.587  33.187  31.362  1.00  0.00     0.136 C 
BRANCH  30  31
HETATM   31  C15 UNL     1      51.760  32.342  30.916  1.00  0.00     0.191 C 
BRANCH  31  32
HETATM   32  O7  UNL     1      52.858  33.046  30.500  1.00  0.00    -0.399 OA
ATOM     33  H7  UNL     1      53.122  32.885  29.603  1.00  0.00     0.209 HD
ENDBRANCH  31  32
ENDBRANCH  30  31
BRANCH  30  34
HETATM   34  N3  UNL     1      50.131  34.154  30.451  1.00  0.00    -0.386 N 
ATOM     35  H3  UNL     1      49.659  33.846  29.601  1.00  0.00     0.156 HD
BRANCH  34  36
HETATM   36  C16 UNL     1      50.303  35.527  30.670  1.00  0.00     0.247 C 
BRANCH  36  37
HETATM   37  O8  UNL     1      51.616  35.931  30.950  1.00  0.00    -0.374 OA
ATOM     38  H8  UNL     1      51.714  36.511  31.696  1.00  0.00     0.212 HD
ENDBRANCH  36  37
BRANCH  36  39
HETATM   39  C17 UNL     1      49.383  36.245  31.582  1.00  0.00     0.226 C 
HETATM   40 CL1  UNL     1      49.724  36.135  33.295  1.00  0.00    -0.104 Cl
HETATM   41 CL2  UNL     1      47.671  35.865  31.274  1.00  0.00    -0.104 Cl
ENDBRANCH  36  39
ENDBRANCH  34  36
ENDBRANCH  30  34
ENDBRANCH   1  30
TORSDOF 15
ENDMDL
