MODEL 2
REMARK VINA RESULT: -9.326408054      1.345      1.715
REMARK  15 active torsions:
REMARK  status: ('A' for Active; 'I' for Inactive)
REMARK       I    between atoms: C1_2  and  N1_3 
REMARK    1  A    between atoms: C1_2  and  C20_38 
REMARK    2  A    between atoms: N1_3  and  C2_5 
REMARK    3  A    between atoms: C5_8  and  C6_9 
REMARK    4  A    between atoms: C6_9  and  P1_10 
REMARK    5  A    between atoms: P1_10  and  O4_13 
REMARK    6  A    between atoms: O4_13  and  C7_14 
REMARK    7  A    between atoms: C7_14  and  C8_15 
REMARK    8  A    between atoms: C7_14  and  C14_24 
REMARK    9  A    between atoms: C11_18  and  N2_19 
REMARK   10  A    between atoms: C14_24  and  C15_25 
REMARK   11  A    between atoms: C14_24  and  N3_28 
REMARK   12  A    between atoms: C15_25  and  O7_26 
REMARK   13  A    between atoms: N3_28  and  C16_30 
REMARK   14  A    between atoms: C16_30  and  O8_31 
REMARK   15  A    between atoms: C16_30  and  C17_33 
ROOT
HETATM    1  C7  UNL     1      48.842  32.446  31.935  1.00  0.00     0.189 C 
ENDROOT
BRANCH   1   2
HETATM    2  O4  UNL     1      47.554  32.590  31.507  1.00  0.00    -0.299 OA
BRANCH   2   3
HETATM    3  P1  UNL     1      47.032  31.584  30.300  1.00  0.00     0.254 P 
HETATM    4  O2  UNL     1      45.993  30.587  30.792  1.00  0.00    -0.646 OA
HETATM    5  O3  UNL     1      46.219  32.552  29.142  1.00  0.00    -0.646 OA
BRANCH   3   6
HETATM    6  C6  UNL     1      48.360  30.743  29.400  1.00  0.00     0.174 C 
BRANCH   6   7
HETATM    7  C5  UNL     1      48.472  29.362  29.913  1.00  0.00    -0.046 A 
HETATM    8  C4  UNL     1      48.456  29.032  31.249  1.00  0.00     0.010 A 
HETATM    9  C3  UNL     1      48.560  27.713  31.703  1.00  0.00     0.030 A 
HETATM   10  C2  UNL     1      48.683  26.698  30.790  1.00  0.00     0.035 A 
HETATM   11  C19 UNL     1      48.702  27.019  29.438  1.00  0.00     0.030 A 
HETATM   12  C18 UNL     1      48.597  28.324  29.025  1.00  0.00     0.010 A 
BRANCH  10  13
HETATM   13  N1  UNL     1      48.797  25.330  31.111  1.00  0.00    -0.320 N 
HETATM   14  C1  UNL     1      49.981  24.558  31.117  1.00  0.00     0.330 C 
HETATM   15  O1  UNL     1      51.074  25.051  30.824  1.00  0.00    -0.263 OA
ATOM     16  H1  UNL     1      47.935  24.847  31.366  1.00  0.00     0.169 HD
BRANCH  14  17
HETATM   17  C20 UNL     1      49.943  23.097  31.486  1.00  0.00     0.472 C 
HETATM   18  F1  UNL     1      48.626  22.683  31.242  1.00  0.00    -0.162 F 
HETATM   19  F2  UNL     1      50.737  22.375  30.643  1.00  0.00    -0.162 F 
HETATM   20  F3  UNL     1      50.249  22.894  32.806  1.00  0.00    -0.162 F 
ENDBRANCH  14  17
ENDBRANCH  10  13
ENDBRANCH   6   7
ENDBRANCH   3   6
ENDBRANCH   2   3
ENDBRANCH   1   2
BRANCH   1  21
HETATM   21  C8  UNL     1      48.846  32.120  33.381  1.00  0.00    -0.027 A 
HETATM   22  C9  UNL     1      48.031  32.754  34.279  1.00  0.00     0.012 A 
HETATM   23  C10 UNL     1      48.052  32.445  35.645  1.00  0.00     0.037 A 
HETATM   24  C11 UNL     1      48.900  31.484  36.141  1.00  0.00     0.102 A 
HETATM   25  C12 UNL     1      49.724  30.841  35.244  1.00  0.00     0.037 A 
HETATM   26  C13 UNL     1      49.705  31.144  33.900  1.00  0.00     0.012 A 
BRANCH  24  27
HETATM   27  N2  UNL     1      48.922  31.167  37.541  1.00  0.00    -0.116 N 
HETATM   28  O5  UNL     1      49.655  30.251  37.916  1.00  0.00    -0.532 OA
HETATM   29  O6  UNL     1      48.174  31.831  38.458  1.00  0.00    -0.532 OA
ENDBRANCH  24  27
ENDBRANCH   1  21
BRANCH   1  30
HETATM   30  C14 UNL     1      49.517  33.826  31.789  1.00  0.00     0.136 C 
BRANCH  30  31
HETATM   31  C15 UNL     1      50.777  33.544  31.001  1.00  0.00     0.191 C 
BRANCH  31  32
HETATM   32  O7  UNL     1      51.559  34.638  30.746  1.00  0.00    -0.399 OA
ATOM     33  H7  UNL     1      52.389  34.655  31.208  1.00  0.00     0.209 HD
ENDBRANCH  31  32
ENDBRANCH  30  31
BRANCH  30  34
HETATM   34  N3  UNL     1      48.564  34.653  31.169  1.00  0.00    -0.386 N 
ATOM     35  H3  UNL     1      47.904  34.239  30.512  1.00  0.00     0.156 HD
BRANCH  34  36
HETATM   36  C16 UNL     1      48.492  36.029  31.426  1.00  0.00     0.247 C 
BRANCH  36  37
HETATM   37  O8  UNL     1      48.536  36.854  30.293  1.00  0.00    -0.374 OA
ATOM     38  H8  UNL     1      49.037  37.655  30.392  1.00  0.00     0.212 HD
ENDBRANCH  36  37
BRANCH  36  39
HETATM   39  C17 UNL     1      49.347  36.624  32.479  1.00  0.00     0.226 C 
HETATM   40 CL1  UNL     1      48.591  36.934  34.027  1.00  0.00    -0.104 Cl
HETATM   41 CL2  UNL     1      50.218  38.074  31.923  1.00  0.00    -0.104 Cl
ENDBRANCH  36  39
ENDBRANCH  34  36
ENDBRANCH  30  34
ENDBRANCH   1  30
TORSDOF 15
ENDMDL
