MODEL 3
REMARK VINA RESULT: -9.154076022      1.706      2.025
REMARK  15 active torsions:
REMARK  status: ('A' for Active; 'I' for Inactive)
REMARK       I    between atoms: C1_2  and  N1_3 
REMARK    1  A    between atoms: C1_2  and  C20_38 
REMARK    2  A    between atoms: N1_3  and  C2_5 
REMARK    3  A    between atoms: C5_8  and  C6_9 
REMARK    4  A    between atoms: C6_9  and  P1_10 
REMARK    5  A    between atoms: P1_10  and  O4_13 
REMARK    6  A    between atoms: O4_13  and  C7_14 
REMARK    7  A    between atoms: C7_14  and  C8_15 
REMARK    8  A    between atoms: C7_14  and  C14_24 
REMARK    9  A    between atoms: C11_18  and  N2_19 
REMARK   10  A    between atoms: C14_24  and  C15_25 
REMARK   11  A    between atoms: C14_24  and  N3_28 
REMARK   12  A    between atoms: C15_25  and  O7_26 
REMARK   13  A    between atoms: N3_28  and  C16_30 
REMARK   14  A    between atoms: C16_30  and  O8_31 
REMARK   15  A    between atoms: C16_30  and  C17_33 
ROOT
HETATM    1  C7  UNL     1      48.522  32.648  31.890  1.00  0.00     0.189 C 
ENDROOT
BRANCH   1   2
HETATM    2  O4  UNL     1      47.230  32.564  31.458  1.00  0.00    -0.299 OA
BRANCH   2   3
HETATM    3  P1  UNL     1      46.893  31.468  30.262  1.00  0.00     0.254 P 
HETATM    4  O2  UNL     1      45.895  30.413  30.715  1.00  0.00    -0.646 OA
HETATM    5  O3  UNL     1      46.111  32.318  28.995  1.00  0.00    -0.646 OA
BRANCH   3   6
HETATM    6  C6  UNL     1      48.354  30.701  29.517  1.00  0.00     0.174 C 
BRANCH   6   7
HETATM    7  C5  UNL     1      48.454  29.310  30.007  1.00  0.00    -0.046 A 
HETATM    8  C4  UNL     1      48.513  28.962  31.336  1.00  0.00     0.010 A 
HETATM    9  C3  UNL     1      48.602  27.636  31.768  1.00  0.00     0.030 A 
HETATM   10  C2  UNL     1      48.632  26.629  30.837  1.00  0.00     0.035 A 
HETATM   11  C19 UNL     1      48.573  26.967  29.491  1.00  0.00     0.030 A 
HETATM   12  C18 UNL     1      48.486  28.280  29.100  1.00  0.00     0.010 A 
BRANCH  10  13
HETATM   13  N1  UNL     1      48.721  25.254  31.135  1.00  0.00    -0.320 N 
HETATM   14  C1  UNL     1      49.898  24.473  31.185  1.00  0.00     0.330 C 
HETATM   15  O1  UNL     1      51.007  24.964  30.958  1.00  0.00    -0.263 OA
ATOM     16  H1  UNL     1      47.844  24.772  31.336  1.00  0.00     0.169 HD
BRANCH  14  17
HETATM   17  C20 UNL     1      49.832  23.005  31.520  1.00  0.00     0.472 C 
HETATM   18  F1  UNL     1      48.470  22.674  31.486  1.00  0.00    -0.162 F 
HETATM   19  F2  UNL     1      50.433  22.269  30.541  1.00  0.00    -0.162 F 
HETATM   20  F3  UNL     1      50.335  22.741  32.767  1.00  0.00    -0.162 F 
ENDBRANCH  14  17
ENDBRANCH  10  13
ENDBRANCH   6   7
ENDBRANCH   3   6
ENDBRANCH   2   3
ENDBRANCH   1   2
BRANCH   1  21
HETATM   21  C8  UNL     1      48.581  32.314  33.332  1.00  0.00    -0.027 A 
HETATM   22  C9  UNL     1      47.791  32.935  34.262  1.00  0.00     0.012 A 
HETATM   23  C10 UNL     1      47.863  32.619  35.625  1.00  0.00     0.037 A 
HETATM   24  C11 UNL     1      48.739  31.665  36.086  1.00  0.00     0.102 A 
HETATM   25  C12 UNL     1      49.538  31.035  35.156  1.00  0.00     0.037 A 
HETATM   26  C13 UNL     1      49.468  31.346  33.816  1.00  0.00     0.012 A 
BRANCH  24  27
HETATM   27  N2  UNL     1      48.814  31.340  37.482  1.00  0.00    -0.116 N 
HETATM   28  O5  UNL     1      48.158  32.021  38.271  1.00  0.00    -0.532 OA
HETATM   29  O6  UNL     1      49.572  30.322  37.962  1.00  0.00    -0.532 OA
ENDBRANCH  24  27
ENDBRANCH   1  21
BRANCH   1  30
HETATM   30  C14 UNL     1      48.939  34.128  31.758  1.00  0.00     0.136 C 
BRANCH  30  31
HETATM   31  C15 UNL     1      50.415  34.130  32.091  1.00  0.00     0.191 C 
BRANCH  31  32
HETATM   32  O7  UNL     1      50.934  35.355  32.417  1.00  0.00    -0.399 OA
ATOM     33  H7  UNL     1      51.297  35.418  33.293  1.00  0.00     0.209 HD
ENDBRANCH  31  32
ENDBRANCH  30  31
BRANCH  30  34
HETATM   34  N3  UNL     1      48.593  34.508  30.451  1.00  0.00    -0.386 N 
ATOM     35  H3  UNL     1      48.572  33.797  29.719  1.00  0.00     0.156 HD
BRANCH  34  36
HETATM   36  C16 UNL     1      48.274  35.832  30.118  1.00  0.00     0.247 C 
BRANCH  36  37
HETATM   37  O8  UNL     1      48.454  36.769  31.145  1.00  0.00    -0.374 OA
ATOM     38  H8  UNL     1      48.636  37.656  30.859  1.00  0.00     0.212 HD
ENDBRANCH  36  37
BRANCH  36  39
HETATM   39  C17 UNL     1      46.999  36.127  29.425  1.00  0.00     0.226 C 
HETATM   40 CL1  UNL     1      45.529  35.622  30.228  1.00  0.00    -0.104 Cl
HETATM   41 CL2  UNL     1      46.991  35.576  27.732  1.00  0.00    -0.104 Cl
ENDBRANCH  36  39
ENDBRANCH  34  36
ENDBRANCH  30  34
ENDBRANCH   1  30
TORSDOF 15
ENDMDL
