MODEL 7
REMARK VINA RESULT: -6.659455288      2.146      4.955
REMARK  5 active torsions:
REMARK  status: ('A' for Active; 'I' for Inactive)
REMARK    1  A    between atoms: N2_8  and  C5_9 
REMARK    2  A    between atoms: C6_11  and  C7_12 
REMARK    3  A    between atoms: C7_12  and  O3_13 
REMARK    4  A    between atoms: C8_15  and  O4_16 
REMARK    5  A    between atoms: C9_18  and  O5_19 
ROOT
HETATM    1  C5  UNL     1      34.417  48.940   9.186  1.00  0.00     0.263 C 
HETATM    2  O2  UNL     1      33.711  47.865   9.728  1.00  0.00    -0.353 OA
HETATM    3  C6  UNL     1      33.961  46.803   8.894  1.00  0.00     0.179 C 
HETATM    4  C8  UNL     1      35.324  47.010   8.278  1.00  0.00     0.182 C 
HETATM    5  C9  UNL     1      35.790  48.275   9.008  1.00  0.00     0.198 C 
ENDROOT
BRANCH   1   6
HETATM    6  N2  UNL     1      34.467  50.077  10.025  1.00  0.00    -0.280 N 
HETATM    7  C1  UNL     1      35.479  50.198  11.017  1.00  0.00     0.324 A 
HETATM    8  O1  UNL     1      36.335  49.255  11.124  1.00  0.00    -0.247 OA
HETATM    9  N1  UNL     1      35.543  51.324  11.862  1.00  0.00    -0.339 N 
HETATM   10  C2  UNL     1      34.608  52.405  11.779  1.00  0.00     0.153 A 
ATOM     11  H1  UNL     1      36.285  51.372  12.560  1.00  0.00     0.164 HD
HETATM   12  C3  UNL     1      33.610  52.205  10.747  1.00  0.00     0.010 A 
HETATM   13  C4  UNL     1      33.550  51.156   9.959  1.00  0.00     0.096 A 
ENDBRANCH   1   6
BRANCH   5  14
HETATM   14  O5  UNL     1      36.615  49.035   8.205  1.00  0.00    -0.388 OA
ATOM     15  H5  UNL     1      36.284  49.921   8.109  1.00  0.00     0.210 HD
ENDBRANCH   5  14
BRANCH   3  16
HETATM   16  C7  UNL     1      33.998  45.477   9.630  1.00  0.00     0.198 C 
BRANCH  16  17
HETATM   17  O3  UNL     1      34.523  44.508   8.791  1.00  0.00    -0.398 OA
ATOM     18  H3  UNL     1      34.959  43.846   9.315  1.00  0.00     0.209 HD
ENDBRANCH  16  17
ENDBRANCH   3  16
BRANCH   4  19
HETATM   19  O4  UNL     1      35.180  47.357   6.935  1.00  0.00    -0.390 OA
ATOM     20  H4  UNL     1      35.775  48.067   6.725  1.00  0.00     0.210 HD
ENDBRANCH   4  19
TORSDOF 5
ENDMDL
