MODEL 1
REMARK VINA RESULT: -8.453052520      0.000      0.000
REMARK  5 active torsions:
REMARK  status: ('A' for Active; 'I' for Inactive)
REMARK    1  A    between atoms: N2_8  and  C5_9 
REMARK    2  A    between atoms: C6_11  and  C7_12 
REMARK    3  A    between atoms: C7_12  and  O3_13 
REMARK    4  A    between atoms: C8_15  and  O4_16 
REMARK    5  A    between atoms: C9_18  and  O5_19 
ROOT
HETATM    1  C5  UNL     1      35.522  49.957  10.079  1.00  0.00     0.263 C 
HETATM    2  O2  UNL     1      34.776  50.250  11.222  1.00  0.00    -0.353 OA
HETATM    3  C6  UNL     1      35.227  51.472  11.652  1.00  0.00     0.179 C 
HETATM    4  C8  UNL     1      35.711  52.238  10.444  1.00  0.00     0.182 C 
HETATM    5  C9  UNL     1      35.333  51.275   9.312  1.00  0.00     0.198 C 
ENDROOT
BRANCH   1   6
HETATM    6  N2  UNL     1      35.052  48.836   9.357  1.00  0.00    -0.280 N 
HETATM    7  C1  UNL     1      35.956  48.023   8.619  1.00  0.00     0.324 A 
HETATM    8  O1  UNL     1      37.195  48.335   8.629  1.00  0.00    -0.247 OA
HETATM    9  N1  UNL     1      35.504  46.901   7.894  1.00  0.00    -0.339 N 
HETATM   10  C2  UNL     1      34.128  46.512   7.853  1.00  0.00     0.153 A 
ATOM     11  H1  UNL     1      36.186  46.344   7.378  1.00  0.00     0.164 HD
HETATM   12  C3  UNL     1      33.274  47.390   8.628  1.00  0.00     0.010 A 
HETATM   13  C4  UNL     1      33.693  48.435   9.304  1.00  0.00     0.096 A 
ENDBRANCH   1   6
BRANCH   5  14
HETATM   14  O5  UNL     1      36.219  51.375   8.260  1.00  0.00    -0.388 OA
ATOM     15  H5  UNL     1      36.414  50.522   7.889  1.00  0.00     0.210 HD
ENDBRANCH   5  14
BRANCH   3  16
HETATM   16  C7  UNL     1      34.136  52.303  12.302  1.00  0.00     0.198 C 
BRANCH  16  17
HETATM   17  O3  UNL     1      32.902  51.870  11.843  1.00  0.00    -0.398 OA
ATOM     18  H3  UNL     1      32.351  52.626  11.677  1.00  0.00     0.209 HD
ENDBRANCH  16  17
ENDBRANCH   3  16
BRANCH   4  19
HETATM   19  O4  UNL     1      37.103  52.304  10.462  1.00  0.00    -0.390 OA
ATOM     20  H4  UNL     1      37.431  52.341   9.570  1.00  0.00     0.210 HD
ENDBRANCH   4  19
TORSDOF 5
ENDMDL
