MODEL 3
REMARK VINA RESULT: -7.891632791      2.046      4.953
REMARK  5 active torsions:
REMARK  status: ('A' for Active; 'I' for Inactive)
REMARK    1  A    between atoms: N2_8  and  C5_9 
REMARK    2  A    between atoms: C6_11  and  C7_12 
REMARK    3  A    between atoms: C7_12  and  O3_13 
REMARK    4  A    between atoms: C8_15  and  O4_16 
REMARK    5  A    between atoms: C9_18  and  O5_19 
ROOT
HETATM    1  C5  UNL     1      34.473  49.121   9.169  1.00  0.00     0.263 C 
HETATM    2  O2  UNL     1      33.537  48.172   9.581  1.00  0.00    -0.353 OA
HETATM    3  C6  UNL     1      33.745  47.078   8.779  1.00  0.00     0.179 C 
HETATM    4  C8  UNL     1      35.202  47.068   8.379  1.00  0.00     0.182 C 
HETATM    5  C9  UNL     1      35.740  48.252   9.191  1.00  0.00     0.198 C 
ENDROOT
BRANCH   1   6
HETATM    6  N2  UNL     1      34.569  50.244  10.023  1.00  0.00    -0.280 N 
HETATM    7  C1  UNL     1      35.286  51.402   9.615  1.00  0.00     0.324 A 
HETATM    8  O1  UNL     1      35.837  51.397   8.463  1.00  0.00    -0.247 OA
HETATM    9  N1  UNL     1      35.391  52.530  10.455  1.00  0.00    -0.339 N 
HETATM   10  C2  UNL     1      34.792  52.584  11.753  1.00  0.00     0.153 A 
ATOM     11  H1  UNL     1      35.915  53.341  10.124  1.00  0.00     0.164 HD
HETATM   12  C3  UNL     1      34.081  51.367  12.094  1.00  0.00     0.010 A 
HETATM   13  C4  UNL     1      33.982  50.316  11.312  1.00  0.00     0.096 A 
ENDBRANCH   1   6
BRANCH   5  14
HETATM   14  O5  UNL     1      36.784  48.870   8.534  1.00  0.00    -0.388 OA
ATOM     15  H5  UNL     1      37.373  48.233   8.146  1.00  0.00     0.210 HD
ENDBRANCH   5  14
BRANCH   3  16
HETATM   16  C7  UNL     1      33.467  45.768   9.492  1.00  0.00     0.198 C 
BRANCH  16  17
HETATM   17  O3  UNL     1      34.228  44.765   8.911  1.00  0.00    -0.398 OA
ATOM     18  H3  UNL     1      35.045  44.681   9.387  1.00  0.00     0.209 HD
ENDBRANCH  16  17
ENDBRANCH   3  16
BRANCH   4  19
HETATM   19  O4  UNL     1      35.318  47.421   7.036  1.00  0.00    -0.390 OA
ATOM     20  H4  UNL     1      35.216  48.362   6.945  1.00  0.00     0.210 HD
ENDBRANCH   4  19
TORSDOF 5
ENDMDL
