MODEL 6
REMARK VINA RESULT: -6.760375307      2.547      5.206
REMARK  5 active torsions:
REMARK  status: ('A' for Active; 'I' for Inactive)
REMARK    1  A    between atoms: N2_8  and  C5_9 
REMARK    2  A    between atoms: C6_11  and  C7_12 
REMARK    3  A    between atoms: C7_12  and  O3_13 
REMARK    4  A    between atoms: C8_15  and  O4_16 
REMARK    5  A    between atoms: C9_18  and  O5_19 
ROOT
HETATM    1  C5  UNL     1      33.877  48.376   9.763  1.00  0.00     0.263 C 
HETATM    2  O2  UNL     1      34.768  47.329  10.005  1.00  0.00    -0.353 OA
HETATM    3  C6  UNL     1      34.225  46.234   9.381  1.00  0.00     0.179 C 
HETATM    4  C8  UNL     1      33.417  46.724   8.204  1.00  0.00     0.182 C 
HETATM    5  C9  UNL     1      33.720  48.226   8.242  1.00  0.00     0.198 C 
ENDROOT
BRANCH   1   6
HETATM    6  N2  UNL     1      34.368  49.648  10.137  1.00  0.00    -0.280 N 
HETATM    7  C1  UNL     1      35.552  50.167   9.543  1.00  0.00     0.324 A 
HETATM    8  O1  UNL     1      36.151  49.455   8.668  1.00  0.00    -0.247 OA
HETATM    9  N1  UNL     1      36.056  51.433   9.905  1.00  0.00    -0.339 N 
HETATM   10  C2  UNL     1      35.420  52.267  10.879  1.00  0.00     0.153 A 
ATOM     11  H1  UNL     1      36.908  51.769   9.455  1.00  0.00     0.164 HD
HETATM   12  C3  UNL     1      34.224  51.667  11.436  1.00  0.00     0.010 A 
HETATM   13  C4  UNL     1      33.753  50.488  11.099  1.00  0.00     0.096 A 
ENDBRANCH   1   6
BRANCH   5  14
HETATM   14  O5  UNL     1      32.650  48.960   7.773  1.00  0.00    -0.388 OA
ATOM     15  H5  UNL     1      32.872  49.881   7.690  1.00  0.00     0.210 HD
ENDBRANCH   5  14
BRANCH   3  16
HETATM   16  C7  UNL     1      35.280  45.287   8.838  1.00  0.00     0.198 C 
BRANCH  16  17
HETATM   17  O3  UNL     1      34.656  44.273   8.129  1.00  0.00    -0.398 OA
ATOM     18  H3  UNL     1      34.868  44.363   7.208  1.00  0.00     0.209 HD
ENDBRANCH  16  17
ENDBRANCH   3  16
BRANCH   4  19
HETATM   19  O4  UNL     1      32.058  46.586   8.482  1.00  0.00    -0.390 OA
ATOM     20  H4  UNL     1      31.555  47.124   7.881  1.00  0.00     0.210 HD
ENDBRANCH   4  19
TORSDOF 5
ENDMDL
