MODEL 4
REMARK VINA RESULT: -6.809081070      1.120      1.644
REMARK  5 active torsions:
REMARK  status: ('A' for Active; 'I' for Inactive)
REMARK    1  A    between atoms: N2_8  and  C5_9 
REMARK    2  A    between atoms: C6_11  and  C7_12 
REMARK    3  A    between atoms: C7_12  and  O3_13 
REMARK    4  A    between atoms: C8_15  and  O4_16 
REMARK    5  A    between atoms: C9_18  and  O5_19 
ROOT
HETATM    1  C5  UNL     1      35.542  50.074  10.057  1.00  0.00     0.263 C 
HETATM    2  O2  UNL     1      34.801  50.344  11.209  1.00  0.00    -0.353 OA
HETATM    3  C6  UNL     1      35.269  51.548  11.673  1.00  0.00     0.179 C 
HETATM    4  C8  UNL     1      35.762  52.340  10.486  1.00  0.00     0.182 C 
HETATM    5  C9  UNL     1      35.370  51.415   9.328  1.00  0.00     0.198 C 
ENDROOT
BRANCH   1   6
HETATM    6  N2  UNL     1      35.057  48.979   9.305  1.00  0.00    -0.280 N 
HETATM    7  C1  UNL     1      33.707  48.953   8.857  1.00  0.00     0.324 A 
HETATM    8  O1  UNL     1      32.953  49.941   9.153  1.00  0.00    -0.247 OA
HETATM    9  N1  UNL     1      33.207  47.869   8.106  1.00  0.00    -0.339 N 
HETATM   10  C2  UNL     1      34.012  46.741   7.750  1.00  0.00     0.153 A 
ATOM     11  H1  UNL     1      32.232  47.890   7.805  1.00  0.00     0.164 HD
HETATM   12  C3  UNL     1      35.371  46.844   8.243  1.00  0.00     0.010 A 
HETATM   13  C4  UNL     1      35.838  47.853   8.942  1.00  0.00     0.096 A 
ENDBRANCH   1   6
BRANCH   5  14
HETATM   14  O5  UNL     1      36.257  51.532   8.277  1.00  0.00    -0.388 OA
ATOM     15  H5  UNL     1      35.921  52.113   7.605  1.00  0.00     0.210 HD
ENDBRANCH   5  14
BRANCH   3  16
HETATM   16  C7  UNL     1      34.190  52.374  12.347  1.00  0.00     0.198 C 
BRANCH  16  17
HETATM   17  O3  UNL     1      32.953  52.003  11.843  1.00  0.00    -0.398 OA
ATOM     18  H3  UNL     1      32.848  52.375  10.975  1.00  0.00     0.209 HD
ENDBRANCH  16  17
ENDBRANCH   3  16
BRANCH   4  19
HETATM   19  O4  UNL     1      37.155  52.387  10.504  1.00  0.00    -0.390 OA
ATOM     20  H4  UNL     1      37.477  52.584   9.631  1.00  0.00     0.210 HD
ENDBRANCH   4  19
TORSDOF 5
ENDMDL
