MODEL 6
REMARK VINA RESULT: -6.850270236      1.885      5.622
REMARK  6 active torsions:
REMARK  status: ('A' for Active; 'I' for Inactive)
REMARK    1  A    between atoms: C2_5  and  O2_6 
REMARK    2  A    between atoms: N2_10  and  C5_11 
REMARK    3  A    between atoms: C6_13  and  C7_14 
REMARK    4  A    between atoms: C7_14  and  O4_15 
REMARK    5  A    between atoms: C8_17  and  O5_18 
REMARK    6  A    between atoms: C9_20  and  O6_21 
ROOT
HETATM    1  C5  UNL     1      33.901  48.234   9.666  1.00  0.00     0.263 C 
HETATM    2  O3  UNL     1      34.734  47.155   9.896  1.00  0.00    -0.353 OA
HETATM    3  C6  UNL     1      34.361  46.208   8.949  1.00  0.00     0.179 C 
HETATM    4  C8  UNL     1      34.354  47.056   7.682  1.00  0.00     0.182 C 
HETATM    5  C9  UNL     1      33.608  48.275   8.186  1.00  0.00     0.198 C 
ENDROOT
BRANCH   1   6
HETATM    6  N2  UNL     1      34.454  49.475  10.152  1.00  0.00    -0.280 N 
HETATM    7  C1  UNL     1      35.650  50.031   9.610  1.00  0.00     0.326 A 
HETATM    8  O1  UNL     1      36.293  49.485   8.686  1.00  0.00    -0.247 OA
HETATM    9  N1  UNL     1      36.147  51.259  10.133  1.00  0.00    -0.313 N 
HETATM   10  C2  UNL     1      35.526  52.011  11.192  1.00  0.00     0.247 A 
ATOM     11  H1  UNL     1      37.004  51.633   9.727  1.00  0.00     0.167 HD
HETATM   12  C3  UNL     1      34.315  51.361  11.677  1.00  0.00     0.043 A 
HETATM   13  C4  UNL     1      33.863  50.232  11.193  1.00  0.00     0.098 A 
BRANCH  10  14
HETATM   14  O2  UNL     1      36.427  52.237  12.242  1.00  0.00    -0.373 OA
ATOM     15  H2  UNL     1      36.044  51.995  13.077  1.00  0.00     0.212 HD
ENDBRANCH  10  14
ENDBRANCH   1   6
BRANCH   5  16
HETATM   16  O6  UNL     1      32.240  48.013   7.944  1.00  0.00    -0.388 OA
ATOM     17  H6  UNL     1      32.136  47.480   7.164  1.00  0.00     0.210 HD
ENDBRANCH   5  16
BRANCH   3  18
HETATM   18  C7  UNL     1      35.348  45.074   8.854  1.00  0.00     0.198 C 
BRANCH  18  19
HETATM   19  O4  UNL     1      34.833  44.145   7.951  1.00  0.00    -0.398 OA
ATOM     20  H4  UNL     1      35.401  43.384   7.971  1.00  0.00     0.209 HD
ENDBRANCH  18  19
ENDBRANCH   3  18
BRANCH   4  21
HETATM   21  O5  UNL     1      33.683  46.426   6.647  1.00  0.00    -0.390 OA
ATOM     22  H5  UNL     1      33.894  46.811   5.805  1.00  0.00     0.210 HD
ENDBRANCH   4  21
TORSDOF 6
ENDMDL
