MODEL 7
REMARK VINA RESULT: -6.846328770      1.213      1.673
REMARK  6 active torsions:
REMARK  status: ('A' for Active; 'I' for Inactive)
REMARK    1  A    between atoms: C2_5  and  O2_6 
REMARK    2  A    between atoms: N2_10  and  C5_11 
REMARK    3  A    between atoms: C6_13  and  C7_14 
REMARK    4  A    between atoms: C7_14  and  O4_15 
REMARK    5  A    between atoms: C8_17  and  O5_18 
REMARK    6  A    between atoms: C9_20  and  O6_21 
ROOT
HETATM    1  C5  UNL     1      35.953  50.018   9.931  1.00  0.00     0.263 C 
HETATM    2  O3  UNL     1      35.199  50.306  11.054  1.00  0.00    -0.353 OA
HETATM    3  C6  UNL     1      35.509  51.626  11.363  1.00  0.00     0.179 C 
HETATM    4  C8  UNL     1      35.339  52.287   9.999  1.00  0.00     0.182 C 
HETATM    5  C9  UNL     1      36.080  51.291   9.130  1.00  0.00     0.198 C 
ENDROOT
BRANCH   1   6
HETATM    6  N2  UNL     1      35.402  48.933   9.156  1.00  0.00    -0.280 N 
HETATM    7  C1  UNL     1      34.019  48.880   8.811  1.00  0.00     0.326 A 
HETATM    8  O1  UNL     1      33.200  49.761   9.153  1.00  0.00    -0.247 OA
HETATM    9  N1  UNL     1      33.534  47.781   8.044  1.00  0.00    -0.313 N 
HETATM   10  C2  UNL     1      34.344  46.689   7.573  1.00  0.00     0.247 A 
ATOM     11  H1  UNL     1      32.542  47.768   7.813  1.00  0.00     0.167 HD
HETATM   12  C3  UNL     1      35.737  46.836   7.977  1.00  0.00     0.043 A 
HETATM   13  C4  UNL     1      36.177  47.847   8.681  1.00  0.00     0.098 A 
BRANCH  10  14
HETATM   14  O2  UNL     1      33.826  45.459   8.000  1.00  0.00    -0.373 OA
ATOM     15  H2  UNL     1      34.275  45.153   8.780  1.00  0.00     0.212 HD
ENDBRANCH  10  14
ENDBRANCH   1   6
BRANCH   5  16
HETATM   16  O6  UNL     1      37.424  51.730   9.107  1.00  0.00    -0.388 OA
ATOM     17  H6  UNL     1      37.662  52.030   8.237  1.00  0.00     0.210 HD
ENDBRANCH   5  16
BRANCH   3  18
HETATM   18  C7  UNL     1      34.569  52.210  12.384  1.00  0.00     0.198 C 
BRANCH  18  19
HETATM   19  O4  UNL     1      33.270  52.023  11.912  1.00  0.00    -0.398 OA
ATOM     20  H4  UNL     1      32.922  52.879  11.692  1.00  0.00     0.209 HD
ENDBRANCH  18  19
ENDBRANCH   3  18
BRANCH   4  21
HETATM   21  O5  UNL     1      35.920  53.543   9.962  1.00  0.00    -0.390 OA
ATOM     22  H5  UNL     1      35.278  54.232  10.084  1.00  0.00     0.210 HD
ENDBRANCH   4  21
TORSDOF 6
ENDMDL
