MODEL 1
REMARK VINA RESULT: -8.640463167      0.000      0.000
REMARK  6 active torsions:
REMARK  status: ('A' for Active; 'I' for Inactive)
REMARK    1  A    between atoms: C2_5  and  O2_6 
REMARK    2  A    between atoms: N2_10  and  C5_11 
REMARK    3  A    between atoms: C6_13  and  C7_14 
REMARK    4  A    between atoms: C7_14  and  O4_15 
REMARK    5  A    between atoms: C8_17  and  O5_18 
REMARK    6  A    between atoms: C9_20  and  O6_21 
ROOT
HETATM    1  C5  UNL     1      35.918  49.957  10.022  1.00  0.00     0.263 C 
HETATM    2  O3  UNL     1      35.155  50.286  11.128  1.00  0.00    -0.353 OA
HETATM    3  C6  UNL     1      35.464  51.615  11.392  1.00  0.00     0.179 C 
HETATM    4  C8  UNL     1      35.305  52.227  10.004  1.00  0.00     0.182 C 
HETATM    5  C9  UNL     1      36.053  51.200   9.177  1.00  0.00     0.198 C 
ENDROOT
BRANCH   1   6
HETATM    6  N2  UNL     1      35.372  48.845   9.283  1.00  0.00    -0.280 N 
HETATM    7  C1  UNL     1      36.201  47.959   8.534  1.00  0.00     0.326 A 
HETATM    8  O1  UNL     1      37.444  48.085   8.468  1.00  0.00    -0.247 OA
HETATM    9  N1  UNL     1      35.603  46.878   7.823  1.00  0.00    -0.313 N 
HETATM   10  C2  UNL     1      34.192  46.595   7.797  1.00  0.00     0.247 A 
ATOM     11  H1  UNL     1      36.219  46.261   7.295  1.00  0.00     0.167 HD
HETATM   12  C3  UNL     1      33.434  47.555   8.590  1.00  0.00     0.043 A 
HETATM   13  C4  UNL     1      33.989  48.546   9.241  1.00  0.00     0.098 A 
BRANCH  10  14
HETATM   14  O2  UNL     1      33.714  46.546   6.480  1.00  0.00    -0.373 OA
ATOM     15  H2  UNL     1      32.769  46.445   6.465  1.00  0.00     0.212 HD
ENDBRANCH  10  14
ENDBRANCH   1   6
BRANCH   5  16
HETATM   16  O6  UNL     1      37.398  51.637   9.150  1.00  0.00    -0.388 OA
ATOM     17  H6  UNL     1      37.717  51.785  10.033  1.00  0.00     0.210 HD
ENDBRANCH   5  16
BRANCH   3  18
HETATM   18  C7  UNL     1      34.515  52.236  12.384  1.00  0.00     0.198 C 
BRANCH  18  19
HETATM   19  O4  UNL     1      33.219  51.960  11.952  1.00  0.00    -0.398 OA
ATOM     20  H4  UNL     1      32.752  52.786  11.906  1.00  0.00     0.209 HD
ENDBRANCH  18  19
ENDBRANCH   3  18
BRANCH   4  21
HETATM   21  O5  UNL     1      35.888  53.481   9.927  1.00  0.00    -0.390 OA
ATOM     22  H5  UNL     1      35.253  54.151   9.705  1.00  0.00     0.210 HD
ENDBRANCH   4  21
TORSDOF 6
ENDMDL
