MODEL 4
REMARK VINA RESULT: -7.015798322      1.936      5.333
REMARK  6 active torsions:
REMARK  status: ('A' for Active; 'I' for Inactive)
REMARK    1  A    between atoms: C2_5  and  O2_6 
REMARK    2  A    between atoms: N2_10  and  C5_11 
REMARK    3  A    between atoms: C6_13  and  C7_14 
REMARK    4  A    between atoms: C7_14  and  O4_15 
REMARK    5  A    between atoms: C8_17  and  O5_18 
REMARK    6  A    between atoms: C9_20  and  O6_21 
ROOT
HETATM    1  C5  UNL     1      34.888  49.212   8.544  1.00  0.00     0.263 C 
HETATM    2  O3  UNL     1      33.679  48.541   8.511  1.00  0.00    -0.353 OA
HETATM    3  C6  UNL     1      33.984  47.281   8.007  1.00  0.00     0.179 C 
HETATM    4  C8  UNL     1      35.173  46.903   8.884  1.00  0.00     0.182 C 
HETATM    5  C9  UNL     1      35.966  48.193   8.823  1.00  0.00     0.198 C 
ENDROOT
BRANCH   1   6
HETATM    6  N2  UNL     1      34.894  50.296   9.497  1.00  0.00    -0.280 N 
HETATM    7  C1  UNL     1      35.867  51.337   9.447  1.00  0.00     0.326 A 
HETATM    8  O1  UNL     1      36.771  51.380   8.583  1.00  0.00    -0.247 OA
HETATM    9  N1  UNL     1      35.821  52.380  10.416  1.00  0.00    -0.313 N 
HETATM   10  C2  UNL     1      34.848  52.477  11.472  1.00  0.00     0.247 A 
ATOM     11  H1  UNL     1      36.529  53.111  10.358  1.00  0.00     0.167 HD
HETATM   12  C3  UNL     1      33.901  51.369  11.437  1.00  0.00     0.043 A 
HETATM   13  C4  UNL     1      33.948  50.413  10.544  1.00  0.00     0.098 A 
BRANCH  10  14
HETATM   14  O2  UNL     1      35.472  52.562  12.724  1.00  0.00    -0.373 OA
ATOM     15  H2  UNL     1      35.134  53.298  13.223  1.00  0.00     0.212 HD
ENDBRANCH  10  14
ENDBRANCH   1   6
BRANCH   5  16
HETATM   16  O6  UNL     1      36.824  48.062   7.707  1.00  0.00    -0.388 OA
ATOM     17  H6  UNL     1      36.988  48.911   7.312  1.00  0.00     0.210 HD
ENDBRANCH   5  16
BRANCH   3  18
HETATM   18  C7  UNL     1      32.844  46.310   8.168  1.00  0.00     0.198 C 
BRANCH  18  19
HETATM   19  O4  UNL     1      33.033  45.641   9.376  1.00  0.00    -0.398 OA
ATOM     20  H4  UNL     1      32.198  45.632   9.831  1.00  0.00     0.209 HD
ENDBRANCH  18  19
ENDBRANCH   3  18
BRANCH   4  21
HETATM   21  O5  UNL     1      35.879  45.834   8.357  1.00  0.00    -0.390 OA
ATOM     22  H5  UNL     1      36.776  46.070   8.156  1.00  0.00     0.210 HD
ENDBRANCH   4  21
TORSDOF 6
ENDMDL
