MODEL 9
REMARK VINA RESULT: -6.690622812      2.038      5.485
REMARK  6 active torsions:
REMARK  status: ('A' for Active; 'I' for Inactive)
REMARK    1  A    between atoms: C2_5  and  O2_6 
REMARK    2  A    between atoms: N2_10  and  C5_11 
REMARK    3  A    between atoms: C6_13  and  C7_14 
REMARK    4  A    between atoms: C7_14  and  O4_15 
REMARK    5  A    between atoms: C8_17  and  O5_18 
REMARK    6  A    between atoms: C9_20  and  O6_21 
ROOT
HETATM    1  C5  UNL     1      34.388  48.568   9.383  1.00  0.00     0.263 C 
HETATM    2  O3  UNL     1      35.151  47.468   9.732  1.00  0.00    -0.353 OA
HETATM    3  C6  UNL     1      34.453  46.376   9.227  1.00  0.00     0.179 C 
HETATM    4  C8  UNL     1      34.186  46.842   7.799  1.00  0.00     0.182 C 
HETATM    5  C9  UNL     1      33.716  48.257   8.068  1.00  0.00     0.198 C 
ENDROOT
BRANCH   1   6
HETATM    6  N2  UNL     1      35.162  49.785   9.332  1.00  0.00    -0.280 N 
HETATM    7  C1  UNL     1      36.448  49.835   8.718  1.00  0.00     0.326 A 
HETATM    8  O1  UNL     1      36.986  48.838   8.189  1.00  0.00    -0.247 OA
HETATM    9  N1  UNL     1      37.163  51.067   8.700  1.00  0.00    -0.313 N 
HETATM   10  C2  UNL     1      36.685  52.302   9.263  1.00  0.00     0.247 A 
ATOM     11  H1  UNL     1      38.081  51.074   8.255  1.00  0.00     0.167 HD
HETATM   12  C3  UNL     1      35.367  52.146   9.865  1.00  0.00     0.043 A 
HETATM   13  C4  UNL     1      34.714  51.012   9.879  1.00  0.00     0.098 A 
BRANCH  10  14
HETATM   14  O2  UNL     1      37.600  52.819  10.190  1.00  0.00    -0.373 OA
ATOM     15  H2  UNL     1      37.515  52.385  11.031  1.00  0.00     0.212 HD
ENDBRANCH  10  14
ENDBRANCH   1   6
BRANCH   5  16
HETATM   16  O6  UNL     1      32.314  48.169   8.238  1.00  0.00    -0.388 OA
ATOM     17  H6  UNL     1      31.879  48.137   7.394  1.00  0.00     0.210 HD
ENDBRANCH   5  16
BRANCH   3  18
HETATM   18  C7  UNL     1      35.272  45.113   9.255  1.00  0.00     0.198 C 
BRANCH  18  19
HETATM   19  O4  UNL     1      34.843  44.313   8.197  1.00  0.00    -0.398 OA
ATOM     20  H4  UNL     1      35.609  43.882   7.836  1.00  0.00     0.209 HD
ENDBRANCH  18  19
ENDBRANCH   3  18
BRANCH   4  21
HETATM   21  O5  UNL     1      33.208  46.077   7.186  1.00  0.00    -0.390 OA
ATOM     22  H5  UNL     1      33.584  45.370   6.675  1.00  0.00     0.210 HD
ENDBRANCH   4  21
TORSDOF 6
ENDMDL
