MODEL 4
REMARK VINA RESULT: -8.115838571      1.385      2.211
REMARK  6 active torsions:
REMARK  status: ('A' for Active; 'I' for Inactive)
REMARK    1  A    between atoms: C6_7  and  S1_8 
REMARK    2  A    between atoms: S1_8  and  C7_9 
REMARK    3  A    between atoms: C7_9  and  C8_10 
REMARK    4  A    between atoms: C8_10  and  C9_11 
REMARK    5  A    between atoms: C9_11  and  C10_12 
REMARK    6  A    between atoms: C10_12  and  P1_13 
ROOT
HETATM    1  S1  UNL     1      49.144  26.693  15.503  1.00  0.00    -0.128 SA
ENDROOT
BRANCH   1   2
HETATM    2  C6  UNL     1      50.520  25.573  15.238  1.00  0.00     0.024 A 
HETATM    3  C1  UNL     1      50.264  24.227  15.033  1.00  0.00     0.063 A 
HETATM    4  N1  UNL     1      48.958  23.696  15.023  1.00  0.00    -0.101 NA
HETATM    5  C2  UNL     1      51.315  23.333  14.823  1.00  0.00     0.028 A 
HETATM    6  C3  UNL     1      52.607  23.811  14.825  1.00  0.00     0.002 A 
HETATM    7  C4  UNL     1      52.865  25.143  15.028  1.00  0.00     0.001 A 
HETATM    8  C5  UNL     1      51.822  26.030  15.236  1.00  0.00     0.020 A 
ENDBRANCH   1   2
BRANCH   1   9
HETATM    9  C7  UNL     1      49.473  28.225  14.588  1.00  0.00     0.079 C 
BRANCH   9  10
HETATM   10  C8  UNL     1      48.282  28.623  13.756  1.00  0.00     0.011 C 
BRANCH  10  11
HETATM   11  C9  UNL     1      48.300  27.883  12.420  1.00  0.00     0.014 C 
BRANCH  11  12
HETATM   12  C10 UNL     1      47.313  28.468  11.462  1.00  0.00     0.146 C 
BRANCH  12  13
HETATM   13  P1  UNL     1      48.074  29.272  10.051  1.00  0.00     0.259 P 
HETATM   14  O1  UNL     1      48.464  28.314   8.970  1.00  0.00    -0.640 OA
HETATM   15  O2  UNL     1      49.513  30.017  10.600  1.00  0.00    -0.640 OA
HETATM   16  O3  UNL     1      47.068  30.501   9.433  1.00  0.00    -0.640 OA
ENDBRANCH  12  13
ENDBRANCH  11  12
ENDBRANCH  10  11
ENDBRANCH   9  10
ENDBRANCH   1   9
TORSDOF 6
ENDMDL
