MODEL 16
REMARK VINA RESULT: -6.183785771      4.815      6.962
REMARK  6 active torsions:
REMARK  status: ('A' for Active; 'I' for Inactive)
REMARK    1  A    between atoms: C6_7  and  S1_8 
REMARK    2  A    between atoms: S1_8  and  C7_9 
REMARK    3  A    between atoms: C7_9  and  C8_10 
REMARK    4  A    between atoms: C8_10  and  C9_11 
REMARK    5  A    between atoms: C9_11  and  C10_12 
REMARK    6  A    between atoms: C10_12  and  P1_13 
ROOT
HETATM    1  S1  UNL     1      48.401  27.745  13.870  1.00  0.00    -0.128 SA
ENDROOT
BRANCH   1   2
HETATM    2  C6  UNL     1      48.120  28.451  12.246  1.00  0.00     0.024 A 
HETATM    3  C1  UNL     1      46.886  28.279  11.639  1.00  0.00     0.063 A 
HETATM    4  N1  UNL     1      45.834  27.566  12.250  1.00  0.00    -0.101 NA
HETATM    5  C2  UNL     1      46.640  28.818  10.376  1.00  0.00     0.028 A 
HETATM    6  C3  UNL     1      47.642  29.522   9.744  1.00  0.00     0.002 A 
HETATM    7  C4  UNL     1      48.865  29.695  10.341  1.00  0.00     0.001 A 
HETATM    8  C5  UNL     1      49.109  29.160  11.594  1.00  0.00     0.020 A 
ENDBRANCH   1   2
BRANCH   1   9
HETATM    9  C7  UNL     1      49.917  28.473  14.553  1.00  0.00     0.079 C 
BRANCH   9  10
HETATM   10  C8  UNL     1      50.721  27.441  15.301  1.00  0.00     0.011 C 
BRANCH  10  11
HETATM   11  C9  UNL     1      50.227  26.037  14.958  1.00  0.00     0.014 C 
BRANCH  11  12
HETATM   12  C10 UNL     1      51.291  25.014  15.196  1.00  0.00     0.146 C 
BRANCH  12  13
HETATM   13  P1  UNL     1      50.699  23.325  15.076  1.00  0.00     0.259 P 
HETATM   14  O1  UNL     1      50.887  22.547  16.340  1.00  0.00    -0.640 OA
HETATM   15  O2  UNL     1      51.624  22.543  13.867  1.00  0.00    -0.640 OA
HETATM   16  O3  UNL     1      49.070  23.283  14.579  1.00  0.00    -0.640 OA
ENDBRANCH  12  13
ENDBRANCH  11  12
ENDBRANCH  10  11
ENDBRANCH   9  10
ENDBRANCH   1   9
TORSDOF 6
ENDMDL
