MODEL 15
REMARK VINA RESULT: -6.257503419      4.816      6.930
REMARK  6 active torsions:
REMARK  status: ('A' for Active; 'I' for Inactive)
REMARK    1  A    between atoms: C6_7  and  S1_8 
REMARK    2  A    between atoms: S1_8  and  C7_9 
REMARK    3  A    between atoms: C7_9  and  C8_10 
REMARK    4  A    between atoms: C8_10  and  C9_11 
REMARK    5  A    between atoms: C9_11  and  C10_12 
REMARK    6  A    between atoms: C10_12  and  P1_13 
ROOT
HETATM    1  S1  UNL     1      48.254  27.988  14.023  1.00  0.00    -0.128 SA
ENDROOT
BRANCH   1   2
HETATM    2  C6  UNL     1      48.070  28.566  12.335  1.00  0.00     0.024 A 
HETATM    3  C1  UNL     1      46.891  28.300  11.656  1.00  0.00     0.063 A 
HETATM    4  N1  UNL     1      45.823  27.589  12.240  1.00  0.00    -0.101 NA
HETATM    5  C2  UNL     1      46.720  28.738  10.343  1.00  0.00     0.028 A 
HETATM    6  C3  UNL     1      47.740  29.437   9.734  1.00  0.00     0.002 A 
HETATM    7  C4  UNL     1      48.908  29.702  10.403  1.00  0.00     0.001 A 
HETATM    8  C5  UNL     1      49.078  29.267  11.706  1.00  0.00     0.020 A 
ENDBRANCH   1   2
BRANCH   1   9
HETATM    9  C7  UNL     1      49.939  28.375  14.575  1.00  0.00     0.079 C 
BRANCH   9  10
HETATM   10  C8  UNL     1      50.429  27.353  15.569  1.00  0.00     0.011 C 
BRANCH  10  11
HETATM   11  C9  UNL     1      50.010  25.950  15.132  1.00  0.00     0.014 C 
BRANCH  11  12
HETATM   12  C10 UNL     1      51.185  25.027  15.076  1.00  0.00     0.146 C 
BRANCH  12  13
HETATM   13  P1  UNL     1      50.729  23.296  14.957  1.00  0.00     0.259 P 
HETATM   14  O1  UNL     1      51.525  22.549  13.933  1.00  0.00    -0.640 OA
HETATM   15  O2  UNL     1      49.093  23.230  14.462  1.00  0.00    -0.640 OA
HETATM   16  O3  UNL     1      50.834  22.532  16.476  1.00  0.00    -0.640 OA
ENDBRANCH  12  13
ENDBRANCH  11  12
ENDBRANCH  10  11
ENDBRANCH   9  10
ENDBRANCH   1   9
TORSDOF 6
ENDMDL
