MODEL 5
REMARK VINA RESULT: -8.021632021      0.954      1.152
REMARK  6 active torsions:
REMARK  status: ('A' for Active; 'I' for Inactive)
REMARK    1  A    between atoms: C6_7  and  S1_8 
REMARK    2  A    between atoms: S1_8  and  C7_9 
REMARK    3  A    between atoms: C7_9  and  C8_10 
REMARK    4  A    between atoms: C8_10  and  C9_11 
REMARK    5  A    between atoms: C9_11  and  C10_12 
REMARK    6  A    between atoms: C10_12  and  P1_13 
ROOT
HETATM    1  S1  UNL     1      48.904  27.012  15.705  1.00  0.00    -0.128 SA
ENDROOT
BRANCH   1   2
HETATM    2  C6  UNL     1      49.996  25.637  15.340  1.00  0.00     0.024 A 
HETATM    3  C1  UNL     1      51.362  25.860  15.274  1.00  0.00     0.063 A 
HETATM    4  N1  UNL     1      51.934  27.131  15.483  1.00  0.00    -0.101 NA
HETATM    5  C2  UNL     1      52.236  24.809  14.992  1.00  0.00     0.028 A 
HETATM    6  C3  UNL     1      51.718  23.550  14.781  1.00  0.00     0.002 A 
HETATM    7  C4  UNL     1      50.366  23.325  14.845  1.00  0.00     0.001 A 
HETATM    8  C5  UNL     1      49.500  24.368  15.124  1.00  0.00     0.020 A 
ENDBRANCH   1   2
BRANCH   1   9
HETATM    9  C7  UNL     1      49.229  28.332  14.502  1.00  0.00     0.079 C 
BRANCH   9  10
HETATM   10  C8  UNL     1      47.998  28.634  13.688  1.00  0.00     0.011 C 
BRANCH  10  11
HETATM   11  C9  UNL     1      48.034  27.859  12.371  1.00  0.00     0.014 C 
BRANCH  11  12
HETATM   12  C10 UNL     1      47.186  28.519  11.331  1.00  0.00     0.146 C 
BRANCH  12  13
HETATM   13  P1  UNL     1      48.135  29.351  10.056  1.00  0.00     0.259 P 
HETATM   14  O1  UNL     1      49.383  29.990  10.578  1.00  0.00    -0.640 OA
HETATM   15  O2  UNL     1      47.157  30.606   9.427  1.00  0.00    -0.640 OA
HETATM   16  O3  UNL     1      48.491  28.290   8.771  1.00  0.00    -0.640 OA
ENDBRANCH  12  13
ENDBRANCH  11  12
ENDBRANCH  10  11
ENDBRANCH   9  10
ENDBRANCH   1   9
TORSDOF 6
ENDMDL
