MODEL 3
REMARK VINA RESULT: -8.124554645      0.098      1.154
REMARK  6 active torsions:
REMARK  status: ('A' for Active; 'I' for Inactive)
REMARK    1  A    between atoms: C6_7  and  S1_8 
REMARK    2  A    between atoms: S1_8  and  C7_9 
REMARK    3  A    between atoms: C7_9  and  C8_10 
REMARK    4  A    between atoms: C8_10  and  C9_11 
REMARK    5  A    between atoms: C9_11  and  C10_12 
REMARK    6  A    between atoms: C10_12  and  P1_13 
ROOT
HETATM    1  S1  UNL     1      50.827  27.258  15.336  1.00  0.00    -0.128 SA
ENDROOT
BRANCH   1   2
HETATM    2  C6  UNL     1      50.695  25.477  15.174  1.00  0.00     0.024 A 
HETATM    3  C1  UNL     1      51.851  24.721  15.071  1.00  0.00     0.063 A 
HETATM    4  N1  UNL     1      53.138  25.297  15.088  1.00  0.00    -0.101 NA
HETATM    5  C2  UNL     1      51.778  23.333  14.945  1.00  0.00     0.028 A 
HETATM    6  C3  UNL     1      50.540  22.729  14.925  1.00  0.00     0.002 A 
HETATM    7  C4  UNL     1      49.392  23.474  15.026  1.00  0.00     0.001 A 
HETATM    8  C5  UNL     1      49.465  24.851  15.151  1.00  0.00     0.020 A 
ENDBRANCH   1   2
BRANCH   1   9
HETATM    9  C7  UNL     1      49.253  27.995  14.814  1.00  0.00     0.079 C 
BRANCH   9  10
HETATM   10  C8  UNL     1      49.053  27.844  13.328  1.00  0.00     0.011 C 
BRANCH  10  11
HETATM   11  C9  UNL     1      47.908  28.739  12.857  1.00  0.00     0.014 C 
BRANCH  11  12
HETATM   12  C10 UNL     1      47.383  28.294  11.529  1.00  0.00     0.146 C 
BRANCH  12  13
HETATM   13  P1  UNL     1      48.050  29.223  10.147  1.00  0.00     0.259 P 
HETATM   14  O1  UNL     1      48.491  28.353   9.013  1.00  0.00    -0.640 OA
HETATM   15  O2  UNL     1      49.438  30.052  10.709  1.00  0.00    -0.640 OA
HETATM   16  O3  UNL     1      46.938  30.398   9.610  1.00  0.00    -0.640 OA
ENDBRANCH  12  13
ENDBRANCH  11  12
ENDBRANCH  10  11
ENDBRANCH   9  10
ENDBRANCH   1   9
TORSDOF 6
ENDMDL
