MODEL 1
REMARK VINA RESULT: -8.142195780      0.000      0.000
REMARK  6 active torsions:
REMARK  status: ('A' for Active; 'I' for Inactive)
REMARK    1  A    between atoms: C6_7  and  S1_8 
REMARK    2  A    between atoms: S1_8  and  C7_9 
REMARK    3  A    between atoms: C7_9  and  C8_10 
REMARK    4  A    between atoms: C8_10  and  C9_11 
REMARK    5  A    between atoms: C9_11  and  C10_12 
REMARK    6  A    between atoms: C10_12  and  P1_13 
ROOT
HETATM    1  S1  UNL     1      50.856  27.206  15.303  1.00  0.00    -0.128 SA
ENDROOT
BRANCH   1   2
HETATM    2  C6  UNL     1      50.703  25.425  15.157  1.00  0.00     0.024 A 
HETATM    3  C1  UNL     1      51.851  24.655  15.055  1.00  0.00     0.063 A 
HETATM    4  N1  UNL     1      53.143  25.217  15.063  1.00  0.00    -0.101 NA
HETATM    5  C2  UNL     1      51.761  23.267  14.941  1.00  0.00     0.028 A 
HETATM    6  C3  UNL     1      50.516  22.678  14.930  1.00  0.00     0.002 A 
HETATM    7  C4  UNL     1      49.377  23.436  15.030  1.00  0.00     0.001 A 
HETATM    8  C5  UNL     1      49.466  24.813  15.143  1.00  0.00     0.020 A 
ENDBRANCH   1   2
BRANCH   1   9
HETATM    9  C7  UNL     1      49.269  27.953  14.838  1.00  0.00     0.079 C 
BRANCH   9  10
HETATM   10  C8  UNL     1      49.018  27.810  13.360  1.00  0.00     0.011 C 
BRANCH  10  11
HETATM   11  C9  UNL     1      47.875  28.726  12.927  1.00  0.00     0.014 C 
BRANCH  11  12
HETATM   12  C10 UNL     1      47.349  28.340  11.582  1.00  0.00     0.146 C 
BRANCH  12  13
HETATM   13  P1  UNL     1      48.151  29.199  10.227  1.00  0.00     0.259 P 
HETATM   14  O1  UNL     1      49.365  29.963  10.653  1.00  0.00    -0.640 OA
HETATM   15  O2  UNL     1      47.035  30.340   9.611  1.00  0.00    -0.640 OA
HETATM   16  O3  UNL     1      48.530  28.122   8.962  1.00  0.00    -0.640 OA
ENDBRANCH  12  13
ENDBRANCH  11  12
ENDBRANCH  10  11
ENDBRANCH   9  10
ENDBRANCH   1   9
TORSDOF 6
ENDMDL
