MODEL 14
REMARK VINA RESULT: -6.378100636      4.811      6.852
REMARK  6 active torsions:
REMARK  status: ('A' for Active; 'I' for Inactive)
REMARK    1  A    between atoms: C6_7  and  S1_8 
REMARK    2  A    between atoms: S1_8  and  C7_9 
REMARK    3  A    between atoms: C7_9  and  C8_10 
REMARK    4  A    between atoms: C8_10  and  C9_11 
REMARK    5  A    between atoms: C9_11  and  C10_12 
REMARK    6  A    between atoms: C10_12  and  P1_13 
ROOT
HETATM    1  S1  UNL     1      47.707  28.382  14.367  1.00  0.00    -0.128 SA
ENDROOT
BRANCH   1   2
HETATM    2  C6  UNL     1      47.981  28.747  12.633  1.00  0.00     0.024 A 
HETATM    3  C1  UNL     1      47.045  28.329  11.700  1.00  0.00     0.063 A 
HETATM    4  N1  UNL     1      45.879  27.624  12.059  1.00  0.00    -0.101 NA
HETATM    5  C2  UNL     1      47.232  28.599  10.344  1.00  0.00     0.028 A 
HETATM    6  C3  UNL     1      48.360  29.287   9.950  1.00  0.00     0.002 A 
HETATM    7  C4  UNL     1      49.289  29.702  10.870  1.00  0.00     0.001 A 
HETATM    8  C5  UNL     1      49.103  29.433  12.216  1.00  0.00     0.020 A 
ENDBRANCH   1   2
BRANCH   1   9
HETATM    9  C7  UNL     1      49.254  27.734  15.063  1.00  0.00     0.079 C 
BRANCH   9  10
HETATM   10  C8  UNL     1      48.976  26.736  16.157  1.00  0.00     0.011 C 
BRANCH  10  11
HETATM   11  C9  UNL     1      49.402  25.337  15.715  1.00  0.00     0.014 C 
BRANCH  11  12
HETATM   12  C10 UNL     1      50.511  25.398  14.714  1.00  0.00     0.146 C 
BRANCH  12  13
HETATM   13  P1  UNL     1      51.741  24.110  14.929  1.00  0.00     0.259 P 
HETATM   14  O1  UNL     1      52.101  23.424  13.649  1.00  0.00    -0.640 OA
HETATM   15  O2  UNL     1      51.064  22.922  15.958  1.00  0.00    -0.640 OA
HETATM   16  O3  UNL     1      53.133  24.719  15.700  1.00  0.00    -0.640 OA
ENDBRANCH  12  13
ENDBRANCH  11  12
ENDBRANCH  10  11
ENDBRANCH   9  10
ENDBRANCH   1   9
TORSDOF 6
ENDMDL
