MODEL 2
REMARK VINA RESULT: -8.134343399      1.385      1.882
REMARK  6 active torsions:
REMARK  status: ('A' for Active; 'I' for Inactive)
REMARK    1  A    between atoms: C6_7  and  S1_8 
REMARK    2  A    between atoms: S1_8  and  C7_9 
REMARK    3  A    between atoms: C7_9  and  C8_10 
REMARK    4  A    between atoms: C8_10  and  C9_11 
REMARK    5  A    between atoms: C9_11  and  C10_12 
REMARK    6  A    between atoms: C10_12  and  P1_13 
ROOT
HETATM    1  S1  UNL     1      49.126  26.645  15.449  1.00  0.00    -0.128 SA
ENDROOT
BRANCH   1   2
HETATM    2  C6  UNL     1      50.523  25.544  15.216  1.00  0.00     0.024 A 
HETATM    3  C1  UNL     1      50.291  24.192  15.022  1.00  0.00     0.063 A 
HETATM    4  N1  UNL     1      48.994  23.641  14.999  1.00  0.00    -0.101 NA
HETATM    5  C2  UNL     1      51.358  23.312  14.837  1.00  0.00     0.028 A 
HETATM    6  C3  UNL     1      52.643  23.810  14.852  1.00  0.00     0.002 A 
HETATM    7  C4  UNL     1      52.877  25.149  15.045  1.00  0.00     0.001 A 
HETATM    8  C5  UNL     1      51.818  26.021  15.228  1.00  0.00     0.020 A 
ENDBRANCH   1   2
BRANCH   1   9
HETATM    9  C7  UNL     1      49.514  28.231  14.655  1.00  0.00     0.079 C 
BRANCH   9  10
HETATM   10  C8  UNL     1      48.374  28.689  13.783  1.00  0.00     0.011 C 
BRANCH  10  11
HETATM   11  C9  UNL     1      48.318  27.854  12.505  1.00  0.00     0.014 C 
BRANCH  11  12
HETATM   12  C10 UNL     1      47.375  28.449  11.509  1.00  0.00     0.146 C 
BRANCH  12  13
HETATM   13  P1  UNL     1      48.199  29.283  10.152  1.00  0.00     0.259 P 
HETATM   14  O1  UNL     1      49.448  29.992  10.571  1.00  0.00    -0.640 OA
HETATM   15  O2  UNL     1      47.126  30.474   9.554  1.00  0.00    -0.640 OA
HETATM   16  O3  UNL     1      48.520  28.199   8.876  1.00  0.00    -0.640 OA
ENDBRANCH  12  13
ENDBRANCH  11  12
ENDBRANCH  10  11
ENDBRANCH   9  10
ENDBRANCH   1   9
TORSDOF 6
ENDMDL
