MODEL 2
REMARK VINA RESULT: -10.570996094      1.220      1.661
REMARK  10 active torsions:
REMARK  status: ('A' for Active; 'I' for Inactive)
REMARK    1  A    between atoms: N4_17  and  C9_18 
REMARK    2  A    between atoms: C9_18  and  C10_19 
REMARK    3  A    between atoms: C10_19  and  O3_20 
REMARK    4  A    between atoms: C10_19  and  C11_22 
REMARK    5  A    between atoms: C11_22  and  O4_23 
REMARK    6  A    between atoms: C11_22  and  C12_25 
REMARK    7  A    between atoms: C12_25  and  O5_26 
REMARK    8  A    between atoms: C12_25  and  C13_28 
REMARK    9  A    between atoms: C13_28  and  O6_29 
REMARK   10  A    between atoms: O6_29  and  P1_30 
ROOT
HETATM    1  C1  UNL     1       9.082  42.356  50.407  1.00  0.00     0.049 C 
HETATM    2  C2  UNL     1       7.657  42.449  50.807  1.00  0.00    -0.054 A 
HETATM    3  C3  UNL     1       7.159  43.593  51.392  1.00  0.00     0.039 A 
HETATM    4  C4  UNL     1       5.831  43.705  51.775  1.00  0.00     0.060 A 
HETATM    5  N1  UNL     1       5.399  44.849  52.336  1.00  0.00    -0.347 N 
ATOM      6  H1  UNL     1       6.053  45.619  52.478  1.00  0.00     0.166 HD
HETATM    7  C5  UNL     1       4.121  44.988  52.710  1.00  0.00     0.146 A 
HETATM    8  C6  UNL     1       3.622  46.156  53.298  1.00  0.00     0.280 A 
HETATM    9  O1  UNL     1       4.415  47.100  53.475  1.00  0.00    -0.265 OA
HETATM   10  N2  UNL     1       2.315  46.226  53.652  1.00  0.00    -0.273 N 
ATOM     11  H2  UNL     1       1.947  47.076  54.082  1.00  0.00     0.173 HD
HETATM   12  C7  UNL     1       1.503  45.176  53.439  1.00  0.00     0.328 A 
HETATM   13  O2  UNL     1       0.301  45.306  53.790  1.00  0.00    -0.247 OA
HETATM   14  N3  UNL     1       1.947  44.017  52.868  1.00  0.00    -0.292 N 
ATOM     15  H3  UNL     1       1.294  43.248  52.726  1.00  0.00     0.172 HD
HETATM   16  C8  UNL     1       3.226  43.871  52.490  1.00  0.00     0.145 A 
HETATM   17  N4  UNL     1       3.710  42.727  51.916  1.00  0.00    -0.327 N 
HETATM   18  C14 UNL     1       4.995  42.605  51.546  1.00  0.00     0.063 A 
HETATM   19  C15 UNL     1       5.486  41.455  50.960  1.00  0.00     0.039 A 
HETATM   20  C16 UNL     1       6.815  41.375  50.590  1.00  0.00    -0.054 A 
HETATM   21  C17 UNL     1       7.361  40.147  49.959  1.00  0.00     0.049 C 
ENDROOT
BRANCH  17  22
HETATM   22  C9  UNL     1       2.774  41.642  51.718  1.00  0.00     0.165 C 
BRANCH  22  23
HETATM   23  C10 UNL     1       2.264  41.722  50.272  1.00  0.00     0.167 C 
BRANCH  23  24
HETATM   24  O3  UNL     1       1.443  42.787  50.029  1.00  0.00    -0.391 OA
ATOM     25  H3  UNL     1       0.527  42.555  49.932  1.00  0.00     0.210 HD
ENDBRANCH  23  24
BRANCH  23  26
HETATM   26  C11 UNL     1       1.733  40.462  49.757  1.00  0.00     0.179 C 
BRANCH  26  27
HETATM   27  O4  UNL     1       1.242  39.676  50.803  1.00  0.00    -0.390 OA
ATOM     28  H4  UNL     1       1.705  38.847  50.840  1.00  0.00     0.210 HD
ENDBRANCH  26  27
BRANCH  26  29
HETATM   29  C12 UNL     1       2.457  39.630  48.795  1.00  0.00     0.173 C 
BRANCH  29  30
HETATM   30  O5  UNL     1       3.218  38.715  49.614  1.00  0.00    -0.391 OA
ATOM     31  H5  UNL     1       3.983  38.509  49.089  1.00  0.00     0.210 HD
ENDBRANCH  29  30
BRANCH  29  32
HETATM   32  C13 UNL     1       3.562  40.324  48.004  1.00  0.00     0.217 C 
BRANCH  32  33
HETATM   33  O6  UNL     1       3.031  41.523  47.440  1.00  0.00    -0.280 OA
BRANCH  33  34
HETATM   34  P1  UNL     1       2.595  41.258  45.837  1.00  0.00     0.422 P 
HETATM   35  O7  UNL     1       3.390  40.111  45.309  1.00  0.00    -0.617 OA
HETATM   36  O8  UNL     1       2.883  42.613  44.872  1.00  0.00    -0.617 OA
HETATM   37  O9  UNL     1       0.948  40.863  45.698  1.00  0.00    -0.617 OA
ENDBRANCH  33  34
ENDBRANCH  32  33
ENDBRANCH  29  32
ENDBRANCH  26  29
ENDBRANCH  23  26
ENDBRANCH  22  23
ENDBRANCH  17  22
TORSDOF 10
ENDMDL
