MODEL 7
REMARK VINA RESULT: -9.185032099      2.292      4.789
REMARK  10 active torsions:
REMARK  status: ('A' for Active; 'I' for Inactive)
REMARK    1  A    between atoms: N4_17  and  C9_18 
REMARK    2  A    between atoms: C9_18  and  C10_19 
REMARK    3  A    between atoms: C10_19  and  O3_20 
REMARK    4  A    between atoms: C10_19  and  C11_22 
REMARK    5  A    between atoms: C11_22  and  O4_23 
REMARK    6  A    between atoms: C11_22  and  C12_25 
REMARK    7  A    between atoms: C12_25  and  O5_26 
REMARK    8  A    between atoms: C12_25  and  C13_28 
REMARK    9  A    between atoms: C13_28  and  O6_29 
REMARK   10  A    between atoms: O6_29  and  P1_30 
ROOT
HETATM    1  C1  UNL     1       1.913  47.330  53.909  1.00  0.00     0.049 C 
HETATM    2  C2  UNL     1       2.777  46.203  53.482  1.00  0.00    -0.054 A 
HETATM    3  C3  UNL     1       4.081  46.419  53.093  1.00  0.00     0.039 A 
HETATM    4  C4  UNL     1       4.910  45.383  52.690  1.00  0.00     0.060 A 
HETATM    5  N1  UNL     1       6.177  45.653  52.326  1.00  0.00    -0.347 N 
ATOM      6  H1  UNL     1       6.513  46.616  52.347  1.00  0.00     0.166 HD
HETATM    7  C5  UNL     1       7.001  44.672  51.938  1.00  0.00     0.146 A 
HETATM    8  C6  UNL     1       8.327  44.900  51.551  1.00  0.00     0.280 A 
HETATM    9  O1  UNL     1       8.744  46.073  51.573  1.00  0.00    -0.265 OA
HETATM   10  N2  UNL     1       9.105  43.857  51.168  1.00  0.00    -0.273 N 
ATOM     11  H2  UNL     1      10.072  44.019  50.885  1.00  0.00     0.173 HD
HETATM   12  C7  UNL     1       8.603  42.610  51.163  1.00  0.00     0.328 A 
HETATM   13  O2  UNL     1       9.378  41.687  50.798  1.00  0.00    -0.247 OA
HETATM   14  N3  UNL     1       7.316  42.342  51.533  1.00  0.00    -0.292 N 
ATOM     15  H3  UNL     1       6.980  41.379  51.512  1.00  0.00     0.172 HD
HETATM   16  C8  UNL     1       6.485  43.320  51.923  1.00  0.00     0.145 A 
HETATM   17  N4  UNL     1       5.189  43.093  52.301  1.00  0.00    -0.327 N 
HETATM   18  C14 UNL     1       4.376  44.089  52.689  1.00  0.00     0.063 A 
HETATM   19  C15 UNL     1       3.070  43.864  53.077  1.00  0.00     0.039 A 
HETATM   20  C16 UNL     1       2.269  44.918  53.474  1.00  0.00    -0.054 A 
HETATM   21  C17 UNL     1       0.863  44.695  53.895  1.00  0.00     0.049 C 
ENDROOT
BRANCH  17  22
HETATM   22  C9  UNL     1       4.724  41.723  52.270  1.00  0.00     0.165 C 
BRANCH  22  23
HETATM   23  C10 UNL     1       4.249  41.423  50.841  1.00  0.00     0.167 C 
BRANCH  23  24
HETATM   24  O3  UNL     1       5.109  41.850  49.868  1.00  0.00    -0.391 OA
ATOM     25  H3  UNL     1       5.871  41.293  49.754  1.00  0.00     0.210 HD
ENDBRANCH  23  24
BRANCH  23  26
HETATM   26  C11 UNL     1       2.861  41.800  50.582  1.00  0.00     0.179 C 
BRANCH  26  27
HETATM   27  O4  UNL     1       2.012  40.713  50.809  1.00  0.00    -0.390 OA
ATOM     28  H4  UNL     1       1.188  41.009  51.181  1.00  0.00     0.210 HD
ENDBRANCH  26  27
BRANCH  26  29
HETATM   29  C12 UNL     1       2.446  42.526  49.381  1.00  0.00     0.173 C 
BRANCH  29  30
HETATM   30  O5  UNL     1       1.208  43.167  49.760  1.00  0.00    -0.391 OA
ATOM     31  H5  UNL     1       1.476  43.876  50.334  1.00  0.00     0.210 HD
ENDBRANCH  29  30
BRANCH  29  32
HETATM   32  C13 UNL     1       2.000  41.671  48.200  1.00  0.00     0.217 C 
BRANCH  32  33
HETATM   33  O6  UNL     1       3.122  41.459  47.343  1.00  0.00    -0.280 OA
BRANCH  33  34
HETATM   34  P1  UNL     1       2.602  41.269  45.755  1.00  0.00     0.422 P 
HETATM   35  O7  UNL     1       3.376  40.156  45.129  1.00  0.00    -0.617 OA
HETATM   36  O8  UNL     1       2.828  42.672  44.844  1.00  0.00    -0.617 OA
HETATM   37  O9  UNL     1       0.954  40.864  45.684  1.00  0.00    -0.617 OA
ENDBRANCH  33  34
ENDBRANCH  32  33
ENDBRANCH  29  32
ENDBRANCH  26  29
ENDBRANCH  23  26
ENDBRANCH  22  23
ENDBRANCH  17  22
TORSDOF 10
ENDMDL
