MODEL 3
REMARK VINA RESULT: -9.997914205      2.126      4.561
REMARK  10 active torsions:
REMARK  status: ('A' for Active; 'I' for Inactive)
REMARK    1  A    between atoms: N4_17  and  C9_18 
REMARK    2  A    between atoms: C9_18  and  C10_19 
REMARK    3  A    between atoms: C10_19  and  O3_20 
REMARK    4  A    between atoms: C10_19  and  C11_22 
REMARK    5  A    between atoms: C11_22  and  O4_23 
REMARK    6  A    between atoms: C11_22  and  C12_25 
REMARK    7  A    between atoms: C12_25  and  O5_26 
REMARK    8  A    between atoms: C12_25  and  C13_28 
REMARK    9  A    between atoms: C13_28  and  O6_29 
REMARK   10  A    between atoms: O6_29  and  P1_30 
ROOT
HETATM    1  C1  UNL     1       1.887  47.414  54.542  1.00  0.00     0.049 C 
HETATM    2  C2  UNL     1       2.326  46.178  53.850  1.00  0.00    -0.054 A 
HETATM    3  C3  UNL     1       3.627  46.033  53.418  1.00  0.00     0.039 A 
HETATM    4  C4  UNL     1       4.064  44.888  52.768  1.00  0.00     0.060 A 
HETATM    5  N1  UNL     1       5.346  44.801  52.373  1.00  0.00    -0.347 N 
ATOM      6  H1  UNL     1       5.983  45.578  52.551  1.00  0.00     0.166 HD
HETATM    7  C5  UNL     1       5.797  43.706  51.749  1.00  0.00     0.146 A 
HETATM    8  C6  UNL     1       7.121  43.565  51.318  1.00  0.00     0.280 A 
HETATM    9  O1  UNL     1       7.904  44.509  51.532  1.00  0.00    -0.265 OA
HETATM   10  N2  UNL     1       7.508  42.426  50.692  1.00  0.00    -0.273 N 
ATOM     11  H2  UNL     1       8.472  42.319  50.376  1.00  0.00     0.173 HD
HETATM   12  C7  UNL     1       6.620  41.436  50.486  1.00  0.00     0.328 A 
HETATM   13  O2  UNL     1       7.044  40.406  49.900  1.00  0.00    -0.247 OA
HETATM   14  N3  UNL     1       5.319  41.531  50.890  1.00  0.00    -0.292 N 
ATOM     15  H3  UNL     1       4.683  40.755  50.712  1.00  0.00     0.172 HD
HETATM   16  C8  UNL     1       4.861  42.626  51.516  1.00  0.00     0.145 A 
HETATM   17  N4  UNL     1       3.565  42.759  51.935  1.00  0.00    -0.327 N 
HETATM   18  C14 UNL     1       3.130  43.865  52.561  1.00  0.00     0.063 A 
HETATM   19  C15 UNL     1       1.825  44.002  52.991  1.00  0.00     0.039 A 
HETATM   20  C16 UNL     1       1.421  45.156  53.636  1.00  0.00    -0.054 A 
HETATM   21  C17 UNL     1       0.023  45.320  54.106  1.00  0.00     0.049 C 
ENDROOT
BRANCH  17  22
HETATM   22  C9  UNL     1       2.672  41.651  51.679  1.00  0.00     0.165 C 
BRANCH  22  23
HETATM   23  C10 UNL     1       2.268  41.708  50.199  1.00  0.00     0.167 C 
BRANCH  23  24
HETATM   24  O3  UNL     1       1.411  42.729  49.895  1.00  0.00    -0.391 OA
ATOM     25  H3  UNL     1       1.494  43.051  49.005  1.00  0.00     0.210 HD
ENDBRANCH  23  24
BRANCH  23  26
HETATM   26  C11 UNL     1       1.845  40.423  49.646  1.00  0.00     0.179 C 
BRANCH  26  27
HETATM   27  O4  UNL     1       1.202  39.660  50.625  1.00  0.00    -0.390 OA
ATOM     28  H4  UNL     1       1.768  38.956  50.920  1.00  0.00     0.210 HD
ENDBRANCH  26  27
BRANCH  26  29
HETATM   29  C12 UNL     1       2.727  39.576  48.841  1.00  0.00     0.173 C 
BRANCH  29  30
HETATM   30  O5  UNL     1       3.642  39.000  49.799  1.00  0.00    -0.391 OA
ATOM     31  H5  UNL     1       4.502  39.159  49.428  1.00  0.00     0.210 HD
ENDBRANCH  29  30
BRANCH  29  32
HETATM   32  C13 UNL     1       3.684  40.305  47.903  1.00  0.00     0.217 C 
BRANCH  32  33
HETATM   33  O6  UNL     1       3.035  41.478  47.415  1.00  0.00    -0.280 OA
BRANCH  33  34
HETATM   34  P1  UNL     1       2.607  41.268  45.802  1.00  0.00     0.422 P 
HETATM   35  O7  UNL     1       3.422  40.155  45.232  1.00  0.00    -0.617 OA
HETATM   36  O8  UNL     1       2.872  42.663  44.890  1.00  0.00    -0.617 OA
HETATM   37  O9  UNL     1       0.968  40.849  45.643  1.00  0.00    -0.617 OA
ENDBRANCH  33  34
ENDBRANCH  32  33
ENDBRANCH  29  32
ENDBRANCH  26  29
ENDBRANCH  23  26
ENDBRANCH  22  23
ENDBRANCH  17  22
TORSDOF 10
ENDMDL
