MODEL 5
REMARK VINA RESULT: -9.436001273      2.262      4.683
REMARK  10 active torsions:
REMARK  status: ('A' for Active; 'I' for Inactive)
REMARK    1  A    between atoms: N4_17  and  C9_18 
REMARK    2  A    between atoms: C9_18  and  C10_19 
REMARK    3  A    between atoms: C10_19  and  O3_20 
REMARK    4  A    between atoms: C10_19  and  C11_22 
REMARK    5  A    between atoms: C11_22  and  O4_23 
REMARK    6  A    between atoms: C11_22  and  C12_25 
REMARK    7  A    between atoms: C12_25  and  O5_26 
REMARK    8  A    between atoms: C12_25  and  C13_28 
REMARK    9  A    between atoms: C13_28  and  O6_29 
REMARK   10  A    between atoms: O6_29  and  P1_30 
ROOT
HETATM    1  C1  UNL     1       1.910  47.539  53.971  1.00  0.00     0.049 C 
HETATM    2  C2  UNL     1       2.620  46.313  53.532  1.00  0.00    -0.054 A 
HETATM    3  C3  UNL     1       3.936  46.364  53.127  1.00  0.00     0.039 A 
HETATM    4  C4  UNL     1       4.624  45.234  52.712  1.00  0.00     0.060 A 
HETATM    5  N1  UNL     1       5.910  45.343  52.333  1.00  0.00    -0.347 N 
ATOM      6  H1  UNL     1       6.364  46.256  52.351  1.00  0.00     0.166 HD
HETATM    7  C5  UNL     1       6.599  44.268  51.934  1.00  0.00     0.146 A 
HETATM    8  C6  UNL     1       7.939  44.328  51.530  1.00  0.00     0.280 A 
HETATM    9  O1  UNL     1       8.500  45.439  51.549  1.00  0.00    -0.265 OA
HETATM   10  N2  UNL     1       8.575  43.197  51.137  1.00  0.00    -0.273 N 
ATOM     11  H2  UNL     1       9.550  43.236  50.841  1.00  0.00     0.173 HD
HETATM   12  C7  UNL     1       7.920  42.022  51.135  1.00  0.00     0.328 A 
HETATM   13  O2  UNL     1       8.568  41.011  50.760  1.00  0.00    -0.247 OA
HETATM   14  N3  UNL     1       6.614  41.918  51.521  1.00  0.00    -0.292 N 
ATOM     15  H3  UNL     1       6.159  41.005  51.504  1.00  0.00     0.172 HD
HETATM   16  C8  UNL     1       5.917  42.991  51.924  1.00  0.00     0.145 A 
HETATM   17  N4  UNL     1       4.607  42.928  52.317  1.00  0.00    -0.327 N 
HETATM   18  C14 UNL     1       3.931  44.017  52.716  1.00  0.00     0.063 A 
HETATM   19  C15 UNL     1       2.612  43.957  53.121  1.00  0.00     0.039 A 
HETATM   20  C16 UNL     1       1.955  45.102  53.529  1.00  0.00    -0.054 A 
HETATM   21  C17 UNL     1       0.538  45.056  53.967  1.00  0.00     0.049 C 
ENDROOT
BRANCH  17  22
HETATM   22  C9  UNL     1       3.973  41.628  52.289  1.00  0.00     0.165 C 
BRANCH  22  23
HETATM   23  C10 UNL     1       2.925  41.642  51.168  1.00  0.00     0.167 C 
BRANCH  23  24
HETATM   24  O3  UNL     1       1.936  40.711  51.319  1.00  0.00    -0.391 OA
ATOM     25  H3  UNL     1       2.248  39.813  51.323  1.00  0.00     0.210 HD
ENDBRANCH  23  24
BRANCH  23  26
HETATM   26  C11 UNL     1       3.493  41.660  49.822  1.00  0.00     0.179 C 
BRANCH  26  27
HETATM   27  O4  UNL     1       2.761  42.518  48.996  1.00  0.00    -0.390 OA
ATOM     28  H4  UNL     1       3.179  42.596  48.146  1.00  0.00     0.210 HD
ENDBRANCH  26  27
BRANCH  26  29
HETATM   29  C12 UNL     1       3.852  40.441  49.095  1.00  0.00     0.173 C 
BRANCH  29  30
HETATM   30  O5  UNL     1       5.222  40.656  48.691  1.00  0.00    -0.391 OA
ATOM     31  H5  UNL     1       5.390  39.971  48.054  1.00  0.00     0.210 HD
ENDBRANCH  29  30
BRANCH  29  32
HETATM   32  C13 UNL     1       3.164  40.235  47.749  1.00  0.00     0.217 C 
BRANCH  32  33
HETATM   33  O6  UNL     1       3.674  41.197  46.827  1.00  0.00    -0.280 OA
BRANCH  33  34
HETATM   34  P1  UNL     1       2.646  41.321  45.501  1.00  0.00     0.422 P 
HETATM   35  O7  UNL     1       3.092  40.350  44.459  1.00  0.00    -0.617 OA
HETATM   36  O8  UNL     1       2.652  42.874  44.839  1.00  0.00    -0.617 OA
HETATM   37  O9  UNL     1       1.044  40.942  45.919  1.00  0.00    -0.617 OA
ENDBRANCH  33  34
ENDBRANCH  32  33
ENDBRANCH  29  32
ENDBRANCH  26  29
ENDBRANCH  23  26
ENDBRANCH  22  23
ENDBRANCH  17  22
TORSDOF 10
ENDMDL
