MODEL 6
REMARK VINA RESULT: -9.210753350      1.103      1.502
REMARK  6 active torsions:
REMARK  status: ('A' for Active; 'I' for Inactive)
REMARK    1  A    between atoms: C1_2  and  C2_4 
REMARK    2  A    between atoms: C2_4  and  C3_5 
REMARK    3  A    between atoms: C3_5  and  N1_6 
REMARK    4  A    between atoms: C3_5  and  C6_15 
REMARK       I    between atoms: N1_6  and  C4_8 
REMARK    5  A    between atoms: C4_8  and  C5_10 
REMARK    6  A    between atoms: C5_10  and  P1_11 
ROOT
HETATM    1  N1  UNL     1      42.644  29.409  17.511  1.00  0.00    -0.345 N 
ATOM      2  H1  UNL     1      43.001  28.697  18.148  1.00  0.00     0.163 HD
HETATM    3  C4  UNL     1      43.142  29.527  16.217  1.00  0.00     0.231 C 
HETATM    4  O3  UNL     1      42.726  30.397  15.434  1.00  0.00    -0.273 OA
ENDROOT
BRANCH   1   5
HETATM    5  C3  UNL     1      41.594  30.337  17.932  1.00  0.00     0.195 C 
BRANCH   5   6
HETATM    6  C2  UNL     1      40.882  29.671  19.082  1.00  0.00     0.149 C 
BRANCH   6   7
HETATM    7  C1  UNL     1      39.482  30.158  19.151  1.00  0.00     0.175 C 
HETATM    8  O1  UNL     1      38.584  29.279  19.056  1.00  0.00    -0.648 OA
HETATM    9  O2  UNL     1      39.141  31.488  19.305  1.00  0.00    -0.648 OA
ENDBRANCH   6   7
ENDBRANCH   5   6
BRANCH   5  10
HETATM   10  C6  UNL     1      42.180  31.661  18.288  1.00  0.00     0.197 C 
HETATM   11  O7  UNL     1      42.607  31.817  19.462  1.00  0.00    -0.646 OA
HETATM   12  O8  UNL     1      42.281  32.712  17.401  1.00  0.00    -0.646 OA
ENDBRANCH   5  10
ENDBRANCH   1   5
BRANCH   3  13
HETATM   13  C5  UNL     1      44.220  28.603  15.684  1.00  0.00     0.248 C 
BRANCH  13  14
HETATM   14  P1  UNL     1      45.803  29.314  15.670  1.00  0.00     0.268 P 
HETATM   15  O4  UNL     1      47.151  28.352  16.121  1.00  0.00    -0.639 OA
HETATM   16  O5  UNL     1      45.800  29.750  17.154  1.00  0.00    -0.639 OA
HETATM   17  O6  UNL     1      46.095  30.805  15.087  1.00  0.00    -0.639 OA
ENDBRANCH  13  14
ENDBRANCH   3  13
TORSDOF 6
ENDMDL
