MODEL 5
REMARK VINA RESULT: -9.270357275      1.346      2.144
REMARK  6 active torsions:
REMARK  status: ('A' for Active; 'I' for Inactive)
REMARK    1  A    between atoms: C1_2  and  C2_4 
REMARK    2  A    between atoms: C2_4  and  C3_5 
REMARK    3  A    between atoms: C3_5  and  N1_6 
REMARK    4  A    between atoms: C3_5  and  C6_15 
REMARK       I    between atoms: N1_6  and  C4_8 
REMARK    5  A    between atoms: C4_8  and  C5_10 
REMARK    6  A    between atoms: C5_10  and  P1_11 
ROOT
HETATM    1  N1  UNL     1      42.059  29.268  17.344  1.00  0.00    -0.345 N 
ATOM      2  H1  UNL     1      42.053  28.250  17.276  1.00  0.00     0.163 HD
HETATM    3  C4  UNL     1      42.903  30.033  16.545  1.00  0.00     0.231 C 
HETATM    4  O3  UNL     1      42.931  31.272  16.625  1.00  0.00    -0.273 OA
ENDROOT
BRANCH   1   5
HETATM    5  C3  UNL     1      41.183  29.965  18.284  1.00  0.00     0.195 C 
BRANCH   5   6
HETATM    6  C2  UNL     1      39.929  29.134  18.385  1.00  0.00     0.149 C 
BRANCH   6   7
HETATM    7  C1  UNL     1      38.967  29.789  19.306  1.00  0.00     0.175 C 
HETATM    8  O1  UNL     1      38.467  29.056  20.199  1.00  0.00    -0.648 OA
HETATM    9  O2  UNL     1      38.612  31.122  19.219  1.00  0.00    -0.648 OA
ENDBRANCH   6   7
ENDBRANCH   5   6
BRANCH   5  10
HETATM   10  C6  UNL     1      41.869  30.156  19.594  1.00  0.00     0.197 C 
HETATM   11  O7  UNL     1      42.212  29.128  20.233  1.00  0.00    -0.646 OA
HETATM   12  O8  UNL     1      42.149  31.395  20.133  1.00  0.00    -0.646 OA
ENDBRANCH   5  10
ENDBRANCH   1   5
BRANCH   3  13
HETATM   13  C5  UNL     1      43.838  29.403  15.530  1.00  0.00     0.248 C 
BRANCH  13  14
HETATM   14  P1  UNL     1      45.494  29.354  16.045  1.00  0.00     0.268 P 
HETATM   15  O4  UNL     1      45.971  30.285  17.405  1.00  0.00    -0.639 OA
HETATM   16  O5  UNL     1      45.958  30.578  15.224  1.00  0.00    -0.639 OA
HETATM   17  O6  UNL     1      46.587  28.333  15.403  1.00  0.00    -0.639 OA
ENDBRANCH  13  14
ENDBRANCH   3  13
TORSDOF 6
ENDMDL
