MODEL 2
REMARK VINA RESULT: -9.771693631      0.317      1.133
REMARK  6 active torsions:
REMARK  status: ('A' for Active; 'I' for Inactive)
REMARK    1  A    between atoms: C1_2  and  C2_4 
REMARK    2  A    between atoms: C2_4  and  C3_5 
REMARK    3  A    between atoms: C3_5  and  N1_6 
REMARK    4  A    between atoms: C3_5  and  C6_15 
REMARK       I    between atoms: N1_6  and  C4_8 
REMARK    5  A    between atoms: C4_8  and  C5_10 
REMARK    6  A    between atoms: C5_10  and  P1_11 
ROOT
HETATM    1  N1  UNL     1      42.701  29.539  17.188  1.00  0.00    -0.345 N 
ATOM      2  H1  UNL     1      43.049  28.818  17.820  1.00  0.00     0.163 HD
HETATM    3  C4  UNL     1      43.230  29.686  15.909  1.00  0.00     0.231 C 
HETATM    4  O3  UNL     1      42.825  30.566  15.133  1.00  0.00    -0.273 OA
ENDROOT
BRANCH   1   5
HETATM    5  C3  UNL     1      41.633  30.448  17.600  1.00  0.00     0.195 C 
BRANCH   5   6
HETATM    6  C2  UNL     1      40.651  29.616  18.384  1.00  0.00     0.149 C 
BRANCH   6   7
HETATM    7  C1  UNL     1      41.295  29.122  19.627  1.00  0.00     0.175 C 
HETATM    8  O1  UNL     1      40.522  28.642  20.498  1.00  0.00    -0.648 OA
HETATM    9  O2  UNL     1      42.656  29.171  19.855  1.00  0.00    -0.648 OA
ENDBRANCH   6   7
ENDBRANCH   5   6
BRANCH   5  10
HETATM   10  C6  UNL     1      42.191  31.590  18.380  1.00  0.00     0.197 C 
HETATM   11  O7  UNL     1      43.395  31.900  18.186  1.00  0.00    -0.646 OA
HETATM   12  O8  UNL     1      41.457  32.321  19.291  1.00  0.00    -0.646 OA
ENDBRANCH   5  10
ENDBRANCH   1   5
BRANCH   3  13
HETATM   13  C5  UNL     1      44.329  28.781  15.386  1.00  0.00     0.248 C 
BRANCH  13  14
HETATM   14  P1  UNL     1      45.881  29.087  16.101  1.00  0.00     0.268 P 
HETATM   15  O4  UNL     1      46.011  30.278  17.329  1.00  0.00    -0.639 OA
HETATM   16  O5  UNL     1      46.279  30.235  15.145  1.00  0.00    -0.639 OA
HETATM   17  O6  UNL     1      47.193  28.178  15.782  1.00  0.00    -0.639 OA
ENDBRANCH  13  14
ENDBRANCH   3  13
TORSDOF 6
ENDMDL
