MODEL 4
REMARK VINA RESULT: -9.493035778      0.984      1.659
REMARK  6 active torsions:
REMARK  status: ('A' for Active; 'I' for Inactive)
REMARK    1  A    between atoms: C1_2  and  C2_4 
REMARK    2  A    between atoms: C2_4  and  C3_5 
REMARK    3  A    between atoms: C3_5  and  N1_6 
REMARK    4  A    between atoms: C3_5  and  C6_15 
REMARK       I    between atoms: N1_6  and  C4_8 
REMARK    5  A    between atoms: C4_8  and  C5_10 
REMARK    6  A    between atoms: C5_10  and  P1_11 
ROOT
HETATM    1  N1  UNL     1      43.132  29.647  17.467  1.00  0.00    -0.345 N 
ATOM      2  H1  UNL     1      43.956  29.336  17.981  1.00  0.00     0.163 HD
HETATM    3  C4  UNL     1      43.085  29.572  16.078  1.00  0.00     0.231 C 
HETATM    4  O3  UNL     1      42.094  29.959  15.437  1.00  0.00    -0.273 OA
ENDROOT
BRANCH   1   5
HETATM    5  C3  UNL     1      41.967  30.185  18.167  1.00  0.00     0.195 C 
BRANCH   5   6
HETATM    6  C2  UNL     1      41.844  29.396  19.446  1.00  0.00     0.149 C 
BRANCH   6   7
HETATM    7  C1  UNL     1      40.439  28.951  19.625  1.00  0.00     0.175 C 
HETATM    8  O1  UNL     1      40.245  28.070  20.504  1.00  0.00    -0.648 OA
HETATM    9  O2  UNL     1      39.380  29.446  18.889  1.00  0.00    -0.648 OA
ENDBRANCH   6   7
ENDBRANCH   5   6
BRANCH   5  10
HETATM   10  C6  UNL     1      42.124  31.651  18.392  1.00  0.00     0.197 C 
HETATM   11  O7  UNL     1      42.204  32.057  19.580  1.00  0.00    -0.646 OA
HETATM   12  O8  UNL     1      42.190  32.575  17.370  1.00  0.00    -0.646 OA
ENDBRANCH   5  10
ENDBRANCH   1   5
BRANCH   3  13
HETATM   13  C5  UNL     1      44.238  29.016  15.264  1.00  0.00     0.248 C 
BRANCH  13  14
HETATM   14  P1  UNL     1      45.785  29.206  16.027  1.00  0.00     0.268 P 
HETATM   15  O4  UNL     1      45.933  30.291  17.348  1.00  0.00    -0.639 OA
HETATM   16  O5  UNL     1      46.243  30.409  15.172  1.00  0.00    -0.639 OA
HETATM   17  O6  UNL     1      47.069  28.276  15.660  1.00  0.00    -0.639 OA
ENDBRANCH  13  14
ENDBRANCH   3  13
TORSDOF 6
ENDMDL
