MODEL 11
REMARK VINA RESULT: -8.636245743      2.162      5.626
REMARK  6 active torsions:
REMARK  status: ('A' for Active; 'I' for Inactive)
REMARK    1  A    between atoms: C1_2  and  C2_4 
REMARK    2  A    between atoms: C2_4  and  C3_5 
REMARK    3  A    between atoms: C3_5  and  N1_6 
REMARK    4  A    between atoms: C3_5  and  C6_15 
REMARK       I    between atoms: N1_6  and  C4_8 
REMARK    5  A    between atoms: C4_8  and  C5_10 
REMARK    6  A    between atoms: C5_10  and  P1_11 
ROOT
HETATM    1  N1  UNL     1      42.853  29.876  17.550  1.00  0.00    -0.345 N 
ATOM      2  H1  UNL     1      42.652  28.999  18.031  1.00  0.00     0.163 HD
HETATM    3  C4  UNL     1      42.261  31.068  17.958  1.00  0.00     0.231 C 
HETATM    4  O3  UNL     1      42.487  32.141  17.376  1.00  0.00    -0.273 OA
ENDROOT
BRANCH   1   5
HETATM    5  C3  UNL     1      43.770  29.917  16.412  1.00  0.00     0.195 C 
BRANCH   5   6
HETATM    6  C2  UNL     1      44.941  29.045  16.785  1.00  0.00     0.149 C 
BRANCH   6   7
HETATM    7  C1  UNL     1      46.105  29.377  15.925  1.00  0.00     0.175 C 
HETATM    8  O1  UNL     1      46.985  28.483  15.815  1.00  0.00    -0.648 OA
HETATM    9  O2  UNL     1      46.252  30.584  15.270  1.00  0.00    -0.648 OA
ENDBRANCH   6   7
ENDBRANCH   5   6
BRANCH   5  10
HETATM   10  C6  UNL     1      43.077  29.473  15.168  1.00  0.00     0.197 C 
HETATM   11  O7  UNL     1      41.921  28.992  15.280  1.00  0.00    -0.646 OA
HETATM   12  O8  UNL     1      43.636  29.569  13.910  1.00  0.00    -0.646 OA
ENDBRANCH   5  10
ENDBRANCH   1   5
BRANCH   3  13
HETATM   13  C5  UNL     1      41.309  31.129  19.137  1.00  0.00     0.248 C 
BRANCH  13  14
HETATM   14  P1  UNL     1      40.203  29.794  19.209  1.00  0.00     0.268 P 
HETATM   15  O4  UNL     1      38.774  29.947  20.146  1.00  0.00    -0.639 OA
HETATM   16  O5  UNL     1      40.799  29.155  20.484  1.00  0.00    -0.639 OA
HETATM   17  O6  UNL     1      40.370  28.460  18.292  1.00  0.00    -0.639 OA
ENDBRANCH  13  14
ENDBRANCH   3  13
TORSDOF 6
ENDMDL
