MODEL 2
REMARK VINA RESULT: -8.947185810      0.972      1.433
REMARK  8 active torsions:
REMARK  status: ('A' for Active; 'I' for Inactive)
REMARK    1  A    between atoms: N4_10  and  C5_11 
REMARK    2  A    between atoms: C6_13  and  C7_14 
REMARK    3  A    between atoms: C7_14  and  O2_15 
REMARK    4  A    between atoms: O2_15  and  P1_16 
REMARK    5  A    between atoms: P1_16  and  O5_19 
REMARK    6  A    between atoms: O5_19  and  P2_20 
REMARK    7  A    between atoms: C8_24  and  O9_25 
REMARK    8  A    between atoms: C9_27  and  O10_28 
ROOT
HETATM    1  C5  UNL     1      13.413 -13.646  46.584  1.00  0.00     0.262 C 
HETATM    2  O1  UNL     1      13.371 -13.007  47.819  1.00  0.00    -0.353 OA
HETATM    3  C6  UNL     1      14.299 -13.668  48.626  1.00  0.00     0.180 C 
HETATM    4  C8  UNL     1      15.465 -13.791  47.710  1.00  0.00     0.182 C 
HETATM    5  C9  UNL     1      14.776 -14.263  46.443  1.00  0.00     0.198 C 
ENDROOT
BRANCH   1   6
HETATM    6  N4  UNL     1      13.111 -12.794  45.476  1.00  0.00    -0.297 N 
HETATM    7  C2  UNL     1      12.247 -13.040  44.447  1.00  0.00     0.146 A 
HETATM    8  N2  UNL     1      11.481 -14.121  44.226  1.00  0.00    -0.314 N 
HETATM    9  C3  UNL     1      12.258 -11.948  43.589  1.00  0.00     0.146 A 
HETATM   10  C1  UNL     1      10.683 -14.166  43.131  1.00  0.00     0.196 A 
ATOM     11  H2  UNL     1      11.500 -14.904  44.879  1.00  0.00     0.170 HD
HETATM   12  N1  UNL     1       9.857 -15.281  42.852  1.00  0.00    -0.063 NA
HETATM   13  N5  UNL     1      10.705 -13.093  42.304  1.00  0.00    -0.295 N 
HETATM   14  C10 UNL     1      11.439 -12.007  42.476  1.00  0.00     0.278 A 
ATOM     15  H5  UNL     1      10.104 -13.126  41.479  1.00  0.00     0.171 HD
HETATM   16  O11 UNL     1      11.453 -11.018  41.704  1.00  0.00    -0.265 OA
HETATM   17  N3  UNL     1      13.112 -11.066  44.096  1.00  0.00    -0.345 N 
HETATM   18  C4  UNL     1      13.625 -11.577  45.232  1.00  0.00     0.188 A 
ATOM     19  H3  UNL     1      13.341 -10.157  43.693  1.00  0.00     0.167 HD
ENDBRANCH   1   6
BRANCH   5  20
HETATM   20  O10 UNL     1      14.740 -15.663  46.467  1.00  0.00    -0.388 OA
ATOM     21  H10 UNL     1      15.367 -16.034  47.077  1.00  0.00     0.210 HD
ENDBRANCH   5  20
BRANCH   3  22
HETATM   22  C7  UNL     1      14.560 -12.949  49.900  1.00  0.00     0.216 C 
BRANCH  22  23
HETATM   23  O2  UNL     1      15.828 -12.523  50.100  1.00  0.00    -0.287 OA
BRANCH  23  24
HETATM   24  P1  UNL     1      16.160 -10.954  50.165  1.00  0.00     0.418 P 
HETATM   25  O3  UNL     1      16.320 -10.067  48.726  1.00  0.00    -0.624 OA
HETATM   26  O4  UNL     1      14.718 -10.476  50.292  1.00  0.00    -0.624 OA
BRANCH  24  27
HETATM   27  O5  UNL     1      16.556 -10.204  51.586  1.00  0.00    -0.173 OA
BRANCH  27  28
HETATM   28  P2  UNL     1      16.241 -11.057  52.938  1.00  0.00     0.431 P 
HETATM   29  O6  UNL     1      16.675 -12.614  53.146  1.00  0.00    -0.616 OA
HETATM   30  O7  UNL     1      17.476 -10.504  53.665  1.00  0.00    -0.616 OA
HETATM   31  O8  UNL     1      15.297 -10.364  54.163  1.00  0.00    -0.616 OA
ENDBRANCH  27  28
ENDBRANCH  24  27
ENDBRANCH  23  24
ENDBRANCH  22  23
ENDBRANCH   3  22
BRANCH   4  32
HETATM   32  O9  UNL     1      16.360 -14.787  48.074  1.00  0.00    -0.390 OA
ATOM     33  H9  UNL     1      17.105 -14.866  47.489  1.00  0.00     0.210 HD
ENDBRANCH   4  32
TORSDOF 8
ENDMDL
