MODEL 7
REMARK VINA RESULT: -8.279303018      5.711      9.129
REMARK  8 active torsions:
REMARK  status: ('A' for Active; 'I' for Inactive)
REMARK    1  A    between atoms: N4_10  and  C5_11 
REMARK    2  A    between atoms: C6_13  and  C7_14 
REMARK    3  A    between atoms: C7_14  and  O2_15 
REMARK    4  A    between atoms: O2_15  and  P1_16 
REMARK    5  A    between atoms: P1_16  and  O5_19 
REMARK    6  A    between atoms: O5_19  and  P2_20 
REMARK    7  A    between atoms: C8_24  and  O9_25 
REMARK    8  A    between atoms: C9_27  and  O10_28 
ROOT
HETATM    1  C5  UNL     1      15.667 -11.076  52.046  1.00  0.00     0.262 C 
HETATM    2  O1  UNL     1      15.246 -12.178  51.310  1.00  0.00    -0.353 OA
HETATM    3  C6  UNL     1      15.136 -11.740  49.990  1.00  0.00     0.180 C 
HETATM    4  C8  UNL     1      16.395 -10.966  49.820  1.00  0.00     0.182 C 
HETATM    5  C9  UNL     1      16.405 -10.163  51.107  1.00  0.00     0.198 C 
ENDROOT
BRANCH   1   6
HETATM    6  N4  UNL     1      16.466 -11.404  53.185  1.00  0.00    -0.297 N 
HETATM    7  C2  UNL     1      17.262 -12.502  53.356  1.00  0.00     0.146 A 
HETATM    8  N2  UNL     1      17.485 -13.523  52.513  1.00  0.00    -0.314 N 
HETATM    9  C3  UNL     1      17.858 -12.426  54.608  1.00  0.00     0.146 A 
HETATM   10  C1  UNL     1      18.321 -14.526  52.880  1.00  0.00     0.196 A 
ATOM     11  H2  UNL     1      17.029 -13.544  51.601  1.00  0.00     0.170 HD
HETATM   12  N1  UNL     1      18.591 -15.625  52.030  1.00  0.00    -0.063 NA
HETATM   13  N5  UNL     1      18.895 -14.438  54.105  1.00  0.00    -0.295 N 
HETATM   14  C10 UNL     1      18.707 -13.455  54.969  1.00  0.00     0.278 A 
ATOM     15  H5  UNL     1      19.524 -15.191  54.382  1.00  0.00     0.171 HD
HETATM   16  O11 UNL     1      19.244 -13.382  56.101  1.00  0.00    -0.265 OA
HETATM   17  N3  UNL     1      17.427 -11.304  55.175  1.00  0.00    -0.345 N 
HETATM   18  C4  UNL     1      16.589 -10.690  54.317  1.00  0.00     0.188 A 
ATOM     19  H3  UNL     1      17.687 -10.966  56.101  1.00  0.00     0.167 HD
ENDBRANCH   1   6
BRANCH   5  20
HETATM   20  O10 UNL     1      15.722  -8.963  50.872  1.00  0.00    -0.388 OA
ATOM     21  H10 UNL     1      16.248  -8.198  51.070  1.00  0.00     0.210 HD
ENDBRANCH   5  20
BRANCH   3  22
HETATM   22  C7  UNL     1      14.940 -12.860  49.032  1.00  0.00     0.216 C 
BRANCH  22  23
HETATM   23  O2  UNL     1      15.921 -13.050  48.122  1.00  0.00    -0.287 OA
BRANCH  23  24
HETATM   24  P1  UNL     1      15.770 -14.169  46.980  1.00  0.00     0.418 P 
HETATM   25  O3  UNL     1      17.153 -14.934  46.363  1.00  0.00    -0.624 OA
HETATM   26  O4  UNL     1      15.544 -15.347  47.921  1.00  0.00    -0.624 OA
BRANCH  24  27
HETATM   27  O5  UNL     1      14.323 -14.462  46.233  1.00  0.00    -0.173 OA
BRANCH  27  28
HETATM   28  P2  UNL     1      13.668 -13.191  45.452  1.00  0.00     0.431 P 
HETATM   29  O6  UNL     1      13.769 -11.653  45.985  1.00  0.00    -0.616 OA
HETATM   30  O7  UNL     1      14.871 -13.056  44.507  1.00  0.00    -0.616 OA
HETATM   31  O8  UNL     1      12.709 -13.456  44.080  1.00  0.00    -0.616 OA
ENDBRANCH  27  28
ENDBRANCH  24  27
ENDBRANCH  23  24
ENDBRANCH  22  23
ENDBRANCH   3  22
BRANCH   4  32
HETATM   32  O9  UNL     1      16.354 -10.052  48.778  1.00  0.00    -0.390 OA
ATOM     33  H9  UNL     1      17.066 -10.147  48.155  1.00  0.00     0.210 HD
ENDBRANCH   4  32
TORSDOF 8
ENDMDL
