MODEL 1
REMARK VINA RESULT: -9.428798657      0.000      0.000
REMARK  8 active torsions:
REMARK  status: ('A' for Active; 'I' for Inactive)
REMARK    1  A    between atoms: N4_10  and  C5_11 
REMARK    2  A    between atoms: C6_13  and  C7_14 
REMARK    3  A    between atoms: C7_14  and  O2_15 
REMARK    4  A    between atoms: O2_15  and  P1_16 
REMARK    5  A    between atoms: P1_16  and  O5_19 
REMARK    6  A    between atoms: O5_19  and  P2_20 
REMARK    7  A    between atoms: C8_24  and  O9_25 
REMARK    8  A    between atoms: C9_27  and  O10_28 
ROOT
HETATM    1  C5  UNL     1      13.397 -13.930  46.493  1.00  0.00     0.262 C 
HETATM    2  O1  UNL     1      13.448 -13.365  47.762  1.00  0.00    -0.353 OA
HETATM    3  C6  UNL     1      14.370 -14.123  48.485  1.00  0.00     0.180 C 
HETATM    4  C8  UNL     1      15.485 -14.256  47.509  1.00  0.00     0.182 C 
HETATM    5  C9  UNL     1      14.714 -14.612  46.252  1.00  0.00     0.198 C 
ENDROOT
BRANCH   1   6
HETATM    6  N4  UNL     1      13.097 -12.998  45.451  1.00  0.00    -0.297 N 
HETATM    7  C2  UNL     1      12.238 -13.169  44.402  1.00  0.00     0.146 A 
HETATM    8  N2  UNL     1      11.479 -14.234  44.096  1.00  0.00    -0.314 N 
HETATM    9  C3  UNL     1      12.248 -12.016  43.628  1.00  0.00     0.146 A 
HETATM   10  C1  UNL     1      10.686 -14.200  42.996  1.00  0.00     0.196 A 
ATOM     11  H2  UNL     1      11.498 -15.064  44.688  1.00  0.00     0.170 HD
HETATM   12  N1  UNL     1       9.867 -15.294  42.630  1.00  0.00    -0.063 NA
HETATM   13  N5  UNL     1      10.707 -13.067  42.252  1.00  0.00    -0.295 N 
HETATM   14  C10 UNL     1      11.435 -11.994  42.511  1.00  0.00     0.278 A 
ATOM     15  H5  UNL     1      10.110 -13.040  41.425  1.00  0.00     0.171 HD
HETATM   16  O11 UNL     1      11.447 -10.950  41.816  1.00  0.00    -0.265 OA
HETATM   17  N3  UNL     1      13.096 -11.171  44.205  1.00  0.00    -0.345 N 
HETATM   18  C4  UNL     1      13.606 -11.764  45.302  1.00  0.00     0.188 A 
ATOM     19  H3  UNL     1      13.321 -10.233  43.874  1.00  0.00     0.167 HD
ENDBRANCH   1   6
BRANCH   5  20
HETATM   20  O10 UNL     1      14.598 -16.007  46.198  1.00  0.00    -0.388 OA
ATOM     21  H10 UNL     1      15.207 -16.448  46.778  1.00  0.00     0.210 HD
ENDBRANCH   5  20
BRANCH   3  22
HETATM   22  C7  UNL     1      14.729 -13.497  49.784  1.00  0.00     0.216 C 
BRANCH  22  23
HETATM   23  O2  UNL     1      15.899 -12.820  49.822  1.00  0.00    -0.287 OA
BRANCH  23  24
HETATM   24  P1  UNL     1      15.919 -11.239  50.099  1.00  0.00     0.418 P 
HETATM   25  O3  UNL     1      16.285 -10.168  48.835  1.00  0.00    -0.624 OA
HETATM   26  O4  UNL     1      14.431 -11.003  49.861  1.00  0.00    -0.624 OA
BRANCH  24  27
HETATM   27  O5  UNL     1      15.793 -10.620  51.628  1.00  0.00    -0.173 OA
BRANCH  27  28
HETATM   28  P2  UNL     1      15.250  -9.086  51.719  1.00  0.00     0.431 P 
HETATM   29  O6  UNL     1      13.699  -8.659  51.455  1.00  0.00    -0.616 OA
HETATM   30  O7  UNL     1      15.083  -9.156  53.245  1.00  0.00    -0.616 OA
HETATM   31  O8  UNL     1      16.352  -7.822  51.969  1.00  0.00    -0.616 OA
ENDBRANCH  27  28
ENDBRANCH  24  27
ENDBRANCH  23  24
ENDBRANCH  22  23
ENDBRANCH   3  22
BRANCH   4  32
HETATM   32  O9  UNL     1      16.336 -15.320  47.772  1.00  0.00    -0.390 OA
ATOM     33  H9  UNL     1      17.229 -15.058  47.965  1.00  0.00     0.210 HD
ENDBRANCH   4  32
TORSDOF 8
ENDMDL
