MODEL 8
REMARK VINA RESULT: -8.238969367      5.667      9.281
REMARK  8 active torsions:
REMARK  status: ('A' for Active; 'I' for Inactive)
REMARK    1  A    between atoms: N4_10  and  C5_11 
REMARK    2  A    between atoms: C6_13  and  C7_14 
REMARK    3  A    between atoms: C7_14  and  O2_15 
REMARK    4  A    between atoms: O2_15  and  P1_16 
REMARK    5  A    between atoms: P1_16  and  O5_19 
REMARK    6  A    between atoms: O5_19  and  P2_20 
REMARK    7  A    between atoms: C8_24  and  O9_25 
REMARK    8  A    between atoms: C9_27  and  O10_28 
ROOT
HETATM    1  C5  UNL     1      15.622 -11.069  51.981  1.00  0.00     0.262 C 
HETATM    2  O1  UNL     1      15.215 -12.162  51.224  1.00  0.00    -0.353 OA
HETATM    3  C6  UNL     1      15.120 -11.705  49.908  1.00  0.00     0.180 C 
HETATM    4  C8  UNL     1      16.380 -10.925  49.766  1.00  0.00     0.182 C 
HETATM    5  C9  UNL     1      16.370 -10.141  51.065  1.00  0.00     0.198 C 
ENDROOT
BRANCH   1   6
HETATM    6  N4  UNL     1      16.408 -11.412  53.125  1.00  0.00    -0.297 N 
HETATM    7  C2  UNL     1      17.204 -12.510  53.291  1.00  0.00     0.146 A 
HETATM    8  N2  UNL     1      17.440 -13.519  52.437  1.00  0.00    -0.314 N 
HETATM    9  C3  UNL     1      17.784 -12.450  54.552  1.00  0.00     0.146 A 
HETATM   10  C1  UNL     1      18.274 -14.525  52.801  1.00  0.00     0.196 A 
ATOM     11  H2  UNL     1      16.996 -13.528  51.519  1.00  0.00     0.170 HD
HETATM   12  N1  UNL     1      18.557 -15.611  51.939  1.00  0.00    -0.063 NA
HETATM   13  N5  UNL     1      18.832 -14.452  54.034  1.00  0.00    -0.295 N 
HETATM   14  C10 UNL     1      18.631 -13.482  54.910  1.00  0.00     0.278 A 
ATOM     15  H5  UNL     1      19.459 -15.208  54.309  1.00  0.00     0.171 HD
HETATM   16  O11 UNL     1      19.152 -13.423  56.049  1.00  0.00    -0.265 OA
HETATM   17  N3  UNL     1      17.343 -11.337  55.128  1.00  0.00    -0.345 N 
HETATM   18  C4  UNL     1      16.515 -10.713  54.268  1.00  0.00     0.188 A 
ATOM     19  H3  UNL     1      17.590 -11.011  56.062  1.00  0.00     0.167 HD
ENDBRANCH   1   6
BRANCH   5  20
HETATM   20  O10 UNL     1      15.686  -8.940  50.838  1.00  0.00    -0.388 OA
ATOM     21  H10 UNL     1      16.207  -8.308  50.356  1.00  0.00     0.210 HD
ENDBRANCH   5  20
BRANCH   3  22
HETATM   22  C7  UNL     1      14.940 -12.812  48.932  1.00  0.00     0.216 C 
BRANCH  22  23
HETATM   23  O2  UNL     1      15.008 -12.476  47.624  1.00  0.00    -0.287 OA
BRANCH  23  24
HETATM   24  P1  UNL     1      13.719 -12.618  46.677  1.00  0.00     0.418 P 
HETATM   25  O3  UNL     1      13.223 -11.302  45.727  1.00  0.00    -0.624 OA
HETATM   26  O4  UNL     1      14.453 -13.202  45.475  1.00  0.00    -0.624 OA
BRANCH  24  27
HETATM   27  O5  UNL     1      12.730 -13.943  46.743  1.00  0.00    -0.173 OA
BRANCH  27  28
HETATM   28  P2  UNL     1      12.343 -14.600  45.303  1.00  0.00     0.431 P 
HETATM   29  O6  UNL     1      12.870 -16.061  44.805  1.00  0.00    -0.616 OA
HETATM   30  O7  UNL     1      11.004 -15.141  45.825  1.00  0.00    -0.616 OA
HETATM   31  O8  UNL     1      11.458 -13.691  44.180  1.00  0.00    -0.616 OA
ENDBRANCH  27  28
ENDBRANCH  24  27
ENDBRANCH  23  24
ENDBRANCH  22  23
ENDBRANCH   3  22
BRANCH   4  32
HETATM   32  O9  UNL     1      16.349  -9.996  48.736  1.00  0.00    -0.390 OA
ATOM     33  H9  UNL     1      16.611 -10.349  47.893  1.00  0.00     0.210 HD
ENDBRANCH   4  32
TORSDOF 8
ENDMDL
