MODEL 6
REMARK VINA RESULT: -8.286104497      4.233      5.876
REMARK  8 active torsions:
REMARK  status: ('A' for Active; 'I' for Inactive)
REMARK    1  A    between atoms: N4_10  and  C5_11 
REMARK    2  A    between atoms: C6_13  and  C7_14 
REMARK    3  A    between atoms: C7_14  and  O2_15 
REMARK    4  A    between atoms: O2_15  and  P1_16 
REMARK    5  A    between atoms: P1_16  and  O5_19 
REMARK    6  A    between atoms: O5_19  and  P2_20 
REMARK    7  A    between atoms: C8_24  and  O9_25 
REMARK    8  A    between atoms: C9_27  and  O10_28 
ROOT
HETATM    1  C5  UNL     1      15.670 -14.442  47.540  1.00  0.00     0.262 C 
HETATM    2  O1  UNL     1      16.126 -13.164  47.845  1.00  0.00    -0.353 OA
HETATM    3  C6  UNL     1      15.085 -12.538  48.533  1.00  0.00     0.180 C 
HETATM    4  C8  UNL     1      14.668 -13.602  49.487  1.00  0.00     0.182 C 
HETATM    5  C9  UNL     1      14.631 -14.805  48.563  1.00  0.00     0.198 C 
ENDROOT
BRANCH   1   6
HETATM    6  N4  UNL     1      16.702 -15.430  47.475  1.00  0.00    -0.297 N 
HETATM    7  C2  UNL     1      17.725 -15.507  46.573  1.00  0.00     0.146 A 
HETATM    8  N2  UNL     1      18.009 -14.691  45.545  1.00  0.00    -0.314 N 
HETATM    9  C3  UNL     1      18.496 -16.623  46.873  1.00  0.00     0.146 A 
HETATM   10  C1  UNL     1      19.085 -14.950  44.761  1.00  0.00     0.196 A 
ATOM     11  H2  UNL     1      17.420 -13.881  45.355  1.00  0.00     0.170 HD
HETATM   12  N1  UNL     1      19.429 -14.122  43.665  1.00  0.00    -0.063 NA
HETATM   13  N5  UNL     1      19.828 -16.041  45.067  1.00  0.00    -0.295 N 
HETATM   14  C10 UNL     1      19.590 -16.874  46.066  1.00  0.00     0.278 A 
ATOM     15  H5  UNL     1      20.638 -16.236  44.478  1.00  0.00     0.171 HD
HETATM   16  O11 UNL     1      20.284 -17.882  46.342  1.00  0.00    -0.265 OA
HETATM   17  N3  UNL     1      17.945 -17.200  47.936  1.00  0.00    -0.345 N 
HETATM   18  C4  UNL     1      16.864 -16.481  48.296  1.00  0.00     0.188 A 
ATOM     19  H3  UNL     1      18.282 -18.044  48.398  1.00  0.00     0.167 HD
ENDBRANCH   1   6
BRANCH   5  20
HETATM   20  O10 UNL     1      13.343 -14.891  48.019  1.00  0.00    -0.388 OA
ATOM     21  H10 UNL     1      13.180 -14.229  47.357  1.00  0.00     0.210 HD
ENDBRANCH   5  20
BRANCH   3  22
HETATM   22  C7  UNL     1      15.503 -11.253  49.152  1.00  0.00     0.216 C 
BRANCH  22  23
HETATM   23  O2  UNL     1      14.715 -10.780  50.144  1.00  0.00    -0.287 OA
BRANCH  23  24
HETATM   24  P1  UNL     1      15.346  -9.938  51.356  1.00  0.00     0.418 P 
HETATM   25  O3  UNL     1      16.318  -8.587  51.026  1.00  0.00    -0.624 OA
HETATM   26  O4  UNL     1      14.149  -9.018  51.568  1.00  0.00    -0.624 OA
BRANCH  24  27
HETATM   27  O5  UNL     1      15.248 -10.459  52.924  1.00  0.00    -0.173 OA
BRANCH  27  28
HETATM   28  P2  UNL     1      16.328 -11.603  53.349  1.00  0.00     0.431 P 
HETATM   29  O6  UNL     1      17.229 -12.439  52.277  1.00  0.00    -0.616 OA
HETATM   30  O7  UNL     1      17.427 -10.568  53.630  1.00  0.00    -0.616 OA
HETATM   31  O8  UNL     1      16.453 -12.073  54.973  1.00  0.00    -0.616 OA
ENDBRANCH  27  28
ENDBRANCH  24  27
ENDBRANCH  23  24
ENDBRANCH  22  23
ENDBRANCH   3  22
BRANCH   4  32
HETATM   32  O9  UNL     1      13.383 -13.437  49.983  1.00  0.00    -0.390 OA
ATOM     33  H9  UNL     1      12.746 -14.029  49.601  1.00  0.00     0.210 HD
ENDBRANCH   4  32
TORSDOF 8
ENDMDL
