MODEL 12
REMARK VINA RESULT: -9.484089927      2.326      3.535
REMARK  10 active torsions:
REMARK  status: ('A' for Active; 'I' for Inactive)
REMARK    1  A    between atoms: O1_1  and  C1_3 
REMARK    2  A    between atoms: C5_7  and  C6_8 
REMARK    3  A    between atoms: C6_8  and  C7_9 
REMARK    4  A    between atoms: C10_12  and  C11_13 
REMARK    5  A    between atoms: C11_13  and  N1_14 
REMARK    6  A    between atoms: C18_22  and  C19_23 
REMARK    7  A    between atoms: C22_26  and  O2_27 
REMARK    8  A    between atoms: O2_27  and  C23_28 
REMARK    9  A    between atoms: C23_28  and  C24_29 
REMARK   10  A    between atoms: C24_29  and  N2_30 
ROOT
HETATM    1  C1  UNL     1     -23.913 -30.697  23.743  1.00  0.00     0.067 A 
HETATM    2  C2  UNL     1     -22.747 -30.098  23.414  1.00  0.00     0.037 A 
HETATM    3  C3  UNL     1     -21.915 -30.557  22.456  1.00  0.00     0.016 A 
HETATM    4  C4  UNL     1     -22.200 -31.718  21.709  1.00  0.00    -0.011 A 
HETATM    5  C5  UNL     1     -21.450 -32.272  20.730  1.00  0.00    -0.024 A 
HETATM    6  C18 UNL     1     -21.924 -33.399  20.143  1.00  0.00     0.023 A 
HETATM    7  S1  UNL     1     -23.425 -33.653  20.989  1.00  0.00    -0.088 SA
HETATM    8  C31 UNL     1     -23.375 -32.320  22.042  1.00  0.00     0.019 A 
HETATM    9  C32 UNL     1     -24.244 -31.839  23.044  1.00  0.00     0.056 A 
ENDROOT
BRANCH   5  10
HETATM   10  C6  UNL     1     -20.129 -31.656  20.252  1.00  0.00     0.079 C 
BRANCH  10  11
HETATM   11  C7  UNL     1     -18.978 -32.322  20.898  1.00  0.00    -0.052 A 
HETATM   12  C8  UNL     1     -19.151 -33.152  21.995  1.00  0.00     0.008 A 
HETATM   13  C9  UNL     1     -18.118 -33.821  22.621  1.00  0.00     0.011 A 
HETATM   14  C10 UNL     1     -16.817 -33.710  22.189  1.00  0.00    -0.013 A 
HETATM   15  C16 UNL     1     -16.623 -32.877  21.085  1.00  0.00     0.019 A 
HETATM   16 BR1  UNL     1     -14.830 -32.697  20.459  1.00  0.00    -0.050 Br
HETATM   17  C17 UNL     1     -17.668 -32.217  20.474  1.00  0.00     0.027 A 
BRANCH  14  18
HETATM   18  C11 UNL     1     -15.661 -34.401  22.813  1.00  0.00     0.312 C 
BRANCH  18  19
HETATM   19  N1  UNL     1     -15.140 -33.788  23.988  1.00  0.00     0.092 N 
HETATM   20  C12 UNL     1     -15.654 -34.372  25.192  1.00  0.00     0.273 A 
HETATM   21  C13 UNL     1     -14.526 -34.859  26.038  1.00  0.00     0.032 A 
HETATM   22  C14 UNL     1     -13.288 -34.660  25.230  1.00  0.00     0.032 A 
HETATM   23  C15 UNL     1     -13.687 -33.933  23.998  1.00  0.00     0.273 A 
ENDBRANCH  18  19
ENDBRANCH  14  18
ENDBRANCH  10  11
ENDBRANCH   5  10
BRANCH   6  24
HETATM   24  C19 UNL     1     -21.452 -34.270  19.039  1.00  0.00    -0.018 A 
HETATM   25  C20 UNL     1     -21.509 -35.612  19.002  1.00  0.00     0.015 A 
HETATM   26  C21 UNL     1     -20.963 -36.296  17.929  1.00  0.00     0.037 A 
HETATM   27  C22 UNL     1     -20.342 -35.668  16.855  1.00  0.00     0.068 A 
HETATM   28  C29 UNL     1     -20.293 -34.297  16.903  1.00  0.00     0.037 A 
HETATM   29  C30 UNL     1     -20.829 -33.618  17.958  1.00  0.00     0.015 A 
BRANCH  27  30
HETATM   30  O2  UNL     1     -19.817 -36.400  15.825  1.00  0.00    -0.349 OA
BRANCH  30  31
HETATM   31  C23 UNL     1     -18.931 -37.434  15.840  1.00  0.00     0.206 C 
BRANCH  31  32
HETATM   32  C24 UNL     1     -19.389 -38.817  15.570  1.00  0.00     0.299 C 
BRANCH  32  33
HETATM   33  N2  UNL     1     -19.601 -39.675  16.673  1.00  0.00     0.090 N 
HETATM   34  C25 UNL     1     -18.886 -39.314  17.888  1.00  0.00     0.272 C 
HETATM   35  C26 UNL     1     -19.449 -40.217  18.935  1.00  0.00     0.032 C 
HETATM   36  C27 UNL     1     -20.809 -40.589  18.465  1.00  0.00     0.032 C 
HETATM   37  C28 UNL     1     -20.937 -39.950  17.082  1.00  0.00     0.272 C 
ENDBRANCH  32  33
ENDBRANCH  31  32
ENDBRANCH  30  31
ENDBRANCH  27  30
ENDBRANCH   6  24
BRANCH   1  38
HETATM   38  O1  UNL     1     -24.782 -30.241  24.726  1.00  0.00    -0.361 OA
ATOM     39  H1  UNL     1     -24.978 -29.326  24.888  1.00  0.00     0.217 HD
ENDBRANCH   1  38
TORSDOF 10
ENDMDL
