MODEL 3
REMARK VINA RESULT: -9.976960068      1.972      2.555
REMARK  10 active torsions:
REMARK  status: ('A' for Active; 'I' for Inactive)
REMARK    1  A    between atoms: O1_1  and  C1_3 
REMARK    2  A    between atoms: C5_7  and  C6_8 
REMARK    3  A    between atoms: C6_8  and  C7_9 
REMARK    4  A    between atoms: C10_12  and  C11_13 
REMARK    5  A    between atoms: C11_13  and  N1_14 
REMARK    6  A    between atoms: C18_22  and  C19_23 
REMARK    7  A    between atoms: C22_26  and  O2_27 
REMARK    8  A    between atoms: O2_27  and  C23_28 
REMARK    9  A    between atoms: C23_28  and  C24_29 
REMARK   10  A    between atoms: C24_29  and  N2_30 
ROOT
HETATM    1  C1  UNL     1     -24.096 -31.049  23.388  1.00  0.00     0.067 A 
HETATM    2  C2  UNL     1     -22.942 -30.390  23.145  1.00  0.00     0.037 A 
HETATM    3  C3  UNL     1     -22.025 -30.795  22.242  1.00  0.00     0.016 A 
HETATM    4  C4  UNL     1     -22.201 -31.959  21.465  1.00  0.00    -0.011 A 
HETATM    5  C5  UNL     1     -21.360 -32.462  20.535  1.00  0.00    -0.024 A 
HETATM    6  C18 UNL     1     -21.736 -33.604  19.906  1.00  0.00     0.023 A 
HETATM    7  S1  UNL     1     -23.277 -33.941  20.645  1.00  0.00    -0.088 SA
HETATM    8  C31 UNL     1     -23.364 -32.621  21.712  1.00  0.00     0.019 A 
HETATM    9  C32 UNL     1     -24.322 -32.196  22.657  1.00  0.00     0.056 A 
ENDROOT
BRANCH   5  10
HETATM   10  C6  UNL     1     -20.041 -31.777  20.155  1.00  0.00     0.079 C 
BRANCH  10  11
HETATM   11  C7  UNL     1     -18.902 -32.416  20.845  1.00  0.00    -0.052 A 
HETATM   12  C8  UNL     1     -19.099 -33.265  21.925  1.00  0.00     0.008 A 
HETATM   13  C9  UNL     1     -18.076 -33.911  22.589  1.00  0.00     0.011 A 
HETATM   14  C10 UNL     1     -16.760 -33.756  22.219  1.00  0.00    -0.013 A 
HETATM   15  C16 UNL     1     -16.542 -32.904  21.133  1.00  0.00     0.019 A 
HETATM   16 BR1  UNL     1     -14.729 -32.665  20.592  1.00  0.00    -0.050 Br
HETATM   17  C17 UNL     1     -17.577 -32.269  20.483  1.00  0.00     0.027 A 
BRANCH  14  18
HETATM   18  C11 UNL     1     -15.614 -34.421  22.887  1.00  0.00     0.312 C 
BRANCH  18  19
HETATM   19  N1  UNL     1     -15.109 -33.760  24.043  1.00  0.00     0.092 N 
HETATM   20  C12 UNL     1     -15.685 -34.253  25.260  1.00  0.00     0.273 A 
HETATM   21  C13 UNL     1     -14.605 -34.730  26.171  1.00  0.00     0.032 A 
HETATM   22  C14 UNL     1     -13.334 -34.623  25.398  1.00  0.00     0.032 A 
HETATM   23  C15 UNL     1     -13.664 -33.956  24.112  1.00  0.00     0.273 A 
ENDBRANCH  18  19
ENDBRANCH  14  18
ENDBRANCH  10  11
ENDBRANCH   5  10
BRANCH   6  24
HETATM   24  C19 UNL     1     -21.148 -34.436  18.829  1.00  0.00    -0.018 A 
HETATM   25  C20 UNL     1     -20.748 -34.008  17.620  1.00  0.00     0.015 A 
HETATM   26  C21 UNL     1     -20.281 -34.918  16.686  1.00  0.00     0.037 A 
HETATM   27  C22 UNL     1     -20.195 -36.286  16.924  1.00  0.00     0.068 A 
HETATM   28  C29 UNL     1     -20.605 -36.710  18.163  1.00  0.00     0.037 A 
HETATM   29  C30 UNL     1     -21.066 -35.818  19.087  1.00  0.00     0.015 A 
BRANCH  27  30
HETATM   30  O2  UNL     1     -19.728 -37.136  15.958  1.00  0.00    -0.349 OA
BRANCH  30  31
HETATM   31  C23 UNL     1     -18.570 -37.107  15.243  1.00  0.00     0.206 C 
BRANCH  31  32
HETATM   32  C24 UNL     1     -17.695 -38.300  15.186  1.00  0.00     0.299 C 
BRANCH  32  33
HETATM   33  N2  UNL     1     -16.849 -38.452  14.063  1.00  0.00     0.090 N 
HETATM   34  C25 UNL     1     -16.352 -37.212  13.487  1.00  0.00     0.272 C 
HETATM   35  C26 UNL     1     -15.328 -37.647  12.491  1.00  0.00     0.032 C 
HETATM   36  C27 UNL     1     -14.851 -38.978  12.951  1.00  0.00     0.032 C 
HETATM   37  C28 UNL     1     -15.716 -39.309  14.167  1.00  0.00     0.272 C 
ENDBRANCH  32  33
ENDBRANCH  31  32
ENDBRANCH  30  31
ENDBRANCH  27  30
ENDBRANCH   6  24
BRANCH   1  38
HETATM   38  O1  UNL     1     -25.051 -30.649  24.313  1.00  0.00    -0.361 OA
ATOM     39  H1  UNL     1     -25.382 -31.195  25.016  1.00  0.00     0.217 HD
ENDBRANCH   1  38
TORSDOF 10
ENDMDL
