MODEL 16
REMARK VINA RESULT: -9.297618988      1.948      2.535
REMARK  10 active torsions:
REMARK  status: ('A' for Active; 'I' for Inactive)
REMARK    1  A    between atoms: O1_1  and  C1_3 
REMARK    2  A    between atoms: C5_7  and  C6_8 
REMARK    3  A    between atoms: C6_8  and  C7_9 
REMARK    4  A    between atoms: C10_12  and  C11_13 
REMARK    5  A    between atoms: C11_13  and  N1_14 
REMARK    6  A    between atoms: C18_22  and  C19_23 
REMARK    7  A    between atoms: C22_26  and  O2_27 
REMARK    8  A    between atoms: O2_27  and  C23_28 
REMARK    9  A    between atoms: C23_28  and  C24_29 
REMARK   10  A    between atoms: C24_29  and  N2_30 
ROOT
HETATM    1  C1  UNL     1     -23.955 -30.781  23.776  1.00  0.00     0.067 A 
HETATM    2  C2  UNL     1     -22.797 -30.140  23.503  1.00  0.00     0.037 A 
HETATM    3  C3  UNL     1     -21.920 -30.549  22.563  1.00  0.00     0.016 A 
HETATM    4  C4  UNL     1     -22.144 -31.699  21.777  1.00  0.00    -0.011 A 
HETATM    5  C5  UNL     1     -21.345 -32.204  20.811  1.00  0.00    -0.024 A 
HETATM    6  C18 UNL     1     -21.764 -33.329  20.180  1.00  0.00     0.023 A 
HETATM    7  S1  UNL     1     -23.285 -33.648  20.966  1.00  0.00    -0.088 SA
HETATM    8  C31 UNL     1     -23.311 -32.342  22.054  1.00  0.00     0.019 A 
HETATM    9  C32 UNL     1     -24.228 -31.914  23.037  1.00  0.00     0.056 A 
ENDROOT
BRANCH   5  10
HETATM   10  C6  UNL     1     -20.027 -31.538  20.396  1.00  0.00     0.079 C 
BRANCH  10  11
HETATM   11  C7  UNL     1     -18.873 -32.255  20.976  1.00  0.00    -0.052 A 
HETATM   12  C8  UNL     1     -19.034 -33.145  22.028  1.00  0.00     0.008 A 
HETATM   13  C9  UNL     1     -17.998 -33.863  22.590  1.00  0.00     0.011 A 
HETATM   14  C10 UNL     1     -16.705 -33.745  22.136  1.00  0.00    -0.013 A 
HETATM   15  C16 UNL     1     -16.523 -32.852  21.077  1.00  0.00     0.019 A 
HETATM   16 BR1  UNL     1     -14.741 -32.662  20.423  1.00  0.00    -0.050 Br
HETATM   17  C17 UNL     1     -17.570 -32.145  20.529  1.00  0.00     0.027 A 
BRANCH  14  18
HETATM   18  C11 UNL     1     -15.546 -34.487  22.693  1.00  0.00     0.312 C 
BRANCH  18  19
HETATM   19  N1  UNL     1     -15.594 -34.741  24.093  1.00  0.00     0.092 N 
HETATM   20  C12 UNL     1     -14.810 -35.877  24.478  1.00  0.00     0.273 A 
HETATM   21  C13 UNL     1     -13.805 -35.473  25.502  1.00  0.00     0.032 A 
HETATM   22  C14 UNL     1     -13.925 -33.992  25.637  1.00  0.00     0.032 A 
HETATM   23  C15 UNL     1     -15.085 -33.574  24.809  1.00  0.00     0.273 A 
ENDBRANCH  18  19
ENDBRANCH  14  18
ENDBRANCH  10  11
ENDBRANCH   5  10
BRANCH   6  24
HETATM   24  C19 UNL     1     -21.230 -34.156  19.072  1.00  0.00    -0.018 A 
HETATM   25  C20 UNL     1     -20.842 -33.715  17.863  1.00  0.00     0.015 A 
HETATM   26  C21 UNL     1     -20.428 -34.619  16.899  1.00  0.00     0.037 A 
HETATM   27  C22 UNL     1     -20.383 -35.994  17.106  1.00  0.00     0.068 A 
HETATM   28  C29 UNL     1     -20.778 -36.432  18.345  1.00  0.00     0.037 A 
HETATM   29  C30 UNL     1     -21.188 -35.545  19.298  1.00  0.00     0.015 A 
BRANCH  27  30
HETATM   30  O2  UNL     1     -19.967 -36.837  16.111  1.00  0.00    -0.349 OA
BRANCH  30  31
HETATM   31  C23 UNL     1     -18.931 -36.724  15.236  1.00  0.00     0.206 C 
BRANCH  31  32
HETATM   32  C24 UNL     1     -17.954 -37.828  15.086  1.00  0.00     0.299 C 
BRANCH  32  33
HETATM   33  N2  UNL     1     -17.770 -38.383  13.798  1.00  0.00     0.090 N 
HETATM   34  C25 UNL     1     -18.262 -39.742  13.631  1.00  0.00     0.272 C 
HETATM   35  C26 UNL     1     -18.160 -39.998  12.164  1.00  0.00     0.032 C 
HETATM   36  C27 UNL     1     -18.214 -38.663  11.512  1.00  0.00     0.032 C 
HETATM   37  C28 UNL     1     -18.242 -37.661  12.665  1.00  0.00     0.272 C 
ENDBRANCH  32  33
ENDBRANCH  31  32
ENDBRANCH  30  31
ENDBRANCH  27  30
ENDBRANCH   6  24
BRANCH   1  38
HETATM   38  O1  UNL     1     -24.870 -30.377  24.739  1.00  0.00    -0.361 OA
ATOM     39  H1  UNL     1     -25.683 -30.829  24.932  1.00  0.00     0.217 HD
ENDBRANCH   1  38
TORSDOF 10
ENDMDL
