MODEL 19
REMARK VINA RESULT: -9.055193140      3.958      7.941
REMARK  10 active torsions:
REMARK  status: ('A' for Active; 'I' for Inactive)
REMARK    1  A    between atoms: O1_1  and  C1_3 
REMARK    2  A    between atoms: C5_7  and  C6_8 
REMARK    3  A    between atoms: C6_8  and  C7_9 
REMARK    4  A    between atoms: C10_12  and  C11_13 
REMARK    5  A    between atoms: C11_13  and  N1_14 
REMARK    6  A    between atoms: C18_22  and  C19_23 
REMARK    7  A    between atoms: C22_26  and  O2_27 
REMARK    8  A    between atoms: O2_27  and  C23_28 
REMARK    9  A    between atoms: C23_28  and  C24_29 
REMARK   10  A    between atoms: C24_29  and  N2_30 
ROOT
HETATM    1  C1  UNL     1     -19.355 -32.230  14.665  1.00  0.00     0.067 A 
HETATM    2  C2  UNL     1     -19.360 -31.380  15.716  1.00  0.00     0.037 A 
HETATM    3  C3  UNL     1     -19.657 -31.753  16.978  1.00  0.00     0.016 A 
HETATM    4  C4  UNL     1     -19.991 -33.083  17.307  1.00  0.00    -0.011 A 
HETATM    5  C5  UNL     1     -20.304 -33.574  18.527  1.00  0.00    -0.024 A 
HETATM    6  C18 UNL     1     -20.595 -34.897  18.610  1.00  0.00     0.023 A 
HETATM    7  S1  UNL     1     -20.416 -35.419  16.959  1.00  0.00    -0.088 SA
HETATM    8  C31 UNL     1     -19.985 -33.937  16.248  1.00  0.00     0.019 A 
HETATM    9  C32 UNL     1     -19.674 -33.546  14.928  1.00  0.00     0.056 A 
ENDROOT
BRANCH   5  10
HETATM   10  C6  UNL     1     -20.307 -32.708  19.793  1.00  0.00     0.079 C 
BRANCH  10  11
HETATM   11  C7  UNL     1     -19.099 -32.965  20.604  1.00  0.00    -0.052 A 
HETATM   12  C8  UNL     1     -19.186 -33.554  21.857  1.00  0.00     0.008 A 
HETATM   13  C9  UNL     1     -18.091 -33.843  22.646  1.00  0.00     0.011 A 
HETATM   14  C10 UNL     1     -16.809 -33.563  22.237  1.00  0.00    -0.013 A 
HETATM   15  C16 UNL     1     -16.701 -32.969  20.977  1.00  0.00     0.019 A 
HETATM   16 BR1  UNL     1     -14.936 -32.565  20.376  1.00  0.00    -0.050 Br
HETATM   17  C17 UNL     1     -17.806 -32.688  20.204  1.00  0.00     0.027 A 
BRANCH  14  18
HETATM   18  C11 UNL     1     -15.589 -33.848  23.033  1.00  0.00     0.312 C 
BRANCH  18  19
HETATM   19  N1  UNL     1     -15.787 -34.646  24.195  1.00  0.00     0.092 N 
HETATM   20  C12 UNL     1     -15.160 -35.932  24.099  1.00  0.00     0.273 A 
HETATM   21  C13 UNL     1     -14.214 -36.118  25.235  1.00  0.00     0.032 A 
HETATM   22  C14 UNL     1     -14.193 -34.822  25.973  1.00  0.00     0.032 A 
HETATM   23  C15 UNL     1     -15.226 -33.954  25.352  1.00  0.00     0.273 A 
ENDBRANCH  18  19
ENDBRANCH  14  18
ENDBRANCH  10  11
ENDBRANCH   5  10
BRANCH   6  24
HETATM   24  C19 UNL     1     -20.934 -35.815  19.724  1.00  0.00    -0.018 A 
HETATM   25  C20 UNL     1     -22.069 -35.811  20.443  1.00  0.00     0.015 A 
HETATM   26  C21 UNL     1     -22.217 -36.688  21.505  1.00  0.00     0.037 A 
HETATM   27  C22 UNL     1     -21.240 -37.602  21.886  1.00  0.00     0.068 A 
HETATM   28  C29 UNL     1     -20.087 -37.598  21.143  1.00  0.00     0.037 A 
HETATM   29  C30 UNL     1     -19.936 -36.736  20.096  1.00  0.00     0.015 A 
BRANCH  27  30
HETATM   30  O2  UNL     1     -21.444 -38.440  22.948  1.00  0.00    -0.349 OA
BRANCH  30  31
HETATM   31  C23 UNL     1     -20.830 -39.611  23.277  1.00  0.00     0.206 C 
BRANCH  31  32
HETATM   32  C24 UNL     1     -21.246 -40.361  24.485  1.00  0.00     0.299 C 
BRANCH  32  33
HETATM   33  N2  UNL     1     -20.464 -40.225  25.655  1.00  0.00     0.090 N 
HETATM   34  C25 UNL     1     -20.560 -41.328  26.599  1.00  0.00     0.272 C 
HETATM   35  C26 UNL     1     -19.492 -41.053  27.604  1.00  0.00     0.032 C 
HETATM   36  C27 UNL     1     -18.480 -40.217  26.907  1.00  0.00     0.032 C 
HETATM   37  C28 UNL     1     -19.073 -39.953  25.523  1.00  0.00     0.272 C 
ENDBRANCH  32  33
ENDBRANCH  31  32
ENDBRANCH  30  31
ENDBRANCH  27  30
ENDBRANCH   6  24
BRANCH   1  38
HETATM   38  O1  UNL     1     -19.052 -31.865  13.359  1.00  0.00    -0.361 OA
ATOM     39  H1  UNL     1     -19.169 -32.428  12.603  1.00  0.00     0.217 HD
ENDBRANCH   1  38
TORSDOF 10
ENDMDL
