MODEL 20
REMARK VINA RESULT: -8.987872712      3.556      6.433
REMARK  10 active torsions:
REMARK  status: ('A' for Active; 'I' for Inactive)
REMARK    1  A    between atoms: O1_1  and  C1_3 
REMARK    2  A    between atoms: C5_7  and  C6_8 
REMARK    3  A    between atoms: C6_8  and  C7_9 
REMARK    4  A    between atoms: C10_12  and  C11_13 
REMARK    5  A    between atoms: C11_13  and  N1_14 
REMARK    6  A    between atoms: C18_22  and  C19_23 
REMARK    7  A    between atoms: C22_26  and  O2_27 
REMARK    8  A    between atoms: O2_27  and  C23_28 
REMARK    9  A    between atoms: C23_28  and  C24_29 
REMARK   10  A    between atoms: C24_29  and  N2_30 
ROOT
HETATM    1  C1  UNL     1     -19.033 -31.818  14.742  1.00  0.00     0.067 A 
HETATM    2  C2  UNL     1     -19.077 -31.049  15.852  1.00  0.00     0.037 A 
HETATM    3  C3  UNL     1     -19.447 -31.508  17.065  1.00  0.00     0.016 A 
HETATM    4  C4  UNL     1     -19.824 -32.851  17.276  1.00  0.00    -0.011 A 
HETATM    5  C5  UNL     1     -20.211 -33.424  18.437  1.00  0.00    -0.024 A 
HETATM    6  C18 UNL     1     -20.530 -34.742  18.405  1.00  0.00     0.023 A 
HETATM    7  S1  UNL     1     -20.275 -35.144  16.730  1.00  0.00    -0.088 SA
HETATM    8  C31 UNL     1     -19.778 -33.623  16.156  1.00  0.00     0.019 A 
HETATM    9  C32 UNL     1     -19.391 -33.142  14.888  1.00  0.00     0.056 A 
ENDROOT
BRANCH   5  10
HETATM   10  C6  UNL     1     -20.263 -32.655  19.763  1.00  0.00     0.079 C 
BRANCH  10  11
HETATM   11  C7  UNL     1     -19.079 -32.961  20.592  1.00  0.00    -0.052 A 
HETATM   12  C8  UNL     1     -19.204 -33.589  21.822  1.00  0.00     0.008 A 
HETATM   13  C9  UNL     1     -18.133 -33.925  22.625  1.00  0.00     0.011 A 
HETATM   14  C10 UNL     1     -16.837 -33.654  22.253  1.00  0.00    -0.013 A 
HETATM   15  C16 UNL     1     -16.690 -33.020  21.017  1.00  0.00     0.019 A 
HETATM   16 BR1  UNL     1     -14.905 -32.628  20.469  1.00  0.00    -0.050 Br
HETATM   17  C17 UNL     1     -17.773 -32.694  20.230  1.00  0.00     0.027 A 
BRANCH  14  18
HETATM   18  C11 UNL     1     -15.641 -33.988  23.066  1.00  0.00     0.312 C 
BRANCH  18  19
HETATM   19  N1  UNL     1     -15.874 -34.164  24.459  1.00  0.00     0.092 N 
HETATM   20  C12 UNL     1     -15.755 -35.532  24.873  1.00  0.00     0.273 A 
HETATM   21  C13 UNL     1     -14.732 -35.645  25.951  1.00  0.00     0.032 A 
HETATM   22  C14 UNL     1     -14.129 -34.288  26.094  1.00  0.00     0.032 A 
HETATM   23  C15 UNL     1     -14.901 -33.377  25.211  1.00  0.00     0.273 A 
ENDBRANCH  18  19
ENDBRANCH  14  18
ENDBRANCH  10  11
ENDBRANCH   5  10
BRANCH   6  24
HETATM   24  C19 UNL     1     -20.946 -35.732  19.427  1.00  0.00    -0.018 A 
HETATM   25  C20 UNL     1     -22.179 -35.878  19.941  1.00  0.00     0.015 A 
HETATM   26  C21 UNL     1     -22.402 -36.805  20.946  1.00  0.00     0.037 A 
HETATM   27  C22 UNL     1     -21.407 -37.621  21.472  1.00  0.00     0.068 A 
HETATM   28  C29 UNL     1     -20.152 -37.464  20.938  1.00  0.00     0.037 A 
HETATM   29  C30 UNL     1     -19.926 -36.552  19.948  1.00  0.00     0.015 A 
BRANCH  27  30
HETATM   30  O2  UNL     1     -21.689 -38.516  22.468  1.00  0.00    -0.349 OA
BRANCH  30  31
HETATM   31  C23 UNL     1     -22.300 -39.731  22.414  1.00  0.00     0.206 C 
BRANCH  31  32
HETATM   32  C24 UNL     1     -21.916 -40.716  21.375  1.00  0.00     0.299 C 
BRANCH  32  33
HETATM   33  N2  UNL     1     -22.586 -40.665  20.131  1.00  0.00     0.090 N 
HETATM   34  C25 UNL     1     -23.917 -40.078  20.165  1.00  0.00     0.272 C 
HETATM   35  C26 UNL     1     -24.298 -39.935  18.728  1.00  0.00     0.032 C 
HETATM   36  C27 UNL     1     -23.020 -39.854  17.973  1.00  0.00     0.032 C 
HETATM   37  C28 UNL     1     -21.928 -40.062  19.021  1.00  0.00     0.272 C 
ENDBRANCH  32  33
ENDBRANCH  31  32
ENDBRANCH  30  31
ENDBRANCH  27  30
ENDBRANCH   6  24
BRANCH   1  38
HETATM   38  O1  UNL     1     -18.655 -31.364  13.484  1.00  0.00    -0.361 OA
ATOM     39  H1  UNL     1     -19.255 -31.218  12.762  1.00  0.00     0.217 HD
ENDBRANCH   1  38
TORSDOF 10
ENDMDL
