MODEL 6
REMARK VINA RESULT: -9.656370964      2.190      3.213
REMARK  10 active torsions:
REMARK  status: ('A' for Active; 'I' for Inactive)
REMARK    1  A    between atoms: O1_1  and  C1_3 
REMARK    2  A    between atoms: C5_7  and  C6_8 
REMARK    3  A    between atoms: C6_8  and  C7_9 
REMARK    4  A    between atoms: C10_12  and  C11_13 
REMARK    5  A    between atoms: C11_13  and  N1_14 
REMARK    6  A    between atoms: C18_22  and  C19_23 
REMARK    7  A    between atoms: C22_26  and  O2_27 
REMARK    8  A    between atoms: O2_27  and  C23_28 
REMARK    9  A    between atoms: C23_28  and  C24_29 
REMARK   10  A    between atoms: C24_29  and  N2_30 
ROOT
HETATM    1  C1  UNL     1     -24.116 -31.154  23.495  1.00  0.00     0.067 A 
HETATM    2  C2  UNL     1     -22.958 -30.478  23.329  1.00  0.00     0.037 A 
HETATM    3  C3  UNL     1     -22.033 -30.796  22.401  1.00  0.00     0.016 A 
HETATM    4  C4  UNL     1     -22.203 -31.879  21.513  1.00  0.00    -0.011 A 
HETATM    5  C5  UNL     1     -21.352 -32.292  20.547  1.00  0.00    -0.024 A 
HETATM    6  C18 UNL     1     -21.724 -33.366  19.806  1.00  0.00     0.023 A 
HETATM    7  S1  UNL     1     -23.273 -33.768  20.492  1.00  0.00    -0.088 SA
HETATM    8  C31 UNL     1     -23.369 -32.558  21.682  1.00  0.00     0.019 A 
HETATM    9  C32 UNL     1     -24.337 -32.225  22.653  1.00  0.00     0.056 A 
ENDROOT
BRANCH   5  10
HETATM   10  C6  UNL     1     -20.028 -31.577  20.249  1.00  0.00     0.079 C 
BRANCH  10  11
HETATM   11  C7  UNL     1     -18.902 -32.263  20.916  1.00  0.00    -0.052 A 
HETATM   12  C8  UNL     1     -19.110 -33.098  22.003  1.00  0.00     0.008 A 
HETATM   13  C9  UNL     1     -18.101 -33.786  22.647  1.00  0.00     0.011 A 
HETATM   14  C10 UNL     1     -16.789 -33.691  22.244  1.00  0.00    -0.013 A 
HETATM   15  C16 UNL     1     -16.560 -32.854  21.149  1.00  0.00     0.019 A 
HETATM   16 BR1  UNL     1     -14.751 -32.697  20.564  1.00  0.00    -0.050 Br
HETATM   17  C17 UNL     1     -17.581 -32.176  20.521  1.00  0.00     0.027 A 
BRANCH  14  18
HETATM   18  C11 UNL     1     -15.658 -34.403  22.888  1.00  0.00     0.312 C 
BRANCH  18  19
HETATM   19  N1  UNL     1     -15.207 -33.852  24.121  1.00  0.00     0.092 N 
HETATM   20  C12 UNL     1     -15.782 -34.502  25.262  1.00  0.00     0.273 A 
HETATM   21  C13 UNL     1     -14.699 -35.028  26.142  1.00  0.00     0.032 A 
HETATM   22  C14 UNL     1     -13.419 -34.780  25.416  1.00  0.00     0.032 A 
HETATM   23  C15 UNL     1     -13.755 -33.990  24.204  1.00  0.00     0.273 A 
ENDBRANCH  18  19
ENDBRANCH  14  18
ENDBRANCH  10  11
ENDBRANCH   5  10
BRANCH   6  24
HETATM   24  C19 UNL     1     -21.126 -34.091  18.659  1.00  0.00    -0.018 A 
HETATM   25  C20 UNL     1     -20.628 -33.539  17.540  1.00  0.00     0.015 A 
HETATM   26  C21 UNL     1     -20.164 -34.351  16.519  1.00  0.00     0.037 A 
HETATM   27  C22 UNL     1     -20.179 -35.741  16.576  1.00  0.00     0.068 A 
HETATM   28  C29 UNL     1     -20.688 -36.292  17.725  1.00  0.00     0.037 A 
HETATM   29  C30 UNL     1     -21.147 -35.496  18.735  1.00  0.00     0.015 A 
BRANCH  27  30
HETATM   30  O2  UNL     1     -19.710 -36.489  15.531  1.00  0.00    -0.349 OA
BRANCH  30  31
HETATM   31  C23 UNL     1     -19.148 -37.730  15.518  1.00  0.00     0.206 C 
BRANCH  31  32
HETATM   32  C24 UNL     1     -17.850 -37.957  14.840  1.00  0.00     0.299 C 
BRANCH  32  33
HETATM   33  N2  UNL     1     -16.950 -38.880  15.420  1.00  0.00     0.090 N 
HETATM   34  C25 UNL     1     -17.559 -39.894  16.267  1.00  0.00     0.272 C 
HETATM   35  C26 UNL     1     -16.452 -40.853  16.557  1.00  0.00     0.032 C 
HETATM   36  C27 UNL     1     -15.488 -40.716  15.433  1.00  0.00     0.032 C 
HETATM   37  C28 UNL     1     -16.044 -39.581  14.573  1.00  0.00     0.272 C 
ENDBRANCH  32  33
ENDBRANCH  31  32
ENDBRANCH  30  31
ENDBRANCH  27  30
ENDBRANCH   6  24
BRANCH   1  38
HETATM   38  O1  UNL     1     -25.081 -30.843  24.445  1.00  0.00    -0.361 OA
ATOM     39  H1  UNL     1     -25.984 -31.134  24.409  1.00  0.00     0.217 HD
ENDBRANCH   1  38
TORSDOF 10
ENDMDL
