MODEL 9
REMARK VINA RESULT: -9.609771426      2.147      2.925
REMARK  10 active torsions:
REMARK  status: ('A' for Active; 'I' for Inactive)
REMARK    1  A    between atoms: O1_1  and  C1_3 
REMARK    2  A    between atoms: C5_7  and  C6_8 
REMARK    3  A    between atoms: C6_8  and  C7_9 
REMARK    4  A    between atoms: C10_12  and  C11_13 
REMARK    5  A    between atoms: C11_13  and  N1_14 
REMARK    6  A    between atoms: C18_22  and  C19_23 
REMARK    7  A    between atoms: C22_26  and  O2_27 
REMARK    8  A    between atoms: O2_27  and  C23_28 
REMARK    9  A    between atoms: C23_28  and  C24_29 
REMARK   10  A    between atoms: C24_29  and  N2_30 
ROOT
HETATM    1  C1  UNL     1     -23.740 -30.969  23.342  1.00  0.00     0.067 A 
HETATM    2  C2  UNL     1     -22.544 -30.381  23.122  1.00  0.00     0.037 A 
HETATM    3  C3  UNL     1     -21.654 -30.815  22.206  1.00  0.00     0.016 A 
HETATM    4  C4  UNL     1     -21.906 -31.937  21.390  1.00  0.00    -0.011 A 
HETATM    5  C5  UNL     1     -21.097 -32.464  20.443  1.00  0.00    -0.024 A 
HETATM    6  C18 UNL     1     -21.548 -33.556  19.776  1.00  0.00     0.023 A 
HETATM    7  S1  UNL     1     -23.109 -33.814  20.501  1.00  0.00    -0.088 SA
HETATM    8  C31 UNL     1     -23.111 -32.528  21.613  1.00  0.00     0.019 A 
HETATM    9  C32 UNL     1     -24.041 -32.073  22.572  1.00  0.00     0.056 A 
ENDROOT
BRANCH   5  10
HETATM   10  C6  UNL     1     -19.735 -31.856  20.087  1.00  0.00     0.079 C 
BRANCH  10  11
HETATM   11  C7  UNL     1     -18.646 -32.564  20.791  1.00  0.00    -0.052 A 
HETATM   12  C8  UNL     1     -17.411 -31.966  20.994  1.00  0.00     0.008 A 
HETATM   13  C9  UNL     1     -16.369 -32.568  21.669  1.00  0.00     0.011 A 
HETATM   14  C10 UNL     1     -16.484 -33.831  22.201  1.00  0.00    -0.013 A 
HETATM   15  C16 UNL     1     -17.721 -34.450  22.006  1.00  0.00     0.019 A 
HETATM   16 BR1  UNL     1     -17.917 -36.205  22.730  1.00  0.00    -0.050 Br
HETATM   17  C17 UNL     1     -18.750 -33.832  21.329  1.00  0.00     0.027 A 
BRANCH  14  18
HETATM   18  C11 UNL     1     -15.406 -34.536  22.938  1.00  0.00     0.312 C 
BRANCH  18  19
HETATM   19  N1  UNL     1     -14.941 -33.885  24.117  1.00  0.00     0.092 N 
HETATM   20  C12 UNL     1     -15.680 -34.262  25.286  1.00  0.00     0.273 A 
HETATM   21  C13 UNL     1     -14.752 -34.814  26.313  1.00  0.00     0.032 A 
HETATM   22  C14 UNL     1     -13.410 -34.878  25.666  1.00  0.00     0.032 A 
HETATM   23  C15 UNL     1     -13.540 -34.234  24.334  1.00  0.00     0.273 A 
ENDBRANCH  18  19
ENDBRANCH  14  18
ENDBRANCH  10  11
ENDBRANCH   5  10
BRANCH   6  24
HETATM   24  C19 UNL     1     -21.014 -34.388  18.670  1.00  0.00    -0.018 A 
HETATM   25  C20 UNL     1     -20.532 -33.942  17.498  1.00  0.00     0.015 A 
HETATM   26  C21 UNL     1     -20.132 -34.846  16.529  1.00  0.00     0.037 A 
HETATM   27  C22 UNL     1     -20.196 -36.226  16.693  1.00  0.00     0.068 A 
HETATM   28  C29 UNL     1     -20.688 -36.669  17.895  1.00  0.00     0.037 A 
HETATM   29  C30 UNL     1     -21.084 -35.782  18.854  1.00  0.00     0.015 A 
BRANCH  27  30
HETATM   30  O2  UNL     1     -19.788 -37.069  15.695  1.00  0.00    -0.349 OA
BRANCH  30  31
HETATM   31  C23 UNL     1     -18.578 -37.651  15.472  1.00  0.00     0.206 C 
BRANCH  31  32
HETATM   32  C24 UNL     1     -17.734 -37.215  14.336  1.00  0.00     0.299 C 
BRANCH  32  33
HETATM   33  N2  UNL     1     -16.493 -37.866  14.140  1.00  0.00     0.090 N 
HETATM   34  C25 UNL     1     -16.417 -39.224  14.655  1.00  0.00     0.272 C 
HETATM   35  C26 UNL     1     -15.123 -39.751  14.127  1.00  0.00     0.032 C 
HETATM   36  C27 UNL     1     -14.832 -38.964  12.900  1.00  0.00     0.032 C 
HETATM   37  C28 UNL     1     -15.947 -37.921  12.826  1.00  0.00     0.272 C 
ENDBRANCH  32  33
ENDBRANCH  31  32
ENDBRANCH  30  31
ENDBRANCH  27  30
ENDBRANCH   6  24
BRANCH   1  38
HETATM   38  O1  UNL     1     -24.669 -30.537  24.280  1.00  0.00    -0.361 OA
ATOM     39  H1  UNL     1     -24.746 -30.886  25.161  1.00  0.00     0.217 HD
ENDBRANCH   1  38
TORSDOF 10
ENDMDL
