MODEL 15
REMARK VINA RESULT: -9.345541273      3.473      6.851
REMARK  10 active torsions:
REMARK  status: ('A' for Active; 'I' for Inactive)
REMARK    1  A    between atoms: O1_1  and  C1_3 
REMARK    2  A    between atoms: C5_7  and  C6_8 
REMARK    3  A    between atoms: C6_8  and  C7_9 
REMARK    4  A    between atoms: C10_12  and  C11_13 
REMARK    5  A    between atoms: C11_13  and  N1_14 
REMARK    6  A    between atoms: C18_22  and  C19_23 
REMARK    7  A    between atoms: C22_26  and  O2_27 
REMARK    8  A    between atoms: O2_27  and  C23_28 
REMARK    9  A    between atoms: C23_28  and  C24_29 
REMARK   10  A    between atoms: C24_29  and  N2_30 
ROOT
HETATM    1  C1  UNL     1     -19.230 -31.954  14.587  1.00  0.00     0.067 A 
HETATM    2  C2  UNL     1     -19.208 -31.128  15.656  1.00  0.00     0.037 A 
HETATM    3  C3  UNL     1     -19.530 -31.515  16.907  1.00  0.00     0.016 A 
HETATM    4  C4  UNL     1     -19.923 -32.837  17.205  1.00  0.00    -0.011 A 
HETATM    5  C5  UNL     1     -20.267 -33.340  18.411  1.00  0.00    -0.024 A 
HETATM    6  C18 UNL     1     -20.614 -34.651  18.464  1.00  0.00     0.023 A 
HETATM    7  S1  UNL     1     -20.445 -35.144  16.802  1.00  0.00    -0.088 SA
HETATM    8  C31 UNL     1     -19.945 -33.667  16.127  1.00  0.00     0.019 A 
HETATM    9  C32 UNL     1     -19.607 -33.260  14.819  1.00  0.00     0.056 A 
ENDROOT
BRANCH   5  10
HETATM   10  C6  UNL     1     -20.242 -32.502  19.696  1.00  0.00     0.079 C 
BRANCH  10  11
HETATM   11  C7  UNL     1     -19.084 -32.868  20.537  1.00  0.00    -0.052 A 
HETATM   12  C8  UNL     1     -19.250 -33.542  21.737  1.00  0.00     0.008 A 
HETATM   13  C9  UNL     1     -18.204 -33.934  22.548  1.00  0.00     0.011 A 
HETATM   14  C10 UNL     1     -16.894 -33.679  22.215  1.00  0.00    -0.013 A 
HETATM   15  C16 UNL     1     -16.707 -33.000  21.008  1.00  0.00     0.019 A 
HETATM   16 BR1  UNL     1     -14.902 -32.628  20.514  1.00  0.00    -0.050 Br
HETATM   17  C17 UNL     1     -17.764 -32.618  20.213  1.00  0.00     0.027 A 
BRANCH  14  18
HETATM   18  C11 UNL     1     -15.724 -34.073  23.039  1.00  0.00     0.312 C 
BRANCH  18  19
HETATM   19  N1  UNL     1     -15.820 -33.771  24.427  1.00  0.00     0.092 N 
HETATM   20  C12 UNL     1     -16.276 -34.886  25.206  1.00  0.00     0.273 A 
HETATM   21  C13 UNL     1     -15.278 -35.200  26.267  1.00  0.00     0.032 A 
HETATM   22  C14 UNL     1     -14.115 -34.299  26.022  1.00  0.00     0.032 A 
HETATM   23  C15 UNL     1     -14.505 -33.378  24.923  1.00  0.00     0.273 A 
ENDBRANCH  18  19
ENDBRANCH  14  18
ENDBRANCH  10  11
ENDBRANCH   5  10
BRANCH   6  24
HETATM   24  C19 UNL     1     -21.002 -35.577  19.554  1.00  0.00    -0.018 A 
HETATM   25  C20 UNL     1     -22.060 -35.448  20.372  1.00  0.00     0.015 A 
HETATM   26  C21 UNL     1     -22.256 -36.360  21.396  1.00  0.00     0.037 A 
HETATM   27  C22 UNL     1     -21.407 -37.434  21.640  1.00  0.00     0.068 A 
HETATM   28  C29 UNL     1     -20.331 -37.557  20.796  1.00  0.00     0.037 A 
HETATM   29  C30 UNL     1     -20.133 -36.661  19.786  1.00  0.00     0.015 A 
BRANCH  27  30
HETATM   30  O2  UNL     1     -21.652 -38.300  22.671  1.00  0.00    -0.349 OA
BRANCH  30  31
HETATM   31  C23 UNL     1     -20.899 -39.323  23.161  1.00  0.00     0.206 C 
BRANCH  31  32
HETATM   32  C24 UNL     1     -19.874 -39.067  24.200  1.00  0.00     0.299 C 
BRANCH  32  33
HETATM   33  N2  UNL     1     -18.542 -38.848  23.781  1.00  0.00     0.090 N 
HETATM   34  C25 UNL     1     -18.110 -39.642  22.641  1.00  0.00     0.272 C 
HETATM   35  C26 UNL     1     -16.784 -39.067  22.266  1.00  0.00     0.032 C 
HETATM   36  C27 UNL     1     -16.794 -37.664  22.757  1.00  0.00     0.032 C 
HETATM   37  C28 UNL     1     -18.119 -37.516  23.504  1.00  0.00     0.272 C 
ENDBRANCH  32  33
ENDBRANCH  31  32
ENDBRANCH  30  31
ENDBRANCH  27  30
ENDBRANCH   6  24
BRANCH   1  38
HETATM   38  O1  UNL     1     -18.902 -31.574  13.292  1.00  0.00    -0.361 OA
ATOM     39  H1  UNL     1     -18.030 -31.628  12.920  1.00  0.00     0.217 HD
ENDBRANCH   1  38
TORSDOF 10
ENDMDL
