MODEL 2
REMARK VINA RESULT: -11.914469431      1.192      9.643
REMARK  17 active torsions:
REMARK  status: ('A' for Active; 'I' for Inactive)
REMARK       I    between atoms: C1_2  and  N1_3 
REMARK    1  A    between atoms: C1_2  and  C9_12 
REMARK    2  A    between atoms: N1_3  and  C2_5 
REMARK    3  A    between atoms: C2_5  and  C3_6 
REMARK    4  A    between atoms: C9_12  and  O2_13 
REMARK    5  A    between atoms: C9_12  and  C17_21 
REMARK    6  A    between atoms: O2_13  and  C10_14 
REMARK    7  A    between atoms: C10_14  and  C11_15 
REMARK    8  A    between atoms: C17_21  and  O3_22 
REMARK    9  A    between atoms: C17_21  and  C18_24 
REMARK   10  A    between atoms: C18_24  and  O4_25 
REMARK   11  A    between atoms: C18_24  and  C19_27 
REMARK   12  A    between atoms: C19_27  and  O5_28 
REMARK   13  A    between atoms: C19_27  and  C27_36 
REMARK   14  A    between atoms: O5_28  and  C20_29 
REMARK   15  A    between atoms: C20_29  and  C21_30 
REMARK       I    between atoms: C27_36  and  N2_38 
REMARK   16  A    between atoms: N2_38  and  C28_40 
REMARK   17  A    between atoms: C36_48  and  O7_49 
ROOT
HETATM    1  C18 UNL     1      13.404  23.549   4.757  1.00  0.00     0.188 C 
ENDROOT
BRANCH   1   2
HETATM    2  C17 UNL     1      13.686  22.227   4.183  1.00  0.00     0.188 C 
BRANCH   2   3
HETATM    3  C9  UNL     1      13.975  21.174   5.217  1.00  0.00     0.244 C 
BRANCH   3   4
HETATM    4  C1  UNL     1      14.317  21.698   6.564  1.00  0.00     0.249 C 
HETATM    5  O1  UNL     1      13.440  21.643   7.504  1.00  0.00    -0.271 OA
HETATM    6  N1  UNL     1      15.555  22.276   6.915  1.00  0.00    -0.355 N 
ATOM      7  H1  UNL     1      16.288  22.357   6.210  1.00  0.00     0.162 HD
BRANCH   6   8
HETATM    8  C2  UNL     1      15.812  22.767   8.286  1.00  0.00     0.161 C 
BRANCH   8   9
HETATM    9  C3  UNL     1      16.464  21.652   9.013  1.00  0.00    -0.041 A 
HETATM   10  C4  UNL     1      17.783  21.397   8.857  1.00  0.00     0.009 A 
HETATM   11  C5  UNL     1      18.371  20.341   9.539  1.00  0.00     0.001 A 
HETATM   12  C6  UNL     1      17.644  19.533  10.382  1.00  0.00     0.000 A 
HETATM   13  C7  UNL     1      16.307  19.800  10.530  1.00  0.00     0.001 A 
HETATM   14  C8  UNL     1      15.712  20.841   9.862  1.00  0.00     0.009 A 
ENDBRANCH   8   9
ENDBRANCH   6   8
ENDBRANCH   3   4
BRANCH   3  15
HETATM   15  O2  UNL     1      15.064  20.391   4.753  1.00  0.00    -0.369 OA
BRANCH  15  16
HETATM   16  C10 UNL     1      14.825  19.065   4.647  1.00  0.00     0.207 C 
BRANCH  16  17
HETATM   17  C11 UNL     1      15.543  18.480   3.500  1.00  0.00    -0.035 A 
HETATM   18  C12 UNL     1      16.678  17.720   3.677  1.00  0.00     0.009 A 
HETATM   19  C13 UNL     1      17.377  17.181   2.601  1.00  0.00     0.001 A 
HETATM   20  C14 UNL     1      16.947  17.396   1.308  1.00  0.00     0.000 A 
HETATM   21  C15 UNL     1      15.796  18.167   1.113  1.00  0.00     0.001 A 
HETATM   22  C16 UNL     1      15.127  18.685   2.183  1.00  0.00     0.009 A 
ENDBRANCH  16  17
ENDBRANCH  15  16
ENDBRANCH   3  15
ENDBRANCH   2   3
BRANCH   2  23
HETATM   23  O3  UNL     1      14.687  22.261   3.200  1.00  0.00    -0.390 OA
ATOM     24  H3  UNL     1      14.330  22.509   2.354  1.00  0.00     0.210 HD
ENDBRANCH   2  23
ENDBRANCH   1   2
BRANCH   1  25
HETATM   25  O4  UNL     1      14.573  24.339   4.773  1.00  0.00    -0.390 OA
ATOM     26  H4  UNL     1      14.427  25.139   5.264  1.00  0.00     0.210 HD
ENDBRANCH   1  25
BRANCH   1  27
HETATM   27  C19 UNL     1      12.261  24.347   4.256  1.00  0.00     0.244 C 
BRANCH  27  28
HETATM   28  O5  UNL     1      11.844  23.679   3.070  1.00  0.00    -0.369 OA
BRANCH  28  29
HETATM   29  C20 UNL     1      11.242  24.449   2.144  1.00  0.00     0.207 C 
BRANCH  29  30
HETATM   30  C21 UNL     1       9.774  24.341   2.094  1.00  0.00    -0.035 A 
HETATM   31  C22 UNL     1       9.235  23.089   2.292  1.00  0.00     0.009 A 
HETATM   32  C23 UNL     1       7.874  22.932   2.225  1.00  0.00     0.001 A 
HETATM   33  C24 UNL     1       7.069  23.997   1.967  1.00  0.00     0.000 A 
HETATM   34  C25 UNL     1       7.588  25.260   1.765  1.00  0.00     0.001 A 
HETATM   35  C26 UNL     1       8.956  25.401   1.836  1.00  0.00     0.009 A 
ENDBRANCH  29  30
ENDBRANCH  28  29
ENDBRANCH  27  28
BRANCH  27  36
HETATM   36  C27 UNL     1      11.086  24.409   5.184  1.00  0.00     0.250 C 
HETATM   37  O6  UNL     1      10.752  23.362   5.811  1.00  0.00    -0.271 OA
HETATM   38  N2  UNL     1      10.332  25.583   5.390  1.00  0.00    -0.348 N 
ATOM     39  H2  UNL     1      10.596  26.430   4.888  1.00  0.00     0.163 HD
BRANCH  38  40
HETATM   40  C28 UNL     1       9.196  25.627   6.293  1.00  0.00     0.147 C 
HETATM   41  C29 UNL     1       9.603  26.230   7.608  1.00  0.00    -0.027 A 
HETATM   42  C30 UNL     1      10.770  26.189   8.327  1.00  0.00     0.010 A 
HETATM   43  C34 UNL     1       8.525  26.913   8.099  1.00  0.00    -0.047 A 
HETATM   44  C31 UNL     1      10.857  26.828   9.531  1.00  0.00     0.001 A 
HETATM   45  C32 UNL     1       9.792  27.514  10.039  1.00  0.00     0.001 A 
HETATM   46  C33 UNL     1       8.613  27.566   9.332  1.00  0.00     0.008 A 
HETATM   47  C35 UNL     1       7.372  26.823   7.140  1.00  0.00     0.073 C 
HETATM   48  C36 UNL     1       8.112  26.551   5.827  1.00  0.00     0.149 C 
BRANCH  48  49
HETATM   49  O7  UNL     1       8.695  27.736   5.351  1.00  0.00    -0.393 OA
ATOM     50  H7  UNL     1       8.026  28.262   4.928  1.00  0.00     0.210 HD
ENDBRANCH  48  49
ENDBRANCH  38  40
ENDBRANCH  27  36
ENDBRANCH   1  27
TORSDOF 17
ENDMDL
