MODEL 11
REMARK VINA RESULT: -11.292880534      1.087      1.843
REMARK  17 active torsions:
REMARK  status: ('A' for Active; 'I' for Inactive)
REMARK       I    between atoms: C1_2  and  N1_3 
REMARK    1  A    between atoms: C1_2  and  C9_12 
REMARK    2  A    between atoms: N1_3  and  C2_5 
REMARK    3  A    between atoms: C2_5  and  C3_6 
REMARK    4  A    between atoms: C9_12  and  O2_13 
REMARK    5  A    between atoms: C9_12  and  C17_21 
REMARK    6  A    between atoms: O2_13  and  C10_14 
REMARK    7  A    between atoms: C10_14  and  C11_15 
REMARK    8  A    between atoms: C17_21  and  O3_22 
REMARK    9  A    between atoms: C17_21  and  C18_24 
REMARK   10  A    between atoms: C18_24  and  O4_25 
REMARK   11  A    between atoms: C18_24  and  C19_27 
REMARK   12  A    between atoms: C19_27  and  O5_28 
REMARK   13  A    between atoms: C19_27  and  C27_36 
REMARK   14  A    between atoms: O5_28  and  C20_29 
REMARK   15  A    between atoms: C20_29  and  C21_30 
REMARK       I    between atoms: C27_36  and  N2_38 
REMARK   16  A    between atoms: N2_38  and  C28_40 
REMARK   17  A    between atoms: C36_48  and  O7_49 
ROOT
HETATM    1  C18 UNL     1      13.682  22.929   4.992  1.00  0.00     0.188 C 
ENDROOT
BRANCH   1   2
HETATM    2  C17 UNL     1      13.334  24.347   5.145  1.00  0.00     0.188 C 
BRANCH   2   3
HETATM    3  C9  UNL     1      11.913  24.660   4.765  1.00  0.00     0.244 C 
BRANCH   3   4
HETATM    4  C1  UNL     1      10.984  24.831   5.911  1.00  0.00     0.249 C 
HETATM    5  O1  UNL     1      10.670  23.810   6.628  1.00  0.00    -0.271 OA
HETATM    6  N1  UNL     1      10.390  26.053   6.294  1.00  0.00    -0.355 N 
ATOM      7  H1  UNL     1      10.592  26.897   5.758  1.00  0.00     0.162 HD
BRANCH   6   8
HETATM    8  C2  UNL     1       9.480  26.132   7.457  1.00  0.00     0.161 C 
BRANCH   8   9
HETATM    9  C3  UNL     1       8.136  26.441   6.913  1.00  0.00    -0.041 A 
HETATM   10  C4  UNL     1       7.930  26.538   5.581  1.00  0.00     0.009 A 
HETATM   11  C5  UNL     1       6.666  26.838   5.094  1.00  0.00     0.001 A 
HETATM   12  C6  UNL     1       5.598  27.043   5.937  1.00  0.00     0.000 A 
HETATM   13  C7  UNL     1       5.820  26.943   7.286  1.00  0.00     0.001 A 
HETATM   14  C8  UNL     1       7.065  26.647   7.783  1.00  0.00     0.009 A 
ENDBRANCH   8   9
ENDBRANCH   6   8
ENDBRANCH   3   4
BRANCH   3  15
HETATM   15  O2  UNL     1      11.432  23.597   3.955  1.00  0.00    -0.369 OA
BRANCH  15  16
HETATM   16  C10 UNL     1      11.078  23.939   2.696  1.00  0.00     0.207 C 
BRANCH  16  17
HETATM   17  C11 UNL     1       9.619  24.114   2.579  1.00  0.00    -0.035 A 
HETATM   18  C12 UNL     1       8.742  23.198   3.115  1.00  0.00     0.009 A 
HETATM   19  C13 UNL     1       7.364  23.341   2.992  1.00  0.00     0.001 A 
HETATM   20  C14 UNL     1       6.828  24.420   2.321  1.00  0.00     0.000 A 
HETATM   21  C15 UNL     1       7.708  25.359   1.771  1.00  0.00     0.001 A 
HETATM   22  C16 UNL     1       9.056  25.198   1.903  1.00  0.00     0.009 A 
ENDBRANCH  16  17
ENDBRANCH  15  16
ENDBRANCH   3  15
ENDBRANCH   2   3
BRANCH   2  23
HETATM   23  O3  UNL     1      14.234  25.205   4.493  1.00  0.00    -0.390 OA
ATOM     24  H3  UNL     1      14.732  25.719   5.117  1.00  0.00     0.210 HD
ENDBRANCH   2  23
ENDBRANCH   1   2
BRANCH   1  25
HETATM   25  O4  UNL     1      13.943  22.629   3.637  1.00  0.00    -0.390 OA
ATOM     26  H4  UNL     1      13.255  22.976   3.082  1.00  0.00     0.210 HD
ENDBRANCH   1  25
BRANCH   1  27
HETATM   27  C19 UNL     1      14.725  22.323   5.853  1.00  0.00     0.244 C 
BRANCH  27  28
HETATM   28  O5  UNL     1      14.218  22.450   7.178  1.00  0.00    -0.369 OA
BRANCH  28  29
HETATM   29  C20 UNL     1      15.095  22.888   8.101  1.00  0.00     0.207 C 
BRANCH  29  30
HETATM   30  C21 UNL     1      15.912  21.842   8.740  1.00  0.00    -0.035 A 
HETATM   31  C22 UNL     1      15.262  20.985   9.601  1.00  0.00     0.009 A 
HETATM   32  C23 UNL     1      15.985  20.012  10.243  1.00  0.00     0.001 A 
HETATM   33  C24 UNL     1      17.323  19.896  10.033  1.00  0.00     0.000 A 
HETATM   34  C25 UNL     1      17.993  20.744   9.174  1.00  0.00     0.001 A 
HETATM   35  C26 UNL     1      17.254  21.715   8.537  1.00  0.00     0.009 A 
ENDBRANCH  29  30
ENDBRANCH  28  29
ENDBRANCH  27  28
BRANCH  27  36
HETATM   36  C27 UNL     1      14.982  20.870   5.598  1.00  0.00     0.250 C 
HETATM   37  O6  UNL     1      14.013  20.059   5.678  1.00  0.00    -0.271 OA
HETATM   38  N2  UNL     1      16.256  20.362   5.273  1.00  0.00    -0.348 N 
ATOM     39  H2  UNL     1      17.041  21.009   5.207  1.00  0.00     0.163 HD
BRANCH  38  40
HETATM   40  C28 UNL     1      16.489  18.950   5.028  1.00  0.00     0.147 C 
HETATM   41  C29 UNL     1      16.355  18.650   3.562  1.00  0.00    -0.027 A 
HETATM   42  C30 UNL     1      15.553  19.169   2.578  1.00  0.00     0.010 A 
HETATM   43  C34 UNL     1      17.231  17.643   3.266  1.00  0.00    -0.047 A 
HETATM   44  C31 UNL     1      15.630  18.683   1.304  1.00  0.00     0.001 A 
HETATM   45  C32 UNL     1      16.497  17.677   0.988  1.00  0.00     0.001 A 
HETATM   46  C33 UNL     1      17.309  17.144   1.962  1.00  0.00     0.008 A 
HETATM   47  C35 UNL     1      18.000  17.245   4.494  1.00  0.00     0.073 C 
HETATM   48  C36 UNL     1      17.896  18.527   5.324  1.00  0.00     0.149 C 
BRANCH  48  49
HETATM   49  O7  UNL     1      18.780  19.496   4.823  1.00  0.00    -0.393 OA
ATOM     50  H7  UNL     1      19.379  19.756   5.513  1.00  0.00     0.210 HD
ENDBRANCH  48  49
ENDBRANCH  38  40
ENDBRANCH  27  36
ENDBRANCH   1  27
TORSDOF 17
ENDMDL
