MODEL 1
REMARK VINA RESULT: -11.931066357      0.000      0.000
REMARK  17 active torsions:
REMARK  status: ('A' for Active; 'I' for Inactive)
REMARK       I    between atoms: C1_2  and  N1_3 
REMARK    1  A    between atoms: C1_2  and  C9_12 
REMARK    2  A    between atoms: N1_3  and  C2_5 
REMARK    3  A    between atoms: C2_5  and  C3_6 
REMARK    4  A    between atoms: C9_12  and  O2_13 
REMARK    5  A    between atoms: C9_12  and  C17_21 
REMARK    6  A    between atoms: O2_13  and  C10_14 
REMARK    7  A    between atoms: C10_14  and  C11_15 
REMARK    8  A    between atoms: C17_21  and  O3_22 
REMARK    9  A    between atoms: C17_21  and  C18_24 
REMARK   10  A    between atoms: C18_24  and  O4_25 
REMARK   11  A    between atoms: C18_24  and  C19_27 
REMARK   12  A    between atoms: C19_27  and  O5_28 
REMARK   13  A    between atoms: C19_27  and  C27_36 
REMARK   14  A    between atoms: O5_28  and  C20_29 
REMARK   15  A    between atoms: C20_29  and  C21_30 
REMARK       I    between atoms: C27_36  and  N2_38 
REMARK   16  A    between atoms: N2_38  and  C28_40 
REMARK   17  A    between atoms: C36_48  and  O7_49 
ROOT
HETATM    1  C18 UNL     1      14.056  23.582   5.385  1.00  0.00     0.188 C 
ENDROOT
BRANCH   1   2
HETATM    2  C17 UNL     1      12.867  24.132   6.048  1.00  0.00     0.188 C 
BRANCH   2   3
HETATM    3  C9  UNL     1      11.837  24.661   5.089  1.00  0.00     0.244 C 
BRANCH   3   4
HETATM    4  C1  UNL     1      10.508  24.940   5.692  1.00  0.00     0.249 C 
HETATM    5  O1  UNL     1       9.793  23.961   6.125  1.00  0.00    -0.271 OA
HETATM    6  N1  UNL     1       9.937  26.223   5.831  1.00  0.00    -0.355 N 
ATOM      7  H1  UNL     1      10.452  27.038   5.498  1.00  0.00     0.162 HD
BRANCH   6   8
HETATM    8  C2  UNL     1       8.608  26.408   6.451  1.00  0.00     0.161 C 
BRANCH   8   9
HETATM    9  C3  UNL     1       8.850  27.002   7.787  1.00  0.00    -0.041 A 
HETATM   10  C4  UNL     1       8.011  27.930   8.299  1.00  0.00     0.009 A 
HETATM   11  C5  UNL     1       8.263  28.482   9.547  1.00  0.00     0.001 A 
HETATM   12  C6  UNL     1       9.357  28.108  10.293  1.00  0.00     0.000 A 
HETATM   13  C7  UNL     1      10.202  27.167   9.762  1.00  0.00     0.001 A 
HETATM   14  C8  UNL     1       9.966  26.613   8.529  1.00  0.00     0.009 A 
ENDBRANCH   8   9
ENDBRANCH   6   8
ENDBRANCH   3   4
BRANCH   3  15
HETATM   15  O2  UNL     1      11.667  23.703   4.056  1.00  0.00    -0.369 OA
BRANCH  15  16
HETATM   16  C10 UNL     1      11.410  24.208   2.829  1.00  0.00     0.207 C 
BRANCH  16  17
HETATM   17  C11 UNL     1       9.972  24.142   2.512  1.00  0.00    -0.035 A 
HETATM   18  C12 UNL     1       9.286  25.248   2.063  1.00  0.00     0.009 A 
HETATM   19  C13 UNL     1       7.924  25.203   1.781  1.00  0.00     0.001 A 
HETATM   20  C14 UNL     1       7.212  24.033   1.945  1.00  0.00     0.000 A 
HETATM   21  C15 UNL     1       7.897  22.901   2.401  1.00  0.00     0.001 A 
HETATM   22  C16 UNL     1       9.232  22.969   2.671  1.00  0.00     0.009 A 
ENDBRANCH  16  17
ENDBRANCH  15  16
ENDBRANCH   3  15
ENDBRANCH   2   3
BRANCH   2  23
HETATM   23  O3  UNL     1      13.181  25.083   7.032  1.00  0.00    -0.390 OA
ATOM     24  H3  UNL     1      12.552  25.796   7.034  1.00  0.00     0.210 HD
ENDBRANCH   2  23
ENDBRANCH   1   2
BRANCH   1  25
HETATM   25  O4  UNL     1      14.694  24.577   4.613  1.00  0.00    -0.390 OA
ATOM     26  H4  UNL     1      15.593  24.331   4.432  1.00  0.00     0.210 HD
ENDBRANCH   1  25
BRANCH   1  27
HETATM   27  C19 UNL     1      15.062  22.828   6.170  1.00  0.00     0.244 C 
BRANCH  27  28
HETATM   28  O5  UNL     1      14.653  22.981   7.525  1.00  0.00    -0.369 OA
BRANCH  28  29
HETATM   29  C20 UNL     1      15.645  23.101   8.426  1.00  0.00     0.207 C 
BRANCH  29  30
HETATM   30  C21 UNL     1      16.188  21.830   8.937  1.00  0.00    -0.035 A 
HETATM   31  C22 UNL     1      15.327  21.030   9.656  1.00  0.00     0.009 A 
HETATM   32  C23 UNL     1      15.794  19.851  10.178  1.00  0.00     0.001 A 
HETATM   33  C24 UNL     1      17.086  19.476   9.988  1.00  0.00     0.000 A 
HETATM   34  C25 UNL     1      17.966  20.262   9.271  1.00  0.00     0.001 A 
HETATM   35  C26 UNL     1      17.483  21.443   8.754  1.00  0.00     0.009 A 
ENDBRANCH  29  30
ENDBRANCH  28  29
ENDBRANCH  27  28
BRANCH  27  36
HETATM   36  C27 UNL     1      15.118  21.362   5.871  1.00  0.00     0.250 C 
HETATM   37  O6  UNL     1      14.070  20.670   6.027  1.00  0.00    -0.271 OA
HETATM   38  N2  UNL     1      16.289  20.714   5.424  1.00  0.00    -0.348 N 
ATOM     39  H2  UNL     1      17.137  21.265   5.298  1.00  0.00     0.163 HD
BRANCH  38  40
HETATM   40  C28 UNL     1      16.328  19.291   5.139  1.00  0.00     0.147 C 
HETATM   41  C29 UNL     1      16.076  19.050   3.677  1.00  0.00    -0.027 A 
HETATM   42  C30 UNL     1      15.293  19.691   2.752  1.00  0.00     0.010 A 
HETATM   43  C34 UNL     1      16.800  17.950   3.311  1.00  0.00    -0.047 A 
HETATM   44  C31 UNL     1      15.238  19.233   1.466  1.00  0.00     0.001 A 
HETATM   45  C32 UNL     1      15.952  18.136   1.080  1.00  0.00     0.001 A 
HETATM   46  C33 UNL     1      16.742  17.479   1.995  1.00  0.00     0.008 A 
HETATM   47  C35 UNL     1      17.579  17.426   4.484  1.00  0.00     0.073 C 
HETATM   48  C36 UNL     1      17.684  18.688   5.345  1.00  0.00     0.149 C 
BRANCH  48  49
HETATM   49  O7  UNL     1      18.654  19.552   4.812  1.00  0.00    -0.393 OA
ATOM     50  H7  UNL     1      19.407  19.565   5.390  1.00  0.00     0.210 HD
ENDBRANCH  48  49
ENDBRANCH  38  40
ENDBRANCH  27  36
ENDBRANCH   1  27
TORSDOF 17
ENDMDL
