MODEL 7
REMARK VINA RESULT: -11.579316554      0.821      1.500
REMARK  17 active torsions:
REMARK  status: ('A' for Active; 'I' for Inactive)
REMARK       I    between atoms: C1_2  and  N1_3 
REMARK    1  A    between atoms: C1_2  and  C9_12 
REMARK    2  A    between atoms: N1_3  and  C2_5 
REMARK    3  A    between atoms: C2_5  and  C3_6 
REMARK    4  A    between atoms: C9_12  and  O2_13 
REMARK    5  A    between atoms: C9_12  and  C17_21 
REMARK    6  A    between atoms: O2_13  and  C10_14 
REMARK    7  A    between atoms: C10_14  and  C11_15 
REMARK    8  A    between atoms: C17_21  and  O3_22 
REMARK    9  A    between atoms: C17_21  and  C18_24 
REMARK   10  A    between atoms: C18_24  and  O4_25 
REMARK   11  A    between atoms: C18_24  and  C19_27 
REMARK   12  A    between atoms: C19_27  and  O5_28 
REMARK   13  A    between atoms: C19_27  and  C27_36 
REMARK   14  A    between atoms: O5_28  and  C20_29 
REMARK   15  A    between atoms: C20_29  and  C21_30 
REMARK       I    between atoms: C27_36  and  N2_38 
REMARK   16  A    between atoms: N2_38  and  C28_40 
REMARK   17  A    between atoms: C36_48  and  O7_49 
ROOT
HETATM    1  C18 UNL     1      14.013  23.326   4.939  1.00  0.00     0.188 C 
ENDROOT
BRANCH   1   2
HETATM    2  C17 UNL     1      12.593  23.282   5.309  1.00  0.00     0.188 C 
BRANCH   2   3
HETATM    3  C9  UNL     1      11.962  24.642   5.428  1.00  0.00     0.244 C 
BRANCH   3   4
HETATM    4  C1  UNL     1      11.821  25.145   6.818  1.00  0.00     0.249 C 
HETATM    5  O1  UNL     1      12.873  25.486   7.476  1.00  0.00    -0.271 OA
HETATM    6  N1  UNL     1      10.597  25.284   7.506  1.00  0.00    -0.355 N 
ATOM      7  H1  UNL     1       9.728  25.021   7.041  1.00  0.00     0.162 HD
BRANCH   6   8
HETATM    8  C2  UNL     1      10.550  25.802   8.891  1.00  0.00     0.161 C 
BRANCH   8   9
HETATM    9  C3  UNL     1       9.427  26.767   8.936  1.00  0.00    -0.041 A 
HETATM   10  C4  UNL     1       9.404  27.767   9.845  1.00  0.00     0.009 A 
HETATM   11  C5  UNL     1       8.337  28.654   9.877  1.00  0.00     0.001 A 
HETATM   12  C6  UNL     1       7.285  28.547   8.997  1.00  0.00     0.000 A 
HETATM   13  C7  UNL     1       7.318  27.528   8.080  1.00  0.00     0.001 A 
HETATM   14  C8  UNL     1       8.366  26.643   8.037  1.00  0.00     0.009 A 
ENDBRANCH   8   9
ENDBRANCH   6   8
ENDBRANCH   3   4
BRANCH   3  15
HETATM   15  O2  UNL     1      10.670  24.578   4.842  1.00  0.00    -0.369 OA
BRANCH  15  16
HETATM   16  C10 UNL     1      10.615  24.018   3.613  1.00  0.00     0.207 C 
BRANCH  16  17
HETATM   17  C11 UNL     1       9.312  24.265   2.970  1.00  0.00    -0.035 A 
HETATM   18  C12 UNL     1       9.145  25.280   2.055  1.00  0.00     0.009 A 
HETATM   19  C13 UNL     1       7.915  25.537   1.457  1.00  0.00     0.001 A 
HETATM   20  C14 UNL     1       6.811  24.771   1.769  1.00  0.00     0.000 A 
HETATM   21  C15 UNL     1       6.965  23.737   2.698  1.00  0.00     0.001 A 
HETATM   22  C16 UNL     1       8.181  23.503   3.271  1.00  0.00     0.009 A 
ENDBRANCH  16  17
ENDBRANCH  15  16
ENDBRANCH   3  15
ENDBRANCH   2   3
BRANCH   2  23
HETATM   23  O3  UNL     1      12.351  22.508   6.455  1.00  0.00    -0.390 OA
ATOM     24  H3  UNL     1      12.586  21.599   6.312  1.00  0.00     0.210 HD
ENDBRANCH   2  23
ENDBRANCH   1   2
BRANCH   1  25
HETATM   25  O4  UNL     1      14.417  24.656   4.690  1.00  0.00    -0.390 OA
ATOM     26  H4  UNL     1      15.283  24.673   4.302  1.00  0.00     0.210 HD
ENDBRANCH   1  25
BRANCH   1  27
HETATM   27  C19 UNL     1      15.022  22.640   5.780  1.00  0.00     0.244 C 
BRANCH  27  28
HETATM   28  O5  UNL     1      14.581  22.849   7.118  1.00  0.00    -0.369 OA
BRANCH  28  29
HETATM   29  C20 UNL     1      15.547  23.093   8.022  1.00  0.00     0.207 C 
BRANCH  29  30
HETATM   30  C21 UNL     1      16.016  21.918   8.776  1.00  0.00    -0.035 A 
HETATM   31  C22 UNL     1      17.343  21.577   8.636  1.00  0.00     0.009 A 
HETATM   32  C23 UNL     1      17.820  20.473   9.295  1.00  0.00     0.001 A 
HETATM   33  C24 UNL     1      16.995  19.726  10.075  1.00  0.00     0.000 A 
HETATM   34  C25 UNL     1      15.662  20.049  10.229  1.00  0.00     0.001 A 
HETATM   35  C26 UNL     1      15.198  21.160   9.561  1.00  0.00     0.009 A 
ENDBRANCH  29  30
ENDBRANCH  28  29
ENDBRANCH  27  28
BRANCH  27  36
HETATM   36  C27 UNL     1      15.124  21.162   5.556  1.00  0.00     0.250 C 
HETATM   37  O6  UNL     1      14.108  20.443   5.784  1.00  0.00    -0.271 OA
HETATM   38  N2  UNL     1      16.302  20.534   5.104  1.00  0.00    -0.348 N 
ATOM     39  H2  UNL     1      17.125  21.108   4.920  1.00  0.00     0.163 HD
BRANCH  38  40
HETATM   40  C28 UNL     1      16.385  19.100   4.892  1.00  0.00     0.147 C 
HETATM   41  C29 UNL     1      16.248  18.785   3.430  1.00  0.00    -0.027 A 
HETATM   42  C30 UNL     1      15.528  19.366   2.418  1.00  0.00     0.010 A 
HETATM   43  C34 UNL     1      17.015  17.683   3.173  1.00  0.00    -0.047 A 
HETATM   44  C31 UNL     1      15.577  18.846   1.156  1.00  0.00     0.001 A 
HETATM   45  C32 UNL     1      16.335  17.746   0.879  1.00  0.00     0.001 A 
HETATM   46  C33 UNL     1      17.064  17.149   1.881  1.00  0.00     0.008 A 
HETATM   47  C35 UNL     1      17.712  17.231   4.425  1.00  0.00     0.073 C 
HETATM   48  C36 UNL     1      17.732  18.534   5.228  1.00  0.00     0.149 C 
BRANCH  48  49
HETATM   49  O7  UNL     1      18.725  19.391   4.728  1.00  0.00    -0.393 OA
ATOM     50  H7  UNL     1      18.483  20.290   4.917  1.00  0.00     0.210 HD
ENDBRANCH  48  49
ENDBRANCH  38  40
ENDBRANCH  27  36
ENDBRANCH   1  27
TORSDOF 17
ENDMDL
