MODEL 4
REMARK VINA RESULT: -11.873416281      1.078     10.613
REMARK  17 active torsions:
REMARK  status: ('A' for Active; 'I' for Inactive)
REMARK       I    between atoms: C1_2  and  N1_3 
REMARK    1  A    between atoms: C1_2  and  C9_12 
REMARK    2  A    between atoms: N1_3  and  C2_5 
REMARK    3  A    between atoms: C2_5  and  C3_6 
REMARK    4  A    between atoms: C9_12  and  O2_13 
REMARK    5  A    between atoms: C9_12  and  C17_21 
REMARK    6  A    between atoms: O2_13  and  C10_14 
REMARK    7  A    between atoms: C10_14  and  C11_15 
REMARK    8  A    between atoms: C17_21  and  O3_22 
REMARK    9  A    between atoms: C17_21  and  C18_24 
REMARK   10  A    between atoms: C18_24  and  O4_25 
REMARK   11  A    between atoms: C18_24  and  C19_27 
REMARK   12  A    between atoms: C19_27  and  O5_28 
REMARK   13  A    between atoms: C19_27  and  C27_36 
REMARK   14  A    between atoms: O5_28  and  C20_29 
REMARK   15  A    between atoms: C20_29  and  C21_30 
REMARK       I    between atoms: C27_36  and  N2_38 
REMARK   16  A    between atoms: N2_38  and  C28_40 
REMARK   17  A    between atoms: C36_48  and  O7_49 
ROOT
HETATM    1  C18 UNL     1      12.850  24.096   5.754  1.00  0.00     0.188 C 
ENDROOT
BRANCH   1   2
HETATM    2  C17 UNL     1      14.079  23.615   5.110  1.00  0.00     0.188 C 
BRANCH   2   3
HETATM    3  C9  UNL     1      14.809  22.575   5.915  1.00  0.00     0.244 C 
BRANCH   3   4
HETATM    4  C1  UNL     1      14.425  21.172   5.617  1.00  0.00     0.249 C 
HETATM    5  O1  UNL     1      13.235  20.770   5.898  1.00  0.00    -0.271 OA
HETATM    6  N1  UNL     1      15.276  20.206   5.040  1.00  0.00    -0.355 N 
ATOM      7  H1  UNL     1      16.235  20.462   4.803  1.00  0.00     0.162 HD
BRANCH   6   8
HETATM    8  C2  UNL     1      14.806  18.830   4.771  1.00  0.00     0.161 C 
BRANCH   8   9
HETATM    9  C3  UNL     1      15.495  18.388   3.536  1.00  0.00    -0.041 A 
HETATM   10  C4  UNL     1      15.022  18.728   2.316  1.00  0.00     0.009 A 
HETATM   11  C5  UNL     1      15.678  18.295   1.172  1.00  0.00     0.001 A 
HETATM   12  C6  UNL     1      16.811  17.518   1.241  1.00  0.00     0.000 A 
HETATM   13  C7  UNL     1      17.279  17.178   2.484  1.00  0.00     0.001 A 
HETATM   14  C8  UNL     1      16.642  17.600   3.624  1.00  0.00     0.009 A 
ENDBRANCH   8   9
ENDBRANCH   6   8
ENDBRANCH   3   4
BRANCH   3  15
HETATM   15  O2  UNL     1      14.554  22.826   7.289  1.00  0.00    -0.369 OA
BRANCH  15  16
HETATM   16  C10 UNL     1      15.641  23.113   8.040  1.00  0.00     0.207 C 
BRANCH  16  17
HETATM   17  C11 UNL     1      16.125  21.920   8.758  1.00  0.00    -0.035 A 
HETATM   18  C12 UNL     1      17.451  21.550   8.721  1.00  0.00     0.009 A 
HETATM   19  C13 UNL     1      17.916  20.414   9.377  1.00  0.00     0.001 A 
HETATM   20  C14 UNL     1      17.050  19.615  10.094  1.00  0.00     0.000 A 
HETATM   21  C15 UNL     1      15.699  19.979  10.140  1.00  0.00     0.001 A 
HETATM   22  C16 UNL     1      15.266  21.096   9.489  1.00  0.00     0.009 A 
ENDBRANCH  16  17
ENDBRANCH  15  16
ENDBRANCH   3  15
ENDBRANCH   2   3
BRANCH   2  23
HETATM   23  O3  UNL     1      14.939  24.656   4.726  1.00  0.00    -0.390 OA
ATOM     24  H3  UNL     1      14.478  25.310   4.214  1.00  0.00     0.210 HD
ENDBRANCH   2  23
ENDBRANCH   1   2
BRANCH   1  25
HETATM   25  O4  UNL     1      13.143  25.140   6.657  1.00  0.00    -0.390 OA
ATOM     26  H4  UNL     1      12.347  25.589   6.916  1.00  0.00     0.210 HD
ENDBRANCH   1  25
BRANCH   1  27
HETATM   27  C19 UNL     1      11.673  24.457   4.929  1.00  0.00     0.244 C 
BRANCH  27  28
HETATM   28  O5  UNL     1      11.482  23.344   4.062  1.00  0.00    -0.369 OA
BRANCH  28  29
HETATM   29  C20 UNL     1      11.209  23.641   2.778  1.00  0.00     0.207 C 
BRANCH  29  30
HETATM   30  C21 UNL     1       9.797  23.952   2.492  1.00  0.00    -0.035 A 
HETATM   31  C22 UNL     1       8.884  22.942   2.698  1.00  0.00     0.009 A 
HETATM   32  C23 UNL     1       7.561  23.174   2.417  1.00  0.00     0.001 A 
HETATM   33  C24 UNL     1       7.158  24.382   1.942  1.00  0.00     0.000 A 
HETATM   34  C25 UNL     1       8.057  25.408   1.729  1.00  0.00     0.001 A 
HETATM   35  C26 UNL     1       9.381  25.160   2.015  1.00  0.00     0.009 A 
ENDBRANCH  29  30
ENDBRANCH  28  29
ENDBRANCH  27  28
BRANCH  27  36
HETATM   36  C27 UNL     1      10.405  24.658   5.702  1.00  0.00     0.250 C 
HETATM   37  O6  UNL     1       9.806  23.642   6.159  1.00  0.00    -0.271 OA
HETATM   38  N2  UNL     1       9.847  25.930   5.942  1.00  0.00    -0.348 N 
ATOM     39  H2  UNL     1      10.324  26.753   5.576  1.00  0.00     0.163 HD
BRANCH  38  40
HETATM   40  C28 UNL     1       8.617  26.109   6.693  1.00  0.00     0.147 C 
HETATM   41  C29 UNL     1       8.890  26.868   7.961  1.00  0.00    -0.027 A 
HETATM   42  C30 UNL     1       9.966  26.900   8.810  1.00  0.00     0.010 A 
HETATM   43  C34 UNL     1       7.785  27.626   8.232  1.00  0.00    -0.047 A 
HETATM   44  C31 UNL     1       9.935  27.687   9.926  1.00  0.00     0.001 A 
HETATM   45  C32 UNL     1       8.841  28.450  10.217  1.00  0.00     0.001 A 
HETATM   46  C33 UNL     1       7.752  28.430   9.376  1.00  0.00     0.008 A 
HETATM   47  C35 UNL     1       6.747  27.433   7.164  1.00  0.00     0.073 C 
HETATM   48  C36 UNL     1       7.622  26.983   5.992  1.00  0.00     0.149 C 
BRANCH  48  49
HETATM   49  O7  UNL     1       8.292  28.087   5.442  1.00  0.00    -0.393 OA
ATOM     50  H7  UNL     1       7.908  28.294   4.598  1.00  0.00     0.210 HD
ENDBRANCH  48  49
ENDBRANCH  38  40
ENDBRANCH  27  36
ENDBRANCH   1  27
TORSDOF 17
ENDMDL
