MODEL 6
REMARK VINA RESULT: -11.591678224      1.125      9.919
REMARK  17 active torsions:
REMARK  status: ('A' for Active; 'I' for Inactive)
REMARK       I    between atoms: C1_2  and  N1_3 
REMARK    1  A    between atoms: C1_2  and  C9_12 
REMARK    2  A    between atoms: N1_3  and  C2_5 
REMARK    3  A    between atoms: C2_5  and  C3_6 
REMARK    4  A    between atoms: C9_12  and  O2_13 
REMARK    5  A    between atoms: C9_12  and  C17_21 
REMARK    6  A    between atoms: O2_13  and  C10_14 
REMARK    7  A    between atoms: C10_14  and  C11_15 
REMARK    8  A    between atoms: C17_21  and  O3_22 
REMARK    9  A    between atoms: C17_21  and  C18_24 
REMARK   10  A    between atoms: C18_24  and  O4_25 
REMARK   11  A    between atoms: C18_24  and  C19_27 
REMARK   12  A    between atoms: C19_27  and  O5_28 
REMARK   13  A    between atoms: C19_27  and  C27_36 
REMARK   14  A    between atoms: O5_28  and  C20_29 
REMARK   15  A    between atoms: C20_29  and  C21_30 
REMARK       I    between atoms: C27_36  and  N2_38 
REMARK   16  A    between atoms: N2_38  and  C28_40 
REMARK   17  A    between atoms: C36_48  and  O7_49 
ROOT
HETATM    1  C18 UNL     1      12.979  23.888   5.674  1.00  0.00     0.188 C 
ENDROOT
BRANCH   1   2
HETATM    2  C17 UNL     1      14.133  23.308   4.977  1.00  0.00     0.188 C 
BRANCH   2   3
HETATM    3  C9  UNL     1      14.628  22.030   5.597  1.00  0.00     0.244 C 
BRANCH   3   4
HETATM    4  C1  UNL     1      15.099  22.159   7.000  1.00  0.00     0.249 C 
HETATM    5  O1  UNL     1      15.960  23.068   7.296  1.00  0.00    -0.271 OA
HETATM    6  N1  UNL     1      14.676  21.345   8.072  1.00  0.00    -0.355 N 
ATOM      7  H1  UNL     1      14.001  20.600   7.898  1.00  0.00     0.162 HD
BRANCH   6   8
HETATM    8  C2  UNL     1      15.194  21.549   9.442  1.00  0.00     0.161 C 
BRANCH   8   9
HETATM    9  C3  UNL     1      16.163  20.456   9.689  1.00  0.00    -0.041 A 
HETATM   10  C4  UNL     1      15.762  19.275  10.210  1.00  0.00     0.009 A 
HETATM   11  C5  UNL     1      16.688  18.268  10.443  1.00  0.00     0.001 A 
HETATM   12  C6  UNL     1      18.023  18.436  10.155  1.00  0.00     0.000 A 
HETATM   13  C7  UNL     1      18.418  19.638   9.628  1.00  0.00     0.001 A 
HETATM   14  C8  UNL     1      17.513  20.643   9.392  1.00  0.00     0.009 A 
ENDBRANCH   8   9
ENDBRANCH   6   8
ENDBRANCH   3   4
BRANCH   3  15
HETATM   15  O2  UNL     1      15.705  21.548   4.807  1.00  0.00    -0.369 OA
BRANCH  15  16
HETATM   16  C10 UNL     1      16.024  20.247   4.991  1.00  0.00     0.207 C 
BRANCH  16  17
HETATM   17  C11 UNL     1      16.028  19.512   3.713  1.00  0.00    -0.035 A 
HETATM   18  C12 UNL     1      17.094  18.720   3.345  1.00  0.00     0.009 A 
HETATM   19  C13 UNL     1      17.119  18.039   2.133  1.00  0.00     0.001 A 
HETATM   20  C14 UNL     1      16.062  18.137   1.251  1.00  0.00     0.000 A 
HETATM   21  C15 UNL     1      14.973  18.938   1.611  1.00  0.00     0.001 A 
HETATM   22  C16 UNL     1      14.971  19.597   2.806  1.00  0.00     0.009 A 
ENDBRANCH  16  17
ENDBRANCH  15  16
ENDBRANCH   3  15
ENDBRANCH   2   3
BRANCH   2  23
HETATM   23  O3  UNL     1      15.181  24.224   4.797  1.00  0.00    -0.390 OA
ATOM     24  H3  UNL     1      15.856  24.109   5.457  1.00  0.00     0.210 HD
ENDBRANCH   2  23
ENDBRANCH   1   2
BRANCH   1  25
HETATM   25  O4  UNL     1      13.409  24.726   6.726  1.00  0.00    -0.390 OA
ATOM     26  H4  UNL     1      12.863  24.602   7.494  1.00  0.00     0.210 HD
ENDBRANCH   1  25
BRANCH   1  27
HETATM   27  C19 UNL     1      11.904  24.556   4.903  1.00  0.00     0.244 C 
BRANCH  27  28
HETATM   28  O5  UNL     1      11.661  23.692   3.798  1.00  0.00    -0.369 OA
BRANCH  28  29
HETATM   29  C20 UNL     1      11.271  24.294   2.659  1.00  0.00     0.207 C 
BRANCH  29  30
HETATM   30  C21 UNL     1       9.821  24.268   2.398  1.00  0.00    -0.035 A 
HETATM   31  C22 UNL     1       9.189  23.051   2.525  1.00  0.00     0.009 A 
HETATM   32  C23 UNL     1       7.844  22.968   2.263  1.00  0.00     0.001 A 
HETATM   33  C24 UNL     1       7.147  24.072   1.885  1.00  0.00     0.000 A 
HETATM   34  C25 UNL     1       7.761  25.301   1.751  1.00  0.00     0.001 A 
HETATM   35  C26 UNL     1       9.111  25.367   2.017  1.00  0.00     0.009 A 
ENDBRANCH  29  30
ENDBRANCH  28  29
ENDBRANCH  27  28
BRANCH  27  36
HETATM   36  C27 UNL     1      10.614  24.725   5.645  1.00  0.00     0.250 C 
HETATM   37  O6  UNL     1      10.127  23.727   6.251  1.00  0.00    -0.271 OA
HETATM   38  N2  UNL     1       9.914  25.948   5.698  1.00  0.00    -0.348 N 
ATOM     39  H2  UNL     1      10.300  26.757   5.211  1.00  0.00     0.163 HD
BRANCH  38  40
HETATM   40  C28 UNL     1       8.664  26.097   6.421  1.00  0.00     0.147 C 
HETATM   41  C29 UNL     1       8.897  26.829   7.712  1.00  0.00    -0.027 A 
HETATM   42  C30 UNL     1       9.950  26.852   8.590  1.00  0.00     0.010 A 
HETATM   43  C34 UNL     1       7.777  27.569   7.973  1.00  0.00    -0.047 A 
HETATM   44  C31 UNL     1       9.883  27.612   9.722  1.00  0.00     0.001 A 
HETATM   45  C32 UNL     1       8.773  28.356  10.003  1.00  0.00     0.001 A 
HETATM   46  C33 UNL     1       7.707  28.346   9.134  1.00  0.00     0.008 A 
HETATM   47  C35 UNL     1       6.768  27.390   6.875  1.00  0.00     0.073 C 
HETATM   48  C36 UNL     1       7.678  26.977   5.715  1.00  0.00     0.149 C 
BRANCH  48  49
HETATM   49  O7  UNL     1       8.350  28.101   5.208  1.00  0.00    -0.393 OA
ATOM     50  H7  UNL     1       7.739  28.826   5.149  1.00  0.00     0.210 HD
ENDBRANCH  48  49
ENDBRANCH  38  40
ENDBRANCH  27  36
ENDBRANCH   1  27
TORSDOF 17
ENDMDL
