MODEL 3
REMARK VINA RESULT: -11.905977175      0.193      1.011
REMARK  17 active torsions:
REMARK  status: ('A' for Active; 'I' for Inactive)
REMARK       I    between atoms: C1_2  and  N1_3 
REMARK    1  A    between atoms: C1_2  and  C9_12 
REMARK    2  A    between atoms: N1_3  and  C2_5 
REMARK    3  A    between atoms: C2_5  and  C3_6 
REMARK    4  A    between atoms: C9_12  and  O2_13 
REMARK    5  A    between atoms: C9_12  and  C17_21 
REMARK    6  A    between atoms: O2_13  and  C10_14 
REMARK    7  A    between atoms: C10_14  and  C11_15 
REMARK    8  A    between atoms: C17_21  and  O3_22 
REMARK    9  A    between atoms: C17_21  and  C18_24 
REMARK   10  A    between atoms: C18_24  and  O4_25 
REMARK   11  A    between atoms: C18_24  and  C19_27 
REMARK   12  A    between atoms: C19_27  and  O5_28 
REMARK   13  A    between atoms: C19_27  and  C27_36 
REMARK   14  A    between atoms: O5_28  and  C20_29 
REMARK   15  A    between atoms: C20_29  and  C21_30 
REMARK       I    between atoms: C27_36  and  N2_38 
REMARK   16  A    between atoms: N2_38  and  C28_40 
REMARK   17  A    between atoms: C36_48  and  O7_49 
ROOT
HETATM    1  C18 UNL     1      13.986  23.619   5.322  1.00  0.00     0.188 C 
ENDROOT
BRANCH   1   2
HETATM    2  C17 UNL     1      12.758  24.111   5.959  1.00  0.00     0.188 C 
BRANCH   2   3
HETATM    3  C9  UNL     1      11.692  24.512   4.977  1.00  0.00     0.244 C 
BRANCH   3   4
HETATM    4  C1  UNL     1      10.402  24.921   5.589  1.00  0.00     0.249 C 
HETATM    5  O1  UNL     1       9.557  24.017   5.944  1.00  0.00    -0.271 OA
HETATM    6  N1  UNL     1      10.003  26.255   5.818  1.00  0.00    -0.355 N 
ATOM      7  H1  UNL     1      10.626  27.016   5.549  1.00  0.00     0.162 HD
BRANCH   6   8
HETATM    8  C2  UNL     1       8.700  26.570   6.441  1.00  0.00     0.161 C 
BRANCH   8   9
HETATM    9  C3  UNL     1       8.999  27.078   7.800  1.00  0.00    -0.041 A 
HETATM   10  C4  UNL     1      10.085  26.647   8.481  1.00  0.00     0.009 A 
HETATM   11  C5  UNL     1      10.341  27.128   9.757  1.00  0.00     0.001 A 
HETATM   12  C6  UNL     1       9.512  28.045  10.361  1.00  0.00     0.000 A 
HETATM   13  C7  UNL     1       8.414  28.474   9.662  1.00  0.00     0.001 A 
HETATM   14  C8  UNL     1       8.148  28.007   8.399  1.00  0.00     0.009 A 
ENDBRANCH   8   9
ENDBRANCH   6   8
ENDBRANCH   3   4
BRANCH   3  15
HETATM   15  O2  UNL     1      11.449  23.407   4.118  1.00  0.00    -0.369 OA
BRANCH  15  16
HETATM   16  C10 UNL     1      11.288  23.711   2.811  1.00  0.00     0.207 C 
BRANCH  16  17
HETATM   17  C11 UNL     1       9.870  23.953   2.490  1.00  0.00    -0.035 A 
HETATM   18  C12 UNL     1       8.927  22.956   2.610  1.00  0.00     0.009 A 
HETATM   19  C13 UNL     1       7.590  23.167   2.289  1.00  0.00     0.001 A 
HETATM   20  C14 UNL     1       7.163  24.398   1.835  1.00  0.00     0.000 A 
HETATM   21  C15 UNL     1       8.110  25.420   1.708  1.00  0.00     0.001 A 
HETATM   22  C16 UNL     1       9.416  25.190   2.028  1.00  0.00     0.009 A 
ENDBRANCH  16  17
ENDBRANCH  15  16
ENDBRANCH   3  15
ENDBRANCH   2   3
BRANCH   2  23
HETATM   23  O3  UNL     1      12.998  25.131   6.893  1.00  0.00    -0.390 OA
ATOM     24  H3  UNL     1      13.780  24.954   7.402  1.00  0.00     0.210 HD
ENDBRANCH   2  23
ENDBRANCH   1   2
BRANCH   1  25
HETATM   25  O4  UNL     1      14.616  24.656   4.600  1.00  0.00    -0.390 OA
ATOM     26  H4  UNL     1      15.549  24.664   4.776  1.00  0.00     0.210 HD
ENDBRANCH   1  25
BRANCH   1  27
HETATM   27  C19 UNL     1      14.990  22.875   6.118  1.00  0.00     0.244 C 
BRANCH  27  28
HETATM   28  O5  UNL     1      14.572  23.037   7.470  1.00  0.00    -0.369 OA
BRANCH  28  29
HETATM   29  C20 UNL     1      15.558  23.183   8.374  1.00  0.00     0.207 C 
BRANCH  29  30
HETATM   30  C21 UNL     1      16.100  21.927   8.922  1.00  0.00    -0.035 A 
HETATM   31  C22 UNL     1      15.239  21.149   9.664  1.00  0.00     0.009 A 
HETATM   32  C23 UNL     1      15.705  19.985  10.220  1.00  0.00     0.001 A 
HETATM   33  C24 UNL     1      16.997  19.604  10.041  1.00  0.00     0.000 A 
HETATM   34  C25 UNL     1      17.877  20.368   9.301  1.00  0.00     0.001 A 
HETATM   35  C26 UNL     1      17.394  21.534   8.749  1.00  0.00     0.009 A 
ENDBRANCH  29  30
ENDBRANCH  28  29
ENDBRANCH  27  28
BRANCH  27  36
HETATM   36  C27 UNL     1      15.053  21.406   5.831  1.00  0.00     0.250 C 
HETATM   37  O6  UNL     1      14.004  20.714   5.978  1.00  0.00    -0.271 OA
HETATM   38  N2  UNL     1      16.230  20.758   5.407  1.00  0.00    -0.348 N 
ATOM     39  H2  UNL     1      17.080  21.309   5.287  1.00  0.00     0.163 HD
BRANCH  38  40
HETATM   40  C28 UNL     1      16.276  19.333   5.133  1.00  0.00     0.147 C 
HETATM   41  C29 UNL     1      16.047  19.079   3.669  1.00  0.00    -0.027 A 
HETATM   42  C30 UNL     1      15.279  19.713   2.727  1.00  0.00     0.010 A 
HETATM   43  C34 UNL     1      16.779  17.978   3.323  1.00  0.00    -0.047 A 
HETATM   44  C31 UNL     1      15.244  19.245   1.444  1.00  0.00     0.001 A 
HETATM   45  C32 UNL     1      15.965  18.145   1.078  1.00  0.00     0.001 A 
HETATM   46  C33 UNL     1      16.742  17.497   2.010  1.00  0.00     0.008 A 
HETATM   47  C35 UNL     1      17.540  17.464   4.512  1.00  0.00     0.073 C 
HETATM   48  C36 UNL     1      17.629  18.733   5.365  1.00  0.00     0.149 C 
BRANCH  48  49
HETATM   49  O7  UNL     1      18.606  19.595   4.840  1.00  0.00    -0.393 OA
ATOM     50  H7  UNL     1      19.427  19.122   4.764  1.00  0.00     0.210 HD
ENDBRANCH  48  49
ENDBRANCH  38  40
ENDBRANCH  27  36
ENDBRANCH   1  27
TORSDOF 17
ENDMDL
