MODEL 6
REMARK VINA RESULT: -11.305089762      1.111      9.588
REMARK  16 active torsions:
REMARK  status: ('A' for Active; 'I' for Inactive)
REMARK       I    between atoms: C1_2  and  N1_3 
REMARK    1  A    between atoms: C1_2  and  C11_16 
REMARK    2  A    between atoms: N1_3  and  C2_5 
REMARK    3  A    between atoms: C10_13  and  O2_14 
REMARK    4  A    between atoms: C11_16  and  C12_17 
REMARK    5  A    between atoms: C11_16  and  O7_45 
REMARK    6  A    between atoms: C12_17  and  C13_18 
REMARK    7  A    between atoms: C13_18  and  O3_19 
REMARK    8  A    between atoms: C13_18  and  C14_21 
REMARK    9  A    between atoms: C14_21  and  O4_22 
REMARK   10  A    between atoms: C14_21  and  C22_30 
REMARK   11  A    between atoms: O4_22  and  C15_23 
REMARK   12  A    between atoms: C15_23  and  C16_24 
REMARK       I    between atoms: C22_30  and  N2_32 
REMARK   13  A    between atoms: N2_32  and  C23_34 
REMARK   14  A    between atoms: C31_42  and  O6_43 
REMARK   15  A    between atoms: O7_45  and  C32_46 
REMARK   16  A    between atoms: C32_46  and  C33_47 
ROOT
HETATM    1  C13 UNL     1      14.455  23.557   5.095  1.00  0.00     0.159 C 
ENDROOT
BRANCH   1   2
HETATM    2  C12 UNL     1      13.480  24.478   5.731  1.00  0.00     0.076 C 
BRANCH   2   3
HETATM    3  C11 UNL     1      12.207  24.593   4.967  1.00  0.00     0.216 C 
BRANCH   3   4
HETATM    4  C1  UNL     1      11.051  24.458   5.876  1.00  0.00     0.247 C 
HETATM    5  O1  UNL     1      10.793  23.463   6.580  1.00  0.00    -0.271 OA
HETATM    6  N1  UNL     1      10.137  25.570   5.960  1.00  0.00    -0.348 N 
ATOM      7  H1  UNL     1      10.291  26.412   5.404  1.00  0.00     0.163 HD
BRANCH   6   8
HETATM    8  C2  UNL     1       8.999  25.473   6.846  1.00  0.00     0.147 C 
HETATM    9  C3  UNL     1       9.312  26.287   8.087  1.00  0.00    -0.027 A 
HETATM   10  C4  UNL     1       9.962  25.843   9.224  1.00  0.00     0.010 A 
HETATM   11  C8  UNL     1       8.880  27.567   7.949  1.00  0.00    -0.047 A 
HETATM   12  C5  UNL     1      10.185  26.743  10.268  1.00  0.00     0.001 A 
HETATM   13  C6  UNL     1       9.739  28.035  10.105  1.00  0.00     0.001 A 
HETATM   14  C7  UNL     1       9.093  28.470   8.975  1.00  0.00     0.008 A 
HETATM   15  C9  UNL     1       8.213  27.712   6.625  1.00  0.00     0.073 C 
HETATM   16  C10 UNL     1       7.834  26.275   6.273  1.00  0.00     0.149 C 
BRANCH  16  17
HETATM   17  O2  UNL     1       7.743  26.039   4.931  1.00  0.00    -0.393 OA
ATOM     18  H2  UNL     1       6.839  26.144   4.655  1.00  0.00     0.210 HD
ENDBRANCH  16  17
ENDBRANCH   6   8
ENDBRANCH   3   4
BRANCH   3  19
HETATM   19  O7  UNL     1      12.164  23.841   3.825  1.00  0.00    -0.372 OA
BRANCH  19  20
HETATM   20  C32 UNL     1      11.680  24.467   2.699  1.00  0.00     0.207 C 
BRANCH  20  21
HETATM   21  C33 UNL     1      10.252  24.112   2.508  1.00  0.00    -0.035 A 
HETATM   22  C34 UNL     1       9.854  22.787   2.764  1.00  0.00     0.009 A 
HETATM   23  C35 UNL     1       8.568  22.358   2.595  1.00  0.00     0.001 A 
HETATM   24  C36 UNL     1       7.636  23.250   2.158  1.00  0.00     0.000 A 
HETATM   25  C37 UNL     1       7.998  24.538   1.903  1.00  0.00     0.001 A 
HETATM   26  C38 UNL     1       9.300  25.000   2.069  1.00  0.00     0.009 A 
ENDBRANCH  20  21
ENDBRANCH  19  20
ENDBRANCH   3  19
ENDBRANCH   2   3
ENDBRANCH   1   2
BRANCH   1  27
HETATM   27  O3  UNL     1      15.462  24.311   4.418  1.00  0.00    -0.392 OA
ATOM     28  H3  UNL     1      16.017  23.728   3.914  1.00  0.00     0.210 HD
ENDBRANCH   1  27
BRANCH   1  29
HETATM   29  C14 UNL     1      15.170  22.661   6.103  1.00  0.00     0.242 C 
BRANCH  29  30
HETATM   30  O4  UNL     1      14.568  22.763   7.337  1.00  0.00    -0.369 OA
BRANCH  30  31
HETATM   31  C15 UNL     1      15.358  22.934   8.418  1.00  0.00     0.207 C 
BRANCH  31  32
HETATM   32  C16 UNL     1      16.044  21.776   8.981  1.00  0.00    -0.035 A 
HETATM   33  C17 UNL     1      15.270  20.825   9.679  1.00  0.00     0.009 A 
HETATM   34  C18 UNL     1      15.834  19.709  10.196  1.00  0.00     0.001 A 
HETATM   35  C19 UNL     1      17.174  19.451  10.070  1.00  0.00     0.000 A 
HETATM   36  C20 UNL     1      17.949  20.389   9.381  1.00  0.00     0.001 A 
HETATM   37  C21 UNL     1      17.373  21.527   8.853  1.00  0.00     0.009 A 
ENDBRANCH  31  32
ENDBRANCH  30  31
ENDBRANCH  29  30
BRANCH  29  38
HETATM   38  C22 UNL     1      15.040  21.202   5.675  1.00  0.00     0.249 C 
HETATM   39  O5  UNL     1      13.948  20.648   5.670  1.00  0.00    -0.271 OA
HETATM   40  N2  UNL     1      16.199  20.512   5.294  1.00  0.00    -0.348 N 
ATOM     41  H2  UNL     1      17.067  21.048   5.274  1.00  0.00     0.163 HD
BRANCH  40  42
HETATM   42  C23 UNL     1      16.286  19.156   4.937  1.00  0.00     0.147 C 
HETATM   43  C24 UNL     1      16.066  18.709   3.560  1.00  0.00    -0.027 A 
HETATM   44  C25 UNL     1      14.991  18.528   2.691  1.00  0.00     0.010 A 
HETATM   45  C29 UNL     1      17.292  18.337   3.017  1.00  0.00    -0.047 A 
HETATM   46  C26 UNL     1      15.070  18.038   1.419  1.00  0.00     0.001 A 
HETATM   47  C27 UNL     1      16.321  17.678   0.921  1.00  0.00     0.001 A 
HETATM   48  C28 UNL     1      17.408  17.839   1.741  1.00  0.00     0.008 A 
HETATM   49  C30 UNL     1      18.364  18.538   4.012  1.00  0.00     0.073 C 
HETATM   50  C31 UNL     1      17.580  18.510   5.335  1.00  0.00     0.149 C 
BRANCH  50  51
HETATM   51  O6  UNL     1      18.347  19.433   6.139  1.00  0.00    -0.393 OA
ATOM     52  H6  UNL     1      19.126  19.692   5.662  1.00  0.00     0.210 HD
ENDBRANCH  50  51
ENDBRANCH  40  42
ENDBRANCH  29  38
ENDBRANCH   1  29
TORSDOF 16
ENDMDL
