MODEL 2
REMARK VINA RESULT: -12.147111006      1.308     10.450
REMARK  16 active torsions:
REMARK  status: ('A' for Active; 'I' for Inactive)
REMARK       I    between atoms: C1_2  and  N1_3 
REMARK    1  A    between atoms: C1_2  and  C11_16 
REMARK    2  A    between atoms: N1_3  and  C2_5 
REMARK    3  A    between atoms: C10_13  and  O2_14 
REMARK    4  A    between atoms: C11_16  and  C12_17 
REMARK    5  A    between atoms: C11_16  and  O7_45 
REMARK    6  A    between atoms: C12_17  and  C13_18 
REMARK    7  A    between atoms: C13_18  and  O3_19 
REMARK    8  A    between atoms: C13_18  and  C14_21 
REMARK    9  A    between atoms: C14_21  and  O4_22 
REMARK   10  A    between atoms: C14_21  and  C22_30 
REMARK   11  A    between atoms: O4_22  and  C15_23 
REMARK   12  A    between atoms: C15_23  and  C16_24 
REMARK       I    between atoms: C22_30  and  N2_32 
REMARK   13  A    between atoms: N2_32  and  C23_34 
REMARK   14  A    between atoms: C31_42  and  O6_43 
REMARK   15  A    between atoms: O7_45  and  C32_46 
REMARK   16  A    between atoms: C32_46  and  C33_47 
ROOT
HETATM    1  C13 UNL     1      13.721  23.763   5.452  1.00  0.00     0.159 C 
ENDROOT
BRANCH   1   2
HETATM    2  C12 UNL     1      12.892  24.397   6.507  1.00  0.00     0.076 C 
BRANCH   2   3
HETATM    3  C11 UNL     1      11.510  23.847   6.568  1.00  0.00     0.216 C 
BRANCH   3   4
HETATM    4  C1  UNL     1      11.153  23.215   5.282  1.00  0.00     0.247 C 
HETATM    5  O1  UNL     1      11.300  22.011   5.000  1.00  0.00    -0.271 OA
HETATM    6  N1  UNL     1      10.584  24.059   4.260  1.00  0.00    -0.348 N 
ATOM      7  H1  UNL     1      10.443  25.055   4.430  1.00  0.00     0.163 HD
BRANCH   6   8
HETATM    8  C2  UNL     1      10.216  23.469   2.993  1.00  0.00     0.147 C 
HETATM    9  C3  UNL     1       8.724  23.670   2.809  1.00  0.00    -0.027 A 
HETATM   10  C4  UNL     1       7.717  22.829   3.247  1.00  0.00     0.010 A 
HETATM   11  C8  UNL     1       8.468  24.830   2.150  1.00  0.00    -0.047 A 
HETATM   12  C5  UNL     1       6.389  23.186   3.005  1.00  0.00     0.001 A 
HETATM   13  C6  UNL     1       6.154  24.366   2.337  1.00  0.00     0.001 A 
HETATM   14  C7  UNL     1       7.158  25.196   1.904  1.00  0.00     0.008 A 
HETATM   15  C9  UNL     1       9.761  25.486   1.808  1.00  0.00     0.073 C 
HETATM   16  C10 UNL     1      10.756  24.328   1.853  1.00  0.00     0.149 C 
BRANCH  16  17
HETATM   17  O2  UNL     1      12.036  24.708   2.143  1.00  0.00    -0.393 OA
ATOM     18  H2  UNL     1      12.368  25.253   1.439  1.00  0.00     0.210 HD
ENDBRANCH  16  17
ENDBRANCH   6   8
ENDBRANCH   3   4
BRANCH   3  19
HETATM   19  O7  UNL     1      10.584  24.707   7.091  1.00  0.00    -0.372 OA
BRANCH  19  20
HETATM   20  C32 UNL     1      11.045  25.612   8.020  1.00  0.00     0.207 C 
BRANCH  20  21
HETATM   21  C33 UNL     1       9.927  26.479   8.468  1.00  0.00    -0.035 A 
HETATM   22  C34 UNL     1      10.146  27.337   9.562  1.00  0.00     0.009 A 
HETATM   23  C35 UNL     1       9.173  28.155  10.063  1.00  0.00     0.001 A 
HETATM   24  C36 UNL     1       7.943  28.136   9.481  1.00  0.00     0.000 A 
HETATM   25  C37 UNL     1       7.707  27.313   8.421  1.00  0.00     0.001 A 
HETATM   26  C38 UNL     1       8.681  26.472   7.892  1.00  0.00     0.009 A 
ENDBRANCH  20  21
ENDBRANCH  19  20
ENDBRANCH   3  19
ENDBRANCH   2   3
ENDBRANCH   1   2
BRANCH   1  27
HETATM   27  O3  UNL     1      14.161  24.752   4.521  1.00  0.00    -0.392 OA
ATOM     28  H3  UNL     1      14.691  24.347   3.846  1.00  0.00     0.210 HD
ENDBRANCH   1  27
BRANCH   1  29
HETATM   29  C14 UNL     1      14.972  23.085   6.008  1.00  0.00     0.242 C 
BRANCH  29  30
HETATM   30  O4  UNL     1      15.046  23.273   7.369  1.00  0.00    -0.369 OA
BRANCH  30  31
HETATM   31  C15 UNL     1      16.248  23.131   7.968  1.00  0.00     0.207 C 
BRANCH  31  32
HETATM   32  C16 UNL     1      16.489  21.956   8.798  1.00  0.00    -0.035 A 
HETATM   33  C17 UNL     1      15.394  21.408   9.500  1.00  0.00     0.009 A 
HETATM   34  C18 UNL     1      15.537  20.297  10.260  1.00  0.00     0.001 A 
HETATM   35  C19 UNL     1      16.741  19.656  10.385  1.00  0.00     0.000 A 
HETATM   36  C20 UNL     1      17.832  20.193   9.693  1.00  0.00     0.001 A 
HETATM   37  C21 UNL     1      17.686  21.326   8.918  1.00  0.00     0.009 A 
ENDBRANCH  31  32
ENDBRANCH  30  31
ENDBRANCH  29  30
BRANCH  29  38
HETATM   38  C22 UNL     1      14.883  21.579   5.781  1.00  0.00     0.249 C 
HETATM   39  O5  UNL     1      13.925  20.940   6.196  1.00  0.00    -0.271 OA
HETATM   40  N2  UNL     1      15.925  20.945   5.090  1.00  0.00    -0.348 N 
ATOM     41  H2  UNL     1      16.668  21.543   4.728  1.00  0.00     0.163 HD
BRANCH  40  42
HETATM   42  C23 UNL     1      16.050  19.567   4.847  1.00  0.00     0.147 C 
HETATM   43  C24 UNL     1      15.909  19.009   3.500  1.00  0.00    -0.027 A 
HETATM   44  C25 UNL     1      14.883  18.740   2.595  1.00  0.00     0.010 A 
HETATM   45  C29 UNL     1      17.167  18.618   3.051  1.00  0.00    -0.047 A 
HETATM   46  C26 UNL     1      15.036  18.153   1.371  1.00  0.00     0.001 A 
HETATM   47  C27 UNL     1      16.317  17.779   0.967  1.00  0.00     0.001 A 
HETATM   48  C28 UNL     1      17.357  18.024   1.827  1.00  0.00     0.008 A 
HETATM   49  C30 UNL     1      18.182  18.917   4.081  1.00  0.00     0.073 C 
HETATM   50  C31 UNL     1      17.332  18.978   5.360  1.00  0.00     0.149 C 
BRANCH  50  51
HETATM   51  O6  UNL     1      18.042  19.976   6.126  1.00  0.00    -0.393 OA
ATOM     52  H6  UNL     1      18.580  19.545   6.780  1.00  0.00     0.210 HD
ENDBRANCH  50  51
ENDBRANCH  40  42
ENDBRANCH  29  38
ENDBRANCH   1  29
TORSDOF 16
ENDMDL
