MODEL 5
REMARK VINA RESULT: -11.421589626      1.137      4.526
REMARK  16 active torsions:
REMARK  status: ('A' for Active; 'I' for Inactive)
REMARK       I    between atoms: C1_2  and  N1_3 
REMARK    1  A    between atoms: C1_2  and  C11_16 
REMARK    2  A    between atoms: N1_3  and  C2_5 
REMARK    3  A    between atoms: C10_13  and  O2_14 
REMARK    4  A    between atoms: C11_16  and  C12_17 
REMARK    5  A    between atoms: C11_16  and  O7_45 
REMARK    6  A    between atoms: C12_17  and  C13_18 
REMARK    7  A    between atoms: C13_18  and  O3_19 
REMARK    8  A    between atoms: C13_18  and  C14_21 
REMARK    9  A    between atoms: C14_21  and  O4_22 
REMARK   10  A    between atoms: C14_21  and  C22_30 
REMARK   11  A    between atoms: O4_22  and  C15_23 
REMARK   12  A    between atoms: C15_23  and  C16_24 
REMARK       I    between atoms: C22_30  and  N2_32 
REMARK   13  A    between atoms: N2_32  and  C23_34 
REMARK   14  A    between atoms: C31_42  and  O6_43 
REMARK   15  A    between atoms: O7_45  and  C32_46 
REMARK   16  A    between atoms: C32_46  and  C33_47 
ROOT
HETATM    1  C13 UNL     1      13.416  24.220   5.018  1.00  0.00     0.159 C 
ENDROOT
BRANCH   1   2
HETATM    2  C12 UNL     1      13.999  22.922   4.597  1.00  0.00     0.076 C 
BRANCH   2   3
HETATM    3  C11 UNL     1      14.845  22.297   5.652  1.00  0.00     0.216 C 
BRANCH   3   4
HETATM    4  C1  UNL     1      14.816  20.826   5.527  1.00  0.00     0.247 C 
HETATM    5  O1  UNL     1      13.820  20.101   5.712  1.00  0.00    -0.271 OA
HETATM    6  N1  UNL     1      16.044  20.165   5.159  1.00  0.00    -0.348 N 
ATOM      7  H1  UNL     1      16.895  20.704   4.999  1.00  0.00     0.163 HD
BRANCH   6   8
HETATM    8  C2  UNL     1      16.047  18.726   5.020  1.00  0.00     0.147 C 
HETATM    9  C3  UNL     1      15.988  18.407   3.539  1.00  0.00    -0.027 A 
HETATM   10  C4  UNL     1      14.849  18.262   2.770  1.00  0.00     0.010 A 
HETATM   11  C8  UNL     1      17.238  18.290   3.018  1.00  0.00    -0.047 A 
HETATM   12  C5  UNL     1      14.986  17.988   1.407  1.00  0.00     0.001 A 
HETATM   13  C6  UNL     1      16.261  17.875   0.902  1.00  0.00     0.001 A 
HETATM   14  C7  UNL     1      17.389  18.019   1.670  1.00  0.00     0.008 A 
HETATM   15  C9  UNL     1      18.235  18.486   4.107  1.00  0.00     0.073 C 
HETATM   16  C10 UNL     1      17.430  18.182   5.368  1.00  0.00     0.149 C 
BRANCH  16  17
HETATM   17  O2  UNL     1      17.894  18.814   6.487  1.00  0.00    -0.393 OA
ATOM     18  H2  UNL     1      17.876  19.753   6.347  1.00  0.00     0.210 HD
ENDBRANCH  16  17
ENDBRANCH   6   8
ENDBRANCH   3   4
BRANCH   3  19
HETATM   19  O7  UNL     1      14.639  22.796   6.909  1.00  0.00    -0.372 OA
BRANCH  19  20
HETATM   20  C32 UNL     1      15.765  23.125   7.628  1.00  0.00     0.207 C 
BRANCH  20  21
HETATM   21  C33 UNL     1      16.133  21.997   8.519  1.00  0.00    -0.035 A 
HETATM   22  C34 UNL     1      15.136  21.447   9.345  1.00  0.00     0.009 A 
HETATM   23  C35 UNL     1      15.382  20.423  10.216  1.00  0.00     0.001 A 
HETATM   24  C36 UNL     1      16.644  19.919  10.288  1.00  0.00     0.000 A 
HETATM   25  C37 UNL     1      17.627  20.436   9.499  1.00  0.00     0.001 A 
HETATM   26  C38 UNL     1      17.402  21.476   8.604  1.00  0.00     0.009 A 
ENDBRANCH  20  21
ENDBRANCH  19  20
ENDBRANCH   3  19
ENDBRANCH   2   3
ENDBRANCH   1   2
BRANCH   1  27
HETATM   27  O3  UNL     1      14.192  25.294   4.486  1.00  0.00    -0.392 OA
ATOM     28  H3  UNL     1      14.690  25.707   5.182  1.00  0.00     0.210 HD
ENDBRANCH   1  27
BRANCH   1  29
HETATM   29  C14 UNL     1      11.985  24.415   4.523  1.00  0.00     0.242 C 
BRANCH  29  30
HETATM   30  O4  UNL     1      11.605  23.348   3.741  1.00  0.00    -0.369 OA
BRANCH  30  31
HETATM   31  C15 UNL     1      11.065  23.605   2.530  1.00  0.00     0.207 C 
BRANCH  31  32
HETATM   32  C16 UNL     1       9.632  23.865   2.438  1.00  0.00    -0.035 A 
HETATM   33  C17 UNL     1       9.217  25.071   1.834  1.00  0.00     0.009 A 
HETATM   34  C18 UNL     1       7.904  25.361   1.683  1.00  0.00     0.001 A 
HETATM   35  C19 UNL     1       6.921  24.505   2.106  1.00  0.00     0.000 A 
HETATM   36  C20 UNL     1       7.323  23.308   2.706  1.00  0.00     0.001 A 
HETATM   37  C21 UNL     1       8.663  23.012   2.860  1.00  0.00     0.009 A 
ENDBRANCH  31  32
ENDBRANCH  30  31
ENDBRANCH  29  30
BRANCH  29  38
HETATM   38  C22 UNL     1      11.030  24.444   5.712  1.00  0.00     0.249 C 
HETATM   39  O5  UNL     1      11.045  23.548   6.547  1.00  0.00    -0.271 OA
HETATM   40  N2  UNL     1      10.133  25.516   5.824  1.00  0.00    -0.348 N 
ATOM     41  H2  UNL     1      10.208  26.252   5.122  1.00  0.00     0.163 HD
BRANCH  40  42
HETATM   42  C23 UNL     1       9.142  25.678   6.806  1.00  0.00     0.147 C 
HETATM   43  C24 UNL     1       9.423  26.343   8.079  1.00  0.00    -0.027 A 
HETATM   44  C25 UNL     1      10.089  26.056   9.271  1.00  0.00     0.010 A 
HETATM   45  C29 UNL     1       8.807  27.591   8.071  1.00  0.00    -0.047 A 
HETATM   46  C26 UNL     1      10.165  26.879  10.358  1.00  0.00     0.001 A 
HETATM   47  C27 UNL     1       9.530  28.118  10.300  1.00  0.00     0.001 A 
HETATM   48  C28 UNL     1       8.862  28.443   9.147  1.00  0.00     0.008 A 
HETATM   49  C30 UNL     1       8.109  27.796   6.786  1.00  0.00     0.073 C 
HETATM   50  C31 UNL     1       7.899  26.352   6.302  1.00  0.00     0.149 C 
BRANCH  50  51
HETATM   51  O6  UNL     1       7.993  26.516   4.870  1.00  0.00    -0.393 OA
ATOM     52  H6  UNL     1       8.903  26.638   4.627  1.00  0.00     0.210 HD
ENDBRANCH  50  51
ENDBRANCH  40  42
ENDBRANCH  29  38
ENDBRANCH   1  29
TORSDOF 16
ENDMDL
