MODEL 4
REMARK VINA RESULT: -11.695854086      0.575      8.548
REMARK  16 active torsions:
REMARK  status: ('A' for Active; 'I' for Inactive)
REMARK       I    between atoms: C1_2  and  N1_3 
REMARK    1  A    between atoms: C1_2  and  C11_16 
REMARK    2  A    between atoms: N1_3  and  C2_5 
REMARK    3  A    between atoms: C10_13  and  O2_14 
REMARK    4  A    between atoms: C11_16  and  C12_17 
REMARK    5  A    between atoms: C11_16  and  O7_45 
REMARK    6  A    between atoms: C12_17  and  C13_18 
REMARK    7  A    between atoms: C13_18  and  O3_19 
REMARK    8  A    between atoms: C13_18  and  C14_21 
REMARK    9  A    between atoms: C14_21  and  O4_22 
REMARK   10  A    between atoms: C14_21  and  C22_30 
REMARK   11  A    between atoms: O4_22  and  C15_23 
REMARK   12  A    between atoms: C15_23  and  C16_24 
REMARK       I    between atoms: C22_30  and  N2_32 
REMARK   13  A    between atoms: N2_32  and  C23_34 
REMARK   14  A    between atoms: C31_42  and  O6_43 
REMARK   15  A    between atoms: O7_45  and  C32_46 
REMARK   16  A    between atoms: C32_46  and  C33_47 
ROOT
HETATM    1  C13 UNL     1      14.087  22.885   4.339  1.00  0.00     0.159 C 
ENDROOT
BRANCH   1   2
HETATM    2  C12 UNL     1      13.409  24.024   5.005  1.00  0.00     0.076 C 
BRANCH   2   3
HETATM    3  C11 UNL     1      12.090  24.351   4.396  1.00  0.00     0.216 C 
BRANCH   3   4
HETATM    4  C1  UNL     1      11.018  24.248   5.407  1.00  0.00     0.247 C 
HETATM    5  O1  UNL     1      10.757  23.237   6.087  1.00  0.00    -0.271 OA
HETATM    6  N1  UNL     1      10.200  25.414   5.632  1.00  0.00    -0.348 N 
ATOM      7  H1  UNL     1      10.362  26.271   5.102  1.00  0.00     0.163 HD
BRANCH   6   8
HETATM    8  C2  UNL     1       9.148  25.348   6.621  1.00  0.00     0.147 C 
HETATM    9  C3  UNL     1       9.604  26.142   7.830  1.00  0.00    -0.027 A 
HETATM   10  C4  UNL     1      10.342  25.669   8.898  1.00  0.00     0.010 A 
HETATM   11  C8  UNL     1       9.204  27.438   7.738  1.00  0.00    -0.047 A 
HETATM   12  C5  UNL     1      10.692  26.553   9.920  1.00  0.00     0.001 A 
HETATM   13  C6  UNL     1      10.277  27.860   9.806  1.00  0.00     0.001 A 
HETATM   14  C7  UNL     1       9.543  28.326   8.743  1.00  0.00     0.008 A 
HETATM   15  C9  UNL     1       8.421  27.614   6.483  1.00  0.00     0.073 C 
HETATM   16  C10 UNL     1       7.962  26.193   6.163  1.00  0.00     0.149 C 
BRANCH  16  17
HETATM   17  O2  UNL     1       7.738  25.970   4.833  1.00  0.00    -0.393 OA
ATOM     18  H2  UNL     1       6.826  26.153   4.635  1.00  0.00     0.210 HD
ENDBRANCH  16  17
ENDBRANCH   6   8
ENDBRANCH   3   4
BRANCH   3  19
HETATM   19  O7  UNL     1      11.850  23.728   3.202  1.00  0.00    -0.372 OA
BRANCH  19  20
HETATM   20  C32 UNL     1      11.359  24.517   2.188  1.00  0.00     0.207 C 
BRANCH  20  21
HETATM   21  C33 UNL     1       9.885  24.367   2.110  1.00  0.00    -0.035 A 
HETATM   22  C34 UNL     1       9.326  23.111   2.411  1.00  0.00     0.009 A 
HETATM   23  C35 UNL     1       7.983  22.866   2.344  1.00  0.00     0.001 A 
HETATM   24  C36 UNL     1       7.155  23.879   1.969  1.00  0.00     0.000 A 
HETATM   25  C37 UNL     1       7.673  25.104   1.671  1.00  0.00     0.001 A 
HETATM   26  C38 UNL     1       9.035  25.378   1.733  1.00  0.00     0.009 A 
ENDBRANCH  20  21
ENDBRANCH  19  20
ENDBRANCH   3  19
ENDBRANCH   2   3
ENDBRANCH   1   2
BRANCH   1  27
HETATM   27  O3  UNL     1      15.504  23.034   4.449  1.00  0.00    -0.392 OA
ATOM     28  H3  UNL     1      15.939  22.343   3.964  1.00  0.00     0.210 HD
ENDBRANCH   1  27
BRANCH   1  29
HETATM   29  C14 UNL     1      13.730  21.536   4.958  1.00  0.00     0.242 C 
BRANCH  29  30
HETATM   30  O4  UNL     1      14.564  20.556   4.472  1.00  0.00    -0.369 OA
BRANCH  30  31
HETATM   31  C15 UNL     1      14.527  20.286   3.150  1.00  0.00     0.207 C 
BRANCH  31  32
HETATM   32  C16 UNL     1      15.401  19.246   2.618  1.00  0.00    -0.035 A 
HETATM   33  C17 UNL     1      16.162  18.490   3.535  1.00  0.00     0.009 A 
HETATM   34  C18 UNL     1      16.966  17.485   3.116  1.00  0.00     0.001 A 
HETATM   35  C19 UNL     1      17.082  17.157   1.791  1.00  0.00     0.000 A 
HETATM   36  C20 UNL     1      16.333  17.902   0.874  1.00  0.00     0.001 A 
HETATM   37  C21 UNL     1      15.512  18.926   1.303  1.00  0.00     0.009 A 
ENDBRANCH  31  32
ENDBRANCH  30  31
ENDBRANCH  29  30
BRANCH  29  38
HETATM   38  C22 UNL     1      13.953  21.589   6.466  1.00  0.00     0.249 C 
HETATM   39  O5  UNL     1      13.006  21.527   7.240  1.00  0.00    -0.271 OA
HETATM   40  N2  UNL     1      15.265  21.714   6.944  1.00  0.00    -0.348 N 
ATOM     41  H2  UNL     1      16.010  21.710   6.247  1.00  0.00     0.163 HD
BRANCH  40  42
HETATM   42  C23 UNL     1      15.657  21.845   8.287  1.00  0.00     0.147 C 
HETATM   43  C24 UNL     1      16.220  20.721   9.036  1.00  0.00    -0.027 A 
HETATM   44  C25 UNL     1      15.766  19.543   9.629  1.00  0.00     0.010 A 
HETATM   45  C29 UNL     1      17.582  20.948   9.215  1.00  0.00    -0.047 A 
HETATM   46  C26 UNL     1      16.535  18.658  10.329  1.00  0.00     0.001 A 
HETATM   47  C27 UNL     1      17.893  18.931  10.482  1.00  0.00     0.001 A 
HETATM   48  C28 UNL     1      18.384  20.079   9.915  1.00  0.00     0.008 A 
HETATM   49  C30 UNL     1      17.965  22.224   8.580  1.00  0.00     0.073 C 
HETATM   50  C31 UNL     1      16.622  22.970   8.525  1.00  0.00     0.149 C 
BRANCH  50  51
HETATM   51  O6  UNL     1      16.772  23.736   7.310  1.00  0.00    -0.393 OA
ATOM     52  H6  UNL     1      17.295  24.509   7.488  1.00  0.00     0.210 HD
ENDBRANCH  50  51
ENDBRANCH  40  42
ENDBRANCH  29  38
ENDBRANCH   1  29
TORSDOF 16
ENDMDL
