MODEL 5
REMARK VINA RESULT: -9.318368275      2.540      9.829
REMARK  10 active torsions:
REMARK  status: ('A' for Active; 'I' for Inactive)
REMARK    1  A    between atoms: C2_2  and  C4_4 
REMARK    2  A    between atoms: C4_4  and  C5_5 
REMARK    3  A    between atoms: C5_5  and  N1_6 
REMARK    4  A    between atoms: N1_6  and  C6_7 
REMARK    5  A    between atoms: N1_6  and  S1_37 
REMARK    6  A    between atoms: C6_7  and  C7_8 
REMARK    7  A    between atoms: C7_8  and  O1_9 
REMARK    8  A    between atoms: C7_8  and  C8_11 
REMARK    9  A    between atoms: C22_29  and  C23_30 
REMARK   10  A    between atoms: S1_37  and  C27_40 
ROOT
HETATM    1  C8  UNL     1       5.835  -1.522  15.389  1.00  0.00     0.122 C 
HETATM    2  C9  UNL     1       6.664  -2.020  14.226  1.00  0.00     0.066 C 
HETATM    3  C10 UNL     1       7.800  -2.964  14.608  1.00  0.00    -0.056 A 
HETATM    4  C11 UNL     1       7.840  -4.268  14.175  1.00  0.00     0.010 A 
HETATM    5  C12 UNL     1       8.915  -5.110  14.577  1.00  0.00     0.037 A 
HETATM    6  C13 UNL     1       9.923  -4.686  15.385  1.00  0.00     0.068 A 
HETATM    7  C14 UNL     1       9.910  -3.403  15.825  1.00  0.00     0.037 A 
HETATM    8  C15 UNL     1       8.838  -2.559  15.423  1.00  0.00     0.010 A 
HETATM    9  O2  UNL     1      10.961  -5.550  15.763  1.00  0.00    -0.351 OA
HETATM   10  C16 UNL     1      10.844  -6.348  16.964  1.00  0.00     0.175 C 
HETATM   11  C17 UNL     1       9.705  -5.788  17.793  1.00  0.00     0.027 C 
HETATM   12  C18 UNL     1       9.237  -6.858  18.736  1.00  0.00     0.002 C 
HETATM   13  C19 UNL     1       7.788  -7.143  18.505  1.00  0.00     0.009 C 
HETATM   14  C20 UNL     1       6.987  -5.889  18.786  1.00  0.00     0.103 C 
HETATM   15  C21 UNL     1       5.521  -6.097  18.555  1.00  0.00     0.218 C 
HETATM   16  O3  UNL     1       5.024  -7.113  19.118  1.00  0.00    -0.274 OA
HETATM   17  N2  UNL     1       4.696  -5.274  17.787  1.00  0.00    -0.347 N 
ATOM     18  H2  UNL     1       3.741  -5.148  18.121  1.00  0.00     0.163 HD
HETATM   19  C22 UNL     1       5.050  -4.578  16.563  1.00  0.00     0.179 C 
HETATM   20  C26 UNL     1       4.284  -3.296  16.420  1.00  0.00     0.241 C 
HETATM   21  O4  UNL     1       3.275  -3.205  17.178  1.00  0.00    -0.271 OA
HETATM   22  N3  UNL     1       4.592  -2.247  15.552  1.00  0.00    -0.352 N 
ATOM     23  H3  UNL     1       3.829  -1.947  14.944  1.00  0.00     0.163 HD
ENDROOT
BRANCH   1  24
HETATM   24  C7  UNL     1       5.508  -0.054  15.068  1.00  0.00     0.180 C 
BRANCH  24  25
HETATM   25  C6  UNL     1       4.555   0.101  13.939  1.00  0.00     0.115 C 
BRANCH  25  26
HETATM   26  N1  UNL     1       4.872   1.073  12.975  1.00  0.00    -0.263 N 
BRANCH  26  27
HETATM   27  C5  UNL     1       3.846   1.844  12.398  1.00  0.00     0.082 C 
BRANCH  27  28
HETATM   28  C4  UNL     1       2.772   0.901  11.861  1.00  0.00     0.049 C 
BRANCH  28  29
HETATM   29  C2  UNL     1       1.389   1.475  12.079  1.00  0.00    -0.018 C 
HETATM   30  C1  UNL     1       0.665   1.436  10.751  1.00  0.00     0.010 C 
HETATM   31  C3  UNL     1       0.574   0.659  13.060  1.00  0.00     0.010 C 
ENDBRANCH  28  29
ENDBRANCH  27  28
ENDBRANCH  26  27
BRANCH  26  32
HETATM   32  S1  UNL     1       6.375   1.047  12.236  1.00  0.00     0.267 S 
HETATM   33  O5  UNL     1       7.431   1.175  13.332  1.00  0.00    -0.200 OA
HETATM   34  O6  UNL     1       6.627  -0.337  11.647  1.00  0.00    -0.200 OA
BRANCH  32  35
HETATM   35  C27 UNL     1       6.683   2.285  11.068  1.00  0.00     0.080 A 
HETATM   36  C28 UNL     1       6.255   2.133   9.775  1.00  0.00     0.027 A 
HETATM   37  C29 UNL     1       6.478   3.098   8.802  1.00  0.00     0.028 A 
HETATM   38  C30 UNL     1       7.155   4.249   9.149  1.00  0.00     0.046 A 
HETATM   39  N4  UNL     1       7.367   5.216   8.129  1.00  0.00    -0.102 NA
HETATM   40  C31 UNL     1       7.598   4.423  10.449  1.00  0.00     0.028 A 
HETATM   41  C32 UNL     1       7.357   3.431  11.409  1.00  0.00     0.027 A 
ENDBRANCH  32  35
ENDBRANCH  26  32
ENDBRANCH  25  26
ENDBRANCH  24  25
BRANCH  24  42
HETATM   42  O1  UNL     1       5.179   0.651  16.191  1.00  0.00    -0.388 OA
ATOM     43  H1  UNL     1       4.343   0.416  16.575  1.00  0.00     0.210 HD
ENDBRANCH  24  42
ENDBRANCH   1  24
BRANCH  19  44
HETATM   44  C23 UNL     1       4.670  -5.531  15.423  1.00  0.00     0.009 C 
HETATM   45  C24 UNL     1       4.072  -4.782  14.264  1.00  0.00     0.012 C 
HETATM   46  C25 UNL     1       3.746  -6.564  15.982  1.00  0.00     0.012 C 
ENDBRANCH  19  44
TORSDOF 10
ENDMDL
