MODEL 4
REMARK VINA RESULT: -9.483102792      2.651     10.163
REMARK  10 active torsions:
REMARK  status: ('A' for Active; 'I' for Inactive)
REMARK    1  A    between atoms: C2_2  and  C4_4 
REMARK    2  A    between atoms: C4_4  and  C5_5 
REMARK    3  A    between atoms: C5_5  and  N1_6 
REMARK    4  A    between atoms: N1_6  and  C6_7 
REMARK    5  A    between atoms: N1_6  and  S1_37 
REMARK    6  A    between atoms: C6_7  and  C7_8 
REMARK    7  A    between atoms: C7_8  and  O1_9 
REMARK    8  A    between atoms: C7_8  and  C8_11 
REMARK    9  A    between atoms: C22_29  and  C23_30 
REMARK   10  A    between atoms: S1_37  and  C27_40 
ROOT
HETATM    1  C8  UNL     1       5.608  -1.248  15.435  1.00  0.00     0.122 C 
HETATM    2  C9  UNL     1       6.434  -1.678  14.243  1.00  0.00     0.066 C 
HETATM    3  C10 UNL     1       7.578  -2.634  14.569  1.00  0.00    -0.056 A 
HETATM    4  C11 UNL     1       7.624  -3.912  14.067  1.00  0.00     0.010 A 
HETATM    5  C12 UNL     1       8.705  -4.769  14.420  1.00  0.00     0.037 A 
HETATM    6  C13 UNL     1       9.715  -4.382  15.244  1.00  0.00     0.068 A 
HETATM    7  C14 UNL     1       9.696  -3.124  15.751  1.00  0.00     0.037 A 
HETATM    8  C15 UNL     1       8.617  -2.267  15.400  1.00  0.00     0.010 A 
HETATM    9  O2  UNL     1      10.759  -5.259  15.571  1.00  0.00    -0.351 OA
HETATM   10  C16 UNL     1      10.652  -6.120  16.729  1.00  0.00     0.175 C 
HETATM   11  C17 UNL     1       9.514  -5.612  17.591  1.00  0.00     0.027 C 
HETATM   12  C18 UNL     1       9.057  -6.733  18.478  1.00  0.00     0.002 C 
HETATM   13  C19 UNL     1       7.608  -7.014  18.238  1.00  0.00     0.009 C 
HETATM   14  C20 UNL     1       6.802  -5.781  18.590  1.00  0.00     0.103 C 
HETATM   15  C21 UNL     1       5.335  -5.986  18.354  1.00  0.00     0.218 C 
HETATM   16  O3  UNL     1       4.847  -7.034  18.864  1.00  0.00    -0.274 OA
HETATM   17  N2  UNL     1       4.502  -5.128  17.634  1.00  0.00    -0.347 N 
ATOM     18  H2  UNL     1       3.548  -5.026  17.979  1.00  0.00     0.163 HD
HETATM   19  C22 UNL     1       4.847  -4.366  16.448  1.00  0.00     0.179 C 
HETATM   20  C26 UNL     1       4.073  -3.082  16.377  1.00  0.00     0.241 C 
HETATM   21  O4  UNL     1       3.066  -3.038  17.143  1.00  0.00    -0.271 OA
HETATM   22  N3  UNL     1       4.370  -1.987  15.564  1.00  0.00    -0.352 N 
ATOM     23  H3  UNL     1       3.603  -1.660  14.977  1.00  0.00     0.163 HD
ENDROOT
BRANCH   1  24
HETATM   24  C7  UNL     1       5.271   0.234  15.194  1.00  0.00     0.180 C 
BRANCH  24  25
HETATM   25  C6  UNL     1       3.987   0.433  14.473  1.00  0.00     0.115 C 
BRANCH  25  26
HETATM   26  N1  UNL     1       4.074   0.815  13.124  1.00  0.00    -0.263 N 
BRANCH  26  27
HETATM   27  C5  UNL     1       5.201   1.529  12.672  1.00  0.00     0.082 C 
BRANCH  27  28
HETATM   28  C4  UNL     1       5.945   0.669  11.654  1.00  0.00     0.049 C 
BRANCH  28  29
HETATM   29  C2  UNL     1       7.412   1.038  11.602  1.00  0.00    -0.018 C 
HETATM   30  C1  UNL     1       7.766   1.680  12.926  1.00  0.00     0.010 C 
HETATM   31  C3  UNL     1       8.306  -0.171  11.434  1.00  0.00     0.010 C 
ENDBRANCH  28  29
ENDBRANCH  27  28
ENDBRANCH  26  27
BRANCH  26  32
HETATM   32  S1  UNL     1       2.704   0.778  12.163  1.00  0.00     0.267 S 
HETATM   33  O5  UNL     1       2.799  -0.456  11.269  1.00  0.00    -0.200 OA
HETATM   34  O6  UNL     1       1.480   0.504  13.033  1.00  0.00    -0.200 OA
BRANCH  32  35
HETATM   35  C27 UNL     1       2.442   2.147  11.137  1.00  0.00     0.080 A 
HETATM   36  C28 UNL     1       1.342   2.193  10.321  1.00  0.00     0.027 A 
HETATM   37  C29 UNL     1       1.088   3.269   9.479  1.00  0.00     0.028 A 
HETATM   38  C30 UNL     1       1.973   4.326   9.466  1.00  0.00     0.046 A 
HETATM   39  N4  UNL     1       1.685   5.411   8.594  1.00  0.00    -0.102 NA
HETATM   40  C31 UNL     1       3.092   4.300  10.282  1.00  0.00     0.028 A 
HETATM   41  C32 UNL     1       3.321   3.200  11.120  1.00  0.00     0.027 A 
ENDBRANCH  32  35
ENDBRANCH  26  32
ENDBRANCH  25  26
ENDBRANCH  24  25
BRANCH  24  42
HETATM   42  O1  UNL     1       5.407   0.978  16.331  1.00  0.00    -0.388 OA
ATOM     43  H1  UNL     1       5.410   0.473  17.136  1.00  0.00     0.210 HD
ENDBRANCH  24  42
ENDBRANCH   1  24
BRANCH  19  44
HETATM   44  C23 UNL     1       4.466  -5.259  15.260  1.00  0.00     0.009 C 
HETATM   45  C24 UNL     1       3.849  -4.454  14.150  1.00  0.00     0.012 C 
HETATM   46  C25 UNL     1       3.560  -6.332  15.770  1.00  0.00     0.012 C 
ENDBRANCH  19  44
TORSDOF 10
ENDMDL
