MODEL 3
REMARK VINA RESULT: -9.614098766      1.754      2.541
REMARK  10 active torsions:
REMARK  status: ('A' for Active; 'I' for Inactive)
REMARK    1  A    between atoms: C2_2  and  C4_4 
REMARK    2  A    between atoms: C4_4  and  C5_5 
REMARK    3  A    between atoms: C5_5  and  N1_6 
REMARK    4  A    between atoms: N1_6  and  C6_7 
REMARK    5  A    between atoms: N1_6  and  S1_37 
REMARK    6  A    between atoms: C6_7  and  C7_8 
REMARK    7  A    between atoms: C7_8  and  O1_9 
REMARK    8  A    between atoms: C7_8  and  C8_11 
REMARK    9  A    between atoms: C22_29  and  C23_30 
REMARK   10  A    between atoms: S1_37  and  C27_40 
ROOT
HETATM    1  C8  UNL     1       5.301  -0.420  14.812  1.00  0.00     0.122 C 
HETATM    2  C9  UNL     1       4.545  -1.358  13.899  1.00  0.00     0.066 C 
HETATM    3  C10 UNL     1       3.503  -0.684  13.010  1.00  0.00    -0.056 A 
HETATM    4  C11 UNL     1       3.601  -0.692  11.639  1.00  0.00     0.010 A 
HETATM    5  C12 UNL     1       2.611  -0.031  10.859  1.00  0.00     0.037 A 
HETATM    6  C13 UNL     1       1.553   0.622  11.409  1.00  0.00     0.068 A 
HETATM    7  C14 UNL     1       1.430   0.643  12.760  1.00  0.00     0.037 A 
HETATM    8  C15 UNL     1       2.418  -0.018  13.541  1.00  0.00     0.010 A 
HETATM    9  O2  UNL     1       0.601   1.266  10.604  1.00  0.00    -0.351 OA
HETATM   10  C16 UNL     1       0.779   2.653  10.234  1.00  0.00     0.175 C 
HETATM   11  C17 UNL     1       1.843   3.249  11.135  1.00  0.00     0.027 C 
HETATM   12  C18 UNL     1       2.402   4.470  10.462  1.00  0.00     0.002 C 
HETATM   13  C19 UNL     1       3.876   4.314  10.266  1.00  0.00     0.009 C 
HETATM   14  C20 UNL     1       4.542   4.180  11.620  1.00  0.00     0.103 C 
HETATM   15  C21 UNL     1       6.025   4.001  11.499  1.00  0.00     0.218 C 
HETATM   16  O3  UNL     1       6.613   4.842  10.762  1.00  0.00    -0.274 OA
HETATM   17  N2  UNL     1       6.775   3.002  12.122  1.00  0.00    -0.347 N 
ATOM     18  H2  UNL     1       7.707   3.265  12.440  1.00  0.00     0.163 HD
HETATM   19  C22 UNL     1       6.371   1.629  12.366  1.00  0.00     0.179 C 
HETATM   20  C26 UNL     1       7.006   1.084  13.611  1.00  0.00     0.241 C 
HETATM   21  O4  UNL     1       7.990   1.759  14.033  1.00  0.00    -0.271 OA
HETATM   22  N3  UNL     1       6.609  -0.061  14.303  1.00  0.00    -0.352 N 
ATOM     23  H3  UNL     1       7.346  -0.745  14.475  1.00  0.00     0.163 HD
ENDROOT
BRANCH   1  24
HETATM   24  C7  UNL     1       5.484  -1.185  16.135  1.00  0.00     0.180 C 
BRANCH  24  25
HETATM   25  C6  UNL     1       6.661  -2.092  16.129  1.00  0.00     0.115 C 
BRANCH  25  26
HETATM   26  N1  UNL     1       6.477  -3.360  15.552  1.00  0.00    -0.263 N 
BRANCH  26  27
HETATM   27  C5  UNL     1       7.151  -3.688  14.360  1.00  0.00     0.082 C 
BRANCH  27  28
HETATM   28  C4  UNL     1       8.601  -3.224  14.477  1.00  0.00     0.049 C 
BRANCH  28  29
HETATM   29  C2  UNL     1       9.527  -4.396  14.717  1.00  0.00    -0.018 C 
HETATM   30  C1  UNL     1       9.940  -4.360  16.173  1.00  0.00     0.010 C 
HETATM   31  C3  UNL     1       8.848  -5.727  14.475  1.00  0.00     0.010 C 
ENDBRANCH  28  29
ENDBRANCH  27  28
ENDBRANCH  26  27
BRANCH  26  32
HETATM   32  S1  UNL     1       5.189  -4.312  16.039  1.00  0.00     0.267 S 
HETATM   33  O5  UNL     1       4.329  -3.477  16.985  1.00  0.00    -0.200 OA
HETATM   34  O6  UNL     1       4.272  -4.575  14.848  1.00  0.00    -0.200 OA
BRANCH  32  35
HETATM   35  C27 UNL     1       5.583  -5.786  16.856  1.00  0.00     0.080 A 
HETATM   36  C28 UNL     1       4.745  -6.867  16.767  1.00  0.00     0.027 A 
HETATM   37  C29 UNL     1       5.017  -8.071  17.404  1.00  0.00     0.028 A 
HETATM   38  C30 UNL     1       6.171  -8.181  18.151  1.00  0.00     0.046 A 
HETATM   39  N4  UNL     1       6.420  -9.427  18.791  1.00  0.00    -0.102 NA
HETATM   40  C31 UNL     1       7.031  -7.102  18.256  1.00  0.00     0.028 A 
HETATM   41  C32 UNL     1       6.730  -5.900  17.602  1.00  0.00     0.027 A 
ENDBRANCH  32  35
ENDBRANCH  26  32
ENDBRANCH  25  26
ENDBRANCH  24  25
BRANCH  24  42
HETATM   42  O1  UNL     1       5.410  -0.356  17.216  1.00  0.00    -0.388 OA
ATOM     43  H1  UNL     1       4.899  -0.695  17.942  1.00  0.00     0.210 HD
ENDBRANCH  24  42
ENDBRANCH   1  24
BRANCH  19  44
HETATM   44  C23 UNL     1       6.863   0.833  11.150  1.00  0.00     0.009 C 
HETATM   45  C24 UNL     1       8.365   0.782  11.105  1.00  0.00     0.012 C 
HETATM   46  C25 UNL     1       6.269   1.457   9.928  1.00  0.00     0.012 C 
ENDBRANCH  19  44
TORSDOF 10
ENDMDL
