MODEL 3
REMARK VINA RESULT: -9.480554848      0.924      1.321
REMARK  6 active torsions:
REMARK  status: ('A' for Active; 'I' for Inactive)
REMARK    1  A    between atoms: C1_2  and  C2_6 
REMARK    2  A    between atoms: C6_12  and  C7_13 
REMARK    3  A    between atoms: C7_13  and  O1_14 
REMARK    4  A    between atoms: C7_13  and  N4_16 
REMARK    5  A    between atoms: C10_19  and  C11_20 
REMARK    6  A    between atoms: C11_20  and  C12_21 
ROOT
HETATM    1  C7  UNL     1     -18.855 -33.253  19.499  1.00  0.00     0.165 C 
ENDROOT
BRANCH   1   2
HETATM    2  C6  UNL     1     -20.011 -32.801  20.215  1.00  0.00     0.085 A 
HETATM    3  N3  UNL     1     -20.564 -31.553  20.088  1.00  0.00    -0.352 N 
HETATM    4  C5  UNL     1     -21.596 -31.393  20.913  1.00  0.00     0.043 A 
ATOM      5  H3  UNL     1     -20.226 -30.838  19.444  1.00  0.00     0.166 HD
HETATM    6  C4  UNL     1     -22.475 -30.331  21.162  1.00  0.00     0.031 A 
HETATM    7  C21 UNL     1     -21.743 -32.553  21.608  1.00  0.00    -0.006 A 
HETATM    8  C3  UNL     1     -23.474 -30.464  22.099  1.00  0.00     0.017 A 
HETATM    9  C2  UNL     1     -23.634 -31.642  22.813  1.00  0.00     0.005 A 
HETATM   10  C22 UNL     1     -22.764 -32.671  22.556  1.00  0.00     0.028 A 
HETATM   11  C20 UNL     1     -20.750 -33.435  21.172  1.00  0.00     0.047 A 
BRANCH   9  12
HETATM   12  C1  UNL     1     -24.675 -31.808  23.803  1.00  0.00     0.120 C 
HETATM   13  N1  UNL     1     -24.687 -30.839  24.871  1.00  0.00    -0.082 NA
HETATM   14  N2  UNL     1     -25.540 -32.746  23.756  1.00  0.00    -0.387 N 
ATOM     15  H22 UNL     1     -26.274 -32.863  24.454  1.00  0.00     0.157 HD
ATOM     16  H21 UNL     1     -25.532 -33.432  23.001  1.00  0.00     0.157 HD
ENDBRANCH   9  12
ENDBRANCH   1   2
BRANCH   1  17
HETATM   17  O1  UNL     1     -18.674 -32.652  18.356  1.00  0.00    -0.344 OA
ATOM     18  H1  UNL     1     -18.834 -33.207  17.601  1.00  0.00     0.219 HD
ENDBRANCH   1  17
BRANCH   1  19
HETATM   19  N4  UNL     1     -17.949 -34.221  19.886  1.00  0.00    -0.360 N 
HETATM   20  C8  UNL     1     -16.602 -34.249  19.192  1.00  0.00     0.125 C 
HETATM   21  C9  UNL     1     -15.669 -33.767  20.290  1.00  0.00     0.025 C 
HETATM   22  C10 UNL     1     -15.748 -34.645  21.491  1.00  0.00    -0.007 C 
HETATM   23  C18 UNL     1     -17.160 -34.867  22.009  1.00  0.00     0.025 C 
HETATM   24  C19 UNL     1     -18.061 -35.276  20.842  1.00  0.00     0.125 C 
BRANCH  22  25
HETATM   25  C11 UNL     1     -14.900 -34.068  22.591  1.00  0.00     0.043 C 
BRANCH  25  26
HETATM   26  C12 UNL     1     -15.111 -34.743  23.895  1.00  0.00    -0.058 A 
HETATM   27  C13 UNL     1     -14.921 -36.080  24.082  1.00  0.00     0.007 A 
HETATM   28  C14 UNL     1     -15.131 -36.674  25.322  1.00  0.00     0.001 A 
HETATM   29  C15 UNL     1     -15.541 -35.920  26.410  1.00  0.00     0.000 A 
HETATM   30  C16 UNL     1     -15.731 -34.569  26.212  1.00  0.00     0.001 A 
HETATM   31  C17 UNL     1     -15.522 -33.998  24.989  1.00  0.00     0.007 A 
ENDBRANCH  25  26
ENDBRANCH  22  25
ENDBRANCH   1  19
TORSDOF 6
ENDMDL
