MODEL 10
REMARK VINA RESULT: -8.601979052      2.431      8.165
REMARK  6 active torsions:
REMARK  status: ('A' for Active; 'I' for Inactive)
REMARK    1  A    between atoms: C1_2  and  C2_6 
REMARK    2  A    between atoms: C6_12  and  C7_13 
REMARK    3  A    between atoms: C7_13  and  O1_14 
REMARK    4  A    between atoms: C7_13  and  N4_16 
REMARK    5  A    between atoms: C10_19  and  C11_20 
REMARK    6  A    between atoms: C11_20  and  C12_21 
ROOT
HETATM    1  C7  UNL     1     -18.142 -33.494  19.879  1.00  0.00     0.165 C 
ENDROOT
BRANCH   1   2
HETATM    2  C6  UNL     1     -17.277 -33.803  20.978  1.00  0.00     0.085 A 
HETATM    3  N3  UNL     1     -17.691 -33.936  22.277  1.00  0.00    -0.352 N 
HETATM    4  C5  UNL     1     -16.665 -34.171  23.092  1.00  0.00     0.043 A 
ATOM      5  H3  UNL     1     -18.661 -33.864  22.581  1.00  0.00     0.166 HD
HETATM    6  C4  UNL     1     -16.558 -34.377  24.474  1.00  0.00     0.031 A 
HETATM    7  C21 UNL     1     -15.539 -34.196  22.329  1.00  0.00    -0.006 A 
HETATM    8  C3  UNL     1     -15.328 -34.603  25.047  1.00  0.00     0.017 A 
HETATM    9  C2  UNL     1     -14.174 -34.631  24.279  1.00  0.00     0.005 A 
HETATM   10  C22 UNL     1     -14.297 -34.427  22.928  1.00  0.00     0.028 A 
HETATM   11  C20 UNL     1     -15.922 -33.965  21.004  1.00  0.00     0.047 A 
BRANCH   9  12
HETATM   12  C1  UNL     1     -12.869 -34.866  24.857  1.00  0.00     0.120 C 
HETATM   13  N1  UNL     1     -11.908 -33.805  24.692  1.00  0.00    -0.082 NA
HETATM   14  N2  UNL     1     -12.564 -35.940  25.480  1.00  0.00    -0.387 N 
ATOM     15  H22 UNL     1     -11.645 -36.105  25.887  1.00  0.00     0.157 HD
ATOM     16  H21 UNL     1     -13.244 -36.691  25.597  1.00  0.00     0.157 HD
ENDBRANCH   9  12
ENDBRANCH   1   2
BRANCH   1  17
HETATM   17  O1  UNL     1     -17.515 -33.093  18.808  1.00  0.00    -0.344 OA
ATOM     18  H1  UNL     1     -18.089 -32.881  18.081  1.00  0.00     0.219 HD
ENDBRANCH   1  17
BRANCH   1  19
HETATM   19  N4  UNL     1     -19.521 -33.577  19.841  1.00  0.00    -0.360 N 
HETATM   20  C8  UNL     1     -20.236 -34.064  21.086  1.00  0.00     0.125 C 
HETATM   21  C9  UNL     1     -20.909 -32.795  21.581  1.00  0.00     0.025 C 
HETATM   22  C10 UNL     1     -21.817 -32.224  20.547  1.00  0.00    -0.007 C 
HETATM   23  C18 UNL     1     -21.165 -32.022  19.189  1.00  0.00     0.025 C 
HETATM   24  C19 UNL     1     -20.444 -33.310  18.785  1.00  0.00     0.125 C 
BRANCH  22  25
HETATM   25  C11 UNL     1     -22.370 -30.913  21.035  1.00  0.00     0.043 C 
BRANCH  25  26
HETATM   26  C12 UNL     1     -23.246 -31.065  22.223  1.00  0.00    -0.058 A 
HETATM   27  C13 UNL     1     -23.883 -32.229  22.535  1.00  0.00     0.007 A 
HETATM   28  C14 UNL     1     -24.696 -32.329  23.660  1.00  0.00     0.001 A 
HETATM   29  C15 UNL     1     -24.882 -31.243  24.500  1.00  0.00     0.000 A 
HETATM   30  C16 UNL     1     -24.234 -30.071  24.177  1.00  0.00     0.001 A 
HETATM   31  C17 UNL     1     -23.439 -29.985  23.070  1.00  0.00     0.007 A 
ENDBRANCH  25  26
ENDBRANCH  22  25
ENDBRANCH   1  19
TORSDOF 6
ENDMDL
