MODEL 8
REMARK VINA RESULT: -8.610550352      2.606      7.782
REMARK  6 active torsions:
REMARK  status: ('A' for Active; 'I' for Inactive)
REMARK    1  A    between atoms: C1_2  and  C2_6 
REMARK    2  A    between atoms: C6_12  and  C7_13 
REMARK    3  A    between atoms: C7_13  and  O1_14 
REMARK    4  A    between atoms: C7_13  and  N4_16 
REMARK    5  A    between atoms: C10_19  and  C11_20 
REMARK    6  A    between atoms: C11_20  and  C12_21 
ROOT
HETATM    1  C7  UNL     1     -18.640 -34.017  20.263  1.00  0.00     0.165 C 
ENDROOT
BRANCH   1   2
HETATM    2  C6  UNL     1     -18.020 -34.290  21.526  1.00  0.00     0.085 A 
HETATM    3  N3  UNL     1     -18.565 -35.083  22.502  1.00  0.00    -0.352 N 
HETATM    4  C5  UNL     1     -17.796 -35.115  23.588  1.00  0.00     0.043 A 
ATOM      5  H3  UNL     1     -19.448 -35.585  22.408  1.00  0.00     0.166 HD
HETATM    6  C4  UNL     1     -17.904 -35.761  24.826  1.00  0.00     0.031 A 
HETATM    7  C21 UNL     1     -16.714 -34.330  23.340  1.00  0.00    -0.006 A 
HETATM    8  C3  UNL     1     -16.923 -35.600  25.777  1.00  0.00     0.017 A 
HETATM    9  C2  UNL     1     -15.814 -34.802  25.537  1.00  0.00     0.005 A 
HETATM   10  C22 UNL     1     -15.726 -34.178  24.318  1.00  0.00     0.028 A 
HETATM   11  C20 UNL     1     -16.854 -33.812  22.048  1.00  0.00     0.047 A 
BRANCH   9  12
HETATM   12  C1  UNL     1     -14.770 -34.617  26.519  1.00  0.00     0.120 C 
HETATM   13  N1  UNL     1     -14.978 -33.547  27.463  1.00  0.00    -0.082 NA
HETATM   14  N2  UNL     1     -13.719 -35.343  26.568  1.00  0.00    -0.387 N 
ATOM     15  H22 UNL     1     -12.983 -35.212  27.261  1.00  0.00     0.157 HD
ATOM     16  H21 UNL     1     -13.572 -36.099  25.900  1.00  0.00     0.157 HD
ENDBRANCH   9  12
ENDBRANCH   1   2
BRANCH   1  17
HETATM   17  O1  UNL     1     -18.069 -34.615  19.254  1.00  0.00    -0.344 OA
ATOM     18  H1  UNL     1     -17.921 -34.049  18.505  1.00  0.00     0.219 HD
ENDBRANCH   1  17
BRANCH   1  19
HETATM   19  N4  UNL     1     -19.739 -33.216  20.018  1.00  0.00    -0.360 N 
HETATM   20  C8  UNL     1     -20.755 -33.698  19.002  1.00  0.00     0.125 C 
HETATM   21  C9  UNL     1     -21.940 -34.052  19.883  1.00  0.00     0.025 C 
HETATM   22  C10 UNL     1     -22.393 -32.878  20.680  1.00  0.00    -0.007 C 
HETATM   23  C18 UNL     1     -21.287 -32.198  21.471  1.00  0.00     0.025 C 
HETATM   24  C19 UNL     1     -20.098 -31.938  20.544  1.00  0.00     0.125 C 
BRANCH  22  25
HETATM   25  C11 UNL     1     -23.489 -33.301  21.619  1.00  0.00     0.043 C 
BRANCH  25  26
HETATM   26  C12 UNL     1     -23.889 -32.224  22.560  1.00  0.00    -0.058 A 
HETATM   27  C13 UNL     1     -23.702 -30.900  22.298  1.00  0.00     0.007 A 
HETATM   28  C14 UNL     1     -24.091 -29.921  23.207  1.00  0.00     0.001 A 
HETATM   29  C15 UNL     1     -24.685 -30.267  24.410  1.00  0.00     0.000 A 
HETATM   30  C16 UNL     1     -24.871 -31.609  24.666  1.00  0.00     0.001 A 
HETATM   31  C17 UNL     1     -24.484 -32.559  23.766  1.00  0.00     0.007 A 
ENDBRANCH  25  26
ENDBRANCH  22  25
ENDBRANCH   1  19
TORSDOF 6
ENDMDL
