MODEL 2
REMARK VINA RESULT: -9.811139639      0.870      1.231
REMARK  6 active torsions:
REMARK  status: ('A' for Active; 'I' for Inactive)
REMARK    1  A    between atoms: C1_2  and  C2_6 
REMARK    2  A    between atoms: C6_12  and  C7_13 
REMARK    3  A    between atoms: C7_13  and  O1_14 
REMARK    4  A    between atoms: C7_13  and  N4_16 
REMARK    5  A    between atoms: C10_19  and  C11_20 
REMARK    6  A    between atoms: C11_20  and  C12_21 
ROOT
HETATM    1  C7  UNL     1     -19.150 -32.972  19.383  1.00  0.00     0.165 C 
ENDROOT
BRANCH   1   2
HETATM    2  C6  UNL     1     -20.300 -32.559  20.132  1.00  0.00     0.085 A 
HETATM    3  N3  UNL     1     -20.959 -31.372  19.949  1.00  0.00    -0.352 N 
HETATM    4  C5  UNL     1     -21.956 -31.230  20.820  1.00  0.00     0.043 A 
ATOM      5  H3  UNL     1     -20.716 -30.684  19.236  1.00  0.00     0.166 HD
HETATM    6  C4  UNL     1     -22.905 -30.224  21.044  1.00  0.00     0.031 A 
HETATM    7  C21 UNL     1     -21.969 -32.342  21.604  1.00  0.00    -0.006 A 
HETATM    8  C3  UNL     1     -23.837 -30.364  22.046  1.00  0.00     0.017 A 
HETATM    9  C2  UNL     1     -23.861 -31.492  22.851  1.00  0.00     0.005 A 
HETATM   10  C22 UNL     1     -22.924 -32.467  22.617  1.00  0.00     0.028 A 
HETATM   11  C20 UNL     1     -20.931 -33.175  21.174  1.00  0.00     0.047 A 
BRANCH   9  12
HETATM   12  C1  UNL     1     -24.830 -31.663  23.911  1.00  0.00     0.120 C 
HETATM   13  N1  UNL     1     -24.944 -30.568  24.841  1.00  0.00    -0.082 NA
HETATM   14  N2  UNL     1     -25.552 -32.710  24.035  1.00  0.00    -0.387 N 
ATOM     15  H22 UNL     1     -26.236 -32.830  24.782  1.00  0.00     0.157 HD
ATOM     16  H21 UNL     1     -25.473 -33.485  23.377  1.00  0.00     0.157 HD
ENDBRANCH   9  12
ENDBRANCH   1   2
BRANCH   1  17
HETATM   17  O1  UNL     1     -19.120 -32.512  18.163  1.00  0.00    -0.344 OA
ATOM     18  H1  UNL     1     -19.067 -33.189  17.498  1.00  0.00     0.219 HD
ENDBRANCH   1  17
BRANCH   1  19
HETATM   19  N4  UNL     1     -18.110 -33.777  19.809  1.00  0.00    -0.360 N 
HETATM   20  C8  UNL     1     -16.827 -33.101  20.250  1.00  0.00     0.125 C 
HETATM   21  C9  UNL     1     -16.847 -33.331  21.752  1.00  0.00     0.025 C 
HETATM   22  C10 UNL     1     -16.908 -34.784  22.076  1.00  0.00    -0.007 C 
HETATM   23  C18 UNL     1     -18.031 -35.532  21.377  1.00  0.00     0.025 C 
HETATM   24  C19 UNL     1     -18.000 -35.198  19.884  1.00  0.00     0.125 C 
BRANCH  22  25
HETATM   25  C11 UNL     1     -17.043 -34.960  23.564  1.00  0.00     0.043 C 
BRANCH  25  26
HETATM   26  C12 UNL     1     -15.789 -34.647  24.296  1.00  0.00    -0.058 A 
HETATM   27  C13 UNL     1     -15.770 -34.024  25.507  1.00  0.00     0.007 A 
HETATM   28  C14 UNL     1     -14.573 -33.749  26.160  1.00  0.00     0.001 A 
HETATM   29  C15 UNL     1     -13.359 -34.103  25.594  1.00  0.00     0.000 A 
HETATM   30  C16 UNL     1     -13.388 -34.733  24.368  1.00  0.00     0.001 A 
HETATM   31  C17 UNL     1     -14.570 -34.997  23.738  1.00  0.00     0.007 A 
ENDBRANCH  25  26
ENDBRANCH  22  25
ENDBRANCH   1  19
TORSDOF 6
ENDMDL
