MODEL 11
REMARK VINA RESULT: -8.550171411      4.157      6.875
REMARK  6 active torsions:
REMARK  status: ('A' for Active; 'I' for Inactive)
REMARK    1  A    between atoms: C1_2  and  C2_6 
REMARK    2  A    between atoms: C6_12  and  C7_13 
REMARK    3  A    between atoms: C7_13  and  O1_14 
REMARK    4  A    between atoms: C7_13  and  N4_16 
REMARK    5  A    between atoms: C10_19  and  C11_20 
REMARK    6  A    between atoms: C11_20  and  C12_21 
ROOT
HETATM    1  C7  UNL     1     -22.347 -34.411  20.148  1.00  0.00     0.165 C 
ENDROOT
BRANCH   1   2
HETATM    2  C6  UNL     1     -22.806 -33.498  21.151  1.00  0.00     0.085 A 
HETATM    3  N3  UNL     1     -23.707 -33.814  22.135  1.00  0.00    -0.352 N 
HETATM    4  C5  UNL     1     -23.990 -32.757  22.892  1.00  0.00     0.043 A 
ATOM      5  H3  UNL     1     -24.108 -34.742  22.269  1.00  0.00     0.166 HD
HETATM    6  C4  UNL     1     -24.828 -32.560  23.998  1.00  0.00     0.031 A 
HETATM    7  C21 UNL     1     -23.269 -31.709  22.411  1.00  0.00    -0.006 A 
HETATM    8  C3  UNL     1     -24.915 -31.320  24.587  1.00  0.00     0.017 A 
HETATM    9  C2  UNL     1     -24.184 -30.244  24.106  1.00  0.00     0.005 A 
HETATM   10  C22 UNL     1     -23.370 -30.456  23.023  1.00  0.00     0.028 A 
HETATM   11  C20 UNL     1     -22.527 -32.172  21.320  1.00  0.00     0.047 A 
BRANCH   9  12
HETATM   12  C1  UNL     1     -24.259 -28.931  24.707  1.00  0.00     0.120 C 
HETATM   13  N1  UNL     1     -25.581 -28.473  25.055  1.00  0.00    -0.082 NA
HETATM   14  N2  UNL     1     -23.232 -28.203  24.925  1.00  0.00    -0.387 N 
ATOM     15  H22 UNL     1     -23.284 -27.277  25.349  1.00  0.00     0.157 HD
ATOM     16  H21 UNL     1     -22.296 -28.527  24.679  1.00  0.00     0.157 HD
ENDBRANCH   9  12
ENDBRANCH   1   2
BRANCH   1  17
HETATM   17  O1  UNL     1     -23.281 -35.186  19.671  1.00  0.00    -0.344 OA
ATOM     18  H1  UNL     1     -23.093 -35.526  18.804  1.00  0.00     0.219 HD
ENDBRANCH   1  17
BRANCH   1  19
HETATM   19  N4  UNL     1     -21.064 -34.546  19.653  1.00  0.00    -0.360 N 
HETATM   20  C8  UNL     1     -20.879 -35.315  18.360  1.00  0.00     0.125 C 
HETATM   21  C9  UNL     1     -20.513 -34.210  17.384  1.00  0.00     0.025 C 
HETATM   22  C10 UNL     1     -19.296 -33.475  17.829  1.00  0.00    -0.007 C 
HETATM   23  C18 UNL     1     -19.365 -32.963  19.258  1.00  0.00     0.025 C 
HETATM   24  C19 UNL     1     -19.811 -34.103  20.176  1.00  0.00     0.125 C 
BRANCH  22  25
HETATM   25  C11 UNL     1     -19.038 -32.322  16.898  1.00  0.00     0.043 C 
BRANCH  25  26
HETATM   26  C12 UNL     1     -19.530 -32.574  15.521  1.00  0.00    -0.058 A 
HETATM   27  C13 UNL     1     -19.014 -33.541  14.711  1.00  0.00     0.007 A 
HETATM   28  C14 UNL     1     -19.504 -33.744  13.425  1.00  0.00     0.001 A 
HETATM   29  C15 UNL     1     -20.538 -32.967  12.929  1.00  0.00     0.000 A 
HETATM   30  C16 UNL     1     -21.054 -31.992  13.755  1.00  0.00     0.001 A 
HETATM   31  C17 UNL     1     -20.564 -31.802  15.015  1.00  0.00     0.007 A 
ENDBRANCH  25  26
ENDBRANCH  22  25
ENDBRANCH   1  19
TORSDOF 6
ENDMDL
