MODEL 4
REMARK VINA RESULT: -9.305274637      1.020      1.421
REMARK  6 active torsions:
REMARK  status: ('A' for Active; 'I' for Inactive)
REMARK    1  A    between atoms: C1_2  and  C2_6 
REMARK    2  A    between atoms: C6_12  and  C7_13 
REMARK    3  A    between atoms: C7_13  and  O1_14 
REMARK    4  A    between atoms: C7_13  and  N4_16 
REMARK    5  A    between atoms: C10_19  and  C11_20 
REMARK    6  A    between atoms: C11_20  and  C12_21 
ROOT
HETATM    1  C7  UNL     1     -18.226 -33.230  19.163  1.00  0.00     0.165 C 
ENDROOT
BRANCH   1   2
HETATM    2  C6  UNL     1     -19.470 -33.188  19.873  1.00  0.00     0.085 A 
HETATM    3  N3  UNL     1     -20.454 -34.136  19.769  1.00  0.00    -0.352 N 
HETATM    4  C5  UNL     1     -21.519 -33.811  20.499  1.00  0.00     0.043 A 
ATOM      5  H3  UNL     1     -20.380 -34.982  19.205  1.00  0.00     0.166 HD
HETATM    6  C4  UNL     1     -22.756 -34.429  20.727  1.00  0.00     0.031 A 
HETATM    7  C21 UNL     1     -21.249 -32.624  21.106  1.00  0.00    -0.006 A 
HETATM    8  C3  UNL     1     -23.682 -33.838  21.556  1.00  0.00     0.017 A 
HETATM    9  C2  UNL     1     -23.418 -32.628  22.180  1.00  0.00     0.005 A 
HETATM   10  C22 UNL     1     -22.201 -32.038  21.945  1.00  0.00     0.028 A 
HETATM   11  C20 UNL     1     -19.965 -32.232  20.713  1.00  0.00     0.047 A 
BRANCH   9  12
HETATM   12  C1  UNL     1     -24.374 -31.987  23.054  1.00  0.00     0.120 C 
HETATM   13  N1  UNL     1     -24.262 -30.554  23.164  1.00  0.00    -0.082 NA
HETATM   14  N2  UNL     1     -25.270 -32.629  23.700  1.00  0.00    -0.387 N 
ATOM     15  H22 UNL     1     -25.944 -32.176  24.317  1.00  0.00     0.157 HD
ATOM     16  H21 UNL     1     -25.349 -33.643  23.623  1.00  0.00     0.157 HD
ENDBRANCH   9  12
ENDBRANCH   1   2
BRANCH   1  17
HETATM   17  O1  UNL     1     -18.330 -32.940  17.896  1.00  0.00    -0.344 OA
ATOM     18  H1  UNL     1     -17.561 -32.516  17.534  1.00  0.00     0.219 HD
ENDBRANCH   1  17
BRANCH   1  19
HETATM   19  N4  UNL     1     -16.976 -33.532  19.669  1.00  0.00    -0.360 N 
HETATM   20  C8  UNL     1     -16.420 -32.643  20.763  1.00  0.00     0.125 C 
HETATM   21  C9  UNL     1     -16.489 -33.554  21.977  1.00  0.00     0.025 C 
HETATM   22  C10 UNL     1     -15.710 -34.805  21.760  1.00  0.00    -0.007 C 
HETATM   23  C18 UNL     1     -16.063 -35.546  20.481  1.00  0.00     0.025 C 
HETATM   24  C19 UNL     1     -16.049 -34.557  19.312  1.00  0.00     0.125 C 
BRANCH  22  25
HETATM   25  C11 UNL     1     -15.899 -35.724  22.936  1.00  0.00     0.043 C 
BRANCH  25  26
HETATM   26  C12 UNL     1     -15.347 -35.167  24.196  1.00  0.00    -0.058 A 
HETATM   27  C13 UNL     1     -14.065 -34.720  24.315  1.00  0.00     0.007 A 
HETATM   28  C14 UNL     1     -13.587 -34.205  25.515  1.00  0.00     0.001 A 
HETATM   29  C15 UNL     1     -14.406 -34.129  26.630  1.00  0.00     0.000 A 
HETATM   30  C16 UNL     1     -15.701 -34.582  26.501  1.00  0.00     0.001 A 
HETATM   31  C17 UNL     1     -16.158 -35.087  25.318  1.00  0.00     0.007 A 
ENDBRANCH  25  26
ENDBRANCH  22  25
ENDBRANCH   1  19
TORSDOF 6
ENDMDL
