MODEL 7
REMARK VINA RESULT: -8.614585209      1.864      2.097
REMARK  6 active torsions:
REMARK  status: ('A' for Active; 'I' for Inactive)
REMARK    1  A    between atoms: C1_2  and  C2_6 
REMARK    2  A    between atoms: C6_12  and  C7_13 
REMARK    3  A    between atoms: C7_13  and  O1_14 
REMARK    4  A    between atoms: C7_13  and  N4_16 
REMARK    5  A    between atoms: C10_19  and  C11_20 
REMARK    6  A    between atoms: C11_20  and  C12_21 
ROOT
HETATM    1  C7  UNL     1     -20.870 -35.210  19.516  1.00  0.00     0.165 C 
ENDROOT
BRANCH   1   2
HETATM    2  C6  UNL     1     -21.587 -34.209  20.249  1.00  0.00     0.085 A 
HETATM    3  N3  UNL     1     -21.643 -32.885  19.901  1.00  0.00    -0.352 N 
HETATM    4  C5  UNL     1     -22.335 -32.178  20.792  1.00  0.00     0.043 A 
ATOM      5  H3  UNL     1     -21.211 -32.491  19.066  1.00  0.00     0.166 HD
HETATM    6  C4  UNL     1     -22.675 -30.823  20.894  1.00  0.00     0.031 A 
HETATM    7  C21 UNL     1     -22.752 -33.041  21.758  1.00  0.00    -0.006 A 
HETATM    8  C3  UNL     1     -23.422 -30.375  21.959  1.00  0.00     0.017 A 
HETATM    9  C2  UNL     1     -23.853 -31.245  22.949  1.00  0.00     0.005 A 
HETATM   10  C22 UNL     1     -23.511 -32.568  22.833  1.00  0.00     0.028 A 
HETATM   11  C20 UNL     1     -22.282 -34.314  21.418  1.00  0.00     0.047 A 
BRANCH   9  12
HETATM   12  C1  UNL     1     -24.638 -30.799  24.078  1.00  0.00     0.120 C 
HETATM   13  N1  UNL     1     -24.475 -29.416  24.451  1.00  0.00    -0.082 NA
HETATM   14  N2  UNL     1     -25.433 -31.565  24.722  1.00  0.00    -0.387 N 
ATOM     15  H22 UNL     1     -25.987 -31.250  25.518  1.00  0.00     0.157 HD
ATOM     16  H21 UNL     1     -25.549 -32.543  24.459  1.00  0.00     0.157 HD
ENDBRANCH   9  12
ENDBRANCH   1   2
BRANCH   1  17
HETATM   17  O1  UNL     1     -21.431 -35.541  18.386  1.00  0.00    -0.344 OA
ATOM     18  H1  UNL     1     -22.177 -36.122  18.482  1.00  0.00     0.219 HD
ENDBRANCH   1  17
BRANCH   1  19
HETATM   19  N4  UNL     1     -19.689 -35.833  19.872  1.00  0.00    -0.360 N 
HETATM   20  C8  UNL     1     -18.438 -34.982  19.962  1.00  0.00     0.125 C 
HETATM   21  C9  UNL     1     -18.188 -34.942  21.460  1.00  0.00     0.025 C 
HETATM   22  C10 UNL     1     -18.027 -36.313  22.019  1.00  0.00    -0.007 C 
HETATM   23  C18 UNL     1     -19.155 -37.268  21.662  1.00  0.00     0.025 C 
HETATM   24  C19 UNL     1     -19.404 -37.203  20.153  1.00  0.00     0.125 C 
BRANCH  22  25
HETATM   25  C11 UNL     1     -17.899 -36.232  23.516  1.00  0.00     0.043 C 
BRANCH  25  26
HETATM   26  C12 UNL     1     -16.638 -35.579  23.949  1.00  0.00    -0.058 A 
HETATM   27  C13 UNL     1     -15.410 -35.953  23.494  1.00  0.00     0.007 A 
HETATM   28  C14 UNL     1     -14.252 -35.314  23.926  1.00  0.00     0.001 A 
HETATM   29  C15 UNL     1     -14.316 -34.271  24.836  1.00  0.00     0.000 A 
HETATM   30  C16 UNL     1     -15.563 -33.899  25.291  1.00  0.00     0.001 A 
HETATM   31  C17 UNL     1     -16.691 -34.535  24.860  1.00  0.00     0.007 A 
ENDBRANCH  25  26
ENDBRANCH  22  25
ENDBRANCH   1  19
TORSDOF 6
ENDMDL
