MODEL 1
REMARK VINA RESULT: -10.087644527      0.000      0.000
REMARK  6 active torsions:
REMARK  status: ('A' for Active; 'I' for Inactive)
REMARK    1  A    between atoms: C1_2  and  C2_6 
REMARK    2  A    between atoms: C6_12  and  C7_13 
REMARK    3  A    between atoms: C7_13  and  O1_14 
REMARK    4  A    between atoms: C7_13  and  N4_16 
REMARK    5  A    between atoms: C10_19  and  C11_20 
REMARK    6  A    between atoms: C11_20  and  C12_21 
ROOT
HETATM    1  C7  UNL     1     -18.990 -33.366  19.414  1.00  0.00     0.165 C 
ENDROOT
BRANCH   1   2
HETATM    2  C6  UNL     1     -20.136 -32.888  20.128  1.00  0.00     0.085 A 
HETATM    3  N3  UNL     1     -20.739 -31.677  19.906  1.00  0.00    -0.352 N 
HETATM    4  C5  UNL     1     -21.747 -31.475  20.752  1.00  0.00     0.043 A 
ATOM      5  H3  UNL     1     -20.452 -31.016  19.185  1.00  0.00     0.166 HD
HETATM    6  C4  UNL     1     -22.656 -30.424  20.934  1.00  0.00     0.031 A 
HETATM    7  C21 UNL     1     -21.825 -32.567  21.559  1.00  0.00    -0.006 A 
HETATM    8  C3  UNL     1     -23.614 -30.502  21.918  1.00  0.00     0.017 A 
HETATM    9  C2  UNL     1     -23.704 -31.611  22.746  1.00  0.00     0.005 A 
HETATM   10  C22 UNL     1     -22.805 -32.629  22.553  1.00  0.00     0.028 A 
HETATM   11  C20 UNL     1     -20.814 -33.453  21.169  1.00  0.00     0.047 A 
BRANCH   9  12
HETATM   12  C1  UNL     1     -24.701 -31.716  23.788  1.00  0.00     0.120 C 
HETATM   13  N1  UNL     1     -24.731 -30.637  24.742  1.00  0.00    -0.082 NA
HETATM   14  N2  UNL     1     -25.517 -32.696  23.877  1.00  0.00    -0.387 N 
ATOM     15  H22 UNL     1     -26.220 -32.771  24.611  1.00  0.00     0.157 HD
ATOM     16  H21 UNL     1     -25.496 -33.460  23.202  1.00  0.00     0.157 HD
ENDBRANCH   9  12
ENDBRANCH   1   2
BRANCH   1  17
HETATM   17  O1  UNL     1     -19.270 -33.878  18.247  1.00  0.00    -0.344 OA
ATOM     18  H1  UNL     1     -18.742 -34.636  18.023  1.00  0.00     0.219 HD
ENDBRANCH   1  17
BRANCH   1  19
HETATM   19  N4  UNL     1     -17.669 -33.338  19.820  1.00  0.00    -0.360 N 
HETATM   20  C8  UNL     1     -17.318 -32.492  21.028  1.00  0.00     0.125 C 
HETATM   21  C9  UNL     1     -17.010 -33.547  22.076  1.00  0.00     0.025 C 
HETATM   22  C10 UNL     1     -15.911 -34.450  21.630  1.00  0.00    -0.007 C 
HETATM   23  C18 UNL     1     -16.130 -35.066  20.258  1.00  0.00     0.025 C 
HETATM   24  C19 UNL     1     -16.510 -33.961  19.269  1.00  0.00     0.125 C 
BRANCH  22  25
HETATM   25  C11 UNL     1     -15.719 -35.544  22.643  1.00  0.00     0.043 C 
BRANCH  25  26
HETATM   26  C12 UNL     1     -15.228 -35.039  23.949  1.00  0.00    -0.058 A 
HETATM   27  C13 UNL     1     -13.955 -34.594  24.146  1.00  0.00     0.007 A 
HETATM   28  C14 UNL     1     -13.536 -34.127  25.387  1.00  0.00     0.001 A 
HETATM   29  C15 UNL     1     -14.405 -34.101  26.466  1.00  0.00     0.000 A 
HETATM   30  C16 UNL     1     -15.690 -34.552  26.258  1.00  0.00     0.001 A 
HETATM   31  C17 UNL     1     -16.090 -35.008  25.035  1.00  0.00     0.007 A 
ENDBRANCH  25  26
ENDBRANCH  22  25
ENDBRANCH   1  19
TORSDOF 6
ENDMDL
