MODEL 4
REMARK VINA RESULT: -10.278917402      6.002     10.711
REMARK  12 active torsions:
REMARK  status: ('A' for Active; 'I' for Inactive)
REMARK    1  A    between atoms: C2_2  and  C3_3 
REMARK    2  A    between atoms: C3_3  and  C4_4 
REMARK    3  A    between atoms: C4_4  and  C5_5 
REMARK    4  A    between atoms: C6_6  and  C7_7 
REMARK    5  A    between atoms: C14_14  and  O1_15 
REMARK    6  A    between atoms: C15_17  and  C16_18 
REMARK    7  A    between atoms: C16_18  and  C17_19 
REMARK    8  A    between atoms: C16_18  and  C19_21 
REMARK    9  A    between atoms: C23_25  and  N1_26 
REMARK   10  A    between atoms: N1_26  and  S1_28 
REMARK   11  A    between atoms: S1_28  and  C24_31 
REMARK   12  A    between atoms: C27_34  and  C28_35 
ROOT
HETATM    1  C16 UNL     1      14.339  21.309   5.695  1.00  0.00    -0.029 C 
ENDROOT
BRANCH   1   2
HETATM    2  C15 UNL     1      13.466  22.368   5.311  1.00  0.00     0.075 C 
HETATM    3  C14 UNL     1      12.156  22.288   5.385  1.00  0.00     0.063 C 
HETATM    4  C13 UNL     1      11.216  23.362   5.001  1.00  0.00     0.108 C 
HETATM    5  C4  UNL     1      11.773  24.732   5.409  1.00  0.00     0.094 C 
HETATM    6  O5  UNL     1      13.058  24.703   4.621  1.00  0.00    -0.301 OA
HETATM    7  C31 UNL     1      13.951  23.705   4.885  1.00  0.00     0.297 C 
HETATM    8  O4  UNL     1      15.206  23.823   4.790  1.00  0.00    -0.259 OA
BRANCH   3   9
HETATM    9  O1  UNL     1      11.634  21.069   5.876  1.00  0.00    -0.364 OA
ATOM     10  H1  UNL     1      11.619  20.922   6.815  1.00  0.00     0.217 HD
ENDBRANCH   3   9
BRANCH   5  11
HETATM   11  C3  UNL     1      11.093  25.870   4.832  1.00  0.00     0.043 C 
BRANCH  11  12
HETATM   12  C2  UNL     1       9.657  26.046   4.700  1.00  0.00    -0.001 C 
HETATM   13  C1  UNL     1       9.035  27.364   5.030  1.00  0.00     0.005 C 
ENDBRANCH  11  12
ENDBRANCH   5  11
BRANCH   5  14
HETATM   14  C5  UNL     1      12.254  24.761   6.791  1.00  0.00     0.013 C 
HETATM   15  C6  UNL     1      12.062  25.874   7.692  1.00  0.00     0.010 C 
BRANCH  15  16
HETATM   16  C7  UNL     1      10.824  26.394   8.229  1.00  0.00    -0.036 A 
HETATM   17  C8  UNL     1       9.708  25.676   8.556  1.00  0.00     0.011 A 
HETATM   18  C9  UNL     1       8.550  26.262   8.941  1.00  0.00     0.001 A 
HETATM   19  C10 UNL     1       8.424  27.631   9.027  1.00  0.00     0.000 A 
HETATM   20  C11 UNL     1       9.547  28.361   8.699  1.00  0.00     0.001 A 
HETATM   21  C12 UNL     1      10.726  27.802   8.309  1.00  0.00     0.011 A 
ENDBRANCH  15  16
ENDBRANCH   5  14
ENDBRANCH   1   2
BRANCH   1  22
HETATM   22  C17 UNL     1      15.351  21.514   6.743  1.00  0.00     0.036 C 
HETATM   23  C18 UNL     1      14.906  21.814   8.119  1.00  0.00     0.010 C 
ENDBRANCH   1  22
BRANCH   1  24
HETATM   24  C19 UNL     1      14.862  20.460   4.622  1.00  0.00    -0.027 A 
HETATM   25  C20 UNL     1      14.608  20.646   3.280  1.00  0.00     0.012 A 
HETATM   26  C21 UNL     1      15.083  19.800   2.293  1.00  0.00     0.003 A 
HETATM   27  C22 UNL     1      15.842  18.722   2.651  1.00  0.00     0.030 A 
HETATM   28  C23 UNL     1      16.136  18.479   4.006  1.00  0.00     0.043 A 
HETATM   29  C30 UNL     1      15.648  19.336   4.940  1.00  0.00     0.042 A 
BRANCH  28  30
HETATM   30  N1  UNL     1      16.860  17.295   4.277  1.00  0.00    -0.279 N 
ATOM     31  H1  UNL     1      16.383  16.394   4.277  1.00  0.00     0.179 HD
BRANCH  30  32
HETATM   32  S1  UNL     1      18.571  17.377   4.611  1.00  0.00     0.278 S 
HETATM   33  O2  UNL     1      19.281  18.105   3.533  1.00  0.00    -0.199 OA
HETATM   34  O3  UNL     1      19.144  16.016   4.776  1.00  0.00    -0.199 OA
BRANCH  32  35
HETATM   35  C24 UNL     1      18.730  18.293   6.128  1.00  0.00     0.149 A 
HETATM   36  C25 UNL     1      19.100  19.603   6.166  1.00  0.00     0.044 A 
HETATM   37  C26 UNL     1      19.196  20.264   7.373  1.00  0.00     0.020 A 
HETATM   38  C27 UNL     1      18.918  19.603   8.538  1.00  0.00     0.063 A 
HETATM   39  C29 UNL     1      18.542  18.262   8.493  1.00  0.00     0.105 A 
HETATM   40  N2  UNL     1      18.464  17.666   7.307  1.00  0.00    -0.355 N 
ATOM     41  H2  UNL     1      18.190  16.684   7.278  1.00  0.00     0.166 HD
BRANCH  38  42
HETATM   42  C28 UNL     1      18.992  20.274   9.870  1.00  0.00     0.418 C 
HETATM   43  F1  UNL     1      19.178  21.627   9.642  1.00  0.00    -0.166 F 
HETATM   44  F2  UNL     1      20.063  19.803  10.632  1.00  0.00    -0.166 F 
HETATM   45  F3  UNL     1      17.847  20.030  10.568  1.00  0.00    -0.166 F 
ENDBRANCH  38  42
ENDBRANCH  32  35
ENDBRANCH  30  32
ENDBRANCH  28  30
ENDBRANCH   1  24
TORSDOF 12
ENDMDL
