MODEL 2
REMARK VINA RESULT: -10.310372136      3.032      5.312
REMARK  12 active torsions:
REMARK  status: ('A' for Active; 'I' for Inactive)
REMARK    1  A    between atoms: C2_2  and  C3_3 
REMARK    2  A    between atoms: C3_3  and  C4_4 
REMARK    3  A    between atoms: C4_4  and  C5_5 
REMARK    4  A    between atoms: C6_6  and  C7_7 
REMARK    5  A    between atoms: C14_14  and  O1_15 
REMARK    6  A    between atoms: C15_17  and  C16_18 
REMARK    7  A    between atoms: C16_18  and  C17_19 
REMARK    8  A    between atoms: C16_18  and  C19_21 
REMARK    9  A    between atoms: C23_25  and  N1_26 
REMARK   10  A    between atoms: N1_26  and  S1_28 
REMARK   11  A    between atoms: S1_28  and  C24_31 
REMARK   12  A    between atoms: C27_34  and  C28_35 
ROOT
HETATM    1  C16 UNL     1       9.726  24.581   3.244  1.00  0.00    -0.029 C 
ENDROOT
BRANCH   1   2
HETATM    2  C15 UNL     1      10.450  24.151   4.393  1.00  0.00     0.075 C 
HETATM    3  C14 UNL     1      10.772  22.896   4.617  1.00  0.00     0.063 C 
HETATM    4  C13 UNL     1      11.524  22.409   5.793  1.00  0.00     0.108 C 
HETATM    5  C4  UNL     1      12.626  23.405   6.173  1.00  0.00     0.094 C 
HETATM    6  O5  UNL     1      11.766  24.616   6.430  1.00  0.00    -0.301 OA
HETATM    7  C31 UNL     1      11.001  25.089   5.402  1.00  0.00     0.297 C 
HETATM    8  O4  UNL     1      10.707  26.307   5.230  1.00  0.00    -0.259 OA
BRANCH   3   9
HETATM    9  O1  UNL     1      10.356  21.962   3.640  1.00  0.00    -0.364 OA
ATOM     10  H1  UNL     1      10.482  22.173   2.722  1.00  0.00     0.217 HD
ENDBRANCH   3   9
BRANCH   5  11
HETATM   11  C3  UNL     1      13.232  23.188   7.469  1.00  0.00     0.043 C 
BRANCH  11  12
HETATM   12  C2  UNL     1      14.178  22.142   7.819  1.00  0.00    -0.001 C 
HETATM   13  C1  UNL     1      15.619  22.480   8.021  1.00  0.00     0.005 C 
ENDBRANCH  11  12
ENDBRANCH   5  11
BRANCH   5  14
HETATM   14  C5  UNL     1      13.430  23.829   5.026  1.00  0.00     0.013 C 
HETATM   15  C6  UNL     1      14.564  23.093   4.515  1.00  0.00     0.010 C 
BRANCH  15  16
HETATM   16  C7  UNL     1      14.585  21.783   3.905  1.00  0.00    -0.036 A 
HETATM   17  C8  UNL     1      15.016  20.619   4.478  1.00  0.00     0.011 A 
HETATM   18  C9  UNL     1      15.111  19.457   3.789  1.00  0.00     0.001 A 
HETATM   19  C10 UNL     1      14.776  19.376   2.456  1.00  0.00     0.000 A 
HETATM   20  C11 UNL     1      14.340  20.546   1.872  1.00  0.00     0.001 A 
HETATM   21  C12 UNL     1      14.232  21.730   2.537  1.00  0.00     0.011 A 
ENDBRANCH  15  16
ENDBRANCH   5  14
ENDBRANCH   1   2
BRANCH   1  22
HETATM   22  C17 UNL     1      10.338  25.501   2.272  1.00  0.00     0.036 C 
HETATM   23  C18 UNL     1      11.783  25.388   1.993  1.00  0.00     0.010 C 
ENDBRANCH   1  22
BRANCH   1  24
HETATM   24  C19 UNL     1       8.306  24.888   3.432  1.00  0.00    -0.027 A 
HETATM   25  C20 UNL     1       7.268  24.060   3.062  1.00  0.00     0.012 A 
HETATM   26  C21 UNL     1       5.935  24.398   3.215  1.00  0.00     0.003 A 
HETATM   27  C22 UNL     1       5.616  25.610   3.756  1.00  0.00     0.030 A 
HETATM   28  C23 UNL     1       6.631  26.502   4.152  1.00  0.00     0.043 A 
HETATM   29  C30 UNL     1       7.926  26.126   3.983  1.00  0.00     0.042 A 
BRANCH  28  30
HETATM   30  N1  UNL     1       6.196  27.761   4.625  1.00  0.00    -0.279 N 
ATOM     31  H1  UNL     1       6.045  28.528   3.971  1.00  0.00     0.179 HD
BRANCH  30  32
HETATM   32  S1  UNL     1       5.918  28.002   6.331  1.00  0.00     0.278 S 
HETATM   33  O2  UNL     1       4.945  27.011   6.849  1.00  0.00    -0.199 OA
HETATM   34  O3  UNL     1       5.437  29.382   6.599  1.00  0.00    -0.199 OA
BRANCH  32  35
HETATM   35  C24 UNL     1       7.488  27.739   7.126  1.00  0.00     0.149 A 
HETATM   36  C25 UNL     1       8.448  28.701   7.201  1.00  0.00     0.044 A 
HETATM   37  C26 UNL     1       9.643  28.442   7.841  1.00  0.00     0.020 A 
HETATM   38  C27 UNL     1       9.865  27.215   8.404  1.00  0.00     0.063 A 
HETATM   39  C29 UNL     1       8.878  26.235   8.322  1.00  0.00     0.105 A 
HETATM   40  N2  UNL     1       7.743  26.529   7.694  1.00  0.00    -0.355 N 
ATOM     41  H2  UNL     1       7.024  25.808   7.636  1.00  0.00     0.166 HD
BRANCH  38  42
HETATM   42  C28 UNL     1      11.134  26.887   9.120  1.00  0.00     0.418 C 
HETATM   43  F1  UNL     1      10.835  25.931  10.076  1.00  0.00    -0.166 F 
HETATM   44  F2  UNL     1      11.672  28.002   9.764  1.00  0.00    -0.166 F 
HETATM   45  F3  UNL     1      12.059  26.438   8.225  1.00  0.00    -0.166 F 
ENDBRANCH  38  42
ENDBRANCH  32  35
ENDBRANCH  30  32
ENDBRANCH  28  30
ENDBRANCH   1  24
TORSDOF 12
ENDMDL
