MODEL 1
REMARK VINA RESULT: -10.678526527      0.000      0.000
REMARK  12 active torsions:
REMARK  status: ('A' for Active; 'I' for Inactive)
REMARK    1  A    between atoms: C2_2  and  C3_3 
REMARK    2  A    between atoms: C3_3  and  C4_4 
REMARK    3  A    between atoms: C4_4  and  C5_5 
REMARK    4  A    between atoms: C6_6  and  C7_7 
REMARK    5  A    between atoms: C14_14  and  O1_15 
REMARK    6  A    between atoms: C15_17  and  C16_18 
REMARK    7  A    between atoms: C16_18  and  C17_19 
REMARK    8  A    between atoms: C16_18  and  C19_21 
REMARK    9  A    between atoms: C23_25  and  N1_26 
REMARK   10  A    between atoms: N1_26  and  S1_28 
REMARK   11  A    between atoms: S1_28  and  C24_31 
REMARK   12  A    between atoms: C27_34  and  C28_35 
ROOT
HETATM    1  C16 UNL     1      11.030  23.620   5.468  1.00  0.00    -0.029 C 
ENDROOT
BRANCH   1   2
HETATM    2  C15 UNL     1      12.337  23.101   5.238  1.00  0.00     0.075 C 
HETATM    3  C14 UNL     1      13.323  23.818   4.747  1.00  0.00     0.063 C 
HETATM    4  C13 UNL     1      14.693  23.321   4.496  1.00  0.00     0.108 C 
HETATM    5  C4  UNL     1      15.125  22.361   5.612  1.00  0.00     0.094 C 
HETATM    6  O5  UNL     1      14.039  21.327   5.462  1.00  0.00    -0.301 OA
HETATM    7  C31 UNL     1      12.744  21.728   5.626  1.00  0.00     0.297 C 
HETATM    8  O4  UNL     1      11.823  20.999   6.094  1.00  0.00    -0.259 OA
BRANCH   3   9
HETATM    9  O1  UNL     1      13.022  25.167   4.445  1.00  0.00    -0.364 OA
ATOM     10  H1  UNL     1      12.189  25.369   4.036  1.00  0.00     0.217 HD
ENDBRANCH   3   9
BRANCH   5  11
HETATM   11  C3  UNL     1      16.316  21.589   5.332  1.00  0.00     0.043 C 
BRANCH  11  12
HETATM   12  C2  UNL     1      16.427  20.140   5.324  1.00  0.00    -0.001 C 
HETATM   13  C1  UNL     1      17.720  19.491   5.696  1.00  0.00     0.005 C 
ENDBRANCH  11  12
ENDBRANCH   5  11
BRANCH   5  14
HETATM   14  C5  UNL     1      14.869  22.893   6.951  1.00  0.00     0.013 C 
HETATM   15  C6  UNL     1      14.918  22.103   8.160  1.00  0.00     0.010 C 
BRANCH  15  16
HETATM   16  C7  UNL     1      16.057  21.446   8.760  1.00  0.00    -0.036 A 
HETATM   17  C8  UNL     1      17.373  21.784   8.605  1.00  0.00     0.011 A 
HETATM   18  C9  UNL     1      18.382  21.037   9.111  1.00  0.00     0.001 A 
HETATM   19  C10 UNL     1      18.144  19.880   9.819  1.00  0.00     0.000 A 
HETATM   20  C11 UNL     1      16.819  19.534   9.978  1.00  0.00     0.001 A 
HETATM   21  C12 UNL     1      15.780  20.264   9.483  1.00  0.00     0.011 A 
ENDBRANCH  15  16
ENDBRANCH   5  14
ENDBRANCH   1   2
BRANCH   1  22
HETATM   22  C17 UNL     1      10.165  24.003   4.341  1.00  0.00     0.036 C 
HETATM   23  C18 UNL     1      10.001  23.063   3.214  1.00  0.00     0.010 C 
ENDBRANCH   1  22
BRANCH   1  24
HETATM   24  C19 UNL     1      10.875  24.554   6.586  1.00  0.00    -0.027 A 
HETATM   25  C20 UNL     1      11.854  24.834   7.515  1.00  0.00     0.012 A 
HETATM   26  C21 UNL     1      11.662  25.691   8.585  1.00  0.00     0.003 A 
HETATM   27  C22 UNL     1      10.448  26.295   8.743  1.00  0.00     0.030 A 
HETATM   28  C23 UNL     1       9.407  26.048   7.827  1.00  0.00     0.043 A 
HETATM   29  C30 UNL     1       9.642  25.200   6.792  1.00  0.00     0.042 A 
BRANCH  28  30
HETATM   30  N1  UNL     1       8.167  26.658   8.124  1.00  0.00    -0.279 N 
ATOM     31  H1  UNL     1       7.602  26.315   8.901  1.00  0.00     0.179 HD
BRANCH  30  32
HETATM   32  S1  UNL     1       7.603  27.999   7.160  1.00  0.00     0.278 S 
HETATM   33  O2  UNL     1       8.527  29.153   7.275  1.00  0.00    -0.199 OA
HETATM   34  O3  UNL     1       6.230  28.400   7.563  1.00  0.00    -0.199 OA
BRANCH  32  35
HETATM   35  C24 UNL     1       7.601  27.426   5.476  1.00  0.00     0.149 A 
HETATM   36  C25 UNL     1       8.586  27.736   4.589  1.00  0.00     0.044 A 
HETATM   37  C26 UNL     1       8.535  27.252   3.298  1.00  0.00     0.020 A 
HETATM   38  C27 UNL     1       7.493  26.457   2.906  1.00  0.00     0.063 A 
HETATM   39  C29 UNL     1       6.488  26.146   3.818  1.00  0.00     0.105 A 
HETATM   40  N2  UNL     1       6.578  26.636   5.051  1.00  0.00    -0.355 N 
ATOM     41  H2  UNL     1       5.838  26.406   5.716  1.00  0.00     0.166 HD
BRANCH  38  42
HETATM   42  C28 UNL     1       7.397  25.896   1.525  1.00  0.00     0.418 C 
HETATM   43  F1  UNL     1       8.542  26.273   0.844  1.00  0.00    -0.166 F 
HETATM   44  F2  UNL     1       6.289  26.393   0.837  1.00  0.00    -0.166 F 
HETATM   45  F3  UNL     1       7.270  24.540   1.592  1.00  0.00    -0.166 F 
ENDBRANCH  38  42
ENDBRANCH  32  35
ENDBRANCH  30  32
ENDBRANCH  28  30
ENDBRANCH   1  24
TORSDOF 12
ENDMDL
