MODEL 3
REMARK VINA RESULT: -10.306476733      5.849     10.840
REMARK  12 active torsions:
REMARK  status: ('A' for Active; 'I' for Inactive)
REMARK    1  A    between atoms: C2_2  and  C3_3 
REMARK    2  A    between atoms: C3_3  and  C4_4 
REMARK    3  A    between atoms: C4_4  and  C5_5 
REMARK    4  A    between atoms: C6_6  and  C7_7 
REMARK    5  A    between atoms: C14_14  and  O1_15 
REMARK    6  A    between atoms: C15_17  and  C16_18 
REMARK    7  A    between atoms: C16_18  and  C17_19 
REMARK    8  A    between atoms: C16_18  and  C19_21 
REMARK    9  A    between atoms: C23_25  and  N1_26 
REMARK   10  A    between atoms: N1_26  and  S1_28 
REMARK   11  A    between atoms: S1_28  and  C24_31 
REMARK   12  A    between atoms: C27_34  and  C28_35 
ROOT
HETATM    1  C16 UNL     1      13.896  21.728   5.952  1.00  0.00    -0.029 C 
ENDROOT
BRANCH   1   2
HETATM    2  C15 UNL     1      13.139  22.931   5.846  1.00  0.00     0.075 C 
HETATM    3  C14 UNL     1      13.635  24.059   5.387  1.00  0.00     0.063 C 
HETATM    4  C13 UNL     1      12.885  25.326   5.257  1.00  0.00     0.108 C 
HETATM    5  C4  UNL     1      11.448  25.052   4.796  1.00  0.00     0.094 C 
HETATM    6  O5  UNL     1      11.005  24.168   5.933  1.00  0.00    -0.301 OA
HETATM    7  C31 UNL     1      11.688  23.005   6.147  1.00  0.00     0.297 C 
HETATM    8  O4  UNL     1      11.172  21.944   6.601  1.00  0.00    -0.259 OA
BRANCH   3   9
HETATM    9  O1  UNL     1      14.993  24.027   4.992  1.00  0.00    -0.364 OA
ATOM     10  H1  UNL     1      15.204  23.794   4.096  1.00  0.00     0.217 HD
ENDBRANCH   3   9
BRANCH   5  11
HETATM   11  C3  UNL     1      10.540  26.171   4.915  1.00  0.00     0.043 C 
BRANCH  11  12
HETATM   12  C2  UNL     1       9.266  26.184   5.614  1.00  0.00    -0.001 C 
HETATM   13  C1  UNL     1       8.106  26.924   5.033  1.00  0.00     0.005 C 
ENDBRANCH  11  12
ENDBRANCH   5  11
BRANCH   5  14
HETATM   14  C5  UNL     1      11.382  24.145   3.649  1.00  0.00     0.013 C 
HETATM   15  C6  UNL     1      10.150  23.654   3.074  1.00  0.00     0.010 C 
BRANCH  15  16
HETATM   16  C7  UNL     1       9.111  24.401   2.403  1.00  0.00    -0.036 A 
HETATM   17  C8  UNL     1       9.269  25.538   1.659  1.00  0.00     0.011 A 
HETATM   18  C9  UNL     1       8.220  26.238   1.166  1.00  0.00     0.001 A 
HETATM   19  C10 UNL     1       6.918  25.844   1.383  1.00  0.00     0.000 A 
HETATM   20  C11 UNL     1       6.753  24.698   2.132  1.00  0.00     0.001 A 
HETATM   21  C12 UNL     1       7.786  23.971   2.642  1.00  0.00     0.011 A 
ENDBRANCH  15  16
ENDBRANCH   5  14
ENDBRANCH   1   2
BRANCH   1  22
HETATM   22  C17 UNL     1      14.966  21.600   6.954  1.00  0.00     0.036 C 
HETATM   23  C18 UNL     1      14.722  22.086   8.327  1.00  0.00     0.010 C 
ENDBRANCH   1  22
BRANCH   1  24
HETATM   24  C19 UNL     1      14.273  21.070   4.699  1.00  0.00    -0.027 A 
HETATM   25  C20 UNL     1      13.902  21.502   3.443  1.00  0.00     0.012 A 
HETATM   26  C21 UNL     1      14.240  20.833   2.280  1.00  0.00     0.003 A 
HETATM   27  C22 UNL     1      14.974  19.685   2.363  1.00  0.00     0.030 A 
HETATM   28  C23 UNL     1      15.382  19.192   3.617  1.00  0.00     0.043 A 
HETATM   29  C30 UNL     1      15.028  19.882   4.732  1.00  0.00     0.042 A 
BRANCH  28  30
HETATM   30  N1  UNL     1      16.068  17.956   3.600  1.00  0.00    -0.279 N 
ATOM     31  H1  UNL     1      15.548  17.084   3.510  1.00  0.00     0.179 HD
BRANCH  30  32
HETATM   32  S1  UNL     1      17.808  17.924   3.734  1.00  0.00     0.278 S 
HETATM   33  O2  UNL     1      18.429  18.810   2.721  1.00  0.00    -0.199 OA
HETATM   34  O3  UNL     1      18.325  16.538   3.589  1.00  0.00    -0.199 OA
BRANCH  32  35
HETATM   35  C24 UNL     1      18.187  18.548   5.357  1.00  0.00     0.149 A 
HETATM   36  C25 UNL     1      18.318  19.875   5.626  1.00  0.00     0.044 A 
HETATM   37  C26 UNL     1      18.602  20.300   6.908  1.00  0.00     0.020 A 
HETATM   38  C27 UNL     1      18.750  19.385   7.914  1.00  0.00     0.063 A 
HETATM   39  C29 UNL     1      18.616  18.028   7.631  1.00  0.00     0.105 A 
HETATM   40  N2  UNL     1      18.344  17.665   6.381  1.00  0.00    -0.355 N 
ATOM     41  H2  UNL     1      18.248  16.670   6.178  1.00  0.00     0.166 HD
BRANCH  38  42
HETATM   42  C28 UNL     1      19.043  19.791   9.321  1.00  0.00     0.418 C 
HETATM   43  F1  UNL     1      19.614  18.702   9.956  1.00  0.00    -0.166 F 
HETATM   44  F2  UNL     1      17.884  20.149  10.012  1.00  0.00    -0.166 F 
HETATM   45  F3  UNL     1      19.875  20.871   9.319  1.00  0.00    -0.166 F 
ENDBRANCH  38  42
ENDBRANCH  32  35
ENDBRANCH  30  32
ENDBRANCH  28  30
ENDBRANCH   1  24
TORSDOF 12
ENDMDL
