MODEL 9
REMARK VINA RESULT: -9.545495447      4.414      9.750
REMARK  8 active torsions:
REMARK  status: ('A' for Active; 'I' for Inactive)
REMARK    1  A    between atoms: C1_2  and  C2_4 
REMARK    2  A    between atoms: C2_4  and  C3_5 
REMARK    3  A    between atoms: C3_5  and  C4_6 
REMARK    4  A    between atoms: C4_6  and  N1_7 
REMARK       I    between atoms: N1_7  and  C5_9 
REMARK    5  A    between atoms: C5_9  and  C6_11 
REMARK    6  A    between atoms: C9_14  and  C10_15 
REMARK    7  A    between atoms: C13_18  and  C14_19 
REMARK    8  A    between atoms: C21_26  and  O4_27 
ROOT
HETATM    1  C6  UNL     1       9.145  13.504  -5.935  1.00  0.00     0.032 A 
HETATM    2  C7  UNL     1       8.055  12.800  -6.382  1.00  0.00     0.017 A 
HETATM    3  C8  UNL     1       7.111  13.384  -7.231  1.00  0.00     0.009 A 
HETATM    4  C9  UNL     1       7.263  14.691  -7.635  1.00  0.00    -0.051 A 
HETATM    5  C22 UNL     1       8.352  15.387  -7.184  1.00  0.00     0.009 A 
HETATM    6  C23 UNL     1       9.272  14.799  -6.350  1.00  0.00     0.017 A 
ENDROOT
BRANCH   4   7
HETATM    7  C10 UNL     1       6.241  15.265  -8.534  1.00  0.00     0.047 C 
HETATM    8  C11 UNL     1       6.768  15.661  -9.884  1.00  0.00     0.012 C 
HETATM    9  C12 UNL     1       6.843  14.575 -10.894  1.00  0.00     0.010 C 
HETATM   10  C13 UNL     1       5.701  13.607 -10.876  1.00  0.00     0.021 C 
HETATM   11  C20 UNL     1       4.574  14.235 -10.088  1.00  0.00     0.042 C 
HETATM   12  C21 UNL     1       5.067  14.313  -8.637  1.00  0.00     0.127 C 
BRANCH  10  13
HETATM   13  C14 UNL     1       5.293  13.272 -12.265  1.00  0.00    -0.054 A 
HETATM   14  C15 UNL     1       5.775  13.961 -13.365  1.00  0.00     0.007 A 
HETATM   15  C16 UNL     1       5.405  13.659 -14.650  1.00  0.00     0.001 A 
HETATM   16  C17 UNL     1       4.511  12.620 -14.838  1.00  0.00     0.000 A 
HETATM   17  C18 UNL     1       4.000  11.904 -13.791  1.00  0.00     0.001 A 
HETATM   18  C19 UNL     1       4.406  12.246 -12.501  1.00  0.00     0.007 A 
ENDBRANCH  10  13
BRANCH  12  19
HETATM   19  O4  UNL     1       4.029  14.654  -7.771  1.00  0.00    -0.395 OA
ATOM     20  H4  UNL     1       3.173  14.531  -8.166  1.00  0.00     0.210 HD
ENDBRANCH  12  19
ENDBRANCH   4   7
BRANCH   1  21
HETATM   21  C5  UNL     1      10.098  12.863  -5.055  1.00  0.00     0.251 C 
HETATM   22  N1  UNL     1       9.805  12.167  -3.861  1.00  0.00    -0.357 N 
ATOM     23  H1  UNL     1       8.834  12.090  -3.559  1.00  0.00     0.162 HD
HETATM   24  O3  UNL     1      11.312  12.936  -5.390  1.00  0.00    -0.268 OA
BRANCH  22  25
HETATM   25  C4  UNL     1      10.845  11.557  -3.051  1.00  0.00     0.123 C 
BRANCH  25  26
HETATM   26  C3  UNL     1      10.325  11.002  -1.751  1.00  0.00     0.030 C 
BRANCH  26  27
HETATM   27  C2  UNL     1       9.446   9.815  -2.089  1.00  0.00     0.114 C 
BRANCH  27  28
HETATM   28  C1  UNL     1       8.039  10.213  -2.301  1.00  0.00     0.172 C 
HETATM   29  O1  UNL     1       7.261  10.422  -1.315  1.00  0.00    -0.648 OA
HETATM   30  O2  UNL     1       7.564  10.356  -3.594  1.00  0.00    -0.648 OA
ENDBRANCH  27  28
ENDBRANCH  26  27
ENDBRANCH  25  26
ENDBRANCH  22  25
ENDBRANCH   1  21
TORSDOF 8
ENDMDL
