MODEL 8
REMARK VINA RESULT: -9.567063090      4.487     10.071
REMARK  8 active torsions:
REMARK  status: ('A' for Active; 'I' for Inactive)
REMARK    1  A    between atoms: C1_2  and  C2_4 
REMARK    2  A    between atoms: C2_4  and  C3_5 
REMARK    3  A    between atoms: C3_5  and  C4_6 
REMARK    4  A    between atoms: C4_6  and  N1_7 
REMARK       I    between atoms: N1_7  and  C5_9 
REMARK    5  A    between atoms: C5_9  and  C6_11 
REMARK    6  A    between atoms: C9_14  and  C10_15 
REMARK    7  A    between atoms: C13_18  and  C14_19 
REMARK    8  A    between atoms: C21_26  and  O4_27 
ROOT
HETATM    1  C6  UNL     1       9.276  12.829  -5.523  1.00  0.00     0.032 A 
HETATM    2  C7  UNL     1       8.106  12.298  -6.006  1.00  0.00     0.017 A 
HETATM    3  C8  UNL     1       7.257  13.042  -6.830  1.00  0.00     0.009 A 
HETATM    4  C9  UNL     1       7.587  14.333  -7.174  1.00  0.00    -0.051 A 
HETATM    5  C22 UNL     1       8.756  14.855  -6.689  1.00  0.00     0.009 A 
HETATM    6  C23 UNL     1       9.580  14.112  -5.879  1.00  0.00     0.017 A 
ENDROOT
BRANCH   4   7
HETATM    7  C10 UNL     1       6.660  15.079  -8.049  1.00  0.00     0.047 C 
HETATM    8  C11 UNL     1       7.295  15.603  -9.306  1.00  0.00     0.012 C 
HETATM    9  C12 UNL     1       7.372  14.647 -10.440  1.00  0.00     0.010 C 
HETATM   10  C13 UNL     1       6.177  13.760 -10.609  1.00  0.00     0.021 C 
HETATM   11  C20 UNL     1       5.040  14.359  -9.814  1.00  0.00     0.042 C 
HETATM   12  C21 UNL     1       5.442  14.225  -8.339  1.00  0.00     0.127 C 
BRANCH  10  13
HETATM   13  C14 UNL     1       5.840  13.626 -12.051  1.00  0.00    -0.054 A 
HETATM   14  C15 UNL     1       5.126  12.549 -12.548  1.00  0.00     0.007 A 
HETATM   15  C16 UNL     1       4.810  12.418 -13.875  1.00  0.00     0.001 A 
HETATM   16  C17 UNL     1       5.231  13.412 -14.741  1.00  0.00     0.000 A 
HETATM   17  C18 UNL     1       5.940  14.498 -14.310  1.00  0.00     0.001 A 
HETATM   18  C19 UNL     1       6.238  14.590 -12.950  1.00  0.00     0.007 A 
ENDBRANCH  10  13
BRANCH  12  19
HETATM   19  O4  UNL     1       4.371  14.525  -7.497  1.00  0.00    -0.395 OA
ATOM     20  H4  UNL     1       3.935  13.745  -7.176  1.00  0.00     0.210 HD
ENDBRANCH  12  19
ENDBRANCH   4   7
BRANCH   1  21
HETATM   21  C5  UNL     1      10.126  12.026  -4.670  1.00  0.00     0.251 C 
HETATM   22  N1  UNL     1       9.908  11.726  -3.307  1.00  0.00    -0.357 N 
ATOM     23  H1  UNL     1       9.077  12.097  -2.846  1.00  0.00     0.162 HD
HETATM   24  O3  UNL     1      11.167  11.550  -5.200  1.00  0.00    -0.268 OA
BRANCH  22  25
HETATM   25  C4  UNL     1      10.830  10.906  -2.542  1.00  0.00     0.123 C 
BRANCH  25  26
HETATM   26  C3  UNL     1      10.137   9.835  -1.742  1.00  0.00     0.030 C 
BRANCH  26  27
HETATM   27  C2  UNL     1      11.106   9.374  -0.674  1.00  0.00     0.114 C 
BRANCH  27  28
HETATM   28  C1  UNL     1      10.563   8.247   0.115  1.00  0.00     0.172 C 
HETATM   29  O1  UNL     1      10.404   8.347   1.375  1.00  0.00    -0.648 OA
HETATM   30  O2  UNL     1      10.228   7.069  -0.530  1.00  0.00    -0.648 OA
ENDBRANCH  27  28
ENDBRANCH  26  27
ENDBRANCH  25  26
ENDBRANCH  22  25
ENDBRANCH   1  21
TORSDOF 8
ENDMDL
