MODEL 7
REMARK VINA RESULT: -9.598794334      5.277     10.078
REMARK  8 active torsions:
REMARK  status: ('A' for Active; 'I' for Inactive)
REMARK    1  A    between atoms: C1_2  and  C2_4 
REMARK    2  A    between atoms: C2_4  and  C3_5 
REMARK    3  A    between atoms: C3_5  and  C4_6 
REMARK    4  A    between atoms: C4_6  and  N1_7 
REMARK       I    between atoms: N1_7  and  C5_9 
REMARK    5  A    between atoms: C5_9  and  C6_11 
REMARK    6  A    between atoms: C9_14  and  C10_15 
REMARK    7  A    between atoms: C13_18  and  C14_19 
REMARK    8  A    between atoms: C21_26  and  O4_27 
ROOT
HETATM    1  C6  UNL     1       8.141  14.445  -7.363  1.00  0.00     0.032 A 
HETATM    2  C7  UNL     1       7.015  13.672  -7.502  1.00  0.00     0.017 A 
HETATM    3  C8  UNL     1       6.082  13.922  -8.512  1.00  0.00     0.009 A 
HETATM    4  C9  UNL     1       6.282  14.962  -9.392  1.00  0.00    -0.051 A 
HETATM    5  C22 UNL     1       7.407  15.728  -9.246  1.00  0.00     0.009 A 
HETATM    6  C23 UNL     1       8.315  15.470  -8.248  1.00  0.00     0.017 A 
ENDROOT
BRANCH   4   7
HETATM    7  C10 UNL     1       5.270  15.187 -10.444  1.00  0.00     0.047 C 
HETATM    8  C11 UNL     1       5.647  14.622 -11.785  1.00  0.00     0.012 C 
HETATM    9  C12 UNL     1       5.337  13.185 -11.992  1.00  0.00     0.010 C 
HETATM   10  C13 UNL     1       4.039  12.721 -11.408  1.00  0.00     0.021 C 
HETATM   11  C20 UNL     1       3.203  13.944 -11.108  1.00  0.00     0.042 C 
HETATM   12  C21 UNL     1       3.925  14.678  -9.969  1.00  0.00     0.127 C 
BRANCH  10  13
HETATM   13  C14 UNL     1       3.356  11.796 -12.351  1.00  0.00    -0.054 A 
HETATM   14  C15 UNL     1       2.020  11.455 -12.217  1.00  0.00     0.007 A 
HETATM   15  C16 UNL     1       1.383  10.605 -13.082  1.00  0.00     0.001 A 
HETATM   16  C17 UNL     1       2.118  10.072 -14.125  1.00  0.00     0.000 A 
HETATM   17  C18 UNL     1       3.440  10.370 -14.309  1.00  0.00     0.001 A 
HETATM   18  C19 UNL     1       4.047  11.242 -13.404  1.00  0.00     0.007 A 
ENDBRANCH  10  13
BRANCH  12  19
HETATM   19  O4  UNL     1       3.129  15.693  -9.441  1.00  0.00    -0.395 OA
ATOM     20  H4  UNL     1       2.812  16.289 -10.110  1.00  0.00     0.210 HD
ENDBRANCH  12  19
ENDBRANCH   4   7
BRANCH   1  21
HETATM   21  C5  UNL     1       9.080  14.153  -6.302  1.00  0.00     0.251 C 
HETATM   22  N1  UNL     1       9.084  13.010  -5.471  1.00  0.00    -0.357 N 
ATOM     23  H1  UNL     1       8.365  12.298  -5.606  1.00  0.00     0.162 HD
HETATM   24  O3  UNL     1       9.985  15.008  -6.099  1.00  0.00    -0.268 OA
BRANCH  22  25
HETATM   25  C4  UNL     1      10.080  12.817  -4.432  1.00  0.00     0.123 C 
BRANCH  25  26
HETATM   26  C3  UNL     1       9.569  12.000  -3.275  1.00  0.00     0.030 C 
BRANCH  26  27
HETATM   27  C2  UNL     1       8.245  11.398  -3.699  1.00  0.00     0.114 C 
BRANCH  27  28
HETATM   28  C1  UNL     1       7.788  10.352  -2.761  1.00  0.00     0.172 C 
HETATM   29  O1  UNL     1       6.593   9.913  -2.801  1.00  0.00    -0.648 OA
HETATM   30  O2  UNL     1       8.674   9.847  -1.825  1.00  0.00    -0.648 OA
ENDBRANCH  27  28
ENDBRANCH  26  27
ENDBRANCH  25  26
ENDBRANCH  22  25
ENDBRANCH   1  21
TORSDOF 8
ENDMDL
