MODEL 5
REMARK VINA RESULT: -9.027343076      3.254      4.604
REMARK  7 active torsions:
REMARK  status: ('A' for Active; 'I' for Inactive)
REMARK    1  A    between atoms: C3_6  and  C4_7 
REMARK    2  A    between atoms: C7_10  and  N3_11 
REMARK       I    between atoms: N3_11  and  C8_13 
REMARK    3  A    between atoms: C8_13  and  C9_15 
REMARK    4  A    between atoms: N5_22  and  C14_23 
REMARK    5  A    between atoms: C14_23  and  C15_24 
REMARK    6  A    between atoms: C15_24  and  S1_25 
REMARK    7  A    between atoms: S1_25  and  C16_28 
ROOT
HETATM    1  C9  UNL     1      13.255 -15.415  21.511  1.00  0.00     0.228 C 
HETATM    2  C10 UNL     1      12.135 -15.382  20.555  1.00  0.00     0.007 C 
HETATM    3  C11 UNL     1      12.362 -15.668  19.283  1.00  0.00    -0.006 C 
HETATM    4  C12 UNL     1      13.761 -16.012  18.882  1.00  0.00     0.181 C 
HETATM    5  N4  UNL     1      14.650 -15.111  19.584  1.00  0.00    -0.232 N 
HETATM    6  C13 UNL     1      15.755 -14.453  19.198  1.00  0.00     0.347 A 
HETATM    7  O2  UNL     1      16.279 -14.488  18.065  1.00  0.00    -0.245 OA
HETATM    8  N5  UNL     1      16.230 -13.723  20.250  1.00  0.00    -0.248 N 
HETATM    9  C22 UNL     1      15.379 -13.969  21.254  1.00  0.00     0.348 A 
HETATM   10  O5  UNL     1      15.419 -13.510  22.423  1.00  0.00    -0.245 OA
HETATM   11  N6  UNL     1      14.414 -14.818  20.845  1.00  0.00    -0.218 N 
ENDROOT
BRANCH   1  12
HETATM   12  C8  UNL     1      13.567 -16.783  21.960  1.00  0.00     0.246 C 
HETATM   13  N3  UNL     1      14.821 -17.049  22.571  1.00  0.00    -0.354 N 
ATOM     14  H3  UNL     1      15.490 -16.288  22.691  1.00  0.00     0.162 HD
HETATM   15  O1  UNL     1      12.718 -17.687  21.793  1.00  0.00    -0.271 OA
BRANCH  13  16
HETATM   16  C7  UNL     1      15.176 -18.394  23.033  1.00  0.00     0.084 C 
HETATM   17  C6  UNL     1      16.282 -18.902  22.164  1.00  0.00     0.026 C 
HETATM   18  C5  UNL     1      17.481 -18.028  22.314  1.00  0.00     0.013 C 
HETATM   19  C4  UNL     1      17.805 -17.686  23.757  1.00  0.00     0.037 C 
HETATM   20  C24 UNL     1      17.045 -18.678  24.620  1.00  0.00     0.013 C 
HETATM   21  C23 UNL     1      15.576 -18.319  24.483  1.00  0.00     0.026 C 
BRANCH  19  22
HETATM   22  C3  UNL     1      19.263 -17.815  23.948  1.00  0.00     0.031 A 
HETATM   23  C2  UNL     1      19.908 -17.862  25.144  1.00  0.00     0.116 A 
HETATM   24  N2  UNL     1      21.224 -17.984  24.851  1.00  0.00    -0.339 N 
HETATM   25  C1  UNL     1      21.356 -18.010  23.520  1.00  0.00     0.192 A 
ATOM     26  H2  UNL     1      21.984 -18.046  25.528  1.00  0.00     0.168 HD
HETATM   27  N1  UNL     1      22.605 -18.131  22.851  1.00  0.00    -0.063 NA
HETATM   28  N7  UNL     1      20.146 -17.907  22.941  1.00  0.00    -0.332 N 
ATOM     29  H7  UNL     1      19.942 -17.899  21.942  1.00  0.00     0.168 HD
ENDBRANCH  19  22
ENDBRANCH  13  16
ENDBRANCH   1  12
BRANCH   8  30
HETATM   30  C14 UNL     1      17.390 -12.864  20.234  1.00  0.00     0.154 C 
BRANCH  30  31
HETATM   31  C15 UNL     1      18.262 -12.922  21.424  1.00  0.00     0.166 C 
BRANCH  31  32
HETATM   32  S1  UNL     1      19.510 -14.144  21.436  1.00  0.00     0.177 S 
HETATM   33  O3  UNL     1      18.899 -15.490  21.183  1.00  0.00    -0.223 OA
HETATM   34  O4  UNL     1      20.551 -13.916  20.369  1.00  0.00    -0.223 OA
BRANCH  32  35
HETATM   35  C16 UNL     1      20.318 -14.223  23.004  1.00  0.00     0.059 A 
HETATM   36  C17 UNL     1      21.681 -14.404  23.066  1.00  0.00     0.023 A 
HETATM   37  C18 UNL     1      22.311 -14.465  24.315  1.00  0.00     0.002 A 
HETATM   38  C19 UNL     1      21.589 -14.348  25.478  1.00  0.00     0.000 A 
HETATM   39  C20 UNL     1      20.231 -14.168  25.400  1.00  0.00     0.002 A 
HETATM   40  C21 UNL     1      19.598 -14.106  24.166  1.00  0.00     0.023 A 
ENDBRANCH  32  35
ENDBRANCH  31  32
ENDBRANCH  30  31
ENDBRANCH   8  30
TORSDOF 7
ENDMDL
