MODEL 1
REMARK VINA RESULT: -9.244768923      0.000      0.000
REMARK  7 active torsions:
REMARK  status: ('A' for Active; 'I' for Inactive)
REMARK    1  A    between atoms: C3_6  and  C4_7 
REMARK    2  A    between atoms: C7_10  and  N3_11 
REMARK       I    between atoms: N3_11  and  C8_13 
REMARK    3  A    between atoms: C8_13  and  C9_15 
REMARK    4  A    between atoms: N5_22  and  C14_23 
REMARK    5  A    between atoms: C14_23  and  C15_24 
REMARK    6  A    between atoms: C15_24  and  S1_25 
REMARK    7  A    between atoms: S1_25  and  C16_28 
ROOT
HETATM    1  C9  UNL     1      13.395 -12.725  22.198  1.00  0.00     0.228 C 
HETATM    2  C10 UNL     1      12.837 -11.366  22.089  1.00  0.00     0.007 C 
HETATM    3  C11 UNL     1      12.816 -10.769  20.909  1.00  0.00    -0.006 C 
HETATM    4  C12 UNL     1      13.369 -11.515  19.737  1.00  0.00     0.181 C 
HETATM    5  N4  UNL     1      14.571 -12.191  20.178  1.00  0.00    -0.232 N 
HETATM    6  C13 UNL     1      15.769 -12.369  19.599  1.00  0.00     0.347 A 
HETATM    7  O2  UNL     1      16.115 -11.953  18.473  1.00  0.00    -0.245 OA
HETATM    8  N5  UNL     1      16.570 -13.087  20.440  1.00  0.00    -0.248 N 
HETATM    9  C22 UNL     1      15.814 -13.321  21.520  1.00  0.00     0.348 A 
HETATM   10  O5  UNL     1      16.136 -13.950  22.560  1.00  0.00    -0.245 OA
HETATM   11  N6  UNL     1      14.592 -12.773  21.358  1.00  0.00    -0.218 N 
ENDROOT
BRANCH   1  12
HETATM   12  C8  UNL     1      12.432 -13.760  21.783  1.00  0.00     0.246 C 
HETATM   13  N3  UNL     1      12.910 -15.023  21.343  1.00  0.00    -0.354 N 
ATOM     14  H3  UNL     1      13.915 -15.196  21.319  1.00  0.00     0.162 HD
HETATM   15  O1  UNL     1      11.208 -13.505  21.827  1.00  0.00    -0.271 OA
BRANCH  13  16
HETATM   16  C7  UNL     1      11.990 -16.082  20.920  1.00  0.00     0.084 C 
HETATM   17  C6  UNL     1      11.865 -16.016  19.431  1.00  0.00     0.026 C 
HETATM   18  C5  UNL     1      13.193 -16.276  18.803  1.00  0.00     0.013 C 
HETATM   19  C4  UNL     1      13.928 -17.458  19.408  1.00  0.00     0.037 C 
HETATM   20  C24 UNL     1      12.898 -18.257  20.187  1.00  0.00     0.013 C 
HETATM   21  C23 UNL     1      12.527 -17.408  21.390  1.00  0.00     0.026 C 
BRANCH  19  22
HETATM   22  C3  UNL     1      14.505 -18.256  18.308  1.00  0.00     0.031 A 
HETATM   23  C2  UNL     1      13.827 -19.133  17.520  1.00  0.00     0.116 A 
HETATM   24  N2  UNL     1      14.738 -19.633  16.653  1.00  0.00    -0.339 N 
HETATM   25  C1  UNL     1      15.922 -19.070  16.918  1.00  0.00     0.192 A 
ATOM     26  H2  UNL     1      14.554 -20.322  15.923  1.00  0.00     0.168 HD
HETATM   27  N1  UNL     1      17.115 -19.361  16.201  1.00  0.00    -0.063 NA
HETATM   28  N7  UNL     1      15.796 -18.210  17.945  1.00  0.00    -0.332 N 
ATOM     29  H7  UNL     1      16.531 -17.639  18.361  1.00  0.00     0.168 HD
ENDBRANCH  19  22
ENDBRANCH  13  16
ENDBRANCH   1  12
BRANCH   8  30
HETATM   30  C14 UNL     1      17.939 -13.469  20.191  1.00  0.00     0.154 C 
BRANCH  30  31
HETATM   31  C15 UNL     1      18.880 -13.299  21.317  1.00  0.00     0.166 C 
BRANCH  31  32
HETATM   32  S1  UNL     1      19.695 -14.732  21.893  1.00  0.00     0.177 S 
HETATM   33  O3  UNL     1      18.693 -15.823  22.125  1.00  0.00    -0.223 OA
HETATM   34  O4  UNL     1      20.708 -15.256  20.906  1.00  0.00    -0.223 OA
BRANCH  32  35
HETATM   35  C16 UNL     1      20.509 -14.435  23.432  1.00  0.00     0.059 A 
HETATM   36  C17 UNL     1      21.874 -14.584  23.526  1.00  0.00     0.023 A 
HETATM   37  C18 UNL     1      22.509 -14.345  24.751  1.00  0.00     0.002 A 
HETATM   38  C19 UNL     1      21.790 -13.965  25.858  1.00  0.00     0.000 A 
HETATM   39  C20 UNL     1      20.430 -13.820  25.748  1.00  0.00     0.002 A 
HETATM   40  C21 UNL     1      19.792 -14.054  24.537  1.00  0.00     0.023 A 
ENDBRANCH  32  35
ENDBRANCH  31  32
ENDBRANCH  30  31
ENDBRANCH   8  30
TORSDOF 7
ENDMDL
