MODEL 4
REMARK VINA RESULT: -9.030169304      3.028      6.418
REMARK  7 active torsions:
REMARK  status: ('A' for Active; 'I' for Inactive)
REMARK    1  A    between atoms: C3_6  and  C4_7 
REMARK    2  A    between atoms: C7_10  and  N3_11 
REMARK       I    between atoms: N3_11  and  C8_13 
REMARK    3  A    between atoms: C8_13  and  C9_15 
REMARK    4  A    between atoms: N5_22  and  C14_23 
REMARK    5  A    between atoms: C14_23  and  C15_24 
REMARK    6  A    between atoms: C15_24  and  S1_25 
REMARK    7  A    between atoms: S1_25  and  C16_28 
ROOT
HETATM    1  C9  UNL     1      15.780 -19.075  20.693  1.00  0.00     0.228 C 
HETATM    2  C10 UNL     1      15.796 -20.514  21.006  1.00  0.00     0.007 C 
HETATM    3  C11 UNL     1      15.373 -20.922  22.191  1.00  0.00    -0.006 C 
HETATM    4  C12 UNL     1      14.898 -19.888  23.160  1.00  0.00     0.181 C 
HETATM    5  N4  UNL     1      15.801 -18.759  23.070  1.00  0.00    -0.232 N 
HETATM    6  C13 UNL     1      16.342 -17.961  24.005  1.00  0.00     0.347 A 
HETATM    7  O2  UNL     1      16.161 -18.039  25.238  1.00  0.00    -0.245 OA
HETATM    8  N5  UNL     1      17.136 -17.033  23.395  1.00  0.00    -0.248 N 
HETATM    9  C22 UNL     1      17.046 -17.308  22.087  1.00  0.00     0.348 A 
HETATM   10  O5  UNL     1      17.613 -16.711  21.137  1.00  0.00    -0.245 OA
HETATM   11  N6  UNL     1      16.229 -18.363  21.890  1.00  0.00    -0.218 N 
ENDROOT
BRANCH   1  12
HETATM   12  C8  UNL     1      14.444 -18.605  20.286  1.00  0.00     0.246 C 
HETATM   13  N3  UNL     1      14.158 -17.214  20.297  1.00  0.00    -0.354 N 
ATOM     14  H3  UNL     1      14.883 -16.558  20.587  1.00  0.00     0.162 HD
HETATM   15  O1  UNL     1      13.584 -19.445  19.939  1.00  0.00    -0.271 OA
BRANCH  13  16
HETATM   16  C7  UNL     1      12.844 -16.702  19.901  1.00  0.00     0.084 C 
HETATM   17  C6  UNL     1      12.044 -16.475  21.146  1.00  0.00     0.026 C 
HETATM   18  C5  UNL     1      12.711 -15.442  21.990  1.00  0.00     0.013 C 
HETATM   19  C4  UNL     1      13.177 -14.228  21.207  1.00  0.00     0.037 C 
HETATM   20  C24 UNL     1      12.449 -14.265  19.875  1.00  0.00     0.013 C 
HETATM   21  C23 UNL     1      13.035 -15.437  19.106  1.00  0.00     0.026 C 
BRANCH  19  22
HETATM   22  C3  UNL     1      12.824 -13.017  21.976  1.00  0.00     0.031 A 
HETATM   23  C2  UNL     1      13.454 -11.816  21.903  1.00  0.00     0.116 A 
HETATM   24  N2  UNL     1      12.806 -11.003  22.770  1.00  0.00    -0.339 N 
HETATM   25  C1  UNL     1      11.820 -11.702  23.341  1.00  0.00     0.192 A 
ATOM     26  H2  UNL     1      13.032 -10.025  22.955  1.00  0.00     0.168 HD
HETATM   27  N1  UNL     1      10.927 -11.165  24.309  1.00  0.00    -0.063 NA
HETATM   28  N7  UNL     1      11.815 -12.958  22.859  1.00  0.00    -0.332 N 
ATOM     29  H7  UNL     1      11.175 -13.710  23.112  1.00  0.00     0.168 HD
ENDBRANCH  19  22
ENDBRANCH  13  16
ENDBRANCH   1  12
BRANCH   8  30
HETATM   30  C14 UNL     1      17.908 -16.009  24.055  1.00  0.00     0.154 C 
BRANCH  30  31
HETATM   31  C15 UNL     1      19.376 -16.160  24.001  1.00  0.00     0.166 C 
BRANCH  31  32
HETATM   32  S1  UNL     1      20.307 -14.734  23.615  1.00  0.00     0.177 S 
HETATM   33  O3  UNL     1      20.085 -13.687  24.665  1.00  0.00    -0.223 OA
HETATM   34  O4  UNL     1      21.790 -15.009  23.563  1.00  0.00    -0.223 OA
BRANCH  32  35
HETATM   35  C16 UNL     1      19.809 -14.038  22.070  1.00  0.00     0.059 A 
HETATM   36  C17 UNL     1      20.678 -14.042  21.003  1.00  0.00     0.023 A 
HETATM   37  C18 UNL     1      20.272 -13.488  19.783  1.00  0.00     0.002 A 
HETATM   38  C19 UNL     1      19.020 -12.940  19.637  1.00  0.00     0.000 A 
HETATM   39  C20 UNL     1      18.166 -12.943  20.710  1.00  0.00     0.002 A 
HETATM   40  C21 UNL     1      18.559 -13.491  21.923  1.00  0.00     0.023 A 
ENDBRANCH  32  35
ENDBRANCH  31  32
ENDBRANCH  30  31
ENDBRANCH   8  30
TORSDOF 7
ENDMDL
