MODEL 17
REMARK VINA RESULT: -2.469466897      2.878      3.767
REMARK  2 active torsions:
REMARK  status: ('A' for Active; 'I' for Inactive)
REMARK    1  A    between atoms: S1_2  and  C2_3 
REMARK    2  A    between atoms: C2_3  and  S2_4 
ROOT
HETATM    1  C2  UNL     1      59.496  -5.202   0.904  1.00  0.00     0.181 C 
ENDROOT
BRANCH   1   2
HETATM    2  S1  UNL     1      59.428  -3.685   1.881  1.00  0.00    -0.161 SA
HETATM    3  C1  UNL     1      59.341  -2.237   0.756  1.00  0.00     0.090 C 
ENDBRANCH   1   2
BRANCH   1   4
HETATM    4  S2  UNL     1      60.986  -5.132  -0.144  1.00  0.00     0.020 S 
HETATM    5  C3  UNL     1      60.301  -4.836  -1.841  1.00  0.00     0.128 C 
HETATM    6  O1  UNL     1      61.377  -6.631  -0.249  1.00  0.00    -0.258 OA
ENDBRANCH   1   4
TORSDOF 2
ENDMDL
