MODEL 7
REMARK VINA RESULT: -2.641567461      2.573      3.466
REMARK  2 active torsions:
REMARK  status: ('A' for Active; 'I' for Inactive)
REMARK    1  A    between atoms: S1_2  and  C2_3 
REMARK    2  A    between atoms: C2_3  and  S2_4 
ROOT
HETATM    1  C2  UNL     1      61.308  -4.295   0.316  1.00  0.00     0.181 C 
ENDROOT
BRANCH   1   2
HETATM    2  S1  UNL     1      60.686  -2.975  -0.748  1.00  0.00    -0.161 SA
HETATM    3  C1  UNL     1      59.681  -1.808   0.251  1.00  0.00     0.090 C 
ENDBRANCH   1   2
BRANCH   1   4
HETATM    4  S2  UNL     1      60.889  -5.890  -0.458  1.00  0.00     0.020 S 
HETATM    5  C3  UNL     1      60.016  -5.392  -2.016  1.00  0.00     0.128 C 
HETATM    6  O1  UNL     1      59.688  -6.362   0.406  1.00  0.00    -0.258 OA
ENDBRANCH   1   4
TORSDOF 2
ENDMDL
