MODEL 18
REMARK VINA RESULT: -2.467737679      2.815      3.823
REMARK  2 active torsions:
REMARK  status: ('A' for Active; 'I' for Inactive)
REMARK    1  A    between atoms: S1_2  and  C2_3 
REMARK    2  A    between atoms: C2_3  and  S2_4 
ROOT
HETATM    1  C2  UNL     1      59.280  -4.012  -0.387  1.00  0.00     0.181 C 
ENDROOT
BRANCH   1   2
HETATM    2  S1  UNL     1      60.223  -2.480  -0.224  1.00  0.00    -0.161 SA
HETATM    3  C1  UNL     1      59.208  -1.230   0.658  1.00  0.00     0.090 C 
ENDBRANCH   1   2
BRANCH   1   4
HETATM    4  S2  UNL     1      60.385  -5.401   0.029  1.00  0.00     0.020 S 
HETATM    5  C3  UNL     1      60.687  -6.212  -1.610  1.00  0.00     0.128 C 
HETATM    6  O1  UNL     1      59.401  -6.414   0.674  1.00  0.00    -0.258 OA
ENDBRANCH   1   4
TORSDOF 2
ENDMDL
