MODEL 9
REMARK VINA RESULT: -2.572306011      2.310      2.912
REMARK  2 active torsions:
REMARK  status: ('A' for Active; 'I' for Inactive)
REMARK    1  A    between atoms: S1_2  and  C2_3 
REMARK    2  A    between atoms: C2_3  and  S2_4 
ROOT
HETATM    1  C2  UNL     1      61.102  -4.390  -0.104  1.00  0.00     0.181 C 
ENDROOT
BRANCH   1   2
HETATM    2  S1  UNL     1      60.802  -2.634  -0.405  1.00  0.00    -0.161 SA
HETATM    3  C1  UNL     1      59.411  -2.063   0.649  1.00  0.00     0.090 C 
ENDBRANCH   1   2
BRANCH   1   4
HETATM    4  S2  UNL     1      60.654  -5.305  -1.615  1.00  0.00     0.020 S 
HETATM    5  C3  UNL     1      59.362  -4.232  -2.398  1.00  0.00     0.128 C 
HETATM    6  O1  UNL     1      59.772  -6.451  -1.048  1.00  0.00    -0.258 OA
ENDBRANCH   1   4
TORSDOF 2
ENDMDL
