MODEL 2
REMARK VINA RESULT: -2.776122175      2.296      3.431
REMARK  2 active torsions:
REMARK  status: ('A' for Active; 'I' for Inactive)
REMARK    1  A    between atoms: S1_2  and  C2_3 
REMARK    2  A    between atoms: C2_3  and  S2_4 
ROOT
HETATM    1  C2  UNL     1      61.206  -4.169  -0.016  1.00  0.00     0.181 C 
ENDROOT
BRANCH   1   2
HETATM    2  S1  UNL     1      60.545  -3.370  -1.495  1.00  0.00    -0.161 SA
HETATM    3  C1  UNL     1      58.789  -2.918  -1.211  1.00  0.00     0.090 C 
ENDBRANCH   1   2
BRANCH   1   4
HETATM    4  S2  UNL     1      60.871  -5.956  -0.143  1.00  0.00     0.020 S 
HETATM    5  C3  UNL     1      60.552  -6.203  -1.952  1.00  0.00     0.128 C 
HETATM    6  O1  UNL     1      59.427  -6.054   0.420  1.00  0.00    -0.258 OA
ENDBRANCH   1   4
TORSDOF 2
ENDMDL
