MODEL 1
REMARK VINA RESULT: -3.759380349      0.000      0.000
REMARK  3 active torsions:
REMARK  status: ('A' for Active; 'I' for Inactive)
REMARK    1  A    between atoms: C2_2  and  C3_4 
REMARK    2  A    between atoms: C3_4  and  C4_5 
REMARK    3  A    between atoms: C4_5  and  O2_6 
ROOT
HETATM    1  C3  UNL     1      60.527  -3.987  -2.151  1.00  0.00     0.103 C 
ENDROOT
BRANCH   1   2
HETATM    2  C2  UNL     1      60.313  -5.346  -1.619  1.00  0.00     0.125 C 
HETATM    3  C1  UNL     1      61.053  -5.992  -0.546  1.00  0.00     0.091 C 
HETATM    4  O1  UNL     1      59.412  -5.975  -2.157  1.00  0.00    -0.298 OA
ENDBRANCH   1   2
BRANCH   1   5
HETATM    5  C4  UNL     1      59.323  -3.405  -2.835  1.00  0.00     0.171 C 
BRANCH   5   6
HETATM    6  O2  UNL     1      58.978  -2.253  -2.088  1.00  0.00    -0.400 OA
ATOM      7  H2  UNL     1      58.254  -2.516  -1.531  1.00  0.00     0.209 HD
ENDBRANCH   5   6
ENDBRANCH   1   5
TORSDOF 3
ENDMDL
