MODEL 8
REMARK VINA RESULT: -3.571941812      1.942      2.137
REMARK  3 active torsions:
REMARK  status: ('A' for Active; 'I' for Inactive)
REMARK    1  A    between atoms: C2_2  and  C3_4 
REMARK    2  A    between atoms: C3_4  and  C4_5 
REMARK    3  A    between atoms: C4_5  and  O2_6 
ROOT
HETATM    1  C3  UNL     1      61.200  -4.103  -0.077  1.00  0.00     0.103 C 
ENDROOT
BRANCH   1   2
HETATM    2  C2  UNL     1      60.695  -5.435  -0.463  1.00  0.00     0.125 C 
HETATM    3  C1  UNL     1      60.638  -5.995  -1.803  1.00  0.00     0.091 C 
HETATM    4  O1  UNL     1      60.287  -6.120   0.465  1.00  0.00    -0.298 OA
ENDBRANCH   1   2
BRANCH   1   5
HETATM    5  C4  UNL     1      60.893  -3.024  -1.076  1.00  0.00     0.171 C 
BRANCH   5   6
HETATM    6  O2  UNL     1      60.632  -1.860  -0.314  1.00  0.00    -0.400 OA
ATOM      7  H2  UNL     1      59.720  -1.922  -0.054  1.00  0.00     0.209 HD
ENDBRANCH   5   6
ENDBRANCH   1   5
TORSDOF 3
ENDMDL
