MODEL 17
REMARK VINA RESULT: -3.359572055      1.727      1.925
REMARK  3 active torsions:
REMARK  status: ('A' for Active; 'I' for Inactive)
REMARK    1  A    between atoms: C2_2  and  C3_4 
REMARK    2  A    between atoms: C3_4  and  C4_5 
REMARK    3  A    between atoms: C4_5  and  O2_6 
ROOT
HETATM    1  C3  UNL     1      61.363  -4.187  -0.208  1.00  0.00     0.103 C 
ENDROOT
BRANCH   1   2
HETATM    2  C2  UNL     1      60.714  -5.482  -0.492  1.00  0.00     0.125 C 
HETATM    3  C1  UNL     1      59.646  -6.111   0.268  1.00  0.00     0.091 C 
HETATM    4  O1  UNL     1      61.140  -6.066  -1.479  1.00  0.00    -0.298 OA
ENDBRANCH   1   2
BRANCH   1   5
HETATM    5  C4  UNL     1      60.750  -3.026  -0.935  1.00  0.00     0.171 C 
BRANCH   5   6
HETATM    6  O2  UNL     1      60.713  -3.404  -2.299  1.00  0.00    -0.400 OA
ATOM      7  H2  UNL     1      60.611  -2.595  -2.787  1.00  0.00     0.209 HD
ENDBRANCH   5   6
ENDBRANCH   1   5
TORSDOF 3
ENDMDL
