MODEL 14
REMARK VINA RESULT: -3.419531121      1.071      1.071
REMARK  3 active torsions:
REMARK  status: ('A' for Active; 'I' for Inactive)
REMARK    1  A    between atoms: C2_2  and  C3_4 
REMARK    2  A    between atoms: C3_4  and  C4_5 
REMARK    3  A    between atoms: C4_5  and  O2_6 
ROOT
HETATM    1  C3  UNL     1      60.315  -4.495  -2.166  1.00  0.00     0.103 C 
ENDROOT
BRANCH   1   2
HETATM    2  C2  UNL     1      60.268  -5.764  -1.414  1.00  0.00     0.125 C 
HETATM    3  C1  UNL     1      61.092  -6.138  -0.275  1.00  0.00     0.091 C 
HETATM    4  O1  UNL     1      59.439  -6.570  -1.813  1.00  0.00    -0.298 OA
ENDBRANCH   1   2
BRANCH   1   5
HETATM    5  C4  UNL     1      59.494  -3.396  -1.556  1.00  0.00     0.171 C 
BRANCH   5   6
HETATM    6  O2  UNL     1      58.224  -3.965  -1.298  1.00  0.00    -0.400 OA
ATOM      7  H2  UNL     1      57.731  -3.296  -0.837  1.00  0.00     0.209 HD
ENDBRANCH   5   6
ENDBRANCH   1   5
TORSDOF 3
ENDMDL
