MODEL 3
REMARK VINA RESULT: -3.677462127      1.625      1.645
REMARK  3 active torsions:
REMARK  status: ('A' for Active; 'I' for Inactive)
REMARK    1  A    between atoms: C2_2  and  C3_4 
REMARK    2  A    between atoms: C3_4  and  C4_5 
REMARK    3  A    between atoms: C4_5  and  O2_6 
ROOT
HETATM    1  C3  UNL     1      60.743  -3.652  -2.155  1.00  0.00     0.103 C 
ENDROOT
BRANCH   1   2
HETATM    2  C2  UNL     1      60.971  -4.354  -0.877  1.00  0.00     0.125 C 
HETATM    3  C1  UNL     1      60.988  -5.791  -0.659  1.00  0.00     0.091 C 
HETATM    4  O1  UNL     1      61.163  -3.623   0.085  1.00  0.00    -0.298 OA
ENDBRANCH   1   2
BRANCH   1   5
HETATM    5  C4  UNL     1      59.309  -3.278  -2.397  1.00  0.00     0.171 C 
BRANCH   5   6
HETATM    6  O2  UNL     1      59.088  -2.101  -1.642  1.00  0.00    -0.400 OA
ATOM      7  H2  UNL     1      59.845  -2.014  -1.074  1.00  0.00     0.209 HD
ENDBRANCH   5   6
ENDBRANCH   1   5
TORSDOF 3
ENDMDL
