MODEL 14
REMARK VINA RESULT: -8.684868643      2.787      4.639
REMARK  8 active torsions:
REMARK  status: ('A' for Active; 'I' for Inactive)
REMARK    1  A    between atoms: N1_1  and  C1_5 
REMARK    2  A    between atoms: C4_8  and  C5_9 
REMARK    3  A    between atoms: C5_9  and  N2_10 
REMARK       I    between atoms: N2_10  and  C6_12 
REMARK    4  A    between atoms: C6_12  and  C7_14 
REMARK    5  A    between atoms: N4_21  and  C12_22 
REMARK    6  A    between atoms: C12_22  and  C13_23 
REMARK    7  A    between atoms: C13_23  and  S1_24 
REMARK    8  A    between atoms: S1_24  and  C14_27 
ROOT
HETATM    1  C7  UNL     1      18.778 -12.814  21.124  1.00  0.00     0.228 C 
HETATM    2  C8  UNL     1      19.797 -12.554  20.075  1.00  0.00     0.007 C 
HETATM    3  C9  UNL     1      21.052 -12.886  20.346  1.00  0.00    -0.006 C 
HETATM    4  C10 UNL     1      21.392 -13.498  21.673  1.00  0.00     0.181 C 
HETATM    5  N3  UNL     1      20.306 -14.412  21.966  1.00  0.00    -0.232 N 
HETATM    6  C11 UNL     1      20.297 -15.665  22.512  1.00  0.00     0.347 A 
HETATM    7  O2  UNL     1      21.320 -16.270  22.870  1.00  0.00    -0.245 OA
HETATM    8  N4  UNL     1      19.054 -16.139  22.600  1.00  0.00    -0.248 N 
HETATM    9  C20 UNL     1      18.285 -15.124  22.082  1.00  0.00     0.348 A 
HETATM   10  O5  UNL     1      17.024 -15.179  21.984  1.00  0.00    -0.245 OA
HETATM   11  N5  UNL     1      19.054 -14.097  21.708  1.00  0.00    -0.218 N 
ENDROOT
BRANCH   1  12
HETATM   12  C6  UNL     1      17.408 -12.648  20.659  1.00  0.00     0.246 C 
HETATM   13  N2  UNL     1      16.372 -12.169  21.500  1.00  0.00    -0.359 N 
ATOM     14  H2  UNL     1      16.613 -11.935  22.464  1.00  0.00     0.162 HD
HETATM   15  O1  UNL     1      17.116 -12.936  19.472  1.00  0.00    -0.271 OA
BRANCH  13  16
HETATM   16  C5  UNL     1      14.996 -11.988  21.088  1.00  0.00     0.127 C 
BRANCH  16  17
HETATM   17  C4  UNL     1      14.092 -13.104  21.571  1.00  0.00     0.003 C 
HETATM   18  C3  UNL     1      12.685 -12.559  21.577  1.00  0.00     0.008 C 
HETATM   19  C2  UNL     1      11.636 -13.638  21.620  1.00  0.00     0.033 C 
HETATM   20  C1  UNL     1      11.840 -14.681  20.545  1.00  0.00     0.183 C 
HETATM   21  C22 UNL     1      13.110 -14.414  19.753  1.00  0.00     0.033 C 
HETATM   22  C21 UNL     1      14.239 -14.333  20.725  1.00  0.00     0.008 C 
BRANCH  20  23
HETATM   23  N1  UNL     1      11.905 -15.971  21.208  1.00  0.00    -0.075 N 
ATOM     24  H13 UNL     1      12.289 -15.918  22.151  1.00  0.00     0.274 HD
ATOM     25  H12 UNL     1      10.987 -16.338  21.460  1.00  0.00     0.274 HD
ATOM     26  H11 UNL     1      12.431 -16.597  20.597  1.00  0.00     0.274 HD
ENDBRANCH  20  23
ENDBRANCH  16  17
ENDBRANCH  13  16
ENDBRANCH   1  12
BRANCH   8  27
HETATM   27  C12 UNL     1      18.491 -17.366  23.111  1.00  0.00     0.154 C 
BRANCH  27  28
HETATM   28  C13 UNL     1      17.832 -17.267  24.420  1.00  0.00     0.166 C 
BRANCH  28  29
HETATM   29  S1  UNL     1      18.875 -17.567  25.791  1.00  0.00     0.177 S 
HETATM   30  O3  UNL     1      18.078 -17.806  27.054  1.00  0.00    -0.223 OA
HETATM   31  O4  UNL     1      19.671 -18.842  25.577  1.00  0.00    -0.223 OA
BRANCH  29  32
HETATM   32  C14 UNL     1      20.037 -16.286  26.022  1.00  0.00     0.059 A 
HETATM   33  C15 UNL     1      19.601 -14.957  26.113  1.00  0.00     0.023 A 
HETATM   34  C16 UNL     1      20.464 -13.904  26.258  1.00  0.00     0.002 A 
HETATM   35  C17 UNL     1      21.824 -14.097  26.323  1.00  0.00     0.000 A 
HETATM   36  C18 UNL     1      22.279 -15.392  26.236  1.00  0.00     0.002 A 
HETATM   37  C19 UNL     1      21.395 -16.470  26.087  1.00  0.00     0.023 A 
ENDBRANCH  29  32
ENDBRANCH  28  29
ENDBRANCH  27  28
ENDBRANCH   8  27
TORSDOF 8
ENDMDL
