MODEL 3
REMARK VINA RESULT: -9.326271148      3.159      9.166
REMARK  8 active torsions:
REMARK  status: ('A' for Active; 'I' for Inactive)
REMARK    1  A    between atoms: N1_1  and  C1_5 
REMARK    2  A    between atoms: C4_8  and  C5_9 
REMARK    3  A    between atoms: C5_9  and  N2_10 
REMARK       I    between atoms: N2_10  and  C6_12 
REMARK    4  A    between atoms: C6_12  and  C7_14 
REMARK    5  A    between atoms: N4_21  and  C12_22 
REMARK    6  A    between atoms: C12_22  and  C13_23 
REMARK    7  A    between atoms: C13_23  and  S1_24 
REMARK    8  A    between atoms: S1_24  and  C14_27 
ROOT
HETATM    1  C7  UNL     1      20.305 -14.339  22.208  1.00  0.00     0.228 C 
HETATM    2  C8  UNL     1      21.280 -13.298  21.793  1.00  0.00     0.007 C 
HETATM    3  C9  UNL     1      21.081 -12.706  20.623  1.00  0.00    -0.006 C 
HETATM    4  C10 UNL     1      19.905 -13.100  19.778  1.00  0.00     0.181 C 
HETATM    5  N3  UNL     1      18.809 -13.289  20.706  1.00  0.00    -0.232 N 
HETATM    6  C11 UNL     1      17.486 -12.952  20.630  1.00  0.00     0.347 A 
HETATM    7  O2  UNL     1      16.977 -12.373  19.657  1.00  0.00    -0.245 OA
HETATM    8  N4  UNL     1      16.833 -13.324  21.731  1.00  0.00    -0.248 N 
HETATM    9  C20 UNL     1      17.810 -13.909  22.501  1.00  0.00     0.348 A 
HETATM   10  O5  UNL     1      17.598 -14.401  23.648  1.00  0.00    -0.245 OA
HETATM   11  N5  UNL     1      18.987 -13.878  21.870  1.00  0.00    -0.218 N 
ENDROOT
BRANCH   1  12
HETATM   12  C6  UNL     1      20.457 -14.758  23.594  1.00  0.00     0.246 C 
HETATM   13  N2  UNL     1      20.413 -16.121  23.985  1.00  0.00    -0.359 N 
ATOM     14  H2  UNL     1      20.271 -16.820  23.255  1.00  0.00     0.162 HD
HETATM   15  O1  UNL     1      20.633 -13.896  24.489  1.00  0.00    -0.271 OA
BRANCH  13  16
HETATM   16  C5  UNL     1      20.557 -16.591  25.348  1.00  0.00     0.127 C 
BRANCH  16  17
HETATM   17  C4  UNL     1      21.947 -17.119  25.637  1.00  0.00     0.003 C 
HETATM   18  C3  UNL     1      22.489 -17.664  24.340  1.00  0.00     0.008 C 
HETATM   19  C2  UNL     1      23.986 -17.835  24.352  1.00  0.00     0.033 C 
HETATM   20  C1  UNL     1      24.704 -16.579  24.788  1.00  0.00     0.183 C 
HETATM   21  C22 UNL     1      23.718 -15.492  25.188  1.00  0.00     0.033 C 
HETATM   22  C21 UNL     1      22.822 -16.060  26.237  1.00  0.00     0.008 C 
BRANCH  20  23
HETATM   23  N1  UNL     1      25.557 -16.940  25.906  1.00  0.00    -0.075 N 
ATOM     24  H13 UNL     1      25.084 -17.518  26.600  1.00  0.00     0.274 HD
ATOM     25  H12 UNL     1      26.286 -17.607  25.654  1.00  0.00     0.274 HD
ATOM     26  H11 UNL     1      25.926 -16.072  26.295  1.00  0.00     0.274 HD
ENDBRANCH  20  23
ENDBRANCH  16  17
ENDBRANCH  13  16
ENDBRANCH   1  12
BRANCH   8  27
HETATM   27  C12 UNL     1      15.453 -13.239  22.146  1.00  0.00     0.154 C 
BRANCH  27  28
HETATM   28  C13 UNL     1      14.490 -13.963  21.306  1.00  0.00     0.166 C 
BRANCH  28  29
HETATM   29  S1  UNL     1      13.084 -13.035  20.836  1.00  0.00     0.177 S 
HETATM   30  O3  UNL     1      13.407 -12.059  19.726  1.00  0.00    -0.223 OA
HETATM   31  O4  UNL     1      12.019 -13.952  20.259  1.00  0.00    -0.223 OA
BRANCH  29  32
HETATM   32  C14 UNL     1      12.356 -12.216  22.193  1.00  0.00     0.059 A 
HETATM   33  C15 UNL     1      12.892 -11.002  22.644  1.00  0.00     0.023 A 
HETATM   34  C16 UNL     1      12.390 -10.329  23.726  1.00  0.00     0.002 A 
HETATM   35  C17 UNL     1      11.317 -10.814  24.436  1.00  0.00     0.000 A 
HETATM   36  C18 UNL     1      10.771 -12.005  24.015  1.00  0.00     0.002 A 
HETATM   37  C19 UNL     1      11.286 -12.694  22.908  1.00  0.00     0.023 A 
ENDBRANCH  29  32
ENDBRANCH  28  29
ENDBRANCH  27  28
ENDBRANCH   8  27
TORSDOF 8
ENDMDL
