MODEL 2
REMARK VINA RESULT: -9.378875428      2.431      3.974
REMARK  8 active torsions:
REMARK  status: ('A' for Active; 'I' for Inactive)
REMARK    1  A    between atoms: N1_1  and  C1_5 
REMARK    2  A    between atoms: C4_8  and  C5_9 
REMARK    3  A    between atoms: C5_9  and  N2_10 
REMARK       I    between atoms: N2_10  and  C6_12 
REMARK    4  A    between atoms: C6_12  and  C7_14 
REMARK    5  A    between atoms: N4_21  and  C12_22 
REMARK    6  A    between atoms: C12_22  and  C13_23 
REMARK    7  A    between atoms: C13_23  and  S1_24 
REMARK    8  A    between atoms: S1_24  and  C14_27 
ROOT
HETATM    1  C7  UNL     1      18.491 -12.776  21.060  1.00  0.00     0.228 C 
HETATM    2  C8  UNL     1      19.444 -12.576  19.939  1.00  0.00     0.007 C 
HETATM    3  C9  UNL     1      20.700 -12.959  20.128  1.00  0.00    -0.006 C 
HETATM    4  C10 UNL     1      21.105 -13.565  21.439  1.00  0.00     0.181 C 
HETATM    5  N3  UNL     1      20.005 -14.426  21.823  1.00  0.00    -0.232 N 
HETATM    6  C11 UNL     1      19.980 -15.670  22.391  1.00  0.00     0.347 A 
HETATM    7  O2  UNL     1      20.999 -16.313  22.688  1.00  0.00    -0.245 OA
HETATM    8  N4  UNL     1      18.727 -16.087  22.572  1.00  0.00    -0.248 N 
HETATM    9  C20 UNL     1      17.968 -15.047  22.091  1.00  0.00     0.348 A 
HETATM   10  O5  UNL     1      16.702 -15.049  22.081  1.00  0.00    -0.245 OA
HETATM   11  N5  UNL     1      18.752 -14.060  21.647  1.00  0.00    -0.218 N 
ENDROOT
BRANCH   1  12
HETATM   12  C6  UNL     1      17.101 -12.557  20.688  1.00  0.00     0.246 C 
HETATM   13  N2  UNL     1      16.107 -12.200  21.635  1.00  0.00    -0.359 N 
ATOM     14  H2  UNL     1      16.395 -12.095  22.608  1.00  0.00     0.162 HD
HETATM   15  O1  UNL     1      16.750 -12.686  19.489  1.00  0.00    -0.271 OA
BRANCH  13  16
HETATM   16  C5  UNL     1      14.712 -11.973  21.317  1.00  0.00     0.127 C 
BRANCH  16  17
HETATM   17  C4  UNL     1      13.814 -12.077  22.533  1.00  0.00     0.003 C 
HETATM   18  C3  UNL     1      13.023 -10.795  22.607  1.00  0.00     0.008 C 
HETATM   19  C2  UNL     1      11.805 -10.904  23.485  1.00  0.00     0.033 C 
HETATM   20  C1  UNL     1      10.939 -12.088  23.123  1.00  0.00     0.183 C 
HETATM   21  C22 UNL     1      11.574 -12.916  22.016  1.00  0.00     0.033 C 
HETATM   22  C21 UNL     1      12.945 -13.297  22.468  1.00  0.00     0.008 C 
BRANCH  20  23
HETATM   23  N1  UNL     1      10.769 -12.879  24.328  1.00  0.00    -0.075 N 
ATOM     24  H13 UNL     1      11.377 -13.698  24.358  1.00  0.00     0.274 HD
ATOM     25  H12 UNL     1      11.129 -12.418  25.163  1.00  0.00     0.274 HD
ATOM     26  H11 UNL     1       9.779 -13.114  24.396  1.00  0.00     0.274 HD
ENDBRANCH  20  23
ENDBRANCH  16  17
ENDBRANCH  13  16
ENDBRANCH   1  12
BRANCH   8  27
HETATM   27  C12 UNL     1      18.150 -17.281  23.143  1.00  0.00     0.154 C 
BRANCH  27  28
HETATM   28  C13 UNL     1      17.648 -17.151  24.518  1.00  0.00     0.166 C 
BRANCH  28  29
HETATM   29  S1  UNL     1      18.806 -17.555  25.763  1.00  0.00     0.177 S 
HETATM   30  O3  UNL     1      18.123 -17.888  27.071  1.00  0.00    -0.223 OA
HETATM   31  O4  UNL     1      19.568 -18.812  25.383  1.00  0.00    -0.223 OA
BRANCH  29  32
HETATM   32  C14 UNL     1      19.995 -16.298  25.984  1.00  0.00     0.059 A 
HETATM   33  C15 UNL     1      19.584 -14.961  26.095  1.00  0.00     0.023 A 
HETATM   34  C16 UNL     1      20.470 -13.926  26.234  1.00  0.00     0.002 A 
HETATM   35  C17 UNL     1      21.827 -14.144  26.272  1.00  0.00     0.000 A 
HETATM   36  C18 UNL     1      22.257 -15.446  26.165  1.00  0.00     0.002 A 
HETATM   37  C19 UNL     1      21.351 -16.506  26.023  1.00  0.00     0.023 A 
ENDBRANCH  29  32
ENDBRANCH  28  29
ENDBRANCH  27  28
ENDBRANCH   8  27
TORSDOF 8
ENDMDL
