MODEL 6
REMARK VINA RESULT: -8.946782143      3.109      7.758
REMARK  8 active torsions:
REMARK  status: ('A' for Active; 'I' for Inactive)
REMARK    1  A    between atoms: N1_1  and  C1_5 
REMARK    2  A    between atoms: C4_8  and  C5_9 
REMARK    3  A    between atoms: C5_9  and  N2_10 
REMARK       I    between atoms: N2_10  and  C6_12 
REMARK    4  A    between atoms: C6_12  and  C7_14 
REMARK    5  A    between atoms: N4_21  and  C12_22 
REMARK    6  A    between atoms: C12_22  and  C13_23 
REMARK    7  A    between atoms: C13_23  and  S1_24 
REMARK    8  A    between atoms: S1_24  and  C14_27 
ROOT
HETATM    1  C7  UNL     1      14.801 -17.238  22.367  1.00  0.00     0.228 C 
HETATM    2  C8  UNL     1      14.287 -18.572  21.966  1.00  0.00     0.007 C 
HETATM    3  C9  UNL     1      13.012 -18.654  21.609  1.00  0.00    -0.006 C 
HETATM    4  C10 UNL     1      12.153 -17.425  21.623  1.00  0.00     0.181 C 
HETATM    5  N3  UNL     1      12.994 -16.360  21.117  1.00  0.00    -0.232 N 
HETATM    6  C11 UNL     1      12.733 -15.322  20.265  1.00  0.00     0.347 A 
HETATM    7  O2  UNL     1      11.625 -15.122  19.743  1.00  0.00    -0.245 OA
HETATM    8  N4  UNL     1      13.820 -14.574  20.075  1.00  0.00    -0.248 N 
HETATM    9  C20 UNL     1      14.774 -15.192  20.847  1.00  0.00     0.348 A 
HETATM   10  O5  UNL     1      15.969 -14.785  20.944  1.00  0.00    -0.245 OA
HETATM   11  N5  UNL     1      14.261 -16.260  21.464  1.00  0.00    -0.218 N 
ENDROOT
BRANCH   1  12
HETATM   12  C6  UNL     1      16.249 -17.190  22.507  1.00  0.00     0.246 C 
HETATM   13  N2  UNL     1      16.899 -16.285  23.385  1.00  0.00    -0.359 N 
ATOM     14  H2  UNL     1      16.314 -15.652  23.932  1.00  0.00     0.162 HD
HETATM   15  O1  UNL     1      16.965 -17.971  21.834  1.00  0.00    -0.271 OA
BRANCH  13  16
HETATM   16  C5  UNL     1      18.334 -16.196  23.560  1.00  0.00     0.127 C 
BRANCH  16  17
HETATM   17  C4  UNL     1      18.734 -15.122  24.552  1.00  0.00     0.003 C 
HETATM   18  C3  UNL     1      19.023 -15.816  25.859  1.00  0.00     0.008 C 
HETATM   19  C2  UNL     1      19.827 -14.970  26.810  1.00  0.00     0.033 C 
HETATM   20  C1  UNL     1      21.078 -14.415  26.169  1.00  0.00     0.183 C 
HETATM   21  C22 UNL     1      21.153 -14.787  24.697  1.00  0.00     0.033 C 
HETATM   22  C21 UNL     1      19.894 -14.317  24.048  1.00  0.00     0.008 C 
BRANCH  20  23
HETATM   23  N1  UNL     1      21.043 -12.974  26.338  1.00  0.00    -0.075 N 
ATOM     24  H13 UNL     1      20.321 -12.523  25.775  1.00  0.00     0.274 HD
ATOM     25  H12 UNL     1      20.695 -12.687  27.252  1.00  0.00     0.274 HD
ATOM     26  H11 UNL     1      21.981 -12.625  26.139  1.00  0.00     0.274 HD
ENDBRANCH  20  23
ENDBRANCH  16  17
ENDBRANCH  13  16
ENDBRANCH   1  12
BRANCH   8  27
HETATM   27  C12 UNL     1      14.081 -13.376  19.314  1.00  0.00     0.154 C 
BRANCH  27  28
HETATM   28  C13 UNL     1      13.283 -12.199  19.685  1.00  0.00     0.166 C 
BRANCH  28  29
HETATM   29  S1  UNL     1      13.884 -11.311  21.066  1.00  0.00     0.177 S 
HETATM   30  O3  UNL     1      15.251 -11.799  21.490  1.00  0.00    -0.223 OA
HETATM   31  O4  UNL     1      14.080  -9.849  20.705  1.00  0.00    -0.223 OA
BRANCH  29  32
HETATM   32  C14 UNL     1      12.766 -11.349  22.405  1.00  0.00     0.059 A 
HETATM   33  C15 UNL     1      11.797 -12.360  22.476  1.00  0.00     0.023 A 
HETATM   34  C16 UNL     1      10.869 -12.424  23.480  1.00  0.00     0.002 A 
HETATM   35  C17 UNL     1      10.837 -11.489  24.488  1.00  0.00     0.000 A 
HETATM   36  C18 UNL     1      11.778 -10.485  24.442  1.00  0.00     0.002 A 
HETATM   37  C19 UNL     1      12.727 -10.419  23.414  1.00  0.00     0.023 A 
ENDBRANCH  29  32
ENDBRANCH  28  29
ENDBRANCH  27  28
ENDBRANCH   8  27
TORSDOF 8
ENDMDL
