MODEL 4
REMARK VINA RESULT: -9.039086389      3.250      8.381
REMARK  8 active torsions:
REMARK  status: ('A' for Active; 'I' for Inactive)
REMARK    1  A    between atoms: N1_1  and  C1_5 
REMARK    2  A    between atoms: C4_8  and  C5_9 
REMARK    3  A    between atoms: C5_9  and  N2_10 
REMARK       I    between atoms: N2_10  and  C6_12 
REMARK    4  A    between atoms: C6_12  and  C7_14 
REMARK    5  A    between atoms: N4_21  and  C12_22 
REMARK    6  A    between atoms: C12_22  and  C13_23 
REMARK    7  A    between atoms: C13_23  and  S1_24 
REMARK    8  A    between atoms: S1_24  and  C14_27 
ROOT
HETATM    1  C7  UNL     1      20.274 -14.339  22.070  1.00  0.00     0.228 C 
HETATM    2  C8  UNL     1      21.238 -13.305  21.614  1.00  0.00     0.007 C 
HETATM    3  C9  UNL     1      20.992 -12.708  20.456  1.00  0.00    -0.006 C 
HETATM    4  C10 UNL     1      19.777 -13.089  19.663  1.00  0.00     0.181 C 
HETATM    5  N3  UNL     1      18.721 -13.272  20.639  1.00  0.00    -0.232 N 
HETATM    6  C11 UNL     1      17.399 -12.925  20.623  1.00  0.00     0.347 A 
HETATM    7  O2  UNL     1      16.852 -12.338  19.675  1.00  0.00    -0.245 OA
HETATM    8  N4  UNL     1      16.793 -13.295  21.751  1.00  0.00    -0.248 N 
HETATM    9  C20 UNL     1      17.798 -13.890  22.476  1.00  0.00     0.348 A 
HETATM   10  O5  UNL     1      17.634 -14.384  23.630  1.00  0.00    -0.245 OA
HETATM   11  N5  UNL     1      18.947 -13.867  21.792  1.00  0.00    -0.218 N 
ENDROOT
BRANCH   1  12
HETATM   12  C6  UNL     1      20.485 -14.764  23.447  1.00  0.00     0.246 C 
HETATM   13  N2  UNL     1      20.261 -16.099  23.873  1.00  0.00    -0.359 N 
ATOM     14  H2  UNL     1      19.943 -16.773  23.176  1.00  0.00     0.162 HD
HETATM   15  O1  UNL     1      20.877 -13.932  24.301  1.00  0.00    -0.271 OA
BRANCH  13  16
HETATM   16  C5  UNL     1      20.454 -16.572  25.228  1.00  0.00     0.127 C 
BRANCH  16  17
HETATM   17  C4  UNL     1      19.615 -17.794  25.542  1.00  0.00     0.003 C 
HETATM   18  C3  UNL     1      20.405 -18.630  26.518  1.00  0.00     0.008 C 
HETATM   19  C2  UNL     1      19.559 -19.641  27.247  1.00  0.00     0.033 C 
HETATM   20  C1  UNL     1      18.340 -19.017  27.886  1.00  0.00     0.183 C 
HETATM   21  C22 UNL     1      18.238 -17.537  27.548  1.00  0.00     0.033 C 
HETATM   22  C21 UNL     1      18.262 -17.411  26.062  1.00  0.00     0.008 C 
BRANCH  20  23
HETATM   23  N1  UNL     1      17.181 -19.740  27.393  1.00  0.00    -0.075 N 
ATOM     24  H13 UNL     1      17.092 -19.708  26.378  1.00  0.00     0.274 HD
ATOM     25  H12 UNL     1      17.272 -20.751  27.486  1.00  0.00     0.274 HD
ATOM     26  H11 UNL     1      16.365 -19.366  27.878  1.00  0.00     0.274 HD
ENDBRANCH  20  23
ENDBRANCH  16  17
ENDBRANCH  13  16
ENDBRANCH   1  12
BRANCH   8  27
HETATM   27  C12 UNL     1      15.434 -13.199  22.228  1.00  0.00     0.154 C 
BRANCH  27  28
HETATM   28  C13 UNL     1      14.430 -13.928  21.440  1.00  0.00     0.166 C 
BRANCH  28  29
HETATM   29  S1  UNL     1      13.045 -12.978  20.956  1.00  0.00     0.177 S 
HETATM   30  O3  UNL     1      13.398 -12.003  19.855  1.00  0.00    -0.223 OA
HETATM   31  O4  UNL     1      11.974 -13.876  20.362  1.00  0.00    -0.223 OA
BRANCH  29  32
HETATM   32  C14 UNL     1      12.313 -12.153  22.307  1.00  0.00     0.059 A 
HETATM   33  C15 UNL     1      12.850 -10.938  22.757  1.00  0.00     0.023 A 
HETATM   34  C16 UNL     1      12.344 -10.261  23.834  1.00  0.00     0.002 A 
HETATM   35  C17 UNL     1      11.267 -10.741  24.541  1.00  0.00     0.000 A 
HETATM   36  C18 UNL     1      10.720 -11.931  24.120  1.00  0.00     0.002 A 
HETATM   37  C19 UNL     1      11.238 -12.625  23.019  1.00  0.00     0.023 A 
ENDBRANCH  29  32
ENDBRANCH  28  29
ENDBRANCH  27  28
ENDBRANCH   8  27
TORSDOF 8
ENDMDL
