MODEL 11
REMARK VINA RESULT: -6.939913622      6.612      9.582
REMARK  8 active torsions:
REMARK  status: ('A' for Active; 'I' for Inactive)
REMARK    1  A    between atoms: N4_10  and  C5_11 
REMARK    2  A    between atoms: C6_13  and  C7_14 
REMARK    3  A    between atoms: C7_14  and  O2_15 
REMARK    4  A    between atoms: O2_15  and  P1_16 
REMARK    5  A    between atoms: P1_16  and  O5_19 
REMARK    6  A    between atoms: O5_19  and  P2_20 
REMARK    7  A    between atoms: C8_24  and  O9_25 
REMARK    8  A    between atoms: C9_27  and  O10_28 
ROOT
HETATM    1  C5  UNL     1      39.229  32.161 -22.353  1.00  0.00     0.262 C 
HETATM    2  O1  UNL     1      38.091  31.365 -22.286  1.00  0.00    -0.353 OA
HETATM    3  C6  UNL     1      38.529  30.097 -21.901  1.00  0.00     0.180 C 
HETATM    4  C8  UNL     1      39.471  30.424 -20.796  1.00  0.00     0.182 C 
HETATM    5  C9  UNL     1      40.247  31.567 -21.421  1.00  0.00     0.198 C 
ENDROOT
BRANCH   1   6
HETATM    6  N4  UNL     1      38.995  33.540 -22.056  1.00  0.00    -0.297 N 
HETATM    7  C2  UNL     1      38.056  34.063 -21.213  1.00  0.00     0.146 A 
HETATM    8  N2  UNL     1      37.138  33.424 -20.468  1.00  0.00    -0.314 N 
HETATM    9  C3  UNL     1      38.176  35.447 -21.220  1.00  0.00     0.146 A 
HETATM   10  C1  UNL     1      36.290  34.140 -19.689  1.00  0.00     0.196 A 
ATOM     11  H2  UNL     1      37.081  32.406 -20.489  1.00  0.00     0.170 HD
HETATM   12  N1  UNL     1      35.305  33.516 -18.886  1.00  0.00    -0.063 NA
HETATM   13  N5  UNL     1      36.420  35.488 -19.707  1.00  0.00    -0.295 N 
HETATM   14  C10 UNL     1      37.305  36.163 -20.421  1.00  0.00     0.278 A 
ATOM     15  H5  UNL     1      35.782  36.028 -19.121  1.00  0.00     0.171 HD
HETATM   16  O11 UNL     1      37.417  37.413 -20.432  1.00  0.00    -0.265 OA
HETATM   17  N3  UNL     1      39.169  35.744 -22.052  1.00  0.00    -0.345 N 
HETATM   18  C4  UNL     1      39.660  34.596 -22.554  1.00  0.00     0.188 A 
ATOM     19  H3  UNL     1      39.501  36.683 -22.272  1.00  0.00     0.167 HD
ENDBRANCH   1   6
BRANCH   5  20
HETATM   20  O10 UNL     1      41.346  31.023 -22.098  1.00  0.00    -0.388 OA
ATOM     21  H10 UNL     1      41.099  30.334 -22.703  1.00  0.00     0.210 HD
ENDBRANCH   5  20
BRANCH   3  22
HETATM   22  C7  UNL     1      37.408  29.191 -21.538  1.00  0.00     0.216 C 
BRANCH  22  23
HETATM   23  O2  UNL     1      36.162  29.704 -21.649  1.00  0.00    -0.287 OA
BRANCH  23  24
HETATM   24  P1  UNL     1      34.886  28.735 -21.755  1.00  0.00     0.418 P 
HETATM   25  O3  UNL     1      34.254  28.021 -20.352  1.00  0.00    -0.624 OA
HETATM   26  O4  UNL     1      33.829  29.831 -21.667  1.00  0.00    -0.624 OA
BRANCH  24  27
HETATM   27  O5  UNL     1      34.284  28.243 -23.215  1.00  0.00    -0.173 OA
BRANCH  27  28
HETATM   28  P2  UNL     1      35.076  27.004 -23.917  1.00  0.00     0.431 P 
HETATM   29  O6  UNL     1      36.207  26.108 -23.157  1.00  0.00    -0.616 OA
HETATM   30  O7  UNL     1      33.940  26.013 -23.624  1.00  0.00    -0.616 OA
HETATM   31  O8  UNL     1      34.836  26.683 -25.564  1.00  0.00    -0.616 OA
ENDBRANCH  27  28
ENDBRANCH  24  27
ENDBRANCH  23  24
ENDBRANCH  22  23
ENDBRANCH   3  22
BRANCH   4  32
HETATM   32  O9  UNL     1      40.387  29.418 -20.525  1.00  0.00    -0.390 OA
ATOM     33  H9  UNL     1      40.427  29.173 -19.607  1.00  0.00     0.210 HD
ENDBRANCH   4  32
TORSDOF 8
ENDMDL
