MODEL 1
REMARK VINA RESULT: -8.128130565      0.000      0.000
REMARK  8 active torsions:
REMARK  status: ('A' for Active; 'I' for Inactive)
REMARK    1  A    between atoms: N4_10  and  C5_11 
REMARK    2  A    between atoms: C6_13  and  C7_14 
REMARK    3  A    between atoms: C7_14  and  O2_15 
REMARK    4  A    between atoms: O2_15  and  P1_16 
REMARK    5  A    between atoms: P1_16  and  O5_19 
REMARK    6  A    between atoms: O5_19  and  P2_20 
REMARK    7  A    between atoms: C8_24  and  O9_25 
REMARK    8  A    between atoms: C9_27  and  O10_28 
ROOT
HETATM    1  C5  UNL     1      33.785  25.792 -18.060  1.00  0.00     0.262 C 
HETATM    2  O1  UNL     1      34.448  27.014 -18.100  1.00  0.00    -0.353 OA
HETATM    3  C6  UNL     1      35.468  26.868 -19.041  1.00  0.00     0.180 C 
HETATM    4  C8  UNL     1      34.756  26.188 -20.157  1.00  0.00     0.182 C 
HETATM    5  C9  UNL     1      33.987  25.127 -19.392  1.00  0.00     0.198 C 
ENDROOT
BRANCH   1   6
HETATM    6  N4  UNL     1      32.396  25.892 -17.736  1.00  0.00    -0.297 N 
HETATM    7  C2  UNL     1      31.710  25.193 -16.782  1.00  0.00     0.146 A 
HETATM    8  N2  UNL     1      32.162  24.258 -15.931  1.00  0.00    -0.314 N 
HETATM    9  C3  UNL     1      30.382  25.600 -16.804  1.00  0.00     0.146 A 
HETATM   10  C1  UNL     1      31.306  23.679 -15.053  1.00  0.00     0.196 A 
ATOM     11  H2  UNL     1      33.145  23.984 -15.945  1.00  0.00     0.170 HD
HETATM   12  N1  UNL     1      31.731  22.689 -14.135  1.00  0.00    -0.063 NA
HETATM   13  N5  UNL     1      30.014  24.088 -15.086  1.00  0.00    -0.295 N 
HETATM   14  C10 UNL     1      29.521  25.003 -15.903  1.00  0.00     0.278 A 
ATOM     15  H5  UNL     1      29.369  23.654 -14.425  1.00  0.00     0.171 HD
HETATM   16  O11 UNL     1      28.323  25.374 -15.926  1.00  0.00    -0.265 OA
HETATM   17  N3  UNL     1      30.277  26.526 -17.751  1.00  0.00    -0.345 N 
HETATM   18  C4  UNL     1      31.490  26.700 -18.311  1.00  0.00     0.188 A 
ATOM     19  H3  UNL     1      29.423  27.020 -18.010  1.00  0.00     0.167 HD
ENDBRANCH   1   6
BRANCH   5  20
HETATM   20  O10 UNL     1      34.794  23.986 -19.309  1.00  0.00    -0.388 OA
ATOM     21  H10 UNL     1      34.300  23.180 -19.399  1.00  0.00     0.210 HD
ENDBRANCH   5  20
BRANCH   3  22
HETATM   22  C7  UNL     1      36.112  28.161 -19.388  1.00  0.00     0.216 C 
BRANCH  22  23
HETATM   23  O2  UNL     1      35.285  29.215 -19.569  1.00  0.00    -0.287 OA
BRANCH  23  24
HETATM   24  P1  UNL     1      35.290  30.028 -20.954  1.00  0.00     0.418 P 
HETATM   25  O3  UNL     1      35.912  29.300 -22.355  1.00  0.00    -0.624 OA
HETATM   26  O4  UNL     1      33.880  29.641 -21.386  1.00  0.00    -0.624 OA
BRANCH  24  27
HETATM   27  O5  UNL     1      34.893  31.633 -21.024  1.00  0.00    -0.173 OA
BRANCH  27  28
HETATM   28  P2  UNL     1      36.095  32.668 -20.652  1.00  0.00     0.431 P 
HETATM   29  O6  UNL     1      36.020  34.275 -20.920  1.00  0.00    -0.616 OA
HETATM   30  O7  UNL     1      35.645  32.783 -19.188  1.00  0.00    -0.616 OA
HETATM   31  O8  UNL     1      37.571  32.064 -20.078  1.00  0.00    -0.616 OA
ENDBRANCH  27  28
ENDBRANCH  24  27
ENDBRANCH  23  24
ENDBRANCH  22  23
ENDBRANCH   3  22
BRANCH   4  32
HETATM   32  O9  UNL     1      35.598  25.520 -21.033  1.00  0.00    -0.390 OA
ATOM     33  H9  UNL     1      35.407  25.683 -21.950  1.00  0.00     0.210 HD
ENDBRANCH   4  32
TORSDOF 8
ENDMDL
