MODEL 8
REMARK VINA RESULT: -7.156481316      6.210      9.260
REMARK  8 active torsions:
REMARK  status: ('A' for Active; 'I' for Inactive)
REMARK    1  A    between atoms: N4_10  and  C5_11 
REMARK    2  A    between atoms: C6_13  and  C7_14 
REMARK    3  A    between atoms: C7_14  and  O2_15 
REMARK    4  A    between atoms: O2_15  and  P1_16 
REMARK    5  A    between atoms: P1_16  and  O5_19 
REMARK    6  A    between atoms: O5_19  and  P2_20 
REMARK    7  A    between atoms: C8_24  and  O9_25 
REMARK    8  A    between atoms: C9_27  and  O10_28 
ROOT
HETATM    1  C5  UNL     1      38.758  31.567 -22.065  1.00  0.00     0.262 C 
HETATM    2  O1  UNL     1      37.505  30.979 -22.194  1.00  0.00    -0.353 OA
HETATM    3  C6  UNL     1      37.646  29.666 -21.741  1.00  0.00     0.180 C 
HETATM    4  C8  UNL     1      38.430  29.859 -20.491  1.00  0.00     0.182 C 
HETATM    5  C9  UNL     1      39.487  30.835 -20.973  1.00  0.00     0.198 C 
ENDROOT
BRANCH   1   6
HETATM    6  N4  UNL     1      38.719  32.973 -21.811  1.00  0.00    -0.297 N 
HETATM    7  C2  UNL     1      37.857  33.650 -20.995  1.00  0.00     0.146 A 
HETATM    8  N2  UNL     1      36.852  33.170 -20.245  1.00  0.00    -0.314 N 
HETATM    9  C3  UNL     1      38.172  35.002 -21.041  1.00  0.00     0.146 A 
HETATM   10  C1  UNL     1      36.107  34.021 -19.497  1.00  0.00     0.196 A 
ATOM     11  H2  UNL     1      36.650  32.170 -20.236  1.00  0.00     0.170 HD
HETATM   12  N1  UNL     1      35.037  33.568 -18.689  1.00  0.00    -0.063 NA
HETATM   13  N5  UNL     1      36.427  35.337 -19.552  1.00  0.00    -0.295 N 
HETATM   14  C10 UNL     1      37.404  35.858 -20.274  1.00  0.00     0.278 A 
ATOM     15  H5  UNL     1      35.867  35.979 -18.990  1.00  0.00     0.171 HD
HETATM   16  O11 UNL     1      37.693  37.078 -20.319  1.00  0.00    -0.265 OA
HETATM   17  N3  UNL     1      39.204  35.130 -21.868  1.00  0.00    -0.345 N 
HETATM   18  C4  UNL     1      39.532  33.909 -22.331  1.00  0.00     0.188 A 
ATOM     19  H3  UNL     1      39.668  36.005 -22.111  1.00  0.00     0.167 HD
ENDBRANCH   1   6
BRANCH   5  20
HETATM   20  O10 UNL     1      40.573  30.092 -21.452  1.00  0.00    -0.388 OA
ATOM     21  H10 UNL     1      41.020  30.521 -22.173  1.00  0.00     0.210 HD
ENDBRANCH   5  20
BRANCH   3  22
HETATM   22  C7  UNL     1      36.340  28.976 -21.577  1.00  0.00     0.216 C 
BRANCH  22  23
HETATM   23  O2  UNL     1      36.355  27.823 -20.870  1.00  0.00    -0.287 OA
BRANCH  23  24
HETATM   24  P1  UNL     1      35.372  27.621 -19.618  1.00  0.00     0.418 P 
HETATM   25  O3  UNL     1      36.019  27.450 -18.058  1.00  0.00    -0.624 OA
HETATM   26  O4  UNL     1      35.128  29.101 -19.348  1.00  0.00    -0.624 OA
BRANCH  24  27
HETATM   27  O5  UNL     1      33.748  27.369 -19.815  1.00  0.00    -0.173 OA
BRANCH  27  28
HETATM   28  P2  UNL     1      32.978  26.727 -18.530  1.00  0.00     0.431 P 
HETATM   29  O6  UNL     1      31.653  27.387 -17.848  1.00  0.00    -0.616 OA
HETATM   30  O7  UNL     1      32.174  25.752 -19.404  1.00  0.00    -0.616 OA
HETATM   31  O8  UNL     1      33.637  25.374 -17.750  1.00  0.00    -0.616 OA
ENDBRANCH  27  28
ENDBRANCH  24  27
ENDBRANCH  23  24
ENDBRANCH  22  23
ENDBRANCH   3  22
BRANCH   4  32
HETATM   32  O9  UNL     1      39.099  28.720 -20.069  1.00  0.00    -0.390 OA
ATOM     33  H9  UNL     1      39.255  28.088 -20.761  1.00  0.00     0.210 HD
ENDBRANCH   4  32
TORSDOF 8
ENDMDL
