MODEL 2
REMARK VINA RESULT: -11.608845747      1.090      1.461
REMARK  9 active torsions:
REMARK  status: ('A' for Active; 'I' for Inactive)
REMARK    1  A    between atoms: C4_4  and  C5_5 
REMARK    2  A    between atoms: C15_15  and  C16_16 
REMARK    3  A    between atoms: C16_16  and  C18_18 
REMARK    4  A    between atoms: C18_18  and  C19_19 
REMARK    5  A    between atoms: C19_19  and  C20_20 
REMARK    6  A    between atoms: C20_20  and  C21_21 
REMARK    7  A    between atoms: C21_21  and  O1_24 
REMARK    8  A    between atoms: C25_27  and  O2_28 
REMARK    9  A    between atoms: C27_31  and  O3_32 
ROOT
HETATM    1  C5  UNL     1      14.402  22.348  34.167  1.00  0.00     0.004 C 
HETATM    2  C6  UNL     1      13.941  23.306  33.399  1.00  0.00    -0.075 C 
HETATM    3  C7  UNL     1      13.995  23.132  31.923  1.00  0.00     0.034 C 
HETATM    4  C8  UNL     1      13.454  24.443  31.340  1.00  0.00     0.005 C 
HETATM    5  C9  UNL     1      12.029  24.697  31.842  1.00  0.00     0.010 C 
HETATM    6  C10 UNL     1      11.919  24.614  33.333  1.00  0.00    -0.033 C 
HETATM    7  C11 UNL     1      11.243  23.396  33.848  1.00  0.00     0.016 C 
HETATM    8  C12 UNL     1      13.361  24.570  33.872  1.00  0.00     0.023 C 
HETATM    9  C13 UNL     1      13.097  24.661  35.319  1.00  0.00     0.010 C 
HETATM   10  C14 UNL     1      12.101  25.839  35.353  1.00  0.00     0.006 C 
HETATM   11  C15 UNL     1      11.465  25.903  33.978  1.00  0.00    -0.002 C 
ENDROOT
BRANCH   1  12
HETATM   12  C4  UNL     1      14.956  21.134  33.591  1.00  0.00     0.008 C 
HETATM   13  C3  UNL     1      14.696  19.906  33.922  1.00  0.00    -0.048 C 
HETATM   14  C2  UNL     1      13.742  19.610  34.981  1.00  0.00    -0.033 C 
HETATM   15  C24 UNL     1      15.380  18.746  33.292  1.00  0.00     0.071 C 
HETATM   16  C1  UNL     1      12.551  20.142  35.003  1.00  0.00     0.022 C 
HETATM   17  C27 UNL     1      14.130  18.633  36.060  1.00  0.00     0.153 C 
HETATM   18  C26 UNL     1      15.237  17.731  35.521  1.00  0.00     0.068 C 
HETATM   19  C25 UNL     1      14.955  17.505  34.058  1.00  0.00     0.125 C 
BRANCH  17  20
HETATM   20  O3  UNL     1      13.074  17.819  36.431  1.00  0.00    -0.391 OA
ATOM     21  H3  UNL     1      12.256  18.300  36.492  1.00  0.00     0.210 HD
ENDBRANCH  17  20
BRANCH  19  22
HETATM   22  O2  UNL     1      15.642  16.379  33.606  1.00  0.00    -0.395 OA
ATOM     23  H2  UNL     1      16.297  16.616  32.960  1.00  0.00     0.210 HD
ENDBRANCH  19  22
ENDBRANCH   1  12
BRANCH  11  24
HETATM   24  C16 UNL     1       9.999  26.093  33.986  1.00  0.00    -0.014 C 
HETATM   25  C17 UNL     1       9.499  26.939  32.823  1.00  0.00     0.010 C 
BRANCH  24  26
HETATM   26  C18 UNL     1       9.424  26.880  35.151  1.00  0.00     0.005 C 
BRANCH  26  27
HETATM   27  C19 UNL     1       8.475  26.252  36.042  1.00  0.00     0.003 C 
BRANCH  27  28
HETATM   28  C20 UNL     1       7.756  25.094  35.426  1.00  0.00     0.037 C 
BRANCH  28  29
HETATM   29  C21 UNL     1       6.376  25.246  34.946  1.00  0.00     0.051 C 
HETATM   30  C22 UNL     1       5.313  24.386  35.563  1.00  0.00     0.045 C 
HETATM   31  C23 UNL     1       6.403  24.870  33.444  1.00  0.00     0.045 C 
BRANCH  29  32
HETATM   32  O1  UNL     1       5.953  26.594  34.927  1.00  0.00    -0.391 OA
ATOM     33  H1  UNL     1       5.931  26.982  35.794  1.00  0.00     0.210 HD
ENDBRANCH  29  32
ENDBRANCH  28  29
ENDBRANCH  27  28
ENDBRANCH  26  27
ENDBRANCH  24  26
ENDBRANCH  11  24
TORSDOF 9
ENDMDL
