MODEL 5
REMARK VINA RESULT: -11.019826322      0.943      1.013
REMARK  9 active torsions:
REMARK  status: ('A' for Active; 'I' for Inactive)
REMARK    1  A    between atoms: C4_4  and  C5_5 
REMARK    2  A    between atoms: C15_15  and  C16_16 
REMARK    3  A    between atoms: C16_16  and  C18_18 
REMARK    4  A    between atoms: C18_18  and  C19_19 
REMARK    5  A    between atoms: C19_19  and  C20_20 
REMARK    6  A    between atoms: C20_20  and  C21_21 
REMARK    7  A    between atoms: C21_21  and  O1_24 
REMARK    8  A    between atoms: C25_27  and  O2_28 
REMARK    9  A    between atoms: C27_31  and  O3_32 
ROOT
HETATM    1  C5  UNL     1      14.097  22.698  34.072  1.00  0.00     0.004 C 
HETATM    2  C6  UNL     1      13.872  23.751  33.324  1.00  0.00    -0.075 C 
HETATM    3  C7  UNL     1      14.287  23.721  31.896  1.00  0.00     0.034 C 
HETATM    4  C8  UNL     1      13.949  25.112  31.346  1.00  0.00     0.005 C 
HETATM    5  C9  UNL     1      12.452  25.395  31.508  1.00  0.00     0.010 C 
HETATM    6  C10 UNL     1      11.970  25.172  32.909  1.00  0.00    -0.033 C 
HETATM    7  C11 UNL     1      11.151  23.949  33.105  1.00  0.00     0.016 C 
HETATM    8  C12 UNL     1      13.231  24.993  33.776  1.00  0.00     0.023 C 
HETATM    9  C13 UNL     1      12.617  24.955  35.115  1.00  0.00     0.010 C 
HETATM   10  C14 UNL     1      11.680  26.179  35.033  1.00  0.00     0.006 C 
HETATM   11  C15 UNL     1      11.410  26.415  33.560  1.00  0.00    -0.002 C 
ENDROOT
BRANCH   1  12
HETATM   12  C4  UNL     1      14.740  21.517  33.519  1.00  0.00     0.008 C 
HETATM   13  C3  UNL     1      14.524  20.275  33.828  1.00  0.00    -0.048 C 
HETATM   14  C2  UNL     1      13.529  19.924  34.833  1.00  0.00    -0.033 C 
HETATM   15  C24 UNL     1      15.296  19.155  33.230  1.00  0.00     0.071 C 
HETATM   16  C1  UNL     1      12.314  20.397  34.793  1.00  0.00     0.022 C 
HETATM   17  C27 UNL     1      13.906  18.958  35.925  1.00  0.00     0.153 C 
HETATM   18  C26 UNL     1      15.083  18.116  35.441  1.00  0.00     0.068 C 
HETATM   19  C25 UNL     1      14.892  17.888  33.965  1.00  0.00     0.125 C 
BRANCH  17  20
HETATM   20  O3  UNL     1      12.872  18.090  36.233  1.00  0.00    -0.391 OA
ATOM     21  H3  UNL     1      13.188  17.275  36.607  1.00  0.00     0.210 HD
ENDBRANCH  17  20
BRANCH  19  22
HETATM   22  O2  UNL     1      15.657  16.801  33.544  1.00  0.00    -0.395 OA
ATOM     23  H2  UNL     1      16.210  16.480  34.248  1.00  0.00     0.210 HD
ENDBRANCH  19  22
ENDBRANCH   1  12
BRANCH  11  24
HETATM   24  C16 UNL     1       9.995  26.685  33.229  1.00  0.00    -0.014 C 
HETATM   25  C17 UNL     1       9.311  27.604  34.233  1.00  0.00     0.010 C 
BRANCH  24  26
HETATM   26  C18 UNL     1       9.050  25.497  33.273  1.00  0.00     0.005 C 
BRANCH  26  27
HETATM   27  C19 UNL     1       7.693  25.641  32.796  1.00  0.00     0.003 C 
BRANCH  27  28
HETATM   28  C20 UNL     1       6.722  24.729  33.475  1.00  0.00     0.037 C 
BRANCH  28  29
HETATM   29  C21 UNL     1       5.715  25.270  34.397  1.00  0.00     0.051 C 
HETATM   30  C22 UNL     1       5.200  24.377  35.487  1.00  0.00     0.045 C 
HETATM   31  C23 UNL     1       4.484  25.623  33.525  1.00  0.00     0.045 C 
BRANCH  29  32
HETATM   32  O1  UNL     1       6.088  26.521  34.937  1.00  0.00    -0.391 OA
ATOM     33  H1  UNL     1       6.354  27.143  34.269  1.00  0.00     0.210 HD
ENDBRANCH  29  32
ENDBRANCH  28  29
ENDBRANCH  27  28
ENDBRANCH  26  27
ENDBRANCH  24  26
ENDBRANCH  11  24
TORSDOF 9
ENDMDL
