MODEL 11
REMARK VINA RESULT: -9.177826937      2.516      9.669
REMARK  9 active torsions:
REMARK  status: ('A' for Active; 'I' for Inactive)
REMARK    1  A    between atoms: C4_4  and  C5_5 
REMARK    2  A    between atoms: C15_15  and  C16_16 
REMARK    3  A    between atoms: C16_16  and  C18_18 
REMARK    4  A    between atoms: C18_18  and  C19_19 
REMARK    5  A    between atoms: C19_19  and  C20_20 
REMARK    6  A    between atoms: C20_20  and  C21_21 
REMARK    7  A    between atoms: C21_21  and  O1_24 
REMARK    8  A    between atoms: C25_27  and  O2_28 
REMARK    9  A    between atoms: C27_31  and  O3_32 
ROOT
HETATM    1  C5  UNL     1      11.855  23.103  34.758  1.00  0.00     0.004 C 
HETATM    2  C6  UNL     1      12.654  22.396  33.996  1.00  0.00    -0.075 C 
HETATM    3  C7  UNL     1      13.668  23.102  33.168  1.00  0.00     0.034 C 
HETATM    4  C8  UNL     1      14.370  22.002  32.360  1.00  0.00     0.005 C 
HETATM    5  C9  UNL     1      15.004  20.976  33.304  1.00  0.00     0.010 C 
HETATM    6  C10 UNL     1      14.037  20.449  34.319  1.00  0.00    -0.033 C 
HETATM    7  C11 UNL     1      14.237  20.955  35.701  1.00  0.00     0.016 C 
HETATM    8  C12 UNL     1      12.642  20.932  33.878  1.00  0.00     0.023 C 
HETATM    9  C13 UNL     1      11.803  20.211  34.852  1.00  0.00     0.010 C 
HETATM   10  C14 UNL     1      12.399  18.792  34.745  1.00  0.00     0.006 C 
HETATM   11  C15 UNL     1      13.813  18.958  34.223  1.00  0.00    -0.002 C 
ENDROOT
BRANCH   1  12
HETATM   12  C4  UNL     1      11.955  24.552  34.797  1.00  0.00     0.008 C 
HETATM   13  C3  UNL     1      11.023  25.406  35.094  1.00  0.00    -0.048 C 
HETATM   14  C2  UNL     1       9.687  24.951  35.452  1.00  0.00    -0.033 C 
HETATM   15  C24 UNL     1      11.237  26.876  35.038  1.00  0.00     0.071 C 
HETATM   16  C1  UNL     1       9.493  24.030  36.356  1.00  0.00     0.022 C 
HETATM   17  C27 UNL     1       8.496  25.589  34.786  1.00  0.00     0.153 C 
HETATM   18  C26 UNL     1       8.908  26.967  34.276  1.00  0.00     0.068 C 
HETATM   19  C25 UNL     1       9.888  27.535  35.269  1.00  0.00     0.125 C 
BRANCH  17  20
HETATM   20  O3  UNL     1       7.442  25.768  35.665  1.00  0.00    -0.391 OA
ATOM     21  H3  UNL     1       7.497  26.597  36.126  1.00  0.00     0.210 HD
ENDBRANCH  17  20
BRANCH  19  22
HETATM   22  O2  UNL     1       9.975  28.919  35.118  1.00  0.00    -0.395 OA
ATOM     23  H2  UNL     1       9.149  29.282  34.820  1.00  0.00     0.210 HD
ENDBRANCH  19  22
ENDBRANCH   1  12
BRANCH  11  24
HETATM   24  C16 UNL     1      14.829  18.147  34.925  1.00  0.00    -0.014 C 
HETATM   25  C17 UNL     1      16.108  17.963  34.121  1.00  0.00     0.010 C 
BRANCH  24  26
HETATM   26  C18 UNL     1      14.472  16.694  35.188  1.00  0.00     0.005 C 
BRANCH  26  27
HETATM   27  C19 UNL     1      15.107  15.649  34.417  1.00  0.00     0.003 C 
BRANCH  27  28
HETATM   28  C20 UNL     1      14.242  14.444  34.220  1.00  0.00     0.037 C 
BRANCH  28  29
HETATM   29  C21 UNL     1      14.819  13.096  34.290  1.00  0.00     0.051 C 
HETATM   30  C22 UNL     1      14.651  12.191  33.104  1.00  0.00     0.045 C 
HETATM   31  C23 UNL     1      14.105  12.386  35.466  1.00  0.00     0.045 C 
BRANCH  29  32
HETATM   32  O1  UNL     1      16.171  13.104  34.700  1.00  0.00    -0.391 OA
ATOM     33  H1  UNL     1      16.683  13.773  34.260  1.00  0.00     0.210 HD
ENDBRANCH  29  32
ENDBRANCH  28  29
ENDBRANCH  27  28
ENDBRANCH  26  27
ENDBRANCH  24  26
ENDBRANCH  11  24
TORSDOF 9
ENDMDL
