MODEL 7
REMARK VINA RESULT: -9.939389310      1.673      8.771
REMARK  9 active torsions:
REMARK  status: ('A' for Active; 'I' for Inactive)
REMARK    1  A    between atoms: C4_4  and  C5_5 
REMARK    2  A    between atoms: C15_15  and  C16_16 
REMARK    3  A    between atoms: C16_16  and  C18_18 
REMARK    4  A    between atoms: C18_18  and  C19_19 
REMARK    5  A    between atoms: C19_19  and  C20_20 
REMARK    6  A    between atoms: C20_20  and  C21_21 
REMARK    7  A    between atoms: C21_21  and  O1_24 
REMARK    8  A    between atoms: C25_27  and  O2_28 
REMARK    9  A    between atoms: C27_31  and  O3_32 
ROOT
HETATM    1  C5  UNL     1       9.122  26.095  35.242  1.00  0.00     0.004 C 
HETATM    2  C6  UNL     1      10.269  25.557  35.580  1.00  0.00    -0.075 C 
HETATM    3  C7  UNL     1      10.276  24.424  36.544  1.00  0.00     0.034 C 
HETATM    4  C8  UNL     1      11.756  24.092  36.769  1.00  0.00     0.005 C 
HETATM    5  C9  UNL     1      12.424  23.727  35.440  1.00  0.00     0.010 C 
HETATM    6  C10 UNL     1      12.197  24.757  34.377  1.00  0.00    -0.033 C 
HETATM    7  C11 UNL     1      11.236  24.364  33.315  1.00  0.00     0.016 C 
HETATM    8  C12 UNL     1      11.585  25.981  35.085  1.00  0.00     0.023 C 
HETATM    9  C13 UNL     1      11.579  26.944  33.969  1.00  0.00     0.010 C 
HETATM   10  C14 UNL     1      13.016  26.770  33.435  1.00  0.00     0.006 C 
HETATM   11  C15 UNL     1      13.471  25.390  33.868  1.00  0.00    -0.002 C 
ENDROOT
BRANCH   1  12
HETATM   12  C4  UNL     1       7.875  25.595  35.796  1.00  0.00     0.008 C 
HETATM   13  C3  UNL     1       6.815  25.211  35.151  1.00  0.00    -0.048 C 
HETATM   14  C2  UNL     1       6.783  25.242  33.695  1.00  0.00    -0.033 C 
HETATM   15  C24 UNL     1       5.573  24.775  35.840  1.00  0.00     0.071 C 
HETATM   16  C1  UNL     1       7.732  24.712  32.973  1.00  0.00     0.022 C 
HETATM   17  C27 UNL     1       5.600  25.870  33.005  1.00  0.00     0.153 C 
HETATM   18  C26 UNL     1       4.415  25.853  33.966  1.00  0.00     0.068 C 
HETATM   19  C25 UNL     1       4.510  24.584  34.771  1.00  0.00     0.125 C 
BRANCH  17  20
HETATM   20  O3  UNL     1       5.226  25.170  31.871  1.00  0.00    -0.391 OA
ATOM     21  H3  UNL     1       5.718  25.443  31.104  1.00  0.00     0.210 HD
ENDBRANCH  17  20
BRANCH  19  22
HETATM   22  O2  UNL     1       3.274  24.284  35.343  1.00  0.00    -0.395 OA
ATOM     23  H2  UNL     1       3.227  23.369  35.594  1.00  0.00     0.210 HD
ENDBRANCH  19  22
ENDBRANCH   1  12
BRANCH  11  24
HETATM   24  C16 UNL     1      14.156  24.610  32.817  1.00  0.00    -0.014 C 
HETATM   25  C17 UNL     1      13.692  24.963  31.410  1.00  0.00     0.010 C 
BRANCH  24  26
HETATM   26  C18 UNL     1      13.901  23.112  32.810  1.00  0.00     0.005 C 
BRANCH  26  27
HETATM   27  C19 UNL     1      14.818  22.226  33.491  1.00  0.00     0.003 C 
BRANCH  27  28
HETATM   28  C20 UNL     1      15.110  20.972  32.730  1.00  0.00     0.037 C 
BRANCH  28  29
HETATM   29  C21 UNL     1      15.111  19.671  33.412  1.00  0.00     0.051 C 
HETATM   30  C22 UNL     1      14.807  18.446  32.601  1.00  0.00     0.045 C 
HETATM   31  C23 UNL     1      13.999  19.752  34.487  1.00  0.00     0.045 C 
BRANCH  29  32
HETATM   32  O1  UNL     1      16.278  19.462  34.180  1.00  0.00    -0.391 OA
ATOM     33  H1  UNL     1      16.109  18.973  34.977  1.00  0.00     0.210 HD
ENDBRANCH  29  32
ENDBRANCH  28  29
ENDBRANCH  27  28
ENDBRANCH  26  27
ENDBRANCH  24  26
ENDBRANCH  11  24
TORSDOF 9
ENDMDL
