MODEL 1
REMARK VINA RESULT: -11.714567188      0.000      0.000
REMARK  9 active torsions:
REMARK  status: ('A' for Active; 'I' for Inactive)
REMARK    1  A    between atoms: C4_4  and  C5_5 
REMARK    2  A    between atoms: C15_15  and  C16_16 
REMARK    3  A    between atoms: C16_16  and  C18_18 
REMARK    4  A    between atoms: C18_18  and  C19_19 
REMARK    5  A    between atoms: C19_19  and  C20_20 
REMARK    6  A    between atoms: C20_20  and  C21_21 
REMARK    7  A    between atoms: C21_21  and  O1_24 
REMARK    8  A    between atoms: C25_27  and  O2_28 
REMARK    9  A    between atoms: C27_31  and  O3_32 
ROOT
HETATM    1  C5  UNL     1      13.471  22.130  34.229  1.00  0.00     0.004 C 
HETATM    2  C6  UNL     1      13.301  23.257  33.581  1.00  0.00    -0.075 C 
HETATM    3  C7  UNL     1      14.088  23.500  32.342  1.00  0.00     0.034 C 
HETATM    4  C8  UNL     1      13.706  24.914  31.889  1.00  0.00     0.005 C 
HETATM    5  C9  UNL     1      12.196  25.001  31.643  1.00  0.00     0.010 C 
HETATM    6  C10 UNL     1      11.392  24.507  32.806  1.00  0.00    -0.033 C 
HETATM    7  C11 UNL     1      10.744  23.186  32.607  1.00  0.00     0.016 C 
HETATM    8  C12 UNL     1      12.383  24.333  33.974  1.00  0.00     0.023 C 
HETATM    9  C13 UNL     1      11.441  24.016  35.062  1.00  0.00     0.010 C 
HETATM   10  C14 UNL     1      10.389  25.127  34.861  1.00  0.00     0.006 C 
HETATM   11  C15 UNL     1      10.495  25.561  33.412  1.00  0.00    -0.002 C 
ENDROOT
BRANCH   1  12
HETATM   12  C4  UNL     1      14.411  21.130  33.748  1.00  0.00     0.008 C 
HETATM   13  C3  UNL     1      14.472  19.875  34.072  1.00  0.00    -0.048 C 
HETATM   14  C2  UNL     1      13.520  19.307  35.018  1.00  0.00    -0.033 C 
HETATM   15  C24 UNL     1      15.525  18.964  33.554  1.00  0.00     0.071 C 
HETATM   16  C1  UNL     1      12.233  19.479  34.887  1.00  0.00     0.022 C 
HETATM   17  C27 UNL     1      14.037  18.466  36.156  1.00  0.00     0.153 C 
HETATM   18  C26 UNL     1      15.409  17.922  35.771  1.00  0.00     0.068 C 
HETATM   19  C25 UNL     1      15.380  17.644  34.290  1.00  0.00     0.125 C 
BRANCH  17  20
HETATM   20  O3  UNL     1      13.217  17.381  36.416  1.00  0.00    -0.391 OA
ATOM     21  H3  UNL     1      13.465  16.929  37.215  1.00  0.00     0.210 HD
ENDBRANCH  17  20
BRANCH  19  22
HETATM   22  O2  UNL     1      16.406  16.764  33.947  1.00  0.00    -0.395 OA
ATOM     23  H2  UNL     1      16.134  15.861  34.062  1.00  0.00     0.210 HD
ENDBRANCH  19  22
ENDBRANCH   1  12
BRANCH  11  24
HETATM   24  C16 UNL     1       9.199  25.723  32.720  1.00  0.00    -0.014 C 
HETATM   25  C17 UNL     1       8.774  27.178  32.579  1.00  0.00     0.010 C 
BRANCH  24  26
HETATM   26  C18 UNL     1       7.979  25.159  33.428  1.00  0.00     0.005 C 
BRANCH  26  27
HETATM   27  C19 UNL     1       6.677  25.270  32.810  1.00  0.00     0.003 C 
BRANCH  27  28
HETATM   28  C20 UNL     1       5.615  24.485  33.513  1.00  0.00     0.037 C 
BRANCH  28  29
HETATM   29  C21 UNL     1       5.069  24.955  34.793  1.00  0.00     0.051 C 
HETATM   30  C22 UNL     1       5.618  24.362  36.058  1.00  0.00     0.045 C 
HETATM   31  C23 UNL     1       3.564  24.589  34.775  1.00  0.00     0.045 C 
BRANCH  29  32
HETATM   32  O1  UNL     1       5.050  26.364  34.892  1.00  0.00    -0.391 OA
ATOM     33  H1  UNL     1       5.134  26.669  35.788  1.00  0.00     0.210 HD
ENDBRANCH  29  32
ENDBRANCH  28  29
ENDBRANCH  27  28
ENDBRANCH  26  27
ENDBRANCH  24  26
ENDBRANCH  11  24
TORSDOF 9
ENDMDL
