MODEL 10
REMARK VINA RESULT: -9.268611500      1.539      8.947
REMARK  9 active torsions:
REMARK  status: ('A' for Active; 'I' for Inactive)
REMARK    1  A    between atoms: C4_4  and  C5_5 
REMARK    2  A    between atoms: C15_15  and  C16_16 
REMARK    3  A    between atoms: C16_16  and  C18_18 
REMARK    4  A    between atoms: C18_18  and  C19_19 
REMARK    5  A    between atoms: C19_19  and  C20_20 
REMARK    6  A    between atoms: C20_20  and  C21_21 
REMARK    7  A    between atoms: C21_21  and  O1_24 
REMARK    8  A    between atoms: C25_27  and  O2_28 
REMARK    9  A    between atoms: C27_31  and  O3_32 
ROOT
HETATM    1  C5  UNL     1      10.842  25.597  33.613  1.00  0.00     0.004 C 
HETATM    2  C6  UNL     1      11.959  25.297  34.232  1.00  0.00    -0.075 C 
HETATM    3  C7  UNL     1      12.047  25.512  35.701  1.00  0.00     0.034 C 
HETATM    4  C8  UNL     1      13.484  25.135  36.081  1.00  0.00     0.005 C 
HETATM    5  C9  UNL     1      13.771  23.683  35.689  1.00  0.00     0.010 C 
HETATM    6  C10 UNL     1      13.434  23.392  34.259  1.00  0.00    -0.033 C 
HETATM    7  C11 UNL     1      12.210  22.577  34.054  1.00  0.00     0.016 C 
HETATM    8  C12 UNL     1      13.165  24.755  33.593  1.00  0.00     0.023 C 
HETATM    9  C13 UNL     1      13.020  24.329  32.190  1.00  0.00     0.010 C 
HETATM   10  C14 UNL     1      14.259  23.421  32.039  1.00  0.00     0.006 C 
HETATM   11  C15 UNL     1      14.624  22.957  33.435  1.00  0.00    -0.002 C 
ENDROOT
BRANCH   1  12
HETATM   12  C4  UNL     1       9.706  26.129  34.346  1.00  0.00     0.008 C 
HETATM   13  C3  UNL     1       8.453  25.821  34.204  1.00  0.00    -0.048 C 
HETATM   14  C2  UNL     1       8.040  24.828  33.223  1.00  0.00    -0.033 C 
HETATM   15  C24 UNL     1       7.372  26.487  34.979  1.00  0.00     0.071 C 
HETATM   16  C1  UNL     1       8.605  23.653  33.153  1.00  0.00     0.022 C 
HETATM   17  C27 UNL     1       6.904  25.153  32.289  1.00  0.00     0.153 C 
HETATM   18  C26 UNL     1       6.052  26.246  32.926  1.00  0.00     0.068 C 
HETATM   19  C25 UNL     1       6.049  26.000  34.413  1.00  0.00     0.125 C 
BRANCH  17  20
HETATM   20  O3  UNL     1       6.084  24.061  32.067  1.00  0.00    -0.391 OA
ATOM     21  H3  UNL     1       5.163  24.298  32.073  1.00  0.00     0.210 HD
ENDBRANCH  17  20
BRANCH  19  22
HETATM   22  O2  UNL     1       4.977  26.664  35.007  1.00  0.00    -0.395 OA
ATOM     23  H2  UNL     1       4.149  26.361  34.651  1.00  0.00     0.210 HD
ENDBRANCH  19  22
ENDBRANCH   1  12
BRANCH  11  24
HETATM   24  C16 UNL     1      14.939  21.517  33.543  1.00  0.00    -0.014 C 
HETATM   25  C17 UNL     1      15.580  20.949  32.283  1.00  0.00     0.010 C 
BRANCH  24  26
HETATM   26  C18 UNL     1      13.758  20.573  33.685  1.00  0.00     0.005 C 
BRANCH  26  27
HETATM   27  C19 UNL     1      13.861  19.420  34.551  1.00  0.00     0.003 C 
BRANCH  27  28
HETATM   28  C20 UNL     1      14.369  18.197  33.856  1.00  0.00     0.037 C 
BRANCH  28  29
HETATM   29  C21 UNL     1      15.387  17.350  34.491  1.00  0.00     0.051 C 
HETATM   30  C22 UNL     1      15.276  15.863  34.325  1.00  0.00     0.045 C 
HETATM   31  C23 UNL     1      15.273  17.614  36.013  1.00  0.00     0.045 C 
BRANCH  29  32
HETATM   32  O1  UNL     1      16.703  17.770  34.195  1.00  0.00    -0.391 OA
ATOM     33  H1  UNL     1      17.328  17.054  34.214  1.00  0.00     0.210 HD
ENDBRANCH  29  32
ENDBRANCH  28  29
ENDBRANCH  27  28
ENDBRANCH  26  27
ENDBRANCH  24  26
ENDBRANCH  11  24
TORSDOF 9
ENDMDL
