MODEL 4
REMARK VINA RESULT: -11.285178141      1.031      1.364
REMARK  9 active torsions:
REMARK  status: ('A' for Active; 'I' for Inactive)
REMARK    1  A    between atoms: C4_4  and  C5_5 
REMARK    2  A    between atoms: C15_15  and  C16_16 
REMARK    3  A    between atoms: C16_16  and  C18_18 
REMARK    4  A    between atoms: C18_18  and  C19_19 
REMARK    5  A    between atoms: C19_19  and  C20_20 
REMARK    6  A    between atoms: C20_20  and  C21_21 
REMARK    7  A    between atoms: C21_21  and  O1_24 
REMARK    8  A    between atoms: C25_27  and  O2_28 
REMARK    9  A    between atoms: C27_31  and  O3_32 
ROOT
HETATM    1  C5  UNL     1      13.895  22.288  34.252  1.00  0.00     0.004 C 
HETATM    2  C6  UNL     1      13.578  23.343  33.540  1.00  0.00    -0.075 C 
HETATM    3  C7  UNL     1      13.984  23.393  32.110  1.00  0.00     0.034 C 
HETATM    4  C8  UNL     1      13.527  24.768  31.606  1.00  0.00     0.005 C 
HETATM    5  C9  UNL     1      12.014  24.921  31.785  1.00  0.00     0.010 C 
HETATM    6  C10 UNL     1      11.563  24.614  33.180  1.00  0.00    -0.033 C 
HETATM    7  C11 UNL     1      10.849  23.322  33.340  1.00  0.00     0.016 C 
HETATM    8  C12 UNL     1      12.841  24.512  34.034  1.00  0.00     0.023 C 
HETATM    9  C13 UNL     1      12.242  24.381  35.375  1.00  0.00     0.010 C 
HETATM   10  C14 UNL     1      11.207  25.526  35.337  1.00  0.00     0.006 C 
HETATM   11  C15 UNL     1      10.906  25.785  33.874  1.00  0.00    -0.002 C 
ENDROOT
BRANCH   1  12
HETATM   12  C4  UNL     1      14.630  21.184  33.658  1.00  0.00     0.008 C 
HETATM   13  C3  UNL     1      14.539  19.921  33.947  1.00  0.00    -0.048 C 
HETATM   14  C2  UNL     1      13.611  19.460  34.971  1.00  0.00    -0.033 C 
HETATM   15  C24 UNL     1      15.395  18.890  33.306  1.00  0.00     0.071 C 
HETATM   16  C1  UNL     1      12.356  19.818  34.974  1.00  0.00     0.022 C 
HETATM   17  C27 UNL     1      14.108  18.515  36.033  1.00  0.00     0.153 C 
HETATM   18  C26 UNL     1      15.344  17.796  35.501  1.00  0.00     0.068 C 
HETATM   19  C25 UNL     1      15.132  17.578  34.025  1.00  0.00     0.125 C 
BRANCH  17  20
HETATM   20  O3  UNL     1      13.169  17.549  36.351  1.00  0.00    -0.391 OA
ATOM     21  H3  UNL     1      12.674  17.774  37.131  1.00  0.00     0.210 HD
ENDBRANCH  17  20
BRANCH  19  22
HETATM   22  O2  UNL     1      15.983  16.574  33.562  1.00  0.00    -0.395 OA
ATOM     23  H2  UNL     1      15.850  15.766  34.044  1.00  0.00     0.210 HD
ENDBRANCH  19  22
ENDBRANCH   1  12
BRANCH  11  24
HETATM   24  C16 UNL     1       9.472  25.947  33.559  1.00  0.00    -0.014 C 
HETATM   25  C17 UNL     1       9.183  27.168  32.697  1.00  0.00     0.010 C 
BRANCH  24  26
HETATM   26  C18 UNL     1       8.549  26.229  34.732  1.00  0.00     0.005 C 
BRANCH  26  27
HETATM   27  C19 UNL     1       7.484  25.303  35.046  1.00  0.00     0.003 C 
BRANCH  27  28
HETATM   28  C20 UNL     1       6.163  25.694  34.465  1.00  0.00     0.037 C 
BRANCH  28  29
HETATM   29  C21 UNL     1       5.783  25.252  33.117  1.00  0.00     0.051 C 
HETATM   30  C22 UNL     1       5.748  26.274  32.019  1.00  0.00     0.045 C 
HETATM   31  C23 UNL     1       4.336  24.712  33.237  1.00  0.00     0.045 C 
BRANCH  29  32
HETATM   32  O1  UNL     1       6.510  24.116  32.693  1.00  0.00    -0.391 OA
ATOM     33  H1  UNL     1       7.165  24.326  32.038  1.00  0.00     0.210 HD
ENDBRANCH  29  32
ENDBRANCH  28  29
ENDBRANCH  27  28
ENDBRANCH  26  27
ENDBRANCH  24  26
ENDBRANCH  11  24
TORSDOF 9
ENDMDL
