MODEL 3
REMARK VINA RESULT: -11.552828607      0.841      1.043
REMARK  9 active torsions:
REMARK  status: ('A' for Active; 'I' for Inactive)
REMARK    1  A    between atoms: C4_4  and  C5_5 
REMARK    2  A    between atoms: C15_15  and  C16_16 
REMARK    3  A    between atoms: C16_16  and  C18_18 
REMARK    4  A    between atoms: C18_18  and  C19_19 
REMARK    5  A    between atoms: C19_19  and  C20_20 
REMARK    6  A    between atoms: C20_20  and  C21_21 
REMARK    7  A    between atoms: C21_21  and  O1_24 
REMARK    8  A    between atoms: C25_27  and  O2_28 
REMARK    9  A    between atoms: C27_31  and  O3_32 
ROOT
HETATM    1  C5  UNL     1      13.383  22.155  34.290  1.00  0.00     0.004 C 
HETATM    2  C6  UNL     1      13.172  23.290  33.668  1.00  0.00    -0.075 C 
HETATM    3  C7  UNL     1      13.940  23.584  32.429  1.00  0.00     0.034 C 
HETATM    4  C8  UNL     1      13.510  24.996  32.011  1.00  0.00     0.005 C 
HETATM    5  C9  UNL     1      11.996  25.041  31.780  1.00  0.00     0.010 C 
HETATM    6  C10 UNL     1      11.219  24.497  32.938  1.00  0.00    -0.033 C 
HETATM    7  C11 UNL     1      10.610  23.161  32.715  1.00  0.00     0.016 C 
HETATM    8  C12 UNL     1      12.225  24.328  34.093  1.00  0.00     0.023 C 
HETATM    9  C13 UNL     1      11.303  23.958  35.182  1.00  0.00     0.010 C 
HETATM   10  C14 UNL     1      10.215  25.040  35.014  1.00  0.00     0.006 C 
HETATM   11  C15 UNL     1      10.295  25.509  33.575  1.00  0.00    -0.002 C 
ENDROOT
BRANCH   1  12
HETATM   12  C4  UNL     1      14.349  21.196  33.779  1.00  0.00     0.008 C 
HETATM   13  C3  UNL     1      14.447  19.934  34.070  1.00  0.00    -0.048 C 
HETATM   14  C2  UNL     1      13.517  19.314  35.004  1.00  0.00    -0.033 C 
HETATM   15  C24 UNL     1      15.524  19.068  33.523  1.00  0.00     0.071 C 
HETATM   16  C1  UNL     1      12.225  19.453  34.883  1.00  0.00     0.022 C 
HETATM   17  C27 UNL     1      14.063  18.459  36.117  1.00  0.00     0.153 C 
HETATM   18  C26 UNL     1      15.448  17.965  35.712  1.00  0.00     0.068 C 
HETATM   19  C25 UNL     1      15.420  17.725  34.225  1.00  0.00     0.125 C 
BRANCH  17  20
HETATM   20  O3  UNL     1      13.276  17.345  36.352  1.00  0.00    -0.391 OA
ATOM     21  H3  UNL     1      13.470  16.939  37.189  1.00  0.00     0.210 HD
ENDBRANCH  17  20
BRANCH  19  22
HETATM   22  O2  UNL     1      16.470  16.885  33.855  1.00  0.00    -0.395 OA
ATOM     23  H2  UNL     1      17.235  17.387  33.598  1.00  0.00     0.210 HD
ENDBRANCH  19  22
ENDBRANCH   1  12
BRANCH  11  24
HETATM   24  C16 UNL     1       8.989  25.645  32.898  1.00  0.00    -0.014 C 
HETATM   25  C17 UNL     1       8.672  27.078  32.490  1.00  0.00     0.010 C 
BRANCH  24  26
HETATM   26  C18 UNL     1       7.758  25.331  33.731  1.00  0.00     0.005 C 
BRANCH  26  27
HETATM   27  C19 UNL     1       6.445  25.411  33.131  1.00  0.00     0.003 C 
BRANCH  27  28
HETATM   28  C20 UNL     1       5.687  24.123  33.181  1.00  0.00     0.037 C 
BRANCH  28  29
HETATM   29  C21 UNL     1       4.412  24.039  33.904  1.00  0.00     0.051 C 
HETATM   30  C22 UNL     1       3.339  25.031  33.566  1.00  0.00     0.045 C 
HETATM   31  C23 UNL     1       4.752  24.277  35.396  1.00  0.00     0.045 C 
BRANCH  29  32
HETATM   32  O1  UNL     1       3.874  22.732  33.908  1.00  0.00    -0.391 OA
ATOM     33  H1  UNL     1       3.041  22.681  34.362  1.00  0.00     0.210 HD
ENDBRANCH  29  32
ENDBRANCH  28  29
ENDBRANCH  27  28
ENDBRANCH  26  27
ENDBRANCH  24  26
ENDBRANCH  11  24
TORSDOF 9
ENDMDL
