MODEL 3
REMARK VINA RESULT: -8.333841166      0.073      1.010
REMARK  6 active torsions:
REMARK  status: ('A' for Active; 'I' for Inactive)
REMARK    1  A    between atoms: N1_5  and  C4_6 
REMARK    2  A    between atoms: C5_8  and  C6_9 
REMARK    3  A    between atoms: C6_9  and  O3_10 
REMARK    4  A    between atoms: O3_10  and  P1_11 
REMARK    5  A    between atoms: C7_15  and  O7_16 
REMARK    6  A    between atoms: C8_18  and  O8_19 
ROOT
HETATM    1  C4  UNL     1      63.664  59.065  28.264  1.00  0.00     0.263 C 
HETATM    2  O2  UNL     1      64.504  58.497  29.255  1.00  0.00    -0.353 OA
HETATM    3  C5  UNL     1      64.800  59.471  30.104  1.00  0.00     0.180 C 
HETATM    4  C7  UNL     1      63.685  60.470  30.089  1.00  0.00     0.182 C 
HETATM    5  C8  UNL     1      63.589  60.535  28.543  1.00  0.00     0.198 C 
ENDROOT
BRANCH   1   6
HETATM    6  N1  UNL     1      62.456  58.331  28.262  1.00  0.00    -0.280 N 
HETATM    7  C3  UNL     1      61.501  58.530  29.164  1.00  0.00     0.104 A 
HETATM    8  C2  UNL     1      60.315  57.798  29.078  1.00  0.00     0.092 A 
HETATM    9  C1  UNL     1      60.135  56.885  28.061  1.00  0.00     0.250 A 
HETATM   10  O1  UNL     1      59.081  56.266  27.998  1.00  0.00    -0.268 OA
HETATM   11  N2  UNL     1      61.160  56.734  27.168  1.00  0.00    -0.275 N 
HETATM   12  C9  UNL     1      62.285  57.425  27.268  1.00  0.00     0.331 A 
ATOM     13  H2  UNL     1      61.055  56.069  26.401  1.00  0.00     0.173 HD
HETATM   14  O9  UNL     1      63.184  57.172  26.396  1.00  0.00    -0.246 OA
ENDBRANCH   1   6
BRANCH   5  15
HETATM   15  O8  UNL     1      64.824  61.091  28.169  1.00  0.00    -0.388 OA
ATOM     16  H8  UNL     1      64.991  61.821  28.753  1.00  0.00     0.210 HD
ENDBRANCH   5  15
BRANCH   3  17
HETATM   17  C6  UNL     1      65.407  59.211  31.433  1.00  0.00     0.217 C 
BRANCH  17  18
HETATM   18  O3  UNL     1      64.220  58.882  32.205  1.00  0.00    -0.280 OA
BRANCH  18  19
HETATM   19  P1  UNL     1      64.357  59.684  33.656  1.00  0.00     0.422 P 
HETATM   20  O4  UNL     1      65.138  61.002  33.449  1.00  0.00    -0.617 OA
HETATM   21  O5  UNL     1      65.101  58.781  34.815  1.00  0.00    -0.617 OA
HETATM   22  O6  UNL     1      62.780  60.144  34.214  1.00  0.00    -0.617 OA
ENDBRANCH  18  19
ENDBRANCH  17  18
ENDBRANCH   3  17
BRANCH   4  23
HETATM   23  O7  UNL     1      64.028  61.722  30.592  1.00  0.00    -0.390 OA
ATOM     24  H7  UNL     1      64.699  62.176  30.094  1.00  0.00     0.210 HD
ENDBRANCH   4  23
TORSDOF 6
ENDMDL
