MODEL 1
REMARK VINA RESULT: -8.651072290      0.000      0.000
REMARK  6 active torsions:
REMARK  status: ('A' for Active; 'I' for Inactive)
REMARK    1  A    between atoms: N1_5  and  C4_6 
REMARK    2  A    between atoms: C5_8  and  C6_9 
REMARK    3  A    between atoms: C6_9  and  O3_10 
REMARK    4  A    between atoms: O3_10  and  P1_11 
REMARK    5  A    between atoms: C7_15  and  O7_16 
REMARK    6  A    between atoms: C8_18  and  O8_19 
ROOT
HETATM    1  C4  UNL     1      63.644  59.019  28.275  1.00  0.00     0.263 C 
HETATM    2  O2  UNL     1      64.467  58.451  29.282  1.00  0.00    -0.353 OA
HETATM    3  C5  UNL     1      64.759  59.429  30.127  1.00  0.00     0.180 C 
HETATM    4  C7  UNL     1      63.651  60.436  30.092  1.00  0.00     0.182 C 
HETATM    5  C8  UNL     1      63.576  60.491  28.544  1.00  0.00     0.198 C 
ENDROOT
BRANCH   1   6
HETATM    6  N1  UNL     1      62.432  58.293  28.262  1.00  0.00    -0.280 N 
HETATM    7  C3  UNL     1      61.480  58.481  29.170  1.00  0.00     0.104 A 
HETATM    8  C2  UNL     1      60.289  57.759  29.073  1.00  0.00     0.092 A 
HETATM    9  C1  UNL     1      60.101  56.866  28.040  1.00  0.00     0.250 A 
HETATM   10  O1  UNL     1      59.042  56.255  27.967  1.00  0.00    -0.268 OA
HETATM   11  N2  UNL     1      61.123  56.725  27.142  1.00  0.00    -0.275 N 
HETATM   12  C9  UNL     1      62.253  57.407  27.253  1.00  0.00     0.331 A 
ATOM     13  H2  UNL     1      61.012  56.074  26.363  1.00  0.00     0.173 HD
HETATM   14  O9  UNL     1      63.148  57.163  26.375  1.00  0.00    -0.246 OA
ENDBRANCH   1   6
BRANCH   5  15
HETATM   15  O8  UNL     1      64.819  61.036  28.182  1.00  0.00    -0.388 OA
ATOM     16  H8  UNL     1      64.658  61.917  27.865  1.00  0.00     0.210 HD
ENDBRANCH   5  15
BRANCH   3  17
HETATM   17  C6  UNL     1      65.346  59.174  31.467  1.00  0.00     0.217 C 
BRANCH  17  18
HETATM   18  O3  UNL     1      64.140  58.927  32.240  1.00  0.00    -0.280 OA
BRANCH  18  19
HETATM   19  P1  UNL     1      64.308  59.770  33.665  1.00  0.00     0.422 P 
HETATM   20  O4  UNL     1      62.913  60.112  34.235  1.00  0.00    -0.617 OA
HETATM   21  O5  UNL     1      65.184  61.154  33.488  1.00  0.00    -0.617 OA
HETATM   22  O6  UNL     1      65.074  58.757  34.849  1.00  0.00    -0.617 OA
ENDBRANCH  18  19
ENDBRANCH  17  18
ENDBRANCH   3  17
BRANCH   4  23
HETATM   23  O7  UNL     1      63.995  61.689  30.590  1.00  0.00    -0.390 OA
ATOM     24  H7  UNL     1      63.334  62.360  30.460  1.00  0.00     0.210 HD
ENDBRANCH   4  23
TORSDOF 6
ENDMDL
