MODEL 5
REMARK VINA RESULT: -7.395648405      2.842      6.099
REMARK  6 active torsions:
REMARK  status: ('A' for Active; 'I' for Inactive)
REMARK    1  A    between atoms: N1_5  and  C4_6 
REMARK    2  A    between atoms: C5_8  and  C6_9 
REMARK    3  A    between atoms: C6_9  and  O3_10 
REMARK    4  A    between atoms: O3_10  and  P1_11 
REMARK    5  A    between atoms: C7_15  and  O7_16 
REMARK    6  A    between atoms: C8_18  and  O8_19 
ROOT
HETATM    1  C4  UNL     1      64.086  60.142  30.660  1.00  0.00     0.263 C 
HETATM    2  O2  UNL     1      62.700  60.141  30.360  1.00  0.00    -0.353 OA
HETATM    3  C5  UNL     1      62.584  59.706  29.114  1.00  0.00     0.180 C 
HETATM    4  C7  UNL     1      63.746  58.812  28.811  1.00  0.00     0.182 C 
HETATM    5  C8  UNL     1      64.808  59.776  29.400  1.00  0.00     0.198 C 
ENDROOT
BRANCH   1   6
HETATM    6  N1  UNL     1      64.274  59.317  31.792  1.00  0.00    -0.280 N 
HETATM    7  C3  UNL     1      64.317  57.992  31.708  1.00  0.00     0.104 A 
HETATM    8  C2  UNL     1      64.548  57.239  32.861  1.00  0.00     0.092 A 
HETATM    9  C1  UNL     1      64.736  57.868  34.074  1.00  0.00     0.250 A 
HETATM   10  O1  UNL     1      64.952  57.187  35.068  1.00  0.00    -0.268 OA
HETATM   11  N2  UNL     1      64.680  59.235  34.085  1.00  0.00    -0.275 N 
HETATM   12  C9  UNL     1      64.448  59.936  32.986  1.00  0.00     0.331 A 
ATOM     13  H2  UNL     1      64.821  59.729  34.967  1.00  0.00     0.173 HD
HETATM   14  O9  UNL     1      64.382  61.204  33.128  1.00  0.00    -0.246 OA
ENDBRANCH   1   6
BRANCH   5  15
HETATM   15  O8  UNL     1      64.740  60.889  28.545  1.00  0.00    -0.388 OA
ATOM     16  H8  UNL     1      63.968  60.778  28.003  1.00  0.00     0.210 HD
ENDBRANCH   5  15
BRANCH   3  17
HETATM   17  C6  UNL     1      61.284  59.280  28.538  1.00  0.00     0.217 C 
BRANCH  17  18
HETATM   18  O3  UNL     1      61.326  57.854  28.818  1.00  0.00    -0.280 OA
BRANCH  18  19
HETATM   19  P1  UNL     1      60.568  57.096  27.546  1.00  0.00     0.422 P 
HETATM   20  O4  UNL     1      59.803  58.139  26.700  1.00  0.00    -0.617 OA
HETATM   21  O5  UNL     1      59.526  55.917  28.037  1.00  0.00    -0.617 OA
HETATM   22  O6  UNL     1      61.759  56.403  26.492  1.00  0.00    -0.617 OA
ENDBRANCH  18  19
ENDBRANCH  17  18
ENDBRANCH   3  17
BRANCH   4  23
HETATM   23  O7  UNL     1      63.987  58.621  27.453  1.00  0.00    -0.390 OA
ATOM     24  H7  UNL     1      64.683  59.161  27.097  1.00  0.00     0.210 HD
ENDBRANCH   4  23
TORSDOF 6
ENDMDL
