MODEL 7
REMARK VINA RESULT: -7.229277924      2.853      6.102
REMARK  6 active torsions:
REMARK  status: ('A' for Active; 'I' for Inactive)
REMARK    1  A    between atoms: N1_5  and  C4_6 
REMARK    2  A    between atoms: C5_8  and  C6_9 
REMARK    3  A    between atoms: C6_9  and  O3_10 
REMARK    4  A    between atoms: O3_10  and  P1_11 
REMARK    5  A    between atoms: C7_15  and  O7_16 
REMARK    6  A    between atoms: C8_18  and  O8_19 
ROOT
HETATM    1  C4  UNL     1      64.113  60.159  30.662  1.00  0.00     0.263 C 
HETATM    2  O2  UNL     1      62.726  60.164  30.363  1.00  0.00    -0.353 OA
HETATM    3  C5  UNL     1      62.607  59.724  29.118  1.00  0.00     0.180 C 
HETATM    4  C7  UNL     1      63.764  58.821  28.820  1.00  0.00     0.182 C 
HETATM    5  C8  UNL     1      64.832  59.782  29.403  1.00  0.00     0.198 C 
ENDROOT
BRANCH   1   6
HETATM    6  N1  UNL     1      64.296  59.339  31.799  1.00  0.00    -0.280 N 
HETATM    7  C3  UNL     1      64.353  58.015  31.719  1.00  0.00     0.104 A 
HETATM    8  C2  UNL     1      64.578  57.267  32.876  1.00  0.00     0.092 A 
HETATM    9  C1  UNL     1      64.748  57.901  34.089  1.00  0.00     0.250 A 
HETATM   10  O1  UNL     1      64.959  57.225  35.088  1.00  0.00    -0.268 OA
HETATM   11  N2  UNL     1      64.678  59.267  34.096  1.00  0.00    -0.275 N 
HETATM   12  C9  UNL     1      64.451  59.963  32.992  1.00  0.00     0.331 A 
ATOM     13  H2  UNL     1      64.805  59.765  34.978  1.00  0.00     0.173 HD
HETATM   14  O9  UNL     1      64.372  61.231  33.130  1.00  0.00    -0.246 OA
ENDBRANCH   1   6
BRANCH   5  15
HETATM   15  O8  UNL     1      64.769  60.891  28.543  1.00  0.00    -0.388 OA
ATOM     16  H8  UNL     1      63.913  61.287  28.658  1.00  0.00     0.210 HD
ENDBRANCH   5  15
BRANCH   3  17
HETATM   17  C6  UNL     1      61.305  59.302  28.545  1.00  0.00     0.217 C 
BRANCH  17  18
HETATM   18  O3  UNL     1      61.367  57.868  28.776  1.00  0.00    -0.280 OA
BRANCH  18  19
HETATM   19  P1  UNL     1      60.648  57.142  27.463  1.00  0.00     0.422 P 
HETATM   20  O4  UNL     1      61.714  56.391  26.635  1.00  0.00    -0.617 OA
HETATM   21  O5  UNL     1      59.857  58.216  26.496  1.00  0.00    -0.617 OA
HETATM   22  O6  UNL     1      59.528  55.935  28.011  1.00  0.00    -0.617 OA
ENDBRANCH  18  19
ENDBRANCH  17  18
ENDBRANCH   3  17
BRANCH   4  23
HETATM   23  O7  UNL     1      64.003  58.622  27.463  1.00  0.00    -0.390 OA
ATOM     24  H7  UNL     1      64.890  58.350  27.256  1.00  0.00     0.210 HD
ENDBRANCH   4  23
TORSDOF 6
ENDMDL
