MODEL 2
REMARK VINA RESULT: -8.391531959      0.083      1.010
REMARK  6 active torsions:
REMARK  status: ('A' for Active; 'I' for Inactive)
REMARK    1  A    between atoms: N1_5  and  C4_6 
REMARK    2  A    between atoms: C5_8  and  C6_9 
REMARK    3  A    between atoms: C6_9  and  O3_10 
REMARK    4  A    between atoms: O3_10  and  P1_11 
REMARK    5  A    between atoms: C7_15  and  O7_16 
REMARK    6  A    between atoms: C8_18  and  O8_19 
ROOT
HETATM    1  C4  UNL     1      63.666  59.073  28.254  1.00  0.00     0.263 C 
HETATM    2  O2  UNL     1      64.502  58.511  29.253  1.00  0.00    -0.353 OA
HETATM    3  C5  UNL     1      64.799  59.491  30.093  1.00  0.00     0.180 C 
HETATM    4  C7  UNL     1      63.687  60.493  30.069  1.00  0.00     0.182 C 
HETATM    5  C8  UNL     1      63.595  60.546  28.522  1.00  0.00     0.198 C 
ENDROOT
BRANCH   1   6
HETATM    6  N1  UNL     1      62.456  58.343  28.256  1.00  0.00    -0.280 N 
HETATM    7  C3  UNL     1      61.503  58.546  29.159  1.00  0.00     0.104 A 
HETATM    8  C2  UNL     1      60.314  57.818  29.076  1.00  0.00     0.092 A 
HETATM    9  C1  UNL     1      60.131  56.902  28.061  1.00  0.00     0.250 A 
HETATM   10  O1  UNL     1      59.074  56.287  28.001  1.00  0.00    -0.268 OA
HETATM   11  N2  UNL     1      61.154  56.747  27.167  1.00  0.00    -0.275 N 
HETATM   12  C9  UNL     1      62.281  57.435  27.265  1.00  0.00     0.331 A 
ATOM     13  H2  UNL     1      61.046  56.080  26.402  1.00  0.00     0.173 HD
HETATM   14  O9  UNL     1      63.178  57.177  26.392  1.00  0.00    -0.246 OA
ENDBRANCH   1   6
BRANCH   5  15
HETATM   15  O8  UNL     1      64.832  61.095  28.146  1.00  0.00    -0.388 OA
ATOM     16  H8  UNL     1      64.881  61.963  28.529  1.00  0.00     0.210 HD
ENDBRANCH   5  15
BRANCH   3  17
HETATM   17  C6  UNL     1      65.402  59.240  31.426  1.00  0.00     0.217 C 
BRANCH  17  18
HETATM   18  O3  UNL     1      64.217  58.883  32.189  1.00  0.00    -0.280 OA
BRANCH  18  19
HETATM   19  P1  UNL     1      64.307  59.716  33.626  1.00  0.00     0.422 P 
HETATM   20  O4  UNL     1      65.058  58.864  34.675  1.00  0.00    -0.617 OA
HETATM   21  O5  UNL     1      62.826  60.133  34.216  1.00  0.00    -0.617 OA
HETATM   22  O6  UNL     1      65.258  61.151  33.405  1.00  0.00    -0.617 OA
ENDBRANCH  18  19
ENDBRANCH  17  18
ENDBRANCH   3  17
BRANCH   4  23
HETATM   23  O7  UNL     1      64.032  61.748  30.562  1.00  0.00    -0.390 OA
ATOM     24  H7  UNL     1      64.905  61.799  30.933  1.00  0.00     0.210 HD
ENDBRANCH   4  23
TORSDOF 6
ENDMDL
