MODEL 6
REMARK VINA RESULT: -7.296062517      0.941      1.415
REMARK  6 active torsions:
REMARK  status: ('A' for Active; 'I' for Inactive)
REMARK    1  A    between atoms: N1_5  and  C4_6 
REMARK    2  A    between atoms: C5_8  and  C6_9 
REMARK    3  A    between atoms: C6_9  and  O3_10 
REMARK    4  A    between atoms: O3_10  and  P1_11 
REMARK    5  A    between atoms: C7_15  and  O7_16 
REMARK    6  A    between atoms: C8_18  and  O8_19 
ROOT
HETATM    1  C4  UNL     1      63.669  58.968  28.197  1.00  0.00     0.263 C 
HETATM    2  O2  UNL     1      64.450  58.323  29.191  1.00  0.00    -0.353 OA
HETATM    3  C5  UNL     1      64.697  59.231  30.124  1.00  0.00     0.180 C 
HETATM    4  C7  UNL     1      63.585  60.233  30.121  1.00  0.00     0.182 C 
HETATM    5  C8  UNL     1      63.578  60.413  28.581  1.00  0.00     0.198 C 
ENDROOT
BRANCH   1   6
HETATM    6  N1  UNL     1      62.463  58.241  28.072  1.00  0.00    -0.280 N 
HETATM    7  C3  UNL     1      62.212  57.452  27.033  1.00  0.00     0.104 A 
HETATM    8  C2  UNL     1      61.018  56.730  26.992  1.00  0.00     0.092 A 
HETATM    9  C1  UNL     1      60.112  56.830  28.027  1.00  0.00     0.250 A 
HETATM   10  O1  UNL     1      59.078  56.176  27.977  1.00  0.00    -0.268 OA
HETATM   11  N2  UNL     1      60.437  57.660  29.065  1.00  0.00    -0.275 N 
HETATM   12  C9  UNL     1      61.568  58.349  29.084  1.00  0.00     0.331 A 
ATOM     13  H2  UNL     1      59.789  57.751  29.848  1.00  0.00     0.173 HD
HETATM   14  O9  UNL     1      61.744  59.118  30.089  1.00  0.00    -0.246 OA
ENDBRANCH   1   6
BRANCH   5  15
HETATM   15  O8  UNL     1      64.832  60.990  28.320  1.00  0.00    -0.388 OA
ATOM     16  H8  UNL     1      64.986  61.641  28.995  1.00  0.00     0.210 HD
ENDBRANCH   5  15
BRANCH   3  17
HETATM   17  C6  UNL     1      65.226  58.870  31.463  1.00  0.00     0.217 C 
BRANCH  17  18
HETATM   18  O3  UNL     1      63.991  58.810  32.228  1.00  0.00    -0.280 OA
BRANCH  18  19
HETATM   19  P1  UNL     1      64.281  59.599  33.664  1.00  0.00     0.422 P 
HETATM   20  O4  UNL     1      62.941  60.038  34.296  1.00  0.00    -0.617 OA
HETATM   21  O5  UNL     1      65.259  60.912  33.483  1.00  0.00    -0.617 OA
HETATM   22  O6  UNL     1      65.006  58.498  34.793  1.00  0.00    -0.617 OA
ENDBRANCH  18  19
ENDBRANCH  17  18
ENDBRANCH   3  17
BRANCH   4  23
HETATM   23  O7  UNL     1      63.898  61.443  30.734  1.00  0.00    -0.390 OA
ATOM     24  H7  UNL     1      63.177  61.842  31.207  1.00  0.00     0.210 HD
ENDBRANCH   4  23
TORSDOF 6
ENDMDL
