MODEL 13
REMARK VINA RESULT: -6.375455631      1.517      2.109
REMARK  6 active torsions:
REMARK  status: ('A' for Active; 'I' for Inactive)
REMARK    1  A    between atoms: N1_5  and  C4_6 
REMARK    2  A    between atoms: C5_8  and  C6_9 
REMARK    3  A    between atoms: C6_9  and  O3_10 
REMARK    4  A    between atoms: O3_10  and  P1_11 
REMARK    5  A    between atoms: C7_15  and  O7_16 
REMARK    6  A    between atoms: C8_18  and  O8_19 
ROOT
HETATM    1  C4  UNL     1      63.478  58.231  29.283  1.00  0.00     0.263 C 
HETATM    2  O2  UNL     1      62.993  58.752  30.510  1.00  0.00    -0.353 OA
HETATM    3  C5  UNL     1      63.389  60.016  30.566  1.00  0.00     0.180 C 
HETATM    4  C7  UNL     1      63.537  60.530  29.168  1.00  0.00     0.182 C 
HETATM    5  C8  UNL     1      64.325  59.296  28.658  1.00  0.00     0.198 C 
ENDROOT
BRANCH   1   6
HETATM    6  N1  UNL     1      62.361  57.762  28.554  1.00  0.00    -0.280 N 
HETATM    7  C3  UNL     1      62.456  57.347  27.296  1.00  0.00     0.104 A 
HETATM    8  C2  UNL     1      61.320  56.857  26.648  1.00  0.00     0.092 A 
HETATM    9  C1  UNL     1      60.114  56.798  27.314  1.00  0.00     0.250 A 
HETATM   10  O1  UNL     1      59.135  56.350  26.730  1.00  0.00    -0.268 OA
HETATM   11  N2  UNL     1      60.091  57.241  28.608  1.00  0.00    -0.275 N 
HETATM   12  C9  UNL     1      61.174  57.715  29.206  1.00  0.00     0.331 A 
ATOM     13  H2  UNL     1      59.214  57.205  29.128  1.00  0.00     0.173 HD
HETATM   14  O9  UNL     1      61.020  58.132  30.403  1.00  0.00    -0.246 OA
ENDBRANCH   1   6
BRANCH   5  15
HETATM   15  O8  UNL     1      65.522  59.356  29.390  1.00  0.00    -0.388 OA
ATOM     16  H8  UNL     1      65.796  60.265  29.406  1.00  0.00     0.210 HD
ENDBRANCH   5  15
BRANCH   3  17
HETATM   17  C6  UNL     1      62.831  60.981  31.546  1.00  0.00     0.217 C 
BRANCH  17  18
HETATM   18  O3  UNL     1      63.004  60.234  32.780  1.00  0.00    -0.280 OA
BRANCH  18  19
HETATM   19  P1  UNL     1      64.573  60.485  33.274  1.00  0.00     0.422 P 
HETATM   20  O4  UNL     1      64.976  61.952  33.002  1.00  0.00    -0.617 OA
HETATM   21  O5  UNL     1      65.643  59.475  32.532  1.00  0.00    -0.617 OA
HETATM   22  O6  UNL     1      64.680  60.269  34.992  1.00  0.00    -0.617 OA
ENDBRANCH  18  19
ENDBRANCH  17  18
ENDBRANCH   3  17
BRANCH   4  23
HETATM   23  O7  UNL     1      64.327  61.671  29.055  1.00  0.00    -0.390 OA
ATOM     24  H7  UNL     1      65.207  61.510  28.734  1.00  0.00     0.210 HD
ENDBRANCH   4  23
TORSDOF 6
ENDMDL
