MODEL 9
REMARK VINA RESULT: -6.908033733      2.918      5.973
REMARK  6 active torsions:
REMARK  status: ('A' for Active; 'I' for Inactive)
REMARK    1  A    between atoms: N1_5  and  C4_6 
REMARK    2  A    between atoms: C5_8  and  C6_9 
REMARK    3  A    between atoms: C6_9  and  O3_10 
REMARK    4  A    between atoms: O3_10  and  P1_11 
REMARK    5  A    between atoms: C7_15  and  O7_16 
REMARK    6  A    between atoms: C8_18  and  O8_19 
ROOT
HETATM    1  C4  UNL     1      63.424  60.320  31.476  1.00  0.00     0.263 C 
HETATM    2  O2  UNL     1      62.643  59.739  30.444  1.00  0.00    -0.353 OA
HETATM    3  C5  UNL     1      63.244  60.039  29.302  1.00  0.00     0.180 C 
HETATM    4  C7  UNL     1      64.706  60.218  29.566  1.00  0.00     0.182 C 
HETATM    5  C8  UNL     1      64.504  61.118  30.812  1.00  0.00     0.198 C 
ENDROOT
BRANCH   1   6
HETATM    6  N1  UNL     1      63.813  59.278  32.348  1.00  0.00    -0.280 N 
HETATM    7  C3  UNL     1      63.810  58.002  31.978  1.00  0.00     0.104 A 
HETATM    8  C2  UNL     1      64.247  57.027  32.877  1.00  0.00     0.092 A 
HETATM    9  C1  UNL     1      64.686  57.388  34.133  1.00  0.00     0.250 A 
HETATM   10  O1  UNL     1      65.079  56.517  34.899  1.00  0.00    -0.268 OA
HETATM   11  N2  UNL     1      64.663  58.721  34.444  1.00  0.00    -0.275 N 
HETATM   12  C9  UNL     1      64.234  59.633  33.586  1.00  0.00     0.331 A 
ATOM     13  H2  UNL     1      64.986  59.020  35.365  1.00  0.00     0.173 HD
HETATM   14  O9  UNL     1      64.225  60.841  34.004  1.00  0.00    -0.246 OA
ENDBRANCH   1   6
BRANCH   5  15
HETATM   15  O8  UNL     1      63.900  62.270  30.281  1.00  0.00    -0.388 OA
ATOM     16  H8  UNL     1      63.994  62.226  29.337  1.00  0.00     0.210 HD
ENDBRANCH   5  15
BRANCH   3  17
HETATM   17  C6  UNL     1      62.904  59.365  28.024  1.00  0.00     0.217 C 
BRANCH  17  18
HETATM   18  O3  UNL     1      62.567  58.036  28.507  1.00  0.00    -0.280 OA
BRANCH  18  19
HETATM   19  P1  UNL     1      61.323  57.483  27.551  1.00  0.00     0.422 P 
HETATM   20  O4  UNL     1      60.629  58.677  26.857  1.00  0.00    -0.617 OA
HETATM   21  O5  UNL     1      60.207  56.616  28.398  1.00  0.00    -0.617 OA
HETATM   22  O6  UNL     1      61.967  56.496  26.278  1.00  0.00    -0.617 OA
ENDBRANCH  18  19
ENDBRANCH  17  18
ENDBRANCH   3  17
BRANCH   4  23
HETATM   23  O7  UNL     1      65.386  60.929  28.580  1.00  0.00    -0.390 OA
ATOM     24  H7  UNL     1      66.220  61.290  28.860  1.00  0.00     0.210 HD
ENDBRANCH   4  23
TORSDOF 6
ENDMDL
