MODEL 3
REMARK VINA RESULT: -6.436619876      2.683      5.252
REMARK  6 active torsions:
REMARK  status: ('A' for Active; 'I' for Inactive)
REMARK    1  A    between atoms: N4_10  and  C5_11 
REMARK    2  A    between atoms: C6_13  and  C7_14 
REMARK    3  A    between atoms: C7_14  and  O2_15 
REMARK    4  A    between atoms: C8_17  and  O3_18 
REMARK    5  A    between atoms: C9_20  and  O4_21 
REMARK    6  A    between atoms: O4_21  and  P1_22 
ROOT
HETATM    1  C5  UNL     1      25.767 -46.082   4.184  1.00  0.00     0.263 C 
HETATM    2  O1  UNL     1      26.819 -45.932   3.286  1.00  0.00    -0.353 OA
HETATM    3  C6  UNL     1      26.461 -46.519   2.101  1.00  0.00     0.179 C 
HETATM    4  C8  UNL     1      24.955 -46.364   2.044  1.00  0.00     0.183 C 
HETATM    5  C9  UNL     1      24.698 -46.887   3.465  1.00  0.00     0.216 C 
ENDROOT
BRANCH   1   6
HETATM    6  N4  UNL     1      25.285 -44.814   4.636  1.00  0.00    -0.297 N 
HETATM    7  C2  UNL     1      24.594 -44.610   5.770  1.00  0.00     0.146 A 
HETATM    8  N2  UNL     1      24.170 -45.444   6.755  1.00  0.00    -0.314 N 
HETATM    9  C3  UNL     1      24.291 -43.276   5.892  1.00  0.00     0.146 A 
HETATM   10  C1  UNL     1      23.477 -45.006   7.821  1.00  0.00     0.196 A 
ATOM     11  H2  UNL     1      24.385 -46.438   6.683  1.00  0.00     0.170 HD
HETATM   12  N1  UNL     1      23.042 -45.898   8.844  1.00  0.00    -0.063 NA
HETATM   13  N5  UNL     1      23.172 -43.682   7.951  1.00  0.00    -0.295 N 
HETATM   14  C10 UNL     1      23.581 -42.846   6.990  1.00  0.00     0.278 A 
ATOM     15  H5  UNL     1      22.647 -43.341   8.756  1.00  0.00     0.171 HD
HETATM   16  O8  UNL     1      23.306 -41.627   7.099  1.00  0.00    -0.265 OA
HETATM   17  N3  UNL     1      24.820 -42.682   4.797  1.00  0.00    -0.345 N 
HETATM   18  C4  UNL     1      25.421 -43.629   4.043  1.00  0.00     0.188 A 
ATOM     19  H3  UNL     1      24.773 -41.686   4.578  1.00  0.00     0.167 HD
ENDBRANCH   1   6
BRANCH   5  20
HETATM   20  O4  UNL     1      23.441 -46.672   3.902  1.00  0.00    -0.270 OA
BRANCH  20  21
HETATM   21  P1  UNL     1      22.635 -47.821   4.508  1.00  0.00     0.422 P 
HETATM   22  O5  UNL     1      22.282 -48.390   2.977  1.00  0.00    -0.617 OA
HETATM   23  O6  UNL     1      21.606 -46.741   5.214  1.00  0.00    -0.617 OA
HETATM   24  O7  UNL     1      23.897 -48.387   5.349  1.00  0.00    -0.617 OA
ENDBRANCH  20  21
ENDBRANCH   5  20
BRANCH   3  25
HETATM   25  C7  UNL     1      27.154 -45.959   0.903  1.00  0.00     0.198 C 
BRANCH  25  26
HETATM   26  O2  UNL     1      28.272 -45.255   1.352  1.00  0.00    -0.398 OA
ATOM     27  H2  UNL     1      28.636 -44.788   0.609  1.00  0.00     0.209 HD
ENDBRANCH  25  26
ENDBRANCH   3  25
BRANCH   4  28
HETATM   28  O3  UNL     1      24.359 -47.139   1.085  1.00  0.00    -0.390 OA
ATOM     29  H3  UNL     1      24.436 -46.785   0.206  1.00  0.00     0.210 HD
ENDBRANCH   4  28
TORSDOF 6
ENDMDL
