MODEL 2
REMARK VINA RESULT: -6.451813544      2.610      5.804
REMARK  6 active torsions:
REMARK  status: ('A' for Active; 'I' for Inactive)
REMARK    1  A    between atoms: N4_10  and  C5_11 
REMARK    2  A    between atoms: C6_13  and  C7_14 
REMARK    3  A    between atoms: C7_14  and  O2_15 
REMARK    4  A    between atoms: C8_17  and  O3_18 
REMARK    5  A    between atoms: C9_20  and  O4_21 
REMARK    6  A    between atoms: O4_21  and  P1_22 
ROOT
HETATM    1  C5  UNL     1      24.125 -45.511   5.139  1.00  0.00     0.263 C 
HETATM    2  O1  UNL     1      24.302 -46.569   4.253  1.00  0.00    -0.353 OA
HETATM    3  C6  UNL     1      24.176 -47.742   4.952  1.00  0.00     0.179 C 
HETATM    4  C8  UNL     1      23.205 -47.411   6.067  1.00  0.00     0.183 C 
HETATM    5  C9  UNL     1      23.921 -46.127   6.512  1.00  0.00     0.216 C 
ENDROOT
BRANCH   1   6
HETATM    6  N4  UNL     1      23.028 -44.682   4.743  1.00  0.00    -0.297 N 
HETATM    7  C2  UNL     1      22.880 -43.388   5.075  1.00  0.00     0.146 A 
HETATM    8  N2  UNL     1      23.634 -42.532   5.811  1.00  0.00    -0.314 N 
HETATM    9  C3  UNL     1      21.718 -42.903   4.528  1.00  0.00     0.146 A 
HETATM   10  C1  UNL     1      23.279 -41.251   6.013  1.00  0.00     0.196 A 
ATOM     11  H2  UNL     1      24.501 -42.873   6.226  1.00  0.00     0.170 HD
HETATM   12  N1  UNL     1      24.086 -40.368   6.789  1.00  0.00    -0.063 NA
HETATM   13  N5  UNL     1      22.126 -40.759   5.473  1.00  0.00    -0.295 N 
HETATM   14  C10 UNL     1      21.371 -41.589   4.745  1.00  0.00     0.278 A 
ATOM     15  H5  UNL     1      21.849 -39.789   5.621  1.00  0.00     0.171 HD
HETATM   16  O8  UNL     1      20.308 -41.148   4.244  1.00  0.00    -0.265 OA
HETATM   17  N3  UNL     1      21.169 -43.943   3.856  1.00  0.00    -0.345 N 
HETATM   18  C4  UNL     1      21.978 -45.018   3.997  1.00  0.00     0.188 A 
ATOM     19  H3  UNL     1      20.294 -43.920   3.333  1.00  0.00     0.167 HD
ENDBRANCH   1   6
BRANCH   5  20
HETATM   20  O4  UNL     1      23.202 -45.374   7.367  1.00  0.00    -0.270 OA
BRANCH  20  21
HETATM   21  P1  UNL     1      23.707 -45.137   8.791  1.00  0.00     0.422 P 
HETATM   22  O5  UNL     1      23.756 -43.491   8.507  1.00  0.00    -0.617 OA
HETATM   23  O6  UNL     1      25.051 -46.042   8.475  1.00  0.00    -0.617 OA
HETATM   24  O7  UNL     1      22.413 -45.839   9.466  1.00  0.00    -0.617 OA
ENDBRANCH  20  21
ENDBRANCH   5  20
BRANCH   3  25
HETATM   25  C7  UNL     1      23.743 -48.907   4.125  1.00  0.00     0.198 C 
BRANCH  25  26
HETATM   26  O2  UNL     1      23.608 -50.003   4.978  1.00  0.00    -0.398 OA
ATOM     27  H2  UNL     1      23.477 -50.774   4.437  1.00  0.00     0.209 HD
ENDBRANCH  25  26
ENDBRANCH   3  25
BRANCH   4  28
HETATM   28  O3  UNL     1      23.162 -48.357   7.057  1.00  0.00    -0.390 OA
ATOM     29  H3  UNL     1      23.997 -48.781   7.215  1.00  0.00     0.210 HD
ENDBRANCH   4  28
TORSDOF 6
ENDMDL
