MODEL 1
REMARK VINA RESULT: -6.673942252      0.000      0.000
REMARK  6 active torsions:
REMARK  status: ('A' for Active; 'I' for Inactive)
REMARK    1  A    between atoms: N4_10  and  C5_11 
REMARK    2  A    between atoms: C6_13  and  C7_14 
REMARK    3  A    between atoms: C7_14  and  O2_15 
REMARK    4  A    between atoms: C8_17  and  O3_18 
REMARK    5  A    between atoms: C9_20  and  O4_21 
REMARK    6  A    between atoms: O4_21  and  P1_22 
ROOT
HETATM    1  C5  UNL     1      23.350 -44.365   5.060  1.00  0.00     0.263 C 
HETATM    2  O1  UNL     1      23.008 -43.137   4.503  1.00  0.00    -0.353 OA
HETATM    3  C6  UNL     1      22.884 -42.223   5.517  1.00  0.00     0.179 C 
HETATM    4  C8  UNL     1      23.858 -42.702   6.575  1.00  0.00     0.183 C 
HETATM    5  C9  UNL     1      23.383 -44.162   6.565  1.00  0.00     0.216 C 
ENDROOT
BRANCH   1   6
HETATM    6  N4  UNL     1      24.598 -44.838   4.545  1.00  0.00    -0.297 N 
HETATM    7  C2  UNL     1      24.972 -46.128   4.496  1.00  0.00     0.146 A 
HETATM    8  N2  UNL     1      24.364 -47.281   4.875  1.00  0.00    -0.314 N 
HETATM    9  C3  UNL     1      26.227 -46.222   3.944  1.00  0.00     0.146 A 
HETATM   10  C1  UNL     1      24.945 -48.485   4.726  1.00  0.00     0.196 A 
ATOM     11  H2  UNL     1      23.433 -47.233   5.287  1.00  0.00     0.170 HD
HETATM   12  N1  UNL     1      24.288 -49.683   5.129  1.00  0.00    -0.063 NA
HETATM   13  N5  UNL     1      26.190 -48.589   4.177  1.00  0.00    -0.295 N 
HETATM   14  C10 UNL     1      26.805 -47.463   3.799  1.00  0.00     0.278 A 
ATOM     15  H5  UNL     1      26.639 -49.497   4.060  1.00  0.00     0.171 HD
HETATM   16  O8  UNL     1      27.951 -47.546   3.294  1.00  0.00    -0.265 OA
HETATM   17  N3  UNL     1      26.596 -44.951   3.661  1.00  0.00    -0.345 N 
HETATM   18  C4  UNL     1      25.595 -44.121   4.032  1.00  0.00     0.188 A 
ATOM     19  H3  UNL     1      27.481 -44.667   3.239  1.00  0.00     0.167 HD
ENDBRANCH   1   6
BRANCH   5  20
HETATM   20  O4  UNL     1      24.200 -45.002   7.230  1.00  0.00    -0.270 OA
BRANCH  20  21
HETATM   21  P1  UNL     1      23.674 -45.796   8.426  1.00  0.00     0.422 P 
HETATM   22  O5  UNL     1      23.075 -46.966   7.394  1.00  0.00    -0.617 OA
HETATM   23  O6  UNL     1      22.701 -44.532   8.850  1.00  0.00    -0.617 OA
HETATM   24  O7  UNL     1      25.140 -45.934   9.099  1.00  0.00    -0.617 OA
ENDBRANCH  20  21
ENDBRANCH   5  20
BRANCH   3  25
HETATM   25  C7  UNL     1      23.118 -40.808   5.102  1.00  0.00     0.198 C 
BRANCH  25  26
HETATM   26  O2  UNL     1      24.492 -40.570   5.169  1.00  0.00    -0.398 OA
ATOM     27  H2  UNL     1      24.771 -40.254   4.318  1.00  0.00     0.209 HD
ENDBRANCH  25  26
ENDBRANCH   3  25
BRANCH   4  28
HETATM   28  O3  UNL     1      23.685 -42.102   7.794  1.00  0.00    -0.390 OA
ATOM     29  H3  UNL     1      24.185 -41.301   7.899  1.00  0.00     0.210 HD
ENDBRANCH   4  28
TORSDOF 6
ENDMDL
