MODEL 2
REMARK VINA RESULT: -6.591763716      1.662      2.077
REMARK  5 active torsions:
REMARK  status: ('A' for Active; 'I' for Inactive)
REMARK    1  A    between atoms: C1_2  and  C2_4 
REMARK    2  A    between atoms: C2_4  and  C3_5 
REMARK    3  A    between atoms: C3_5  and  C4_6 
REMARK    4  A    between atoms: C4_6  and  C5_7 
REMARK    5  A    between atoms: C5_7  and  C6_8 
ROOT
HETATM    1  C6  UNL     1      28.966  14.204  12.660  1.00  0.00     0.072 C 
HETATM    2  S1  UNL     1      28.961  12.446  13.194  1.00  0.00    -0.160 SA
HETATM    3  C7  UNL     1      27.653  11.843  12.057  1.00  0.00     0.101 C 
HETATM    4  C8  UNL     1      27.122  13.117  11.503  1.00  0.00     0.119 C 
HETATM    5  N1  UNL     1      26.794  12.865  10.092  1.00  0.00    -0.336 N 
ATOM      6  H1  UNL     1      25.874  12.697   9.685  1.00  0.00     0.164 HD
HETATM    7  C9  UNL     1      28.047  12.911   9.422  1.00  0.00     0.316 C 
HETATM    8  O3  UNL     1      28.242  12.452   8.260  1.00  0.00    -0.247 OA
HETATM    9  N2  UNL     1      29.009  13.551  10.284  1.00  0.00    -0.335 N 
ATOM     10  H2  UNL     1      30.020  13.601  10.154  1.00  0.00     0.164 HD
HETATM   11  C10 UNL     1      28.244  14.098  11.361  1.00  0.00     0.123 C 
ENDROOT
BRANCH   1  12
HETATM   12  C5  UNL     1      30.353  14.727  12.554  1.00  0.00     0.017 C 
BRANCH  12  13
HETATM   13  C4  UNL     1      30.438  16.021  13.324  1.00  0.00     0.002 C 
BRANCH  13  14
HETATM   14  C3  UNL     1      31.209  15.890  14.604  1.00  0.00     0.010 C 
BRANCH  14  15
HETATM   15  C2  UNL     1      31.757  17.215  15.068  1.00  0.00     0.113 C 
BRANCH  15  16
HETATM   16  C1  UNL     1      32.494  17.924  14.008  1.00  0.00     0.172 C 
HETATM   17  O1  UNL     1      33.499  17.426  13.460  1.00  0.00    -0.648 OA
HETATM   18  O2  UNL     1      32.070  19.166  13.604  1.00  0.00    -0.648 OA
ENDBRANCH  15  16
ENDBRANCH  14  15
ENDBRANCH  13  14
ENDBRANCH  12  13
ENDBRANCH   1  12
TORSDOF 5
ENDMDL
