MODEL 6
REMARK VINA RESULT: -5.981283309      5.033      8.193
REMARK  5 active torsions:
REMARK  status: ('A' for Active; 'I' for Inactive)
REMARK    1  A    between atoms: C1_2  and  C2_4 
REMARK    2  A    between atoms: C2_4  and  C3_5 
REMARK    3  A    between atoms: C3_5  and  C4_6 
REMARK    4  A    between atoms: C4_6  and  C5_7 
REMARK    5  A    between atoms: C5_7  and  C6_8 
ROOT
HETATM    1  C6  UNL     1      33.061  18.785  12.859  1.00  0.00     0.072 C 
HETATM    2  S1  UNL     1      34.558  17.876  12.307  1.00  0.00    -0.160 SA
HETATM    3  C7  UNL     1      35.456  19.297  11.569  1.00  0.00     0.101 C 
HETATM    4  C8  UNL     1      34.409  20.354  11.577  1.00  0.00     0.119 C 
HETATM    5  N1  UNL     1      35.085  21.623  11.883  1.00  0.00    -0.336 N 
ATOM      6  H1  UNL     1      35.350  22.362  11.232  1.00  0.00     0.164 HD
HETATM    7  C9  UNL     1      35.287  21.588  13.290  1.00  0.00     0.316 C 
HETATM    8  O3  UNL     1      36.095  22.342  13.905  1.00  0.00    -0.247 OA
HETATM    9  N2  UNL     1      34.433  20.574  13.855  1.00  0.00    -0.335 N 
ATOM     10  H2  UNL     1      34.452  20.208  14.807  1.00  0.00     0.164 HD
HETATM   11  C10 UNL     1      33.552  20.190  12.795  1.00  0.00     0.123 C 
ENDROOT
BRANCH   1  12
HETATM   12  C5  UNL     1      32.634  18.343  14.213  1.00  0.00     0.017 C 
BRANCH  12  13
HETATM   13  C4  UNL     1      31.386  17.507  14.073  1.00  0.00     0.002 C 
BRANCH  13  14
HETATM   14  C3  UNL     1      31.676  16.042  13.934  1.00  0.00     0.010 C 
BRANCH  14  15
HETATM   15  C2  UNL     1      30.425  15.209  14.053  1.00  0.00     0.113 C 
BRANCH  15  16
HETATM   16  C1  UNL     1      29.809  14.924  12.747  1.00  0.00     0.172 C 
HETATM   17  O1  UNL     1      28.883  15.626  12.290  1.00  0.00    -0.648 OA
HETATM   18  O2  UNL     1      30.259  13.861  12.003  1.00  0.00    -0.648 OA
ENDBRANCH  15  16
ENDBRANCH  14  15
ENDBRANCH  13  14
ENDBRANCH  12  13
ENDBRANCH   1  12
TORSDOF 5
ENDMDL
