MODEL 4
REMARK VINA RESULT: -6.224856706      1.299      1.489
REMARK  5 active torsions:
REMARK  status: ('A' for Active; 'I' for Inactive)
REMARK    1  A    between atoms: C1_2  and  C2_4 
REMARK    2  A    between atoms: C2_4  and  C3_5 
REMARK    3  A    between atoms: C3_5  and  C4_6 
REMARK    4  A    between atoms: C4_6  and  C5_7 
REMARK    5  A    between atoms: C5_7  and  C6_8 
ROOT
HETATM    1  C6  UNL     1      29.050  14.467  11.126  1.00  0.00     0.072 C 
HETATM    2  S1  UNL     1      27.532  14.841  12.091  1.00  0.00    -0.160 SA
HETATM    3  C7  UNL     1      26.705  13.215  11.898  1.00  0.00     0.101 C 
HETATM    4  C8  UNL     1      27.560  12.560  10.872  1.00  0.00     0.119 C 
HETATM    5  N1  UNL     1      27.638  11.136  11.226  1.00  0.00    -0.336 N 
ATOM      6  H1  UNL     1      27.126  10.359  10.808  1.00  0.00     0.164 HD
HETATM    7  C9  UNL     1      28.590  11.083  12.281  1.00  0.00     0.316 C 
HETATM    8  O3  UNL     1      28.722  10.098  13.063  1.00  0.00    -0.247 OA
HETATM    9  N2  UNL     1      29.339  12.314  12.290  1.00  0.00    -0.335 N 
ATOM     10  H2  UNL     1      29.985  12.641  13.009  1.00  0.00     0.164 HD
HETATM   11  C10 UNL     1      28.983  12.980  11.075  1.00  0.00     0.123 C 
ENDROOT
BRANCH   1  12
HETATM   12  C5  UNL     1      30.260  15.008  11.800  1.00  0.00     0.017 C 
BRANCH  12  13
HETATM   13  C4  UNL     1      29.822  15.812  12.999  1.00  0.00     0.002 C 
BRANCH  13  14
HETATM   14  C3  UNL     1      30.921  16.016  13.999  1.00  0.00     0.010 C 
BRANCH  14  15
HETATM   15  C2  UNL     1      32.043  16.852  13.438  1.00  0.00     0.113 C 
BRANCH  15  16
HETATM   16  C1  UNL     1      32.114  18.188  14.054  1.00  0.00     0.172 C 
HETATM   17  O1  UNL     1      31.926  18.359  15.275  1.00  0.00    -0.648 OA
HETATM   18  O2  UNL     1      32.396  19.279  13.270  1.00  0.00    -0.648 OA
ENDBRANCH  15  16
ENDBRANCH  14  15
ENDBRANCH  13  14
ENDBRANCH  12  13
ENDBRANCH   1  12
TORSDOF 5
ENDMDL
