MODEL 5
REMARK VINA RESULT: -6.199394911      4.755      7.909
REMARK  5 active torsions:
REMARK  status: ('A' for Active; 'I' for Inactive)
REMARK    1  A    between atoms: C1_2  and  C2_4 
REMARK    2  A    between atoms: C2_4  and  C3_5 
REMARK    3  A    between atoms: C3_5  and  C4_6 
REMARK    4  A    between atoms: C4_6  and  C5_7 
REMARK    5  A    between atoms: C5_7  and  C6_8 
ROOT
HETATM    1  C6  UNL     1      32.620  18.523  13.209  1.00  0.00     0.072 C 
HETATM    2  S1  UNL     1      33.978  17.525  12.478  1.00  0.00    -0.160 SA
HETATM    3  C7  UNL     1      34.776  18.861  11.507  1.00  0.00     0.101 C 
HETATM    4  C8  UNL     1      33.774  19.955  11.617  1.00  0.00     0.119 C 
HETATM    5  N1  UNL     1      34.526  21.214  11.718  1.00  0.00    -0.336 N 
ATOM      6  H1  UNL     1      34.697  21.901  10.984  1.00  0.00     0.164 HD
HETATM    7  C9  UNL     1      34.961  21.261  13.072  1.00  0.00     0.316 C 
HETATM    8  O3  UNL     1      35.881  22.021  13.490  1.00  0.00    -0.247 OA
HETATM    9  N2  UNL     1      34.188  20.317  13.838  1.00  0.00    -0.335 N 
ATOM     10  H2  UNL     1      34.357  20.011  14.797  1.00  0.00     0.164 HD
HETATM   11  C10 UNL     1      33.131  19.901  12.968  1.00  0.00     0.123 C 
ENDROOT
BRANCH   1  12
HETATM   12  C5  UNL     1      32.416  18.182  14.642  1.00  0.00     0.017 C 
BRANCH  12  13
HETATM   13  C4  UNL     1      31.693  16.860  14.723  1.00  0.00     0.002 C 
BRANCH  13  14
HETATM   14  C3  UNL     1      30.654  16.696  13.654  1.00  0.00     0.010 C 
BRANCH  14  15
HETATM   15  C2  UNL     1      30.558  15.268  13.180  1.00  0.00     0.113 C 
BRANCH  15  16
HETATM   16  C1  UNL     1      29.482  15.073  12.193  1.00  0.00     0.172 C 
HETATM   17  O1  UNL     1      29.469  14.092  11.421  1.00  0.00    -0.648 OA
HETATM   18  O2  UNL     1      28.462  15.988  12.113  1.00  0.00    -0.648 OA
ENDBRANCH  15  16
ENDBRANCH  14  15
ENDBRANCH  13  14
ENDBRANCH  12  13
ENDBRANCH   1  12
TORSDOF 5
ENDMDL
