MODEL 7
REMARK VINA RESULT: -5.949743323      2.521      6.558
REMARK  5 active torsions:
REMARK  status: ('A' for Active; 'I' for Inactive)
REMARK    1  A    between atoms: C1_2  and  C2_4 
REMARK    2  A    between atoms: C2_4  and  C3_5 
REMARK    3  A    between atoms: C3_5  and  C4_6 
REMARK    4  A    between atoms: C4_6  and  C5_7 
REMARK    5  A    between atoms: C5_7  and  C6_8 
ROOT
HETATM    1  C6  UNL     1      29.723  15.172  12.068  1.00  0.00     0.072 C 
HETATM    2  S1  UNL     1      29.653  14.233  13.645  1.00  0.00    -0.160 SA
HETATM    3  C7  UNL     1      31.221  14.848  14.373  1.00  0.00     0.101 C 
HETATM    4  C8  UNL     1      31.832  15.560  13.219  1.00  0.00     0.119 C 
HETATM    5  N1  UNL     1      32.508  16.748  13.760  1.00  0.00    -0.336 N 
ATOM      6  H1  UNL     1      33.504  16.875  13.934  1.00  0.00     0.164 HD
HETATM    7  C9  UNL     1      31.459  17.682  13.987  1.00  0.00     0.316 C 
HETATM    8  O3  UNL     1      31.574  18.707  14.720  1.00  0.00    -0.247 OA
HETATM    9  N2  UNL     1      30.293  17.254  13.256  1.00  0.00    -0.335 N 
ATOM     10  H2  UNL     1      29.345  17.625  13.330  1.00  0.00     0.164 HD
HETATM   11  C10 UNL     1      30.749  16.199  12.405  1.00  0.00     0.123 C 
ENDROOT
BRANCH   1  12
HETATM   12  C5  UNL     1      28.390  15.725  11.714  1.00  0.00     0.017 C 
BRANCH  12  13
HETATM   13  C4  UNL     1      28.031  15.260  10.324  1.00  0.00     0.002 C 
BRANCH  13  14
HETATM   14  C3  UNL     1      26.924  14.248  10.314  1.00  0.00     0.010 C 
BRANCH  14  15
HETATM   15  C2  UNL     1      27.453  12.836  10.320  1.00  0.00     0.113 C 
BRANCH  15  16
HETATM   16  C1  UNL     1      27.117  12.112  11.557  1.00  0.00     0.172 C 
HETATM   17  O1  UNL     1      26.884  12.711  12.627  1.00  0.00    -0.648 OA
HETATM   18  O2  UNL     1      27.055  10.740  11.542  1.00  0.00    -0.648 OA
ENDBRANCH  15  16
ENDBRANCH  14  15
ENDBRANCH  13  14
ENDBRANCH  12  13
ENDBRANCH   1  12
TORSDOF 5
ENDMDL
