MODEL 1
REMARK VINA RESULT: -8.154199086      0.000      0.000
REMARK  5 active torsions:
REMARK  status: ('A' for Active; 'I' for Inactive)
REMARK    1  A    between atoms: C1_2  and  C2_4 
REMARK    2  A    between atoms: C2_4  and  C3_5 
REMARK    3  A    between atoms: C3_5  and  C4_6 
REMARK    4  A    between atoms: C4_6  and  C5_7 
REMARK    5  A    between atoms: C5_7  and  C6_8 
ROOT
HETATM    1  C6  UNL     1      29.547  14.736  11.690  1.00  0.00     0.072 C 
HETATM    2  S1  UNL     1      27.973  15.681  11.669  1.00  0.00    -0.160 SA
HETATM    3  C7  UNL     1      27.010  14.540  10.602  1.00  0.00     0.101 C 
HETATM    4  C8  UNL     1      28.067  13.612  10.120  1.00  0.00     0.119 C 
HETATM    5  N1  UNL     1      27.462  12.274  10.050  1.00  0.00    -0.336 N 
ATOM      6  H1  UNL     1      27.125  11.784   9.221  1.00  0.00     0.164 HD
HETATM    7  C9  UNL     1      27.451  11.817  11.396  1.00  0.00     0.316 C 
HETATM    8  O3  UNL     1      26.747  10.850  11.807  1.00  0.00    -0.247 OA
HETATM    9  N2  UNL     1      28.355  12.632  12.168  1.00  0.00    -0.335 N 
ATOM     10  H2  UNL     1      28.457  12.653  13.183  1.00  0.00     0.164 HD
HETATM   11  C10 UNL     1      29.077  13.408  11.207  1.00  0.00     0.123 C 
ENDROOT
BRANCH   1  12
HETATM   12  C5  UNL     1      30.144  14.721  13.052  1.00  0.00     0.017 C 
BRANCH  12  13
HETATM   13  C4  UNL     1      30.515  16.133  13.429  1.00  0.00     0.002 C 
BRANCH  13  14
HETATM   14  C3  UNL     1      31.443  16.200  14.606  1.00  0.00     0.010 C 
BRANCH  14  15
HETATM   15  C2  UNL     1      31.837  17.618  14.931  1.00  0.00     0.113 C 
BRANCH  15  16
HETATM   16  C1  UNL     1      32.646  18.237  13.868  1.00  0.00     0.172 C 
HETATM   17  O1  UNL     1      32.412  19.389  13.450  1.00  0.00    -0.648 OA
HETATM   18  O2  UNL     1      33.689  17.535  13.315  1.00  0.00    -0.648 OA
ENDBRANCH  15  16
ENDBRANCH  14  15
ENDBRANCH  13  14
ENDBRANCH  12  13
ENDBRANCH   1  12
TORSDOF 5
ENDMDL
