MODEL 3
REMARK VINA RESULT: -6.515816233      2.837      5.732
REMARK  5 active torsions:
REMARK  status: ('A' for Active; 'I' for Inactive)
REMARK    1  A    between atoms: N5_13  and  C6_14 
REMARK    2  A    between atoms: C7_16  and  C8_17 
REMARK    3  A    between atoms: C8_17  and  O2_18 
REMARK    4  A    between atoms: C9_20  and  O3_21 
REMARK    5  A    between atoms: C10_23  and  O4_24 
ROOT
HETATM    1  N1  UNL     1       0.060   8.835  16.811  1.00  0.00    -0.080 NA
HETATM    2  C1  UNL     1       0.314   9.182  15.465  1.00  0.00     0.148 A 
HETATM    3  N2  UNL     1      -0.648   9.704  14.662  1.00  0.00    -0.339 N 
ATOM      4  H2  UNL     1      -1.590   9.857  15.024  1.00  0.00     0.167 HD
HETATM    5  C2  UNL     1      -0.356  10.019  13.389  1.00  0.00     0.183 A 
HETATM    6  N3  UNL     1       0.889   9.813  12.921  1.00  0.00    -0.336 N 
ATOM      7  H3  UNL     1       1.097  10.057  11.953  1.00  0.00     0.168 HD
HETATM    8  C3  UNL     1       1.883   9.291  13.697  1.00  0.00     0.142 A 
HETATM    9  C4  UNL     1       1.591   8.971  14.989  1.00  0.00     0.119 A 
HETATM   10  N4  UNL     1       2.727   8.481  15.532  1.00  0.00    -0.346 N 
ATOM     11  H4  UNL     1       2.834   8.151  16.490  1.00  0.00     0.167 HD
HETATM   12  C5  UNL     1       3.697   8.501  14.594  1.00  0.00     0.188 A 
HETATM   13  N5  UNL     1       3.172   9.000  13.466  1.00  0.00    -0.297 N 
ENDROOT
BRANCH  13  14
HETATM   14  C6  UNL     1       3.827   9.206  12.213  1.00  0.00     0.262 C 
HETATM   15  O1  UNL     1       3.495  10.455  11.700  1.00  0.00    -0.353 OA
HETATM   16  C7  UNL     1       3.759  10.453  10.357  1.00  0.00     0.179 C 
HETATM   17  C9  UNL     1       3.909   9.022   9.905  1.00  0.00     0.182 C 
HETATM   18  C10 UNL     1       3.352   8.281  11.128  1.00  0.00     0.198 C 
BRANCH  16  19
HETATM   19  C8  UNL     1       2.633  11.072   9.548  1.00  0.00     0.198 C 
BRANCH  19  20
HETATM   20  O2  UNL     1       1.460  11.191  10.255  1.00  0.00    -0.398 OA
ATOM     21  H2  UNL     1       0.786  11.667   9.785  1.00  0.00     0.209 HD
ENDBRANCH  19  20
ENDBRANCH  16  19
BRANCH  17  22
HETATM   22  O3  UNL     1       5.274   8.720   9.826  1.00  0.00    -0.390 OA
ATOM     23  H3  UNL     1       5.628   9.122   9.042  1.00  0.00     0.210 HD
ENDBRANCH  17  22
BRANCH  18  24
HETATM   24  O4  UNL     1       3.899   7.009  11.236  1.00  0.00    -0.388 OA
ATOM     25  H4  UNL     1       4.822   6.991  11.016  1.00  0.00     0.210 HD
ENDBRANCH  18  24
ENDBRANCH  13  14
TORSDOF 5
ENDMDL
