MODEL 2
REMARK VINA RESULT: -6.518985651      1.076      2.312
REMARK  5 active torsions:
REMARK  status: ('A' for Active; 'I' for Inactive)
REMARK    1  A    between atoms: N5_13  and  C6_14 
REMARK    2  A    between atoms: C7_16  and  C8_17 
REMARK    3  A    between atoms: C8_17  and  O2_18 
REMARK    4  A    between atoms: C9_20  and  O3_21 
REMARK    5  A    between atoms: C10_23  and  O4_24 
ROOT
HETATM    1  N1  UNL     1       4.393  10.432   8.439  1.00  0.00    -0.080 NA
HETATM    2  C1  UNL     1       4.028   9.659   9.564  1.00  0.00     0.148 A 
HETATM    3  N2  UNL     1       4.669   8.506   9.885  1.00  0.00    -0.339 N 
ATOM      4  H2  UNL     1       5.441   8.171   9.307  1.00  0.00     0.167 HD
HETATM    5  C2  UNL     1       4.284   7.806  10.966  1.00  0.00     0.183 A 
HETATM    6  N3  UNL     1       3.266   8.256  11.721  1.00  0.00    -0.336 N 
ATOM      7  H3  UNL     1       2.984   7.716  12.539  1.00  0.00     0.168 HD
HETATM    8  C3  UNL     1       2.597   9.410  11.432  1.00  0.00     0.142 A 
HETATM    9  C4  UNL     1       2.984  10.122  10.336  1.00  0.00     0.119 A 
HETATM   10  N4  UNL     1       2.176  11.203  10.273  1.00  0.00    -0.346 N 
ATOM     11  H4  UNL     1       2.213  11.932   9.561  1.00  0.00     0.167 HD
HETATM   12  C5  UNL     1       1.311  11.157  11.307  1.00  0.00     0.188 A 
HETATM   13  N5  UNL     1       1.574  10.051  12.017  1.00  0.00    -0.297 N 
ENDROOT
BRANCH  13  14
HETATM   14  C6  UNL     1       0.912   9.591  13.198  1.00  0.00     0.262 C 
HETATM   15  O1  UNL     1      -0.425   9.972  13.176  1.00  0.00    -0.353 OA
HETATM   16  C7  UNL     1      -0.909   9.918  14.455  1.00  0.00     0.179 C 
HETATM   17  C9  UNL     1       0.262   9.867  15.404  1.00  0.00     0.182 C 
HETATM   18  C10 UNL     1       1.408  10.246  14.457  1.00  0.00     0.198 C 
BRANCH  16  19
HETATM   19  C8  UNL     1      -1.734  11.141  14.811  1.00  0.00     0.198 C 
BRANCH  19  20
HETATM   20  O2  UNL     1      -1.687  12.124  13.851  1.00  0.00    -0.398 OA
ATOM     21  H2  UNL     1      -1.681  13.002  14.215  1.00  0.00     0.209 HD
ENDBRANCH  19  20
ENDBRANCH  16  19
BRANCH  17  22
HETATM   22  O3  UNL     1       0.467   8.537  15.790  1.00  0.00    -0.390 OA
ATOM     23  H3  UNL     1       0.461   8.493  16.739  1.00  0.00     0.210 HD
ENDBRANCH  17  22
BRANCH  18  24
HETATM   24  O4  UNL     1       2.615   9.715  14.892  1.00  0.00    -0.388 OA
ATOM     25  H4  UNL     1       2.754   9.843  15.823  1.00  0.00     0.210 HD
ENDBRANCH  18  24
ENDBRANCH  13  14
TORSDOF 5
ENDMDL
