MODEL 1
REMARK VINA RESULT: -6.723815251      0.000      0.000
REMARK  5 active torsions:
REMARK  status: ('A' for Active; 'I' for Inactive)
REMARK    1  A    between atoms: N5_13  and  C6_14 
REMARK    2  A    between atoms: C7_16  and  C8_17 
REMARK    3  A    between atoms: C8_17  and  O2_18 
REMARK    4  A    between atoms: C9_20  and  O3_21 
REMARK    5  A    between atoms: C10_23  and  O4_24 
ROOT
HETATM    1  N1  UNL     1       4.444   9.704   8.648  1.00  0.00    -0.080 NA
HETATM    2  C1  UNL     1       3.988   9.317   9.928  1.00  0.00     0.148 A 
HETATM    3  N2  UNL     1       4.508   8.249  10.585  1.00  0.00    -0.339 N 
ATOM      4  H2  UNL     1       5.253   7.697  10.158  1.00  0.00     0.167 HD
HETATM    5  C2  UNL     1       4.040   7.921  11.801  1.00  0.00     0.183 A 
HETATM    6  N3  UNL     1       3.058   8.655  12.356  1.00  0.00    -0.336 N 
ATOM      7  H3  UNL     1       2.712   8.395  13.280  1.00  0.00     0.168 HD
HETATM    8  C3  UNL     1       2.510   9.735  11.727  1.00  0.00     0.142 A 
HETATM    9  C4  UNL     1       2.982  10.071  10.494  1.00  0.00     0.119 A 
HETATM   10  N4  UNL     1       2.284  11.157  10.096  1.00  0.00    -0.346 N 
ATOM     11  H4  UNL     1       2.404  11.649   9.211  1.00  0.00     0.167 HD
HETATM   12  C5  UNL     1       1.403  11.482  11.064  1.00  0.00     0.188 A 
HETATM   13  N5  UNL     1       1.545  10.603  12.066  1.00  0.00    -0.297 N 
ENDROOT
BRANCH  13  14
HETATM   14  C6  UNL     1       0.823  10.557  13.298  1.00  0.00     0.262 C 
HETATM   15  O1  UNL     1       1.684  10.252  14.347  1.00  0.00    -0.353 OA
HETATM   16  C7  UNL     1       0.937   9.791  15.397  1.00  0.00     0.179 C 
HETATM   17  C9  UNL     1      -0.430   9.420  14.881  1.00  0.00     0.182 C 
HETATM   18  C10 UNL     1      -0.173   9.433  13.368  1.00  0.00     0.198 C 
BRANCH  16  19
HETATM   19  C8  UNL     1       1.540   8.550  16.031  1.00  0.00     0.198 C 
BRANCH  19  20
HETATM   20  O2  UNL     1       1.810   7.554  15.122  1.00  0.00    -0.398 OA
ATOM     21  H2  UNL     1       2.714   7.550  14.830  1.00  0.00     0.209 HD
ENDBRANCH  19  20
ENDBRANCH  16  19
BRANCH  17  22
HETATM   22  O3  UNL     1      -1.313  10.471  15.159  1.00  0.00    -0.390 OA
ATOM     23  H3  UNL     1      -2.173  10.238  14.832  1.00  0.00     0.210 HD
ENDBRANCH  17  22
BRANCH  18  24
HETATM   24  O4  UNL     1      -1.337   9.709  12.664  1.00  0.00    -0.388 OA
ATOM     25  H4  UNL     1      -1.565   9.018  12.053  1.00  0.00     0.210 HD
ENDBRANCH  18  24
ENDBRANCH  13  14
TORSDOF 5
ENDMDL
