MODEL 18
REMARK VINA RESULT: -6.115860249      4.254      6.706
REMARK  5 active torsions:
REMARK  status: ('A' for Active; 'I' for Inactive)
REMARK    1  A    between atoms: N5_13  and  C6_14 
REMARK    2  A    between atoms: C7_16  and  C8_17 
REMARK    3  A    between atoms: C8_17  and  O2_18 
REMARK    4  A    between atoms: C9_20  and  O3_21 
REMARK    5  A    between atoms: C10_23  and  O4_24 
ROOT
HETATM    1  N1  UNL     1      -2.899  12.501  19.540  1.00  0.00    -0.080 NA
HETATM    2  C1  UNL     1      -2.539  11.318  18.857  1.00  0.00     0.148 A 
HETATM    3  N2  UNL     1      -2.699  10.089  19.411  1.00  0.00    -0.339 N 
ATOM      4  H2  UNL     1      -3.090   9.997  20.349  1.00  0.00     0.167 HD
HETATM    5  C2  UNL     1      -2.340   8.994  18.720  1.00  0.00     0.183 A 
HETATM    6  N3  UNL     1      -1.825   9.125  17.484  1.00  0.00    -0.336 N 
ATOM      7  H3  UNL     1      -1.557   8.286  16.971  1.00  0.00     0.168 HD
HETATM    8  C3  UNL     1      -1.649  10.343  16.893  1.00  0.00     0.142 A 
HETATM    9  C4  UNL     1      -2.011  11.456  17.591  1.00  0.00     0.119 A 
HETATM   10  N4  UNL     1      -1.738  12.514  16.796  1.00  0.00    -0.346 N 
ATOM     11  H4  UNL     1      -1.897  13.493  17.034  1.00  0.00     0.167 HD
HETATM   12  C5  UNL     1      -1.221  12.062  15.636  1.00  0.00     0.188 A 
HETATM   13  N5  UNL     1      -1.167  10.724  15.701  1.00  0.00    -0.297 N 
ENDROOT
BRANCH  13  14
HETATM   14  C6  UNL     1      -0.691   9.818  14.703  1.00  0.00     0.262 C 
HETATM   15  O1  UNL     1       0.340   9.039  15.216  1.00  0.00    -0.353 OA
HETATM   16  C7  UNL     1       1.050   8.519  14.168  1.00  0.00     0.179 C 
HETATM   17  C9  UNL     1       0.699   9.297  12.925  1.00  0.00     0.182 C 
HETATM   18  C10 UNL     1      -0.024  10.502  13.542  1.00  0.00     0.198 C 
BRANCH  16  19
HETATM   19  C8  UNL     1       2.550   8.634  14.373  1.00  0.00     0.198 C 
BRANCH  19  20
HETATM   20  O2  UNL     1       3.250   7.568  13.861  1.00  0.00    -0.398 OA
ATOM     21  H2  UNL     1       3.311   6.837  14.465  1.00  0.00     0.209 HD
ENDBRANCH  19  20
ENDBRANCH  16  19
BRANCH  17  22
HETATM   22  O3  UNL     1      -0.251   8.572  12.196  1.00  0.00    -0.390 OA
ATOM     23  H3  UNL     1      -0.544   7.840  12.726  1.00  0.00     0.210 HD
ENDBRANCH  17  22
BRANCH  18  24
HETATM   24  O4  UNL     1      -0.938  11.048  12.650  1.00  0.00    -0.388 OA
ATOM     25  H4  UNL     1      -1.804  11.143  13.030  1.00  0.00     0.210 HD
ENDBRANCH  18  24
ENDBRANCH  13  14
TORSDOF 5
ENDMDL
