MODEL 2
REMARK VINA RESULT: -8.967268288      7.868     10.838
REMARK  9 active torsions:
REMARK  status: ('A' for Active; 'I' for Inactive)
REMARK    1  A    between atoms: N1_2  and  C2_3 
REMARK    2  A    between atoms: N1_2  and  C9_20 
REMARK    3  A    between atoms: C2_3  and  C3_4 
REMARK    4  A    between atoms: C12_23  and  C13_24 
REMARK       I    between atoms: C13_24  and  N8_26 
REMARK    5  A    between atoms: N8_26  and  C14_28 
REMARK    6  A    between atoms: C14_28  and  C15_29 
REMARK    7  A    between atoms: C14_28  and  C18_34 
REMARK    8  A    between atoms: C15_29  and  C16_30 
REMARK    9  A    between atoms: C16_30  and  C17_31 
ROOT
HETATM    1  C9  UNL     1      22.309  65.482  46.739  1.00  0.00     0.030 A 
HETATM    2  C10 UNL     1      22.370  66.108  47.962  1.00  0.00     0.030 A 
HETATM    3  C11 UNL     1      23.408  65.841  48.846  1.00  0.00     0.019 A 
HETATM    4  C12 UNL     1      24.418  64.954  48.559  1.00  0.00     0.032 A 
HETATM    5  C19 UNL     1      24.352  64.331  47.331  1.00  0.00     0.019 A 
HETATM    6  C20 UNL     1      23.336  64.572  46.432  1.00  0.00     0.030 A 
ENDROOT
BRANCH   1   7
HETATM    7  N1  UNL     1      21.269  65.721  45.810  1.00  0.00    -0.380 N 
HETATM    8  C1  UNL     1      21.075  64.730  44.743  1.00  0.00     0.150 C 
BRANCH   7   9
HETATM    9  C2  UNL     1      20.388  66.835  45.808  1.00  0.00     0.181 C 
BRANCH   9  10
HETATM   10  C3  UNL     1      19.068  66.555  46.449  1.00  0.00     0.043 A 
HETATM   11  C4  UNL     1      18.888  66.848  47.785  1.00  0.00     0.116 A 
HETATM   12  N2  UNL     1      17.700  66.609  48.400  1.00  0.00    -0.348 N 
HETATM   13  C5  UNL     1      16.662  66.080  47.729  1.00  0.00     0.138 A 
ATOM     14  H2  UNL     1      17.594  66.836  49.389  1.00  0.00     0.167 HD
HETATM   15  N3  UNL     1      15.463  65.829  48.317  1.00  0.00    -0.315 N 
HETATM   16  C8  UNL     1      16.832  65.786  46.401  1.00  0.00     0.119 A 
HETATM   17  C6  UNL     1      14.424  65.299  47.646  1.00  0.00     0.195 A 
ATOM     18  H3  UNL     1      15.346  66.052  49.305  1.00  0.00     0.170 HD
HETATM   19  N4  UNL     1      13.185  65.057  48.318  1.00  0.00    -0.063 NA
HETATM   20  N5  UNL     1      14.602  65.017  46.350  1.00  0.00    -0.317 N 
HETATM   21  C7  UNL     1      15.767  65.243  45.713  1.00  0.00     0.149 A 
ATOM     22  H5  UNL     1      13.825  64.614  45.825  1.00  0.00     0.169 HD
HETATM   23  N6  UNL     1      15.960  64.949  44.338  1.00  0.00    -0.080 NA
HETATM   24  N7  UNL     1      18.021  66.027  45.792  1.00  0.00    -0.351 N 
ATOM     25  H7  UNL     1      18.123  65.801  44.804  1.00  0.00     0.166 HD
ENDBRANCH   9  10
ENDBRANCH   7   9
ENDBRANCH   1   7
BRANCH   4  26
HETATM   26  C13 UNL     1      25.522  64.682  49.468  1.00  0.00     0.252 C 
HETATM   27  O1  UNL     1      25.466  63.713  50.302  1.00  0.00    -0.268 OA
HETATM   28  N8  UNL     1      26.719  65.436  49.513  1.00  0.00    -0.342 N 
ATOM     29  H8  UNL     1      26.821  66.216  48.864  1.00  0.00     0.163 HD
BRANCH  28  30
HETATM   30  C14 UNL     1      27.801  65.164  50.424  1.00  0.00     0.186 C 
BRANCH  30  31
HETATM   31  C15 UNL     1      28.985  64.503  49.789  1.00  0.00     0.046 C 
BRANCH  31  32
HETATM   32  C16 UNL     1      28.774  63.970  48.416  1.00  0.00     0.116 C 
BRANCH  32  33
HETATM   33  C17 UNL     1      28.389  62.540  48.401  1.00  0.00     0.172 C 
HETATM   34  O2  UNL     1      27.824  62.042  47.395  1.00  0.00    -0.648 OA
HETATM   35  O3  UNL     1      28.622  61.667  49.475  1.00  0.00    -0.648 OA
ENDBRANCH  32  33
ENDBRANCH  31  32
ENDBRANCH  30  31
BRANCH  30  36
HETATM   36  C18 UNL     1      28.170  66.336  51.239  1.00  0.00     0.196 C 
HETATM   37  O4  UNL     1      27.821  67.516  50.944  1.00  0.00    -0.646 OA
HETATM   38  O5  UNL     1      28.932  66.195  52.389  1.00  0.00    -0.646 OA
ENDBRANCH  30  36
ENDBRANCH  28  30
ENDBRANCH   4  26
TORSDOF 9
ENDMDL
