MODEL 3
REMARK VINA RESULT: -8.948617932      6.246      9.536
REMARK  9 active torsions:
REMARK  status: ('A' for Active; 'I' for Inactive)
REMARK    1  A    between atoms: N1_2  and  C2_3 
REMARK    2  A    between atoms: N1_2  and  C9_20 
REMARK    3  A    between atoms: C2_3  and  C3_4 
REMARK    4  A    between atoms: C12_23  and  C13_24 
REMARK       I    between atoms: C13_24  and  N8_26 
REMARK    5  A    between atoms: N8_26  and  C14_28 
REMARK    6  A    between atoms: C14_28  and  C15_29 
REMARK    7  A    between atoms: C14_28  and  C18_34 
REMARK    8  A    between atoms: C15_29  and  C16_30 
REMARK    9  A    between atoms: C16_30  and  C17_31 
ROOT
HETATM    1  C9  UNL     1      23.603  64.851  43.467  1.00  0.00     0.030 A 
HETATM    2  C10 UNL     1      23.567  66.185  43.801  1.00  0.00     0.030 A 
HETATM    3  C11 UNL     1      22.490  66.713  44.501  1.00  0.00     0.019 A 
HETATM    4  C12 UNL     1      21.416  65.951  44.896  1.00  0.00     0.032 A 
HETATM    5  C19 UNL     1      21.458  64.616  44.559  1.00  0.00     0.019 A 
HETATM    6  C20 UNL     1      22.511  64.060  43.865  1.00  0.00     0.030 A 
ENDROOT
BRANCH   1   7
HETATM    7  N1  UNL     1      24.679  64.272  42.753  1.00  0.00    -0.380 N 
HETATM    8  C1  UNL     1      24.348  63.276  41.724  1.00  0.00     0.150 C 
BRANCH   7   9
HETATM    9  C2  UNL     1      26.056  64.560  42.936  1.00  0.00     0.181 C 
BRANCH   9  10
HETATM   10  C3  UNL     1      26.642  63.933  44.159  1.00  0.00     0.043 A 
HETATM   11  C4  UNL     1      27.210  62.679  44.072  1.00  0.00     0.116 A 
HETATM   12  N2  UNL     1      27.754  62.079  45.163  1.00  0.00    -0.348 N 
HETATM   13  C5  UNL     1      27.756  62.686  46.363  1.00  0.00     0.138 A 
ATOM     14  H2  UNL     1      28.168  61.152  45.070  1.00  0.00     0.167 HD
HETATM   15  N3  UNL     1      28.291  62.112  47.472  1.00  0.00    -0.315 N 
HETATM   16  C8  UNL     1      27.194  63.933  46.459  1.00  0.00     0.119 A 
HETATM   17  C6  UNL     1      28.293  62.719  48.673  1.00  0.00     0.195 A 
ATOM     18  H3  UNL     1      28.708  61.185  47.391  1.00  0.00     0.170 HD
HETATM   19  N4  UNL     1      28.870  62.064  49.806  1.00  0.00    -0.063 NA
HETATM   20  N5  UNL     1      27.741  63.935  48.754  1.00  0.00    -0.317 N 
HETATM   21  C7  UNL     1      27.196  64.555  47.690  1.00  0.00     0.149 A 
ATOM     22  H5  UNL     1      27.733  64.411  49.657  1.00  0.00     0.169 HD
HETATM   23  N6  UNL     1      26.613  65.846  47.769  1.00  0.00    -0.080 NA
HETATM   24  N7  UNL     1      26.652  64.526  45.364  1.00  0.00    -0.351 N 
ATOM     25  H7  UNL     1      26.240  65.454  45.460  1.00  0.00     0.166 HD
ENDBRANCH   9  10
ENDBRANCH   7   9
ENDBRANCH   1   7
BRANCH   4  26
HETATM   26  C13 UNL     1      20.290  66.490  45.647  1.00  0.00     0.252 C 
HETATM   27  O1  UNL     1      20.148  67.751  45.810  1.00  0.00    -0.268 OA
HETATM   28  N8  UNL     1      19.283  65.696  46.246  1.00  0.00    -0.342 N 
ATOM     29  H8  UNL     1      19.342  64.683  46.140  1.00  0.00     0.163 HD
BRANCH  28  30
HETATM   30  C14 UNL     1      18.179  66.238  46.995  1.00  0.00     0.186 C 
BRANCH  30  31
HETATM   31  C15 UNL     1      16.878  65.530  46.769  1.00  0.00     0.046 C 
BRANCH  31  32
HETATM   32  C16 UNL     1      15.761  65.921  47.671  1.00  0.00     0.116 C 
BRANCH  32  33
HETATM   33  C17 UNL     1      14.490  65.228  47.355  1.00  0.00     0.172 C 
HETATM   34  O2  UNL     1      14.315  64.698  46.230  1.00  0.00    -0.648 OA
HETATM   35  O3  UNL     1      13.425  65.118  48.264  1.00  0.00    -0.648 OA
ENDBRANCH  32  33
ENDBRANCH  31  32
ENDBRANCH  30  31
BRANCH  30  36
HETATM   36  C18 UNL     1      18.491  66.415  48.425  1.00  0.00     0.196 C 
HETATM   37  O4  UNL     1      18.913  65.474  49.159  1.00  0.00    -0.646 OA
HETATM   38  O5  UNL     1      18.336  67.647  49.044  1.00  0.00    -0.646 OA
ENDBRANCH  30  36
ENDBRANCH  28  30
ENDBRANCH   4  26
TORSDOF 9
ENDMDL
