MODEL 4
REMARK VINA RESULT: -8.842430430      7.185     10.254
REMARK  9 active torsions:
REMARK  status: ('A' for Active; 'I' for Inactive)
REMARK    1  A    between atoms: N1_2  and  C2_3 
REMARK    2  A    between atoms: N1_2  and  C9_20 
REMARK    3  A    between atoms: C2_3  and  C3_4 
REMARK    4  A    between atoms: C12_23  and  C13_24 
REMARK       I    between atoms: C13_24  and  N8_26 
REMARK    5  A    between atoms: N8_26  and  C14_28 
REMARK    6  A    between atoms: C14_28  and  C15_29 
REMARK    7  A    between atoms: C14_28  and  C18_34 
REMARK    8  A    between atoms: C15_29  and  C16_30 
REMARK    9  A    between atoms: C16_30  and  C17_31 
ROOT
HETATM    1  C9  UNL     1      25.217  64.677  46.640  1.00  0.00     0.030 A 
HETATM    2  C10 UNL     1      24.091  63.934  46.905  1.00  0.00     0.030 A 
HETATM    3  C11 UNL     1      22.850  64.546  47.035  1.00  0.00     0.019 A 
HETATM    4  C12 UNL     1      22.675  65.903  46.907  1.00  0.00     0.032 A 
HETATM    5  C19 UNL     1      23.807  66.642  46.641  1.00  0.00     0.019 A 
HETATM    6  C20 UNL     1      25.052  66.067  46.506  1.00  0.00     0.030 A 
ENDROOT
BRANCH   1   7
HETATM    7  N1  UNL     1      26.500  64.096  46.503  1.00  0.00    -0.380 N 
HETATM    8  C1  UNL     1      26.584  62.796  45.823  1.00  0.00     0.150 C 
BRANCH   7   9
HETATM    9  C2  UNL     1      27.723  64.649  46.964  1.00  0.00     0.181 C 
BRANCH   9  10
HETATM   10  C3  UNL     1      27.952  64.460  48.429  1.00  0.00     0.043 A 
HETATM   11  C4  UNL     1      28.160  63.189  48.923  1.00  0.00     0.116 A 
HETATM   12  N2  UNL     1      28.373  62.980  50.249  1.00  0.00    -0.348 N 
HETATM   13  C5  UNL     1      28.388  64.002  51.122  1.00  0.00     0.138 A 
ATOM     14  H2  UNL     1      28.524  62.030  50.588  1.00  0.00     0.167 HD
HETATM   15  N3  UNL     1      28.597  63.825  52.452  1.00  0.00    -0.315 N 
HETATM   16  C8  UNL     1      28.182  65.269  50.639  1.00  0.00     0.119 A 
HETATM   17  C6  UNL     1      28.612  64.847  53.327  1.00  0.00     0.195 A 
ATOM     18  H3  UNL     1      28.750  62.879  52.802  1.00  0.00     0.170 HD
HETATM   19  N4  UNL     1      28.837  64.599  54.717  1.00  0.00    -0.063 NA
HETATM   20  N5  UNL     1      28.410  66.079  52.844  1.00  0.00    -0.317 N 
HETATM   21  C7  UNL     1      28.198  66.317  51.535  1.00  0.00     0.149 A 
ATOM     22  H5  UNL     1      28.417  66.867  53.492  1.00  0.00     0.169 HD
HETATM   23  N6  UNL     1      27.987  67.622  51.017  1.00  0.00    -0.080 NA
HETATM   24  N7  UNL     1      27.970  65.471  49.314  1.00  0.00    -0.351 N 
ATOM     25  H7  UNL     1      27.820  66.422  48.978  1.00  0.00     0.166 HD
ENDBRANCH   9  10
ENDBRANCH   7   9
ENDBRANCH   1   7
BRANCH   4  26
HETATM   26  C13 UNL     1      21.377  66.553  47.021  1.00  0.00     0.252 C 
HETATM   27  O1  UNL     1      21.277  67.756  47.444  1.00  0.00    -0.268 OA
HETATM   28  N8  UNL     1      20.148  65.937  46.684  1.00  0.00    -0.342 N 
ATOM     29  H8  UNL     1      20.170  64.979  46.333  1.00  0.00     0.163 HD
BRANCH  28  30
HETATM   30  C14 UNL     1      18.869  66.585  46.810  1.00  0.00     0.186 C 
BRANCH  30  31
HETATM   31  C15 UNL     1      18.019  66.510  45.578  1.00  0.00     0.046 C 
BRANCH  31  32
HETATM   32  C16 UNL     1      17.793  65.146  45.027  1.00  0.00     0.116 C 
BRANCH  32  33
HETATM   33  C17 UNL     1      16.388  64.907  44.626  1.00  0.00     0.172 C 
HETATM   34  O2  UNL     1      15.460  64.995  45.468  1.00  0.00    -0.648 OA
HETATM   35  O3  UNL     1      16.005  64.576  43.316  1.00  0.00    -0.648 OA
ENDBRANCH  32  33
ENDBRANCH  31  32
ENDBRANCH  30  31
BRANCH  30  36
HETATM   36  C18 UNL     1      18.142  66.186  48.029  1.00  0.00     0.196 C 
HETATM   37  O4  UNL     1      16.919  66.446  48.217  1.00  0.00    -0.646 OA
HETATM   38  O5  UNL     1      18.780  65.490  49.045  1.00  0.00    -0.646 OA
ENDBRANCH  30  36
ENDBRANCH  28  30
ENDBRANCH   4  26
TORSDOF 9
ENDMDL
