MODEL 7
REMARK VINA RESULT: -8.741247302      0.750      1.626
REMARK  9 active torsions:
REMARK  status: ('A' for Active; 'I' for Inactive)
REMARK    1  A    between atoms: N1_2  and  C2_3 
REMARK    2  A    between atoms: N1_2  and  C9_20 
REMARK    3  A    between atoms: C2_3  and  C3_4 
REMARK    4  A    between atoms: C12_23  and  C13_24 
REMARK       I    between atoms: C13_24  and  N8_26 
REMARK    5  A    between atoms: N8_26  and  C14_28 
REMARK    6  A    between atoms: C14_28  and  C15_29 
REMARK    7  A    between atoms: C14_28  and  C18_34 
REMARK    8  A    between atoms: C15_29  and  C16_30 
REMARK    9  A    between atoms: C16_30  and  C17_31 
ROOT
HETATM    1  C9  UNL     1      21.133  68.244  43.777  1.00  0.00     0.030 A 
HETATM    2  C10 UNL     1      20.421  69.328  44.235  1.00  0.00     0.030 A 
HETATM    3  C11 UNL     1      19.828  70.216  43.345  1.00  0.00     0.019 A 
HETATM    4  C12 UNL     1      19.914  70.068  41.981  1.00  0.00     0.032 A 
HETATM    5  C19 UNL     1      20.627  68.979  41.529  1.00  0.00     0.019 A 
HETATM    6  C20 UNL     1      21.228  68.080  42.384  1.00  0.00     0.030 A 
ENDROOT
BRANCH   1   7
HETATM    7  N1  UNL     1      21.755  67.317  44.647  1.00  0.00    -0.380 N 
HETATM    8  C1  UNL     1      22.836  67.818  45.506  1.00  0.00     0.150 C 
BRANCH   7   9
HETATM    9  C2  UNL     1      21.435  65.940  44.769  1.00  0.00     0.181 C 
BRANCH   9  10
HETATM   10  C3  UNL     1      19.972  65.676  44.921  1.00  0.00     0.043 A 
HETATM   11  C4  UNL     1      19.264  65.155  43.859  1.00  0.00     0.116 A 
HETATM   12  N2  UNL     1      17.932  64.901  43.961  1.00  0.00    -0.348 N 
HETATM   13  C5  UNL     1      17.263  65.148  45.100  1.00  0.00     0.138 A 
ATOM     14  H2  UNL     1      17.433  64.515  43.160  1.00  0.00     0.167 HD
HETATM   15  N3  UNL     1      15.933  64.905  45.234  1.00  0.00    -0.315 N 
HETATM   16  C8  UNL     1      17.959  65.665  46.162  1.00  0.00     0.119 A 
HETATM   17  C6  UNL     1      15.261  65.153  46.373  1.00  0.00     0.195 A 
ATOM     18  H3  UNL     1      15.423  64.520  44.439  1.00  0.00     0.170 HD
HETATM   19  N4  UNL     1      13.860  64.877  46.454  1.00  0.00    -0.063 NA
HETATM   20  N5  UNL     1      15.951  65.658  47.402  1.00  0.00    -0.317 N 
HETATM   21  C7  UNL     1      17.271  65.919  47.330  1.00  0.00     0.149 A 
ATOM     22  H5  UNL     1      15.459  65.852  48.275  1.00  0.00     0.169 HD
HETATM   23  N6  UNL     1      18.009  66.451  48.420  1.00  0.00    -0.080 NA
HETATM   24  N7  UNL     1      19.288  65.917  46.052  1.00  0.00    -0.351 N 
ATOM     25  H7  UNL     1      19.785  66.301  46.856  1.00  0.00     0.166 HD
ENDBRANCH   9  10
ENDBRANCH   7   9
ENDBRANCH   1   7
BRANCH   4  26
HETATM   26  C13 UNL     1      19.280  70.980  41.040  1.00  0.00     0.252 C 
HETATM   27  O1  UNL     1      19.980  71.748  40.293  1.00  0.00    -0.268 OA
HETATM   28  N8  UNL     1      17.880  71.098  40.868  1.00  0.00    -0.342 N 
ATOM     29  H8  UNL     1      17.274  70.502  41.432  1.00  0.00     0.163 HD
BRANCH  28  30
HETATM   30  C14 UNL     1      17.263  72.011  39.941  1.00  0.00     0.186 C 
BRANCH  30  31
HETATM   31  C15 UNL     1      16.493  71.343  38.843  1.00  0.00     0.046 C 
BRANCH  31  32
HETATM   32  C16 UNL     1      15.272  70.604  39.262  1.00  0.00     0.116 C 
BRANCH  32  33
HETATM   33  C17 UNL     1      14.113  70.843  38.371  1.00  0.00     0.172 C 
HETATM   34  O2  UNL     1      14.003  71.926  37.744  1.00  0.00    -0.648 OA
HETATM   35  O3  UNL     1      13.089  69.904  38.169  1.00  0.00    -0.648 OA
ENDBRANCH  32  33
ENDBRANCH  31  32
ENDBRANCH  30  31
BRANCH  30  36
HETATM   36  C18 UNL     1      16.494  73.074  40.612  1.00  0.00     0.196 C 
HETATM   37  O4  UNL     1      16.138  73.005  41.824  1.00  0.00    -0.646 OA
HETATM   38  O5  UNL     1      16.118  74.223  39.931  1.00  0.00    -0.646 OA
ENDBRANCH  30  36
ENDBRANCH  28  30
ENDBRANCH   4  26
TORSDOF 9
ENDMDL
