MODEL 5
REMARK VINA RESULT: -8.690793739      3.158      6.296
REMARK  9 active torsions:
REMARK  status: ('A' for Active; 'I' for Inactive)
REMARK    1  A    between atoms: N1_2  and  C2_3 
REMARK    2  A    between atoms: N1_2  and  C9_20 
REMARK    3  A    between atoms: C2_3  and  C3_4 
REMARK    4  A    between atoms: C12_23  and  C13_24 
REMARK       I    between atoms: C13_24  and  N8_26 
REMARK    5  A    between atoms: N8_26  and  C14_28 
REMARK    6  A    between atoms: C14_28  and  C15_29 
REMARK    7  A    between atoms: C14_28  and  C18_34 
REMARK    8  A    between atoms: C15_29  and  C16_30 
REMARK    9  A    between atoms: C16_30  and  C17_31 
ROOT
HETATM    1  C9  UNL     1      19.182  66.811  46.610  1.00  0.00     0.030 A 
HETATM    2  C10 UNL     1      19.976  67.929  46.716  1.00  0.00     0.030 A 
HETATM    3  C11 UNL     1      20.056  68.846  45.675  1.00  0.00     0.019 A 
HETATM    4  C12 UNL     1      19.360  68.695  44.499  1.00  0.00     0.032 A 
HETATM    5  C19 UNL     1      18.566  67.573  44.399  1.00  0.00     0.019 A 
HETATM    6  C20 UNL     1      18.464  66.645  45.412  1.00  0.00     0.030 A 
ENDROOT
BRANCH   1   7
HETATM    7  N1  UNL     1      19.073  65.851  47.643  1.00  0.00    -0.380 N 
HETATM    8  C1  UNL     1      18.152  66.151  48.749  1.00  0.00     0.150 C 
BRANCH   7   9
HETATM    9  C2  UNL     1      19.773  64.619  47.719  1.00  0.00     0.181 C 
BRANCH   9  10
HETATM   10  C3  UNL     1      21.256  64.778  47.811  1.00  0.00     0.043 A 
HETATM   11  C4  UNL     1      21.815  65.262  48.974  1.00  0.00     0.116 A 
HETATM   12  N2  UNL     1      23.160  65.418  49.094  1.00  0.00    -0.348 N 
HETATM   13  C5  UNL     1      23.989  65.105  48.084  1.00  0.00     0.138 A 
ATOM     14  H2  UNL     1      23.546  65.778  49.967  1.00  0.00     0.167 HD
HETATM   15  N3  UNL     1      25.337  65.250  48.173  1.00  0.00    -0.315 N 
HETATM   16  C8  UNL     1      23.443  64.622  46.923  1.00  0.00     0.119 A 
HETATM   17  C6  UNL     1      26.169  64.937  47.162  1.00  0.00     0.195 A 
ATOM     18  H3  UNL     1      25.735  65.609  49.041  1.00  0.00     0.170 HD
HETATM   19  N4  UNL     1      27.580  65.112  47.314  1.00  0.00    -0.063 NA
HETATM   20  N5  UNL     1      25.623  64.467  46.034  1.00  0.00    -0.317 N 
HETATM   21  C7  UNL     1      24.295  64.301  45.887  1.00  0.00     0.149 A 
ATOM     22  H5  UNL     1      26.238  64.225  45.256  1.00  0.00     0.169 HD
HETATM   23  N6  UNL     1      23.711  63.799  44.694  1.00  0.00    -0.080 NA
HETATM   24  N7  UNL     1      22.099  64.469  46.810  1.00  0.00    -0.351 N 
ATOM     25  H7  UNL     1      21.716  64.108  45.937  1.00  0.00     0.166 HD
ENDBRANCH   9  10
ENDBRANCH   7   9
ENDBRANCH   1   7
BRANCH   4  26
HETATM   26  C13 UNL     1      19.421  69.659  43.409  1.00  0.00     0.252 C 
HETATM   27  O1  UNL     1      19.824  70.857  43.609  1.00  0.00    -0.268 OA
HETATM   28  N8  UNL     1      19.053  69.370  42.072  1.00  0.00    -0.342 N 
ATOM     29  H8  UNL     1      18.732  68.427  41.854  1.00  0.00     0.163 HD
BRANCH  28  30
HETATM   30  C14 UNL     1      19.108  70.334  41.004  1.00  0.00     0.186 C 
BRANCH  30  31
HETATM   31  C15 UNL     1      19.831  69.854  39.782  1.00  0.00     0.046 C 
BRANCH  31  32
HETATM   32  C16 UNL     1      21.276  70.200  39.705  1.00  0.00     0.116 C 
BRANCH  32  33
HETATM   33  C17 UNL     1      22.160  69.118  40.197  1.00  0.00     0.172 C 
HETATM   34  O2  UNL     1      23.041  68.625  39.450  1.00  0.00    -0.648 OA
HETATM   35  O3  UNL     1      22.078  68.585  41.493  1.00  0.00    -0.648 OA
ENDBRANCH  32  33
ENDBRANCH  31  32
ENDBRANCH  30  31
BRANCH  30  36
HETATM   36  C18 UNL     1      17.790  70.918  40.693  1.00  0.00     0.196 C 
HETATM   37  O4  UNL     1      16.699  70.377  41.037  1.00  0.00    -0.646 OA
HETATM   38  O5  UNL     1      17.685  72.114  39.998  1.00  0.00    -0.646 OA
ENDBRANCH  30  36
ENDBRANCH  28  30
ENDBRANCH   4  26
TORSDOF 9
ENDMDL
