MODEL 3
REMARK VINA RESULT: -8.861993079      5.753      8.467
REMARK  9 active torsions:
REMARK  status: ('A' for Active; 'I' for Inactive)
REMARK    1  A    between atoms: N1_2  and  C2_3 
REMARK    2  A    between atoms: N1_2  and  C9_20 
REMARK    3  A    between atoms: C2_3  and  C3_4 
REMARK    4  A    between atoms: C12_23  and  C13_24 
REMARK       I    between atoms: C13_24  and  N8_26 
REMARK    5  A    between atoms: N8_26  and  C14_28 
REMARK    6  A    between atoms: C14_28  and  C15_29 
REMARK    7  A    between atoms: C14_28  and  C18_34 
REMARK    8  A    between atoms: C15_29  and  C16_30 
REMARK    9  A    between atoms: C16_30  and  C17_31 
ROOT
HETATM    1  C9  UNL     1      22.647  64.029  46.789  1.00  0.00     0.030 A 
HETATM    2  C10 UNL     1      22.394  65.379  46.715  1.00  0.00     0.030 A 
HETATM    3  C11 UNL     1      21.102  65.851  46.515  1.00  0.00     0.019 A 
HETATM    4  C12 UNL     1      20.019  65.014  46.383  1.00  0.00     0.032 A 
HETATM    5  C19 UNL     1      20.279  63.663  46.459  1.00  0.00     0.019 A 
HETATM    6  C20 UNL     1      21.547  63.163  46.656  1.00  0.00     0.030 A 
ENDROOT
BRANCH   1   7
HETATM    7  N1  UNL     1      23.946  63.506  46.988  1.00  0.00    -0.380 N 
HETATM    8  C1  UNL     1      24.691  63.979  48.163  1.00  0.00     0.150 C 
BRANCH   7   9
HETATM    9  C2  UNL     1      24.605  62.563  46.157  1.00  0.00     0.181 C 
BRANCH   9  10
HETATM   10  C3  UNL     1      24.807  63.040  44.755  1.00  0.00     0.043 A 
HETATM   11  C4  UNL     1      26.083  63.309  44.307  1.00  0.00     0.116 A 
HETATM   12  N2  UNL     1      26.304  63.742  43.038  1.00  0.00    -0.348 N 
HETATM   13  C5  UNL     1      25.287  63.922  42.177  1.00  0.00     0.138 A 
ATOM     14  H2  UNL     1      27.258  63.933  42.733  1.00  0.00     0.167 HD
HETATM   15  N3  UNL     1      25.475  64.354  40.903  1.00  0.00    -0.315 N 
HETATM   16  C8  UNL     1      24.014  63.657  42.613  1.00  0.00     0.119 A 
HETATM   17  C6  UNL     1      24.458  64.535  40.041  1.00  0.00     0.195 A 
ATOM     18  H3  UNL     1      26.425  64.549  40.587  1.00  0.00     0.170 HD
HETATM   19  N4  UNL     1      24.718  64.993  38.711  1.00  0.00    -0.063 NA
HETATM   20  N5  UNL     1      23.221  64.273  40.478  1.00  0.00    -0.317 N 
HETATM   21  C7  UNL     1      22.972  63.842  41.730  1.00  0.00     0.149 A 
ATOM     22  H5  UNL     1      22.436  64.405  39.839  1.00  0.00     0.169 HD
HETATM   23  N6  UNL     1      21.662  63.558  42.198  1.00  0.00    -0.080 NA
HETATM   24  N7  UNL     1      23.801  63.224  43.882  1.00  0.00    -0.351 N 
ATOM     25  H7  UNL     1      22.846  63.033  44.184  1.00  0.00     0.166 HD
ENDBRANCH   9  10
ENDBRANCH   7   9
ENDBRANCH   1   7
BRANCH   4  26
HETATM   26  C13 UNL     1      18.659  65.497  46.193  1.00  0.00     0.252 C 
HETATM   27  O1  UNL     1      18.424  66.733  45.957  1.00  0.00    -0.268 OA
HETATM   28  N8  UNL     1      17.509  64.673  46.248  1.00  0.00    -0.342 N 
ATOM     29  H8  UNL     1      17.639  63.677  46.425  1.00  0.00     0.163 HD
BRANCH  28  30
HETATM   30  C14 UNL     1      16.166  65.163  46.069  1.00  0.00     0.186 C 
BRANCH  30  31
HETATM   31  C15 UNL     1      15.401  64.469  44.984  1.00  0.00     0.046 C 
BRANCH  31  32
HETATM   32  C16 UNL     1      16.129  64.266  43.702  1.00  0.00     0.116 C 
BRANCH  32  33
HETATM   33  C17 UNL     1      16.638  62.886  43.535  1.00  0.00     0.172 C 
HETATM   34  O2  UNL     1      15.892  61.981  43.084  1.00  0.00    -0.648 OA
HETATM   35  O3  UNL     1      17.950  62.503  43.857  1.00  0.00    -0.648 OA
ENDBRANCH  32  33
ENDBRANCH  31  32
ENDBRANCH  30  31
BRANCH  30  36
HETATM   36  C18 UNL     1      15.414  65.245  47.334  1.00  0.00     0.196 C 
HETATM   37  O4  UNL     1      15.855  65.843  48.359  1.00  0.00    -0.646 OA
HETATM   38  O5  UNL     1      14.163  64.661  47.461  1.00  0.00    -0.646 OA
ENDBRANCH  30  36
ENDBRANCH  28  30
ENDBRANCH   4  26
TORSDOF 9
ENDMDL
