MODEL 2
REMARK VINA RESULT: -9.050450708      0.608      1.593
REMARK  9 active torsions:
REMARK  status: ('A' for Active; 'I' for Inactive)
REMARK    1  A    between atoms: N1_2  and  C2_3 
REMARK    2  A    between atoms: N1_2  and  C9_20 
REMARK    3  A    between atoms: C2_3  and  C3_4 
REMARK    4  A    between atoms: C12_23  and  C13_24 
REMARK       I    between atoms: C13_24  and  N8_26 
REMARK    5  A    between atoms: N8_26  and  C14_28 
REMARK    6  A    between atoms: C14_28  and  C15_29 
REMARK    7  A    between atoms: C14_28  and  C18_34 
REMARK    8  A    between atoms: C15_29  and  C16_30 
REMARK    9  A    between atoms: C16_30  and  C17_31 
ROOT
HETATM    1  C9  UNL     1      20.751  67.756  43.728  1.00  0.00     0.030 A 
HETATM    2  C10 UNL     1      19.983  68.784  44.223  1.00  0.00     0.030 A 
HETATM    3  C11 UNL     1      19.379  69.697  43.366  1.00  0.00     0.019 A 
HETATM    4  C12 UNL     1      19.510  69.631  42.000  1.00  0.00     0.032 A 
HETATM    5  C19 UNL     1      20.281  68.599  41.510  1.00  0.00     0.019 A 
HETATM    6  C20 UNL     1      20.893  67.677  42.331  1.00  0.00     0.030 A 
ENDROOT
BRANCH   1   7
HETATM    7  N1  UNL     1      21.385  66.807  44.563  1.00  0.00    -0.380 N 
HETATM    8  C1  UNL     1      22.589  67.240  45.286  1.00  0.00     0.150 C 
BRANCH   7   9
HETATM    9  C2  UNL     1      20.970  65.465  44.771  1.00  0.00     0.181 C 
BRANCH   9  10
HETATM   10  C3  UNL     1      19.526  65.335  45.133  1.00  0.00     0.043 A 
HETATM   11  C4  UNL     1      18.632  64.865  44.195  1.00  0.00     0.116 A 
HETATM   12  N2  UNL     1      17.312  64.731  44.490  1.00  0.00    -0.348 N 
HETATM   13  C5  UNL     1      16.834  65.053  45.704  1.00  0.00     0.138 A 
ATOM     14  H2  UNL     1      16.673  64.381  43.777  1.00  0.00     0.167 HD
HETATM   15  N3  UNL     1      15.521  64.931  46.029  1.00  0.00    -0.315 N 
HETATM   16  C8  UNL     1      17.716  65.520  46.644  1.00  0.00     0.119 A 
HETATM   17  C6  UNL     1      15.042  65.253  47.245  1.00  0.00     0.195 A 
ATOM     18  H3  UNL     1      14.872  64.582  45.324  1.00  0.00     0.170 HD
HETATM   19  N4  UNL     1      13.648  65.104  47.529  1.00  0.00    -0.063 NA
HETATM   20  N5  UNL     1      15.912  65.708  48.154  1.00  0.00    -0.317 N 
HETATM   21  C7  UNL     1      17.226  65.850  47.891  1.00  0.00     0.149 A 
ATOM     22  H5  UNL     1      15.568  65.958  49.081  1.00  0.00     0.169 HD
HETATM   23  N6  UNL     1      18.154  66.329  48.851  1.00  0.00    -0.080 NA
HETATM   24  N7  UNL     1      19.033  65.651  46.343  1.00  0.00    -0.351 N 
ATOM     25  H7  UNL     1      19.670  66.000  47.058  1.00  0.00     0.166 HD
ENDBRANCH   9  10
ENDBRANCH   7   9
ENDBRANCH   1   7
BRANCH   4  26
HETATM   26  C13 UNL     1      18.867  70.569  41.092  1.00  0.00     0.252 C 
HETATM   27  O1  UNL     1      19.557  71.392  40.396  1.00  0.00    -0.268 OA
HETATM   28  N8  UNL     1      17.467  70.656  40.899  1.00  0.00    -0.342 N 
ATOM     29  H8  UNL     1      16.869  70.017  41.423  1.00  0.00     0.163 HD
BRANCH  28  30
HETATM   30  C14 UNL     1      16.841  71.595  40.006  1.00  0.00     0.186 C 
BRANCH  30  31
HETATM   31  C15 UNL     1      15.955  70.964  38.976  1.00  0.00     0.046 C 
BRANCH  31  32
HETATM   32  C16 UNL     1      14.543  70.734  39.385  1.00  0.00     0.116 C 
BRANCH  32  33
HETATM   33  C17 UNL     1      13.632  70.521  38.237  1.00  0.00     0.172 C 
HETATM   34  O2  UNL     1      13.312  71.479  37.490  1.00  0.00    -0.648 OA
HETATM   35  O3  UNL     1      13.080  69.272  37.912  1.00  0.00    -0.648 OA
ENDBRANCH  32  33
ENDBRANCH  31  32
ENDBRANCH  30  31
BRANCH  30  36
HETATM   36  C18 UNL     1      16.186  72.710  40.715  1.00  0.00     0.196 C 
HETATM   37  O4  UNL     1      15.855  72.649  41.934  1.00  0.00    -0.646 OA
HETATM   38  O5  UNL     1      15.900  73.901  40.065  1.00  0.00    -0.646 OA
ENDBRANCH  30  36
ENDBRANCH  28  30
ENDBRANCH   4  26
TORSDOF 9
ENDMDL
