MODEL 4
REMARK VINA RESULT: -8.800706562      5.905      9.216
REMARK  9 active torsions:
REMARK  status: ('A' for Active; 'I' for Inactive)
REMARK    1  A    between atoms: N1_2  and  C2_3 
REMARK    2  A    between atoms: N1_2  and  C9_20 
REMARK    3  A    between atoms: C2_3  and  C3_4 
REMARK    4  A    between atoms: C12_23  and  C13_24 
REMARK       I    between atoms: C13_24  and  N8_26 
REMARK    5  A    between atoms: N8_26  and  C14_28 
REMARK    6  A    between atoms: C14_28  and  C15_29 
REMARK    7  A    between atoms: C14_28  and  C18_34 
REMARK    8  A    between atoms: C15_29  and  C16_30 
REMARK    9  A    between atoms: C16_30  and  C17_31 
ROOT
HETATM    1  C9  UNL     1      23.068  64.182  43.397  1.00  0.00     0.030 A 
HETATM    2  C10 UNL     1      22.325  63.441  44.286  1.00  0.00     0.030 A 
HETATM    3  C11 UNL     1      21.298  64.027  45.016  1.00  0.00     0.019 A 
HETATM    4  C12 UNL     1      20.968  65.356  44.897  1.00  0.00     0.032 A 
HETATM    5  C19 UNL     1      21.716  66.093  44.004  1.00  0.00     0.019 A 
HETATM    6  C20 UNL     1      22.741  65.543  43.265  1.00  0.00     0.030 A 
ENDROOT
BRANCH   1   7
HETATM    7  N1  UNL     1      24.124  63.626  42.636  1.00  0.00    -0.380 N 
HETATM    8  C1  UNL     1      23.766  62.653  41.595  1.00  0.00     0.150 C 
BRANCH   7   9
HETATM    9  C2  UNL     1      25.505  63.918  42.783  1.00  0.00     0.181 C 
BRANCH   9  10
HETATM   10  C3  UNL     1      26.097  63.390  44.050  1.00  0.00     0.043 A 
HETATM   11  C4  UNL     1      26.816  62.214  44.023  1.00  0.00     0.116 A 
HETATM   12  N2  UNL     1      27.371  61.706  45.155  1.00  0.00    -0.348 N 
HETATM   13  C5  UNL     1      27.236  62.331  46.337  1.00  0.00     0.138 A 
ATOM     14  H2  UNL     1      27.898  60.835  45.107  1.00  0.00     0.167 HD
HETATM   15  N3  UNL     1      27.777  61.848  47.486  1.00  0.00    -0.315 N 
HETATM   16  C8  UNL     1      26.522  63.501  46.374  1.00  0.00     0.119 A 
HETATM   17  C6  UNL     1      27.642  62.473  48.670  1.00  0.00     0.195 A 
ATOM     18  H3  UNL     1      28.307  60.977  47.449  1.00  0.00     0.170 HD
HETATM   19  N4  UNL     1      28.234  61.915  49.847  1.00  0.00    -0.063 NA
HETATM   20  N5  UNL     1      26.943  63.614  48.693  1.00  0.00    -0.317 N 
HETATM   21  C7  UNL     1      26.384  64.142  47.587  1.00  0.00     0.149 A 
ATOM     22  H5  UNL     1      26.830  64.102  49.582  1.00  0.00     0.169 HD
HETATM   23  N6  UNL     1      25.645  65.354  47.605  1.00  0.00    -0.080 NA
HETATM   24  N7  UNL     1      25.972  64.004  45.239  1.00  0.00    -0.351 N 
ATOM     25  H7  UNL     1      25.446  64.876  45.291  1.00  0.00     0.166 HD
ENDBRANCH   9  10
ENDBRANCH   7   9
ENDBRANCH   1   7
BRANCH   4  26
HETATM   26  C13 UNL     1      19.881  65.977  45.641  1.00  0.00     0.252 C 
HETATM   27  O1  UNL     1      19.751  67.250  45.680  1.00  0.00    -0.268 OA
HETATM   28  N8  UNL     1      18.901  65.257  46.365  1.00  0.00    -0.342 N 
ATOM     29  H8  UNL     1      18.952  64.238  46.361  1.00  0.00     0.163 HD
BRANCH  28  30
HETATM   30  C14 UNL     1      17.836  65.881  47.106  1.00  0.00     0.186 C 
BRANCH  30  31
HETATM   31  C15 UNL     1      16.504  65.215  46.945  1.00  0.00     0.046 C 
BRANCH  31  32
HETATM   32  C16 UNL     1      15.404  65.745  47.795  1.00  0.00     0.116 C 
BRANCH  32  33
HETATM   33  C17 UNL     1      14.087  65.147  47.482  1.00  0.00     0.172 C 
HETATM   34  O2  UNL     1      13.370  64.668  48.395  1.00  0.00    -0.648 OA
HETATM   35  O3  UNL     1      13.562  65.076  46.181  1.00  0.00    -0.648 OA
ENDBRANCH  32  33
ENDBRANCH  31  32
ENDBRANCH  30  31
BRANCH  30  36
HETATM   36  C18 UNL     1      18.187  66.120  48.518  1.00  0.00     0.196 C 
HETATM   37  O4  UNL     1      18.005  67.233  49.093  1.00  0.00    -0.646 OA
HETATM   38  O5  UNL     1      18.741  65.115  49.297  1.00  0.00    -0.646 OA
ENDBRANCH  30  36
ENDBRANCH  28  30
ENDBRANCH   4  26
TORSDOF 9
ENDMDL
