MODEL 3
REMARK VINA RESULT: -6.174402588      2.170      5.696
REMARK  9 active torsions:
REMARK  status: ('A' for Active; 'I' for Inactive)
REMARK    1  A    between atoms: P1_2  and  O4_5 
REMARK    2  A    between atoms: O4_5  and  C1_6 
REMARK    3  A    between atoms: C2_7  and  O5_8 
REMARK    4  A    between atoms: C3_10  and  O6_11 
REMARK    5  A    between atoms: O6_11  and  P2_12 
REMARK    6  A    between atoms: C4_16  and  O10_17 
REMARK    7  A    between atoms: O10_17  and  P3_18 
REMARK    8  A    between atoms: C5_22  and  O14_23 
REMARK    9  A    between atoms: C6_25  and  O15_26 
ROOT
HETATM    1  C1  UNL     1     129.246  39.175  14.804  1.00  0.00     0.198 C 
HETATM    2  C2  UNL     1     128.562  40.399  14.276  1.00  0.00     0.182 C 
HETATM    3  C3  UNL     1     129.483  41.568  14.064  1.00  0.00     0.199 C 
HETATM    4  C4  UNL     1     130.748  41.198  13.335  1.00  0.00     0.199 C 
HETATM    5  C5  UNL     1     131.457  40.148  14.123  1.00  0.00     0.181 C 
HETATM    6  C6  UNL     1     130.597  38.926  14.217  1.00  0.00     0.181 C 
ENDROOT
BRANCH   1   7
HETATM    7  O4  UNL     1     129.269  39.196  16.208  1.00  0.00    -0.272 OA
BRANCH   7   8
HETATM    8  P1  UNL     1     128.370  37.962  16.888  1.00  0.00     0.422 P 
HETATM    9  O1  UNL     1     126.890  38.276  16.775  1.00  0.00    -0.617 OA
HETATM   10  O2  UNL     1     128.676  36.545  15.982  1.00  0.00    -0.617 OA
HETATM   11  O3  UNL     1     128.809  37.624  18.476  1.00  0.00    -0.617 OA
ENDBRANCH   7   8
ENDBRANCH   1   7
BRANCH   2  12
HETATM   12  O5  UNL     1     127.821  40.118  13.115  1.00  0.00    -0.390 OA
ATOM     13  H5  UNL     1     127.531  40.913  12.684  1.00  0.00     0.210 HD
ENDBRANCH   2  12
BRANCH   6  14
HETATM   14  O15 UNL     1     131.274  37.985  14.985  1.00  0.00    -0.390 OA
ATOM     15  H15 UNL     1     131.246  38.239  15.900  1.00  0.00     0.210 HD
ENDBRANCH   6  14
BRANCH   3  16
HETATM   16  O6  UNL     1     129.788  42.157  15.277  1.00  0.00    -0.272 OA
BRANCH  16  17
HETATM   17  P2  UNL     1     128.553  43.154  15.829  1.00  0.00     0.422 P 
HETATM   18  O7  UNL     1     129.183  44.190  16.758  1.00  0.00    -0.617 OA
HETATM   19  O8  UNL     1     127.773  43.960  14.557  1.00  0.00    -0.617 OA
HETATM   20  O9  UNL     1     127.421  42.292  16.751  1.00  0.00    -0.617 OA
ENDBRANCH  16  17
ENDBRANCH   3  16
BRANCH   5  21
HETATM   21  O14 UNL     1     131.893  40.599  15.364  1.00  0.00    -0.390 OA
ATOM     22  H14 UNL     1     131.513  41.435  15.610  1.00  0.00     0.210 HD
ENDBRANCH   5  21
BRANCH   4  23
HETATM   23  O10 UNL     1     130.459  40.728  12.076  1.00  0.00    -0.272 OA
BRANCH  23  24
HETATM   24  P3  UNL     1     130.105  41.974  10.992  1.00  0.00     0.422 P 
HETATM   25  O11 UNL     1     130.618  41.648   9.594  1.00  0.00    -0.617 OA
HETATM   26  O12 UNL     1     130.853  43.410  11.501  1.00  0.00    -0.617 OA
HETATM   27  O13 UNL     1     128.434  42.165  10.940  1.00  0.00    -0.617 OA
ENDBRANCH  23  24
ENDBRANCH   4  23
TORSDOF 9
ENDMDL
