MODEL 1
REMARK VINA RESULT: -6.334400937      0.000      0.000
REMARK  9 active torsions:
REMARK  status: ('A' for Active; 'I' for Inactive)
REMARK    1  A    between atoms: P1_2  and  O4_5 
REMARK    2  A    between atoms: O4_5  and  C1_6 
REMARK    3  A    between atoms: C2_7  and  O5_8 
REMARK    4  A    between atoms: C3_10  and  O6_11 
REMARK    5  A    between atoms: O6_11  and  P2_12 
REMARK    6  A    between atoms: C4_16  and  O10_17 
REMARK    7  A    between atoms: O10_17  and  P3_18 
REMARK    8  A    between atoms: C5_22  and  O14_23 
REMARK    9  A    between atoms: C6_25  and  O15_26 
ROOT
HETATM    1  C1  UNL     1     130.515  40.446  14.896  1.00  0.00     0.198 C 
HETATM    2  C2  UNL     1     129.205  39.736  15.048  1.00  0.00     0.182 C 
HETATM    3  C3  UNL     1     128.848  39.413  16.472  1.00  0.00     0.199 C 
HETATM    4  C4  UNL     1     129.037  40.580  17.407  1.00  0.00     0.199 C 
HETATM    5  C5  UNL     1     130.464  41.011  17.341  1.00  0.00     0.181 C 
HETATM    6  C6  UNL     1     130.786  41.468  15.952  1.00  0.00     0.181 C 
ENDROOT
BRANCH   1   7
HETATM    7  O4  UNL     1     131.561  39.518  14.771  1.00  0.00    -0.272 OA
BRANCH   7   8
HETATM    8  P1  UNL     1     131.785  39.003  13.196  1.00  0.00     0.422 P 
HETATM    9  O1  UNL     1     133.265  38.835  12.911  1.00  0.00    -0.617 OA
HETATM   10  O2  UNL     1     131.044  37.470  13.048  1.00  0.00    -0.617 OA
HETATM   11  O3  UNL     1     131.050  40.007  12.064  1.00  0.00    -0.617 OA
ENDBRANCH   7   8
ENDBRANCH   1   7
BRANCH   2  12
HETATM   12  O5  UNL     1     128.164  40.429  14.407  1.00  0.00    -0.390 OA
ATOM     13  H5  UNL     1     127.895  39.994  13.606  1.00  0.00     0.210 HD
ENDBRANCH   2  12
BRANCH   6  14
HETATM   14  O15 UNL     1     132.128  41.828  15.922  1.00  0.00    -0.390 OA
ATOM     15  H15 UNL     1     132.627  41.251  16.488  1.00  0.00     0.210 HD
ENDBRANCH   6  14
BRANCH   3  16
HETATM   16  O6  UNL     1     129.584  38.329  16.910  1.00  0.00    -0.272 OA
BRANCH  16  17
HETATM   17  P2  UNL     1     128.609  37.028  17.337  1.00  0.00     0.422 P 
HETATM   18  O7  UNL     1     127.334  37.597  17.957  1.00  0.00    -0.617 OA
HETATM   19  O8  UNL     1     128.192  36.081  15.994  1.00  0.00    -0.617 OA
HETATM   20  O9  UNL     1     129.343  36.063  18.523  1.00  0.00    -0.617 OA
ENDBRANCH  16  17
ENDBRANCH   3  16
BRANCH   5  21
HETATM   21  O14 UNL     1     131.347  40.046  17.811  1.00  0.00    -0.390 OA
ATOM     22  H14 UNL     1     131.528  40.128  18.740  1.00  0.00     0.210 HD
ENDBRANCH   5  21
BRANCH   4  23
HETATM   23  O10 UNL     1     128.213  41.621  17.050  1.00  0.00    -0.272 OA
BRANCH  23  24
HETATM   24  P3  UNL     1     126.910  41.798  18.111  1.00  0.00     0.422 P 
HETATM   25  O11 UNL     1     126.015  40.564  18.092  1.00  0.00    -0.617 OA
HETATM   26  O12 UNL     1     125.969  43.132  17.647  1.00  0.00    -0.617 OA
HETATM   27  O13 UNL     1     127.522  42.016  19.662  1.00  0.00    -0.617 OA
ENDBRANCH  23  24
ENDBRANCH   4  23
TORSDOF 9
ENDMDL
