MODEL 2
REMARK VINA RESULT: -6.203524890      1.302      2.014
REMARK  9 active torsions:
REMARK  status: ('A' for Active; 'I' for Inactive)
REMARK    1  A    between atoms: P1_2  and  O4_5 
REMARK    2  A    between atoms: O4_5  and  C1_6 
REMARK    3  A    between atoms: C2_7  and  O5_8 
REMARK    4  A    between atoms: C3_10  and  O6_11 
REMARK    5  A    between atoms: O6_11  and  P2_12 
REMARK    6  A    between atoms: C4_16  and  O10_17 
REMARK    7  A    between atoms: O10_17  and  P3_18 
REMARK    8  A    between atoms: C5_22  and  O14_23 
REMARK    9  A    between atoms: C6_25  and  O15_26 
ROOT
HETATM    1  C1  UNL     1     130.158  39.936  15.135  1.00  0.00     0.198 C 
HETATM    2  C2  UNL     1     128.931  39.634  15.939  1.00  0.00     0.182 C 
HETATM    3  C3  UNL     1     129.174  39.565  17.420  1.00  0.00     0.199 C 
HETATM    4  C4  UNL     1     129.990  40.720  17.939  1.00  0.00     0.199 C 
HETATM    5  C5  UNL     1     131.300  40.732  17.223  1.00  0.00     0.181 C 
HETATM    6  C6  UNL     1     131.068  40.942  15.759  1.00  0.00     0.181 C 
ENDROOT
BRANCH   1   7
HETATM    7  O4  UNL     1     130.826  38.747  14.799  1.00  0.00    -0.272 OA
BRANCH   7   8
HETATM    8  P1  UNL     1     131.095  38.598  13.157  1.00  0.00     0.422 P 
HETATM    9  O1  UNL     1     130.247  39.602  12.400  1.00  0.00    -0.617 OA
HETATM   10  O2  UNL     1     132.737  38.977  12.870  1.00  0.00    -0.617 OA
HETATM   11  O3  UNL     1     130.853  37.033  12.587  1.00  0.00    -0.617 OA
ENDBRANCH   7   8
ENDBRANCH   1   7
BRANCH   2  12
HETATM   12  O5  UNL     1     127.882  40.520  15.636  1.00  0.00    -0.390 OA
ATOM     13  H5  UNL     1     127.087  40.056  15.406  1.00  0.00     0.210 HD
ENDBRANCH   2  12
BRANCH   6  14
HETATM   14  O15 UNL     1     132.305  40.913  15.123  1.00  0.00    -0.390 OA
ATOM     15  H15 UNL     1     132.824  40.195  15.466  1.00  0.00     0.210 HD
ENDBRANCH   6  14
BRANCH   3  16
HETATM   16  O6  UNL     1     129.785  38.368  17.744  1.00  0.00    -0.272 OA
BRANCH  16  17
HETATM   17  P2  UNL     1     128.705  37.081  17.744  1.00  0.00     0.422 P 
HETATM   18  O7  UNL     1     127.355  37.617  18.217  1.00  0.00    -0.617 OA
HETATM   19  O8  UNL     1     128.517  36.411  16.197  1.00  0.00    -0.617 OA
HETATM   20  O9  UNL     1     129.168  35.878  18.846  1.00  0.00    -0.617 OA
ENDBRANCH  16  17
ENDBRANCH   3  16
BRANCH   5  21
HETATM   21  O14 UNL     1     132.077  39.612  17.492  1.00  0.00    -0.390 OA
ATOM     22  H14 UNL     1     133.005  39.808  17.551  1.00  0.00     0.210 HD
ENDBRANCH   5  21
BRANCH   4  23
HETATM   23  O10 UNL     1     129.330  41.908  17.732  1.00  0.00    -0.272 OA
BRANCH  23  24
HETATM   24  P3  UNL     1     129.196  42.821  19.147  1.00  0.00     0.422 P 
HETATM   25  O11 UNL     1     129.122  44.311  18.833  1.00  0.00    -0.617 OA
HETATM   26  O12 UNL     1     130.554  42.561  20.130  1.00  0.00    -0.617 OA
HETATM   27  O13 UNL     1     127.791  42.352  19.944  1.00  0.00    -0.617 OA
ENDBRANCH  23  24
ENDBRANCH   4  23
TORSDOF 9
ENDMDL
