MODEL 3
REMARK VINA RESULT: -6.918988556      3.719      4.663
REMARK  7 active torsions:
REMARK  status: ('A' for Active; 'I' for Inactive)
REMARK    1  A    between atoms: N1_2  and  C4_5 
REMARK    2  A    between atoms: C4_5  and  C5_6 
REMARK    3  A    between atoms: C5_6  and  O1_7 
REMARK    4  A    between atoms: O1_7  and  P1_8 
REMARK    5  A    between atoms: P1_8  and  O4_11 
REMARK    6  A    between atoms: O4_11  and  C6_12 
REMARK    7  A    between atoms: C9_15  and  N2_16 
ROOT
HETATM    1  P1  UNL     1     108.470  22.909  23.046  1.00  0.00     0.413 P 
HETATM    2  O2  UNL     1     107.787  21.715  23.718  1.00  0.00    -0.624 OA
HETATM    3  O3  UNL     1     109.176  24.138  22.466  1.00  0.00    -0.624 OA
ENDROOT
BRANCH   1   4
HETATM    4  O1  UNL     1     109.904  22.363  23.686  1.00  0.00    -0.288 OA
BRANCH   4   5
HETATM    5  C5  UNL     1     109.611  21.524  24.731  1.00  0.00     0.209 C 
BRANCH   5   6
HETATM    6  C4  UNL     1     110.881  20.994  25.319  1.00  0.00     0.262 C 
BRANCH   6   7
HETATM    7  N1  UNL     1     111.027  19.570  25.172  1.00  0.00    -0.077 N 
HETATM    8  C1  UNL     1     111.114  18.895  26.455  1.00  0.00     0.271 C 
HETATM    9  C2  UNL     1     112.203  19.200  24.409  1.00  0.00     0.271 C 
HETATM   10  C3  UNL     1     109.878  18.982  24.474  1.00  0.00     0.271 C 
ENDBRANCH   6   7
ENDBRANCH   5   6
ENDBRANCH   4   5
ENDBRANCH   1   4
BRANCH   1  11
HETATM   11  O4  UNL     1     107.986  22.392  21.545  1.00  0.00    -0.247 OA
BRANCH  11  12
HETATM   12  C6  UNL     1     107.581  23.247  20.585  1.00  0.00     0.082 A 
HETATM   13  C7  UNL     1     108.424  24.062  19.849  1.00  0.00     0.040 A 
HETATM   14  C8  UNL     1     107.896  24.891  18.898  1.00  0.00     0.039 A 
HETATM   15  C9  UNL     1     106.542  24.974  18.613  1.00  0.00     0.103 A 
HETATM   16  C10 UNL     1     105.705  24.161  19.348  1.00  0.00     0.039 A 
HETATM   17  C11 UNL     1     106.211  23.322  20.305  1.00  0.00     0.040 A 
BRANCH  15  18
HETATM   18  N2  UNL     1     106.055  25.860  17.608  1.00  0.00    -0.116 N 
HETATM   19  O5  UNL     1     106.684  26.907  17.407  1.00  0.00    -0.532 OA
HETATM   20  O6  UNL     1     104.944  25.588  16.887  1.00  0.00    -0.532 OA
ENDBRANCH  15  18
ENDBRANCH  11  12
ENDBRANCH   1  11
TORSDOF 7
ENDMDL
