MODEL 1
REMARK VINA RESULT: -7.187899843      0.000      0.000
REMARK  7 active torsions:
REMARK  status: ('A' for Active; 'I' for Inactive)
REMARK    1  A    between atoms: N1_2  and  C4_5 
REMARK    2  A    between atoms: C4_5  and  C5_6 
REMARK    3  A    between atoms: C5_6  and  O1_7 
REMARK    4  A    between atoms: O1_7  and  P1_8 
REMARK    5  A    between atoms: P1_8  and  O4_11 
REMARK    6  A    between atoms: O4_11  and  C6_12 
REMARK    7  A    between atoms: C9_15  and  N2_16 
ROOT
HETATM    1  P1  UNL     1     106.973  23.231  19.947  1.00  0.00     0.413 P 
HETATM    2  O2  UNL     1     106.116  23.747  21.106  1.00  0.00    -0.624 OA
HETATM    3  O3  UNL     1     107.883  22.802  18.792  1.00  0.00    -0.624 OA
ENDROOT
BRANCH   1   4
HETATM    4  O1  UNL     1     108.270  23.249  20.988  1.00  0.00    -0.288 OA
BRANCH   4   5
HETATM    5  C5  UNL     1     107.867  22.697  22.177  1.00  0.00     0.209 C 
BRANCH   5   6
HETATM    6  C4  UNL     1     108.976  22.802  23.178  1.00  0.00     0.262 C 
BRANCH   6   7
HETATM    7  N1  UNL     1     109.025  21.693  24.093  1.00  0.00    -0.077 N 
HETATM    8  C1  UNL     1     107.709  21.349  24.603  1.00  0.00     0.271 C 
HETATM    9  C2  UNL     1     109.879  21.943  25.237  1.00  0.00     0.271 C 
HETATM   10  C3  UNL     1     109.544  20.483  23.445  1.00  0.00     0.271 C 
ENDBRANCH   6   7
ENDBRANCH   5   6
ENDBRANCH   4   5
ENDBRANCH   1   4
BRANCH   1  11
HETATM   11  O4  UNL     1     106.040  21.865  19.813  1.00  0.00    -0.247 OA
BRANCH  11  12
HETATM   12  C6  UNL     1     104.697  21.917  19.710  1.00  0.00     0.082 A 
HETATM   13  C7  UNL     1     103.975  23.055  19.392  1.00  0.00     0.040 A 
HETATM   14  C8  UNL     1     102.612  22.986  19.315  1.00  0.00     0.039 A 
HETATM   15  C9  UNL     1     101.885  21.828  19.540  1.00  0.00     0.103 A 
HETATM   16  C10 UNL     1     102.606  20.697  19.856  1.00  0.00     0.039 A 
HETATM   17  C11 UNL     1     103.973  20.741  19.939  1.00  0.00     0.040 A 
BRANCH  15  18
HETATM   18  N2  UNL     1     100.462  21.822  19.444  1.00  0.00    -0.116 N 
HETATM   19  O5  UNL     1      99.876  22.911  19.493  1.00  0.00    -0.532 OA
HETATM   20  O6  UNL     1      99.755  20.678  19.305  1.00  0.00    -0.532 OA
ENDBRANCH  15  18
ENDBRANCH  11  12
ENDBRANCH   1  11
TORSDOF 7
ENDMDL
