MODEL 18
REMARK VINA RESULT: -6.276482241      4.959      7.294
REMARK  7 active torsions:
REMARK  status: ('A' for Active; 'I' for Inactive)
REMARK    1  A    between atoms: N1_2  and  C4_5 
REMARK    2  A    between atoms: C4_5  and  C5_6 
REMARK    3  A    between atoms: C5_6  and  O1_7 
REMARK    4  A    between atoms: O1_7  and  P1_8 
REMARK    5  A    between atoms: P1_8  and  O4_11 
REMARK    6  A    between atoms: O4_11  and  C6_12 
REMARK    7  A    between atoms: C9_15  and  N2_16 
ROOT
HETATM    1  P1  UNL     1     106.706  23.638  18.933  1.00  0.00     0.413 P 
HETATM    2  O2  UNL     1     107.804  22.630  18.582  1.00  0.00    -0.624 OA
HETATM    3  O3  UNL     1     105.540  24.570  19.277  1.00  0.00    -0.624 OA
ENDROOT
BRANCH   1   4
HETATM    4  O1  UNL     1     106.431  22.754  20.315  1.00  0.00    -0.288 OA
BRANCH   4   5
HETATM    5  C5  UNL     1     105.083  22.770  20.568  1.00  0.00     0.209 C 
BRANCH   5   6
HETATM    6  C4  UNL     1     104.463  21.505  20.061  1.00  0.00     0.262 C 
BRANCH   6   7
HETATM    7  N1  UNL     1     103.087  21.349  20.449  1.00  0.00    -0.077 N 
HETATM    8  C1  UNL     1     102.951  20.611  21.693  1.00  0.00     0.271 C 
HETATM    9  C2  UNL     1     102.295  20.660  19.450  1.00  0.00     0.271 C 
HETATM   10  C3  UNL     1     102.440  22.648  20.668  1.00  0.00     0.271 C 
ENDBRANCH   6   7
ENDBRANCH   5   6
ENDBRANCH   4   5
ENDBRANCH   1   4
BRANCH   1  11
HETATM   11  O4  UNL     1     107.801  24.885  18.955  1.00  0.00    -0.247 OA
BRANCH  11  12
HETATM   12  C6  UNL     1     107.704  25.942  18.125  1.00  0.00     0.082 A 
HETATM   13  C7  UNL     1     106.688  26.129  17.202  1.00  0.00     0.040 A 
HETATM   14  C8  UNL     1     106.695  27.244  16.411  1.00  0.00     0.039 A 
HETATM   15  C9  UNL     1     107.673  28.226  16.472  1.00  0.00     0.103 A 
HETATM   16  C10 UNL     1     108.682  28.038  17.391  1.00  0.00     0.039 A 
HETATM   17  C11 UNL     1     108.697  26.928  18.194  1.00  0.00     0.040 A 
BRANCH  15  18
HETATM   18  N2  UNL     1     107.622  29.367  15.619  1.00  0.00    -0.116 N 
HETATM   19  O5  UNL     1     108.303  30.352  15.931  1.00  0.00    -0.532 OA
HETATM   20  O6  UNL     1     106.863  29.396  14.500  1.00  0.00    -0.532 OA
ENDBRANCH  15  18
ENDBRANCH  11  12
ENDBRANCH   1  11
TORSDOF 7
ENDMDL
