MODEL 8
REMARK VINA RESULT: -6.599068171      4.623      7.398
REMARK  7 active torsions:
REMARK  status: ('A' for Active; 'I' for Inactive)
REMARK    1  A    between atoms: N1_2  and  C4_5 
REMARK    2  A    between atoms: C4_5  and  C5_6 
REMARK    3  A    between atoms: C5_6  and  O1_7 
REMARK    4  A    between atoms: O1_7  and  P1_8 
REMARK    5  A    between atoms: P1_8  and  O4_11 
REMARK    6  A    between atoms: O4_11  and  C6_12 
REMARK    7  A    between atoms: C9_15  and  N2_16 
ROOT
HETATM    1  P1  UNL     1     106.768  23.414  19.425  1.00  0.00     0.413 P 
HETATM    2  O2  UNL     1     105.859  24.138  20.421  1.00  0.00    -0.624 OA
HETATM    3  O3  UNL     1     107.714  22.634  18.506  1.00  0.00    -0.624 OA
ENDROOT
BRANCH   1   4
HETATM    4  O1  UNL     1     105.929  22.022  19.775  1.00  0.00    -0.288 OA
BRANCH   4   5
HETATM    5  C5  UNL     1     104.616  22.358  19.985  1.00  0.00     0.209 C 
BRANCH   5   6
HETATM    6  C4  UNL     1     103.757  21.140  19.843  1.00  0.00     0.262 C 
BRANCH   6   7
HETATM    7  N1  UNL     1     102.452  21.291  20.429  1.00  0.00    -0.077 N 
HETATM    8  C1  UNL     1     102.343  20.600  21.702  1.00  0.00     0.271 C 
HETATM    9  C2  UNL     1     101.391  20.795  19.576  1.00  0.00     0.271 C 
HETATM   10  C3  UNL     1     102.143  22.701  20.698  1.00  0.00     0.271 C 
ENDBRANCH   6   7
ENDBRANCH   5   6
ENDBRANCH   4   5
ENDBRANCH   1   4
BRANCH   1  11
HETATM   11  O4  UNL     1     106.261  24.395  18.187  1.00  0.00    -0.247 OA
BRANCH  11  12
HETATM   12  C6  UNL     1     106.883  25.552  17.883  1.00  0.00     0.082 A 
HETATM   13  C7  UNL     1     108.071  25.980  18.453  1.00  0.00     0.040 A 
HETATM   14  C8  UNL     1     108.609  27.176  18.065  1.00  0.00     0.039 A 
HETATM   15  C9  UNL     1     108.034  28.008  17.117  1.00  0.00     0.103 A 
HETATM   16  C10 UNL     1     106.853  27.579  16.552  1.00  0.00     0.039 A 
HETATM   17  C11 UNL     1     106.294  26.385  16.925  1.00  0.00     0.040 A 
BRANCH  15  18
HETATM   18  N2  UNL     1     108.647  29.244  16.755  1.00  0.00    -0.116 N 
HETATM   19  O5  UNL     1     108.183  29.857  15.785  1.00  0.00    -0.532 OA
HETATM   20  O6  UNL     1     109.701  29.749  17.434  1.00  0.00    -0.532 OA
ENDBRANCH  15  18
ENDBRANCH  11  12
ENDBRANCH   1  11
TORSDOF 7
ENDMDL
