MODEL 9
REMARK VINA RESULT: -6.593355168      4.103      6.530
REMARK  7 active torsions:
REMARK  status: ('A' for Active; 'I' for Inactive)
REMARK    1  A    between atoms: N1_2  and  C4_5 
REMARK    2  A    between atoms: C4_5  and  C5_6 
REMARK    3  A    between atoms: C5_6  and  O1_7 
REMARK    4  A    between atoms: O1_7  and  P1_8 
REMARK    5  A    between atoms: P1_8  and  O4_11 
REMARK    6  A    between atoms: O4_11  and  C6_12 
REMARK    7  A    between atoms: C9_15  and  N2_16 
ROOT
HETATM    1  P1  UNL     1     107.199  23.073  20.013  1.00  0.00     0.413 P 
HETATM    2  O2  UNL     1     106.412  23.378  21.291  1.00  0.00    -0.624 OA
HETATM    3  O3  UNL     1     107.970  22.669  18.752  1.00  0.00    -0.624 OA
ENDROOT
BRANCH   1   4
HETATM    4  O1  UNL     1     105.798  22.435  19.384  1.00  0.00    -0.288 OA
BRANCH   4   5
HETATM    5  C5  UNL     1     104.817  22.541  20.337  1.00  0.00     0.209 C 
BRANCH   5   6
HETATM    6  C4  UNL     1     103.474  22.533  19.677  1.00  0.00     0.262 C 
BRANCH   6   7
HETATM    7  N1  UNL     1     102.515  21.696  20.346  1.00  0.00    -0.077 N 
HETATM    8  C1  UNL     1     101.538  22.472  21.091  1.00  0.00     0.271 C 
HETATM    9  C2  UNL     1     103.129  20.768  21.276  1.00  0.00     0.271 C 
HETATM   10  C3  UNL     1     101.752  20.882  19.391  1.00  0.00     0.271 C 
ENDBRANCH   6   7
ENDBRANCH   5   6
ENDBRANCH   4   5
ENDBRANCH   1   4
BRANCH   1  11
HETATM   11  O4  UNL     1     107.545  24.681  19.794  1.00  0.00    -0.247 OA
BRANCH  11  12
HETATM   12  C6  UNL     1     107.175  25.353  18.685  1.00  0.00     0.082 A 
HETATM   13  C7  UNL     1     106.017  25.108  17.965  1.00  0.00     0.040 A 
HETATM   14  C8  UNL     1     105.748  25.856  16.853  1.00  0.00     0.039 A 
HETATM   15  C9  UNL     1     106.573  26.867  16.384  1.00  0.00     0.103 A 
HETATM   16  C10 UNL     1     107.725  27.107  17.103  1.00  0.00     0.039 A 
HETATM   17  C11 UNL     1     108.017  26.371  18.221  1.00  0.00     0.040 A 
BRANCH  15  18
HETATM   18  N2  UNL     1     106.235  27.611  15.216  1.00  0.00    -0.116 N 
HETATM   19  O5  UNL     1     105.248  27.245  14.564  1.00  0.00    -0.532 OA
HETATM   20  O6  UNL     1     106.952  28.684  14.814  1.00  0.00    -0.532 OA
ENDBRANCH  15  18
ENDBRANCH  11  12
ENDBRANCH   1  11
TORSDOF 7
ENDMDL
