MODEL 12
REMARK VINA RESULT: -6.572359305      4.656      7.359
REMARK  7 active torsions:
REMARK  status: ('A' for Active; 'I' for Inactive)
REMARK    1  A    between atoms: N1_2  and  C4_5 
REMARK    2  A    between atoms: C4_5  and  C5_6 
REMARK    3  A    between atoms: C5_6  and  O1_7 
REMARK    4  A    between atoms: O1_7  and  P1_8 
REMARK    5  A    between atoms: P1_8  and  O4_11 
REMARK    6  A    between atoms: O4_11  and  C6_12 
REMARK    7  A    between atoms: C9_15  and  N2_16 
ROOT
HETATM    1  P1  UNL     1     106.774  23.448  19.398  1.00  0.00     0.413 P 
HETATM    2  O2  UNL     1     105.833  24.157  20.376  1.00  0.00    -0.624 OA
HETATM    3  O3  UNL     1     107.752  22.686  18.499  1.00  0.00    -0.624 OA
ENDROOT
BRANCH   1   4
HETATM    4  O1  UNL     1     105.966  22.038  19.748  1.00  0.00    -0.288 OA
BRANCH   4   5
HETATM    5  C5  UNL     1     104.669  22.357  20.059  1.00  0.00     0.209 C 
BRANCH   5   6
HETATM    6  C4  UNL     1     103.802  21.147  19.893  1.00  0.00     0.262 C 
BRANCH   6   7
HETATM    7  N1  UNL     1     102.481  21.314  20.436  1.00  0.00    -0.077 N 
HETATM    8  C1  UNL     1     102.169  22.709  20.691  1.00  0.00     0.271 C 
HETATM    9  C2  UNL     1     102.288  20.594  21.679  1.00  0.00     0.271 C 
HETATM   10  C3  UNL     1     101.453  20.825  19.509  1.00  0.00     0.271 C 
ENDBRANCH   6   7
ENDBRANCH   5   6
ENDBRANCH   4   5
ENDBRANCH   1   4
BRANCH   1  11
HETATM   11  O4  UNL     1     106.258  24.406  18.145  1.00  0.00    -0.247 OA
BRANCH  11  12
HETATM   12  C6  UNL     1     106.864  25.568  17.830  1.00  0.00     0.082 A 
HETATM   13  C7  UNL     1     108.030  26.033  18.417  1.00  0.00     0.040 A 
HETATM   14  C8  UNL     1     108.553  27.230  18.014  1.00  0.00     0.039 A 
HETATM   15  C9  UNL     1     107.984  28.030  17.035  1.00  0.00     0.103 A 
HETATM   16  C10 UNL     1     106.825  27.565  16.453  1.00  0.00     0.039 A 
HETATM   17  C11 UNL     1     106.281  26.368  16.840  1.00  0.00     0.040 A 
BRANCH  15  18
HETATM   18  N2  UNL     1     108.581  29.269  16.659  1.00  0.00    -0.116 N 
HETATM   19  O5  UNL     1     109.569  29.652  17.300  1.00  0.00    -0.532 OA
HETATM   20  O6  UNL     1     108.102  30.019  15.642  1.00  0.00    -0.532 OA
ENDBRANCH  15  18
ENDBRANCH  11  12
ENDBRANCH   1  11
TORSDOF 7
ENDMDL
