MODEL 20
REMARK VINA RESULT: -8.159238550      1.730      3.101
REMARK  10 active torsions:
REMARK  status: ('A' for Active; 'I' for Inactive)
REMARK    1  A    between atoms: C5_6  and  C6_7 
REMARK    2  A    between atoms: C6_7  and  N2_8 
REMARK    3  A    between atoms: N3_11  and  C8_12 
REMARK    4  A    between atoms: C8_12  and  C9_13 
REMARK    5  A    between atoms: C15_20  and  C16_21 
REMARK    6  A    between atoms: C16_21  and  C17_22 
REMARK    7  A    between atoms: C23_28  and  O2_29 
REMARK    8  A    between atoms: C24_31  and  O3_32 
REMARK    9  A    between atoms: C25_34  and  C26_35 
REMARK   10  A    between atoms: C26_35  and  C27_36 
ROOT
HETATM    1  N2  UNL     1      -8.421  15.825  26.253  1.00  0.00    -0.322 N 
HETATM    2  C7  UNL     1      -8.644  15.209  27.507  1.00  0.00     0.325 C 
HETATM    3  O1  UNL     1      -7.853  14.288  27.800  1.00  0.00    -0.247 OA
HETATM    4  N3  UNL     1      -9.701  15.559  28.457  1.00  0.00    -0.300 N 
HETATM    5  C15 UNL     1     -10.334  16.814  28.450  1.00  0.00     0.029 C 
HETATM    6  C23 UNL     1     -11.221  17.035  27.219  1.00  0.00     0.195 C 
HETATM    7  C24 UNL     1     -10.706  16.515  25.954  1.00  0.00     0.175 C 
HETATM    8  C25 UNL     1      -9.329  16.717  25.506  1.00  0.00     0.125 C 
ENDROOT
BRANCH   1   9
HETATM    9  C6  UNL     1      -7.149  15.548  25.562  1.00  0.00     0.166 C 
BRANCH   9  10
HETATM   10  C5  UNL     1      -6.073  16.467  25.992  1.00  0.00    -0.038 A 
HETATM   11  C4  UNL     1      -6.028  17.058  27.223  1.00  0.00     0.009 A 
HETATM   12  C3  UNL     1      -4.983  17.898  27.524  1.00  0.00     0.002 A 
HETATM   13  C2  UNL     1      -3.981  18.152  26.608  1.00  0.00     0.026 A 
HETATM   14  C1  UNL     1      -4.029  17.552  25.363  1.00  0.00     0.046 A 
HETATM   15  N1  UNL     1      -2.975  17.840  24.447  1.00  0.00    -0.102 NA
HETATM   16  C33 UNL     1      -5.075  16.715  25.068  1.00  0.00     0.035 A 
ENDBRANCH   9  10
ENDBRANCH   1   9
BRANCH   8  17
HETATM   17  C26 UNL     1      -8.758  18.057  25.355  1.00  0.00     0.066 C 
BRANCH  17  18
HETATM   18  C27 UNL     1      -8.086  18.245  24.058  1.00  0.00    -0.056 A 
HETATM   19  C28 UNL     1      -8.511  17.474  22.969  1.00  0.00     0.007 A 
HETATM   20  C29 UNL     1      -7.928  17.563  21.726  1.00  0.00     0.001 A 
HETATM   21  C30 UNL     1      -6.886  18.453  21.582  1.00  0.00     0.000 A 
HETATM   22  C31 UNL     1      -6.452  19.216  22.628  1.00  0.00     0.001 A 
HETATM   23  C32 UNL     1      -7.048  19.123  23.892  1.00  0.00     0.007 A 
ENDBRANCH  17  18
ENDBRANCH   8  17
BRANCH   4  24
HETATM   24  C8  UNL     1     -10.012  14.458  29.332  1.00  0.00     0.172 C 
BRANCH  24  25
HETATM   25  C9  UNL     1     -11.300  13.763  28.960  1.00  0.00    -0.038 A 
HETATM   26  C10 UNL     1     -11.505  13.251  27.698  1.00  0.00     0.009 A 
HETATM   27  C11 UNL     1     -12.672  12.621  27.336  1.00  0.00     0.002 A 
HETATM   28  C12 UNL     1     -13.702  12.473  28.239  1.00  0.00     0.026 A 
HETATM   29  C13 UNL     1     -13.520  12.977  29.508  1.00  0.00     0.046 A 
HETATM   30  N4  UNL     1     -14.527  12.873  30.508  1.00  0.00    -0.102 NA
HETATM   31  C14 UNL     1     -12.333  13.613  29.859  1.00  0.00     0.035 A 
ENDBRANCH  24  25
ENDBRANCH   4  24
BRANCH   7  32
HETATM   32  O3  UNL     1     -11.599  16.904  24.909  1.00  0.00    -0.391 OA
ATOM     33  H3  UNL     1     -11.166  16.762  24.076  1.00  0.00     0.210 HD
ENDBRANCH   7  32
BRANCH   5  34
HETATM   34  C16 UNL     1     -10.877  17.438  29.680  1.00  0.00     0.094 C 
BRANCH  34  35
HETATM   35  C17 UNL     1     -10.195  17.154  30.944  1.00  0.00    -0.053 A 
HETATM   36  C18 UNL     1      -8.939  17.568  31.226  1.00  0.00     0.007 A 
HETATM   37  C19 UNL     1      -8.303  17.320  32.450  1.00  0.00     0.001 A 
HETATM   38  C20 UNL     1      -9.003  16.618  33.400  1.00  0.00     0.000 A 
HETATM   39  C21 UNL     1     -10.293  16.171  33.161  1.00  0.00     0.001 A 
HETATM   40  C22 UNL     1     -10.874  16.440  31.941  1.00  0.00     0.007 A 
ENDBRANCH  34  35
ENDBRANCH   5  34
BRANCH   6  41
HETATM   41  O2  UNL     1     -12.424  16.331  27.498  1.00  0.00    -0.387 OA
ATOM     42  H2  UNL     1     -12.171  15.416  27.544  1.00  0.00     0.210 HD
ENDBRANCH   6  41
TORSDOF 10
ENDMDL
