MODEL 11
REMARK VINA RESULT: -9.094592201      1.827      5.878
REMARK  10 active torsions:
REMARK  status: ('A' for Active; 'I' for Inactive)
REMARK    1  A    between atoms: C5_6  and  C6_7 
REMARK    2  A    between atoms: C6_7  and  N2_8 
REMARK    3  A    between atoms: N3_11  and  C8_12 
REMARK    4  A    between atoms: C8_12  and  C9_13 
REMARK    5  A    between atoms: C15_20  and  C16_21 
REMARK    6  A    between atoms: C16_21  and  C17_22 
REMARK    7  A    between atoms: C23_28  and  O2_29 
REMARK    8  A    between atoms: C24_31  and  O3_32 
REMARK    9  A    between atoms: C25_34  and  C26_35 
REMARK   10  A    between atoms: C26_35  and  C27_36 
ROOT
HETATM    1  N2  UNL     1     -10.504  15.665  27.328  1.00  0.00    -0.322 N 
HETATM    2  C7  UNL     1      -9.439  15.231  28.152  1.00  0.00     0.325 C 
HETATM    3  O1  UNL     1      -9.347  13.994  28.302  1.00  0.00    -0.247 OA
HETATM    4  N3  UNL     1      -8.468  16.096  28.824  1.00  0.00    -0.300 N 
HETATM    5  C15 UNL     1      -8.198  17.405  28.388  1.00  0.00     0.029 C 
HETATM    6  C23 UNL     1      -9.371  18.367  28.612  1.00  0.00     0.195 C 
HETATM    7  C24 UNL     1     -10.705  17.822  28.373  1.00  0.00     0.175 C 
HETATM    8  C25 UNL     1     -11.048  17.031  27.193  1.00  0.00     0.125 C 
ENDROOT
BRANCH   1   9
HETATM    9  C6  UNL     1     -11.199  14.658  26.507  1.00  0.00     0.166 C 
BRANCH   9  10
HETATM   10  C5  UNL     1     -12.123  13.829  27.310  1.00  0.00    -0.038 A 
HETATM   11  C4  UNL     1     -12.134  12.463  27.283  1.00  0.00     0.009 A 
HETATM   12  C3  UNL     1     -13.034  11.785  28.069  1.00  0.00     0.002 A 
HETATM   13  C2  UNL     1     -13.923  12.457  28.883  1.00  0.00     0.026 A 
HETATM   14  C1  UNL     1     -13.910  13.840  28.910  1.00  0.00     0.046 A 
HETATM   15  N1  UNL     1     -14.844  14.496  29.764  1.00  0.00    -0.102 NA
HETATM   16  C33 UNL     1     -13.009  14.511  28.123  1.00  0.00     0.035 A 
ENDBRANCH   9  10
ENDBRANCH   1   9
BRANCH   8  17
HETATM   17  C26 UNL     1     -10.859  17.550  25.837  1.00  0.00     0.066 C 
BRANCH  17  18
HETATM   18  C27 UNL     1      -9.899  16.754  25.053  1.00  0.00    -0.056 A 
HETATM   19  C28 UNL     1      -8.537  16.861  25.360  1.00  0.00     0.007 A 
HETATM   20  C29 UNL     1      -7.566  16.175  24.667  1.00  0.00     0.001 A 
HETATM   21  C30 UNL     1      -7.984  15.362  23.636  1.00  0.00     0.000 A 
HETATM   22  C31 UNL     1      -9.306  15.241  23.316  1.00  0.00     0.001 A 
HETATM   23  C32 UNL     1     -10.292  15.940  24.024  1.00  0.00     0.007 A 
ENDBRANCH  17  18
ENDBRANCH   8  17
BRANCH   4  24
HETATM   24  C8  UNL     1      -7.889  15.450  29.973  1.00  0.00     0.172 C 
BRANCH  24  25
HETATM   25  C9  UNL     1      -8.564  15.842  31.265  1.00  0.00    -0.038 A 
HETATM   26  C10 UNL     1      -7.928  16.629  32.201  1.00  0.00     0.009 A 
HETATM   27  C11 UNL     1      -8.520  16.992  33.387  1.00  0.00     0.002 A 
HETATM   28  C12 UNL     1      -9.798  16.576  33.693  1.00  0.00     0.026 A 
HETATM   29  C13 UNL     1     -10.454  15.789  32.772  1.00  0.00     0.046 A 
HETATM   30  N4  UNL     1     -11.774  15.311  33.000  1.00  0.00    -0.102 NA
HETATM   31  C14 UNL     1      -9.840  15.430  31.576  1.00  0.00     0.035 A 
ENDBRANCH  24  25
ENDBRANCH   4  24
BRANCH   7  32
HETATM   32  O3  UNL     1     -11.657  18.877  28.520  1.00  0.00    -0.391 OA
ATOM     33  H3  UNL     1     -12.527  18.516  28.398  1.00  0.00     0.210 HD
ENDBRANCH   7  32
BRANCH   5  34
HETATM   34  C16 UNL     1      -6.875  18.047  28.568  1.00  0.00     0.094 C 
BRANCH  34  35
HETATM   35  C17 UNL     1      -6.017  18.175  27.389  1.00  0.00    -0.053 A 
HETATM   36  C18 UNL     1      -5.056  17.282  27.060  1.00  0.00     0.007 A 
HETATM   37  C19 UNL     1      -4.259  17.395  25.912  1.00  0.00     0.001 A 
HETATM   38  C20 UNL     1      -4.476  18.474  25.091  1.00  0.00     0.000 A 
HETATM   39  C21 UNL     1      -5.448  19.419  25.383  1.00  0.00     0.001 A 
HETATM   40  C22 UNL     1      -6.205  19.263  26.523  1.00  0.00     0.007 A 
ENDBRANCH  34  35
ENDBRANCH   5  34
BRANCH   6  41
HETATM   41  O2  UNL     1      -9.305  18.717  29.988  1.00  0.00    -0.387 OA
ATOM     42  H2  UNL     1     -10.030  18.257  30.396  1.00  0.00     0.210 HD
ENDBRANCH   6  41
TORSDOF 10
ENDMDL
