MODEL 9
REMARK VINA RESULT: -9.201774070      1.712      6.114
REMARK  10 active torsions:
REMARK  status: ('A' for Active; 'I' for Inactive)
REMARK    1  A    between atoms: C5_6  and  C6_7 
REMARK    2  A    between atoms: C6_7  and  N2_8 
REMARK    3  A    between atoms: N3_11  and  C8_12 
REMARK    4  A    between atoms: C8_12  and  C9_13 
REMARK    5  A    between atoms: C15_20  and  C16_21 
REMARK    6  A    between atoms: C16_21  and  C17_22 
REMARK    7  A    between atoms: C23_28  and  O2_29 
REMARK    8  A    between atoms: C24_31  and  O3_32 
REMARK    9  A    between atoms: C25_34  and  C26_35 
REMARK   10  A    between atoms: C26_35  and  C27_36 
ROOT
HETATM    1  N2  UNL     1     -10.571  15.290  27.305  1.00  0.00    -0.322 N 
HETATM    2  C7  UNL     1     -10.281  15.956  28.519  1.00  0.00     0.325 C 
HETATM    3  O1  UNL     1     -10.658  15.369  29.556  1.00  0.00    -0.247 OA
HETATM    4  N3  UNL     1      -9.593  17.242  28.648  1.00  0.00    -0.300 N 
HETATM    5  C15 UNL     1      -8.756  17.752  27.641  1.00  0.00     0.029 C 
HETATM    6  C23 UNL     1      -9.519  18.165  26.377  1.00  0.00     0.195 C 
HETATM    7  C24 UNL     1     -10.625  17.296  25.979  1.00  0.00     0.175 C 
HETATM    8  C25 UNL     1     -10.523  15.839  25.935  1.00  0.00     0.125 C 
ENDROOT
BRANCH   1   9
HETATM    9  C6  UNL     1     -11.002  13.883  27.373  1.00  0.00     0.166 C 
BRANCH   9  10
HETATM   10  C5  UNL     1     -12.251  13.722  28.148  1.00  0.00    -0.038 A 
HETATM   11  C4  UNL     1     -13.332  14.548  28.026  1.00  0.00     0.009 A 
HETATM   12  C3  UNL     1     -14.446  14.313  28.794  1.00  0.00     0.002 A 
HETATM   13  C2  UNL     1     -14.492  13.257  29.683  1.00  0.00     0.026 A 
HETATM   14  C1  UNL     1     -13.397  12.421  29.806  1.00  0.00     0.046 A 
HETATM   15  N1  UNL     1     -13.486  11.343  30.734  1.00  0.00    -0.102 NA
HETATM   16  C33 UNL     1     -12.288  12.662  29.035  1.00  0.00     0.035 A 
ENDBRANCH   9  10
ENDBRANCH   1   9
BRANCH   8  17
HETATM   17  C26 UNL     1      -9.509  15.162  25.123  1.00  0.00     0.066 C 
BRANCH  17  18
HETATM   18  C27 UNL     1      -9.217  15.877  23.869  1.00  0.00    -0.056 A 
HETATM   19  C28 UNL     1      -8.002  16.565  23.762  1.00  0.00     0.007 A 
HETATM   20  C29 UNL     1      -7.652  17.280  22.639  1.00  0.00     0.001 A 
HETATM   21  C30 UNL     1      -8.558  17.301  21.600  1.00  0.00     0.000 A 
HETATM   22  C31 UNL     1      -9.749  16.640  21.680  1.00  0.00     0.001 A 
HETATM   23  C32 UNL     1     -10.102  15.912  22.824  1.00  0.00     0.007 A 
ENDBRANCH  17  18
ENDBRANCH   8  17
BRANCH   4  24
HETATM   24  C8  UNL     1      -9.924  17.896  29.887  1.00  0.00     0.172 C 
BRANCH  24  25
HETATM   25  C9  UNL     1      -9.389  17.166  31.095  1.00  0.00    -0.038 A 
HETATM   26  C10 UNL     1      -8.043  16.915  31.249  1.00  0.00     0.009 A 
HETATM   27  C11 UNL     1      -7.534  16.246  32.336  1.00  0.00     0.002 A 
HETATM   28  C12 UNL     1      -8.368  15.791  33.336  1.00  0.00     0.026 A 
HETATM   29  C13 UNL     1      -9.717  16.031  33.204  1.00  0.00     0.046 A 
HETATM   30  N4  UNL     1     -10.655  15.598  34.184  1.00  0.00    -0.102 NA
HETATM   31  C14 UNL     1     -10.216  16.709  32.097  1.00  0.00     0.035 A 
ENDBRANCH  24  25
ENDBRANCH   4  24
BRANCH   7  32
HETATM   32  O3  UNL     1     -11.143  17.766  24.734  1.00  0.00    -0.391 OA
ATOM     33  H3  UNL     1     -11.821  17.167  24.445  1.00  0.00     0.210 HD
ENDBRANCH   7  32
BRANCH   5  34
HETATM   34  C16 UNL     1      -7.599  18.629  27.937  1.00  0.00     0.094 C 
BRANCH  34  35
HETATM   35  C17 UNL     1      -6.390  18.454  27.130  1.00  0.00    -0.053 A 
HETATM   36  C18 UNL     1      -5.524  17.426  27.291  1.00  0.00     0.007 A 
HETATM   37  C19 UNL     1      -4.385  17.247  26.494  1.00  0.00     0.001 A 
HETATM   38  C20 UNL     1      -4.149  18.171  25.506  1.00  0.00     0.000 A 
HETATM   39  C21 UNL     1      -5.004  19.242  25.300  1.00  0.00     0.001 A 
HETATM   40  C22 UNL     1      -6.111  19.374  26.110  1.00  0.00     0.007 A 
ENDBRANCH  34  35
ENDBRANCH   5  34
BRANCH   6  41
HETATM   41  O2  UNL     1     -10.077  19.436  26.679  1.00  0.00    -0.387 OA
ATOM     42  H2  UNL     1     -10.454  19.341  27.547  1.00  0.00     0.210 HD
ENDBRANCH   6  41
TORSDOF 10
ENDMDL
