MODEL 2
REMARK VINA RESULT: -8.557714707      3.425      7.810
REMARK  6 active torsions:
REMARK  status: ('A' for Active; 'I' for Inactive)
REMARK    1  A    between atoms: C3_6  and  C4_7 
REMARK    2  A    between atoms: C5_11  and  C6_12 
REMARK    3  A    between atoms: C6_12  and  O1_13 
REMARK    4  A    between atoms: O1_13  and  P1_14 
REMARK    5  A    between atoms: C7_18  and  O5_19 
REMARK    6  A    between atoms: C8_21  and  O6_22 
ROOT
HETATM    1  C4  UNL     1      20.068   7.314  48.413  1.00  0.00     0.254 C 
HETATM    2  N3  UNL     1      19.907   6.883  49.803  1.00  0.00    -0.055 N 
ATOM      3  H31 UNL     1      19.541   7.582  50.450  1.00  0.00     0.278 HD
ATOM      4  H32 UNL     1      20.768   6.733  50.329  1.00  0.00     0.278 HD
HETATM    5  C5  UNL     1      19.063   5.695  49.590  1.00  0.00     0.242 C 
HETATM    6  C7  UNL     1      19.735   4.990  48.431  1.00  0.00     0.182 C 
HETATM    7  C8  UNL     1      20.605   6.044  47.788  1.00  0.00     0.184 C 
ENDROOT
BRANCH   1   8
HETATM    8  C3  UNL     1      20.999   8.428  48.265  1.00  0.00     0.020 A 
HETATM    9  C2  UNL     1      21.282   9.143  47.122  1.00  0.00     0.077 A 
HETATM   10  N2  UNL     1      20.863   9.102  45.843  1.00  0.00    -0.328 N 
HETATM   11  C10 UNL     1      22.232  10.107  47.472  1.00  0.00     0.128 A 
HETATM   12  C1  UNL     1      21.356   9.977  44.936  1.00  0.00     0.195 A 
ATOM     13  H2  UNL     1      20.171   8.410  45.557  1.00  0.00     0.168 HD
HETATM   14  N1  UNL     1      20.900   9.917  43.591  1.00  0.00    -0.063 NA
HETATM   15  N5  UNL     1      22.270  10.914  45.245  1.00  0.00    -0.295 N 
HETATM   16  C11 UNL     1      22.703  10.975  46.509  1.00  0.00     0.276 A 
ATOM     17  H5  UNL     1      22.622  11.558  44.537  1.00  0.00     0.171 HD
HETATM   18  O7  UNL     1      23.557  11.837  46.835  1.00  0.00    -0.266 OA
HETATM   19  N4  UNL     1      22.494   9.952  48.796  1.00  0.00    -0.359 N 
HETATM   20  C9  UNL     1      21.760   8.945  49.288  1.00  0.00     0.100 A 
ATOM     21  H4  UNL     1      23.150  10.517  49.334  1.00  0.00     0.165 HD
ENDBRANCH   1   8
BRANCH   7  22
HETATM   22  O6  UNL     1      20.483   6.053  46.404  1.00  0.00    -0.390 OA
ATOM     23  H6  UNL     1      21.316   5.909  45.973  1.00  0.00     0.210 HD
ENDBRANCH   7  22
BRANCH   5  24
HETATM   24  C6  UNL     1      19.029   4.832  50.827  1.00  0.00     0.218 C 
BRANCH  24  25
HETATM   25  O1  UNL     1      19.475   3.587  50.475  1.00  0.00    -0.281 OA
BRANCH  25  26
HETATM   26  P1  UNL     1      18.902   2.462  51.536  1.00  0.00     0.422 P 
HETATM   27  O2  UNL     1      17.456   2.912  51.384  1.00  0.00    -0.617 OA
HETATM   28  O3  UNL     1      18.827   2.812  53.171  1.00  0.00    -0.617 OA
HETATM   29  O4  UNL     1      18.604   0.925  51.070  1.00  0.00    -0.617 OA
ENDBRANCH  25  26
ENDBRANCH  24  25
ENDBRANCH   5  24
BRANCH   6  30
HETATM   30  O5  UNL     1      18.764   4.624  47.526  1.00  0.00    -0.391 OA
ATOM     31  H5  UNL     1      18.825   5.200  46.774  1.00  0.00     0.210 HD
ENDBRANCH   6  30
TORSDOF 6
ENDMDL
