MODEL 3
REMARK VINA RESULT: -8.503224629      3.498      7.624
REMARK  6 active torsions:
REMARK  status: ('A' for Active; 'I' for Inactive)
REMARK    1  A    between atoms: C3_6  and  C4_7 
REMARK    2  A    between atoms: C5_11  and  C6_12 
REMARK    3  A    between atoms: C6_12  and  O1_13 
REMARK    4  A    between atoms: O1_13  and  P1_14 
REMARK    5  A    between atoms: C7_18  and  O5_19 
REMARK    6  A    between atoms: C8_21  and  O6_22 
ROOT
HETATM    1  C4  UNL     1      20.838   7.058  48.643  1.00  0.00     0.254 C 
HETATM    2  N3  UNL     1      20.721   5.954  49.598  1.00  0.00    -0.055 N 
ATOM      3  H31 UNL     1      20.428   6.207  50.542  1.00  0.00     0.278 HD
ATOM      4  H32 UNL     1      21.598   5.529  49.901  1.00  0.00     0.278 HD
HETATM    5  C5  UNL     1      19.803   5.082  48.847  1.00  0.00     0.242 C 
HETATM    6  C7  UNL     1      20.376   5.091  47.446  1.00  0.00     0.182 C 
HETATM    7  C8  UNL     1      21.272   6.306  47.402  1.00  0.00     0.184 C 
ENDROOT
BRANCH   1   8
HETATM    8  C3  UNL     1      21.821   8.058  49.043  1.00  0.00     0.020 A 
HETATM    9  C2  UNL     1      22.283   9.127  48.307  1.00  0.00     0.077 A 
HETATM   10  N2  UNL     1      22.041   9.613  47.076  1.00  0.00    -0.328 N 
HETATM   11  C10 UNL     1      23.213   9.799  49.108  1.00  0.00     0.128 A 
HETATM   12  C1  UNL     1      22.684  10.721  46.640  1.00  0.00     0.195 A 
ATOM     13  H2  UNL     1      21.368   9.145  46.468  1.00  0.00     0.168 HD
HETATM   14  N1  UNL     1      22.413  11.217  45.336  1.00  0.00    -0.063 NA
HETATM   15  N5  UNL     1      23.582  11.386  47.389  1.00  0.00    -0.295 N 
HETATM   16  C11 UNL     1      23.842  10.923  48.616  1.00  0.00     0.276 A 
ATOM     17  H5  UNL     1      24.051  12.218  47.030  1.00  0.00     0.171 HD
HETATM   18  O7  UNL     1      24.675  11.519  49.344  1.00  0.00    -0.266 OA
HETATM   19  N4  UNL     1      23.286   9.130  50.287  1.00  0.00    -0.359 N 
HETATM   20  C9  UNL     1      22.455   8.079  50.265  1.00  0.00     0.100 A 
ATOM     21  H4  UNL     1      23.884   9.388  51.071  1.00  0.00     0.165 HD
ENDBRANCH   1   8
BRANCH   7  22
HETATM   22  O6  UNL     1      21.082   7.055  46.247  1.00  0.00    -0.390 OA
ATOM     23  H6  UNL     1      21.381   6.596  45.472  1.00  0.00     0.210 HD
ENDBRANCH   7  22
BRANCH   5  24
HETATM   24  C6  UNL     1      19.782   3.693  49.436  1.00  0.00     0.218 C 
BRANCH  24  25
HETATM   25  O1  UNL     1      18.477   3.381  49.711  1.00  0.00    -0.281 OA
BRANCH  25  26
HETATM   26  P1  UNL     1      18.175   3.591  51.319  1.00  0.00     0.422 P 
HETATM   27  O2  UNL     1      17.047   2.570  51.340  1.00  0.00    -0.617 OA
HETATM   28  O3  UNL     1      17.102   4.771  51.824  1.00  0.00    -0.617 OA
HETATM   29  O4  UNL     1      19.059   2.824  52.459  1.00  0.00    -0.617 OA
ENDBRANCH  25  26
ENDBRANCH  24  25
ENDBRANCH   5  24
BRANCH   6  30
HETATM   30  O5  UNL     1      19.343   5.285  46.557  1.00  0.00    -0.391 OA
ATOM     31  H5  UNL     1      18.697   4.603  46.697  1.00  0.00     0.210 HD
ENDBRANCH   6  30
TORSDOF 6
ENDMDL
