MODEL 1
REMARK VINA RESULT: -8.633778495      0.000      0.000
REMARK  6 active torsions:
REMARK  status: ('A' for Active; 'I' for Inactive)
REMARK    1  A    between atoms: C3_6  and  C4_7 
REMARK    2  A    between atoms: C5_11  and  C6_12 
REMARK    3  A    between atoms: C6_12  and  O1_13 
REMARK    4  A    between atoms: O1_13  and  P1_14 
REMARK    5  A    between atoms: C7_18  and  O5_19 
REMARK    6  A    between atoms: C8_21  and  O6_22 
ROOT
HETATM    1  C4  UNL     1      20.407   6.271  47.938  1.00  0.00     0.254 C 
HETATM    2  N3  UNL     1      21.445   7.123  47.354  1.00  0.00    -0.055 N 
ATOM      3  H31 UNL     1      21.914   6.755  46.527  1.00  0.00     0.278 HD
ATOM      4  H32 UNL     1      22.305   7.217  47.895  1.00  0.00     0.278 HD
HETATM    5  C5  UNL     1      20.663   8.356  47.161  1.00  0.00     0.242 C 
HETATM    6  C7  UNL     1      19.912   8.504  48.467  1.00  0.00     0.182 C 
HETATM    7  C8  UNL     1      19.959   7.133  49.099  1.00  0.00     0.184 C 
ENDROOT
BRANCH   1   8
HETATM    8  C3  UNL     1      20.914   4.978  48.386  1.00  0.00     0.020 A 
HETATM    9  C2  UNL     1      20.269   4.044  49.168  1.00  0.00     0.077 A 
HETATM   10  N2  UNL     1      19.062   3.964  49.756  1.00  0.00    -0.328 N 
HETATM   11  C10 UNL     1      21.153   2.972  49.330  1.00  0.00     0.128 A 
HETATM   12  C1  UNL     1      18.727   2.871  50.480  1.00  0.00     0.195 A 
ATOM     13  H2  UNL     1      18.396   4.730  49.656  1.00  0.00     0.168 HD
HETATM   14  N1  UNL     1      17.446   2.806  51.093  1.00  0.00    -0.063 NA
HETATM   15  N5  UNL     1      19.557   1.827  50.653  1.00  0.00    -0.295 N 
HETATM   16  C11 UNL     1      20.763   1.882  50.078  1.00  0.00     0.276 A 
ATOM     17  H5  UNL     1      19.274   1.017  51.205  1.00  0.00     0.171 HD
HETATM   18  O7  UNL     1      21.565   0.925  50.219  1.00  0.00    -0.266 OA
HETATM   19  N4  UNL     1      22.289   3.282  48.654  1.00  0.00    -0.359 N 
HETATM   20  C9  UNL     1      22.163   4.486  48.080  1.00  0.00     0.100 A 
ATOM     21  H4  UNL     1      23.115   2.687  48.593  1.00  0.00     0.165 HD
ENDBRANCH   1   8
BRANCH   7  22
HETATM   22  O6  UNL     1      18.721   6.740  49.593  1.00  0.00    -0.390 OA
ATOM     23  H6  UNL     1      18.703   6.731  50.542  1.00  0.00     0.210 HD
ENDBRANCH   7  22
BRANCH   5  24
HETATM   24  C6  UNL     1      21.571   9.531  46.900  1.00  0.00     0.218 C 
BRANCH  24  25
HETATM   25  O1  UNL     1      22.673   9.387  47.700  1.00  0.00    -0.281 OA
BRANCH  25  26
HETATM   26  P1  UNL     1      23.670  10.689  47.526  1.00  0.00     0.422 P 
HETATM   27  O2  UNL     1      22.640  11.498  46.752  1.00  0.00    -0.617 OA
HETATM   28  O3  UNL     1      24.710  10.782  46.218  1.00  0.00    -0.617 OA
HETATM   29  O4  UNL     1      23.836  11.800  48.713  1.00  0.00    -0.617 OA
ENDBRANCH  25  26
ENDBRANCH  24  25
ENDBRANCH   5  24
BRANCH   6  30
HETATM   30  O5  UNL     1      18.598   8.799  48.179  1.00  0.00    -0.391 OA
ATOM     31  H5  UNL     1      18.193   8.026  47.806  1.00  0.00     0.210 HD
ENDBRANCH   6  30
TORSDOF 6
ENDMDL
