MODEL 5
REMARK VINA RESULT: -7.905841463      1.405      1.875
REMARK  7 active torsions:
REMARK  status: ('A' for Active; 'I' for Inactive)
REMARK    1  A    between atoms: C3_4  and  O2_5 
REMARK    2  A    between atoms: N1_7  and  C4_8 
REMARK    3  A    between atoms: C5_10  and  C6_11 
REMARK    4  A    between atoms: C6_11  and  O4_12 
REMARK    5  A    between atoms: O4_12  and  P1_13 
REMARK    6  A    between atoms: C7_17  and  O8_18 
REMARK    7  A    between atoms: C8_20  and  O9_21 
ROOT
HETATM    1  C4  UNL     1      75.897  66.362  92.802  1.00  0.00     0.266 C 
HETATM    2  O3  UNL     1      75.640  65.023  92.815  1.00  0.00    -0.353 OA
HETATM    3  C5  UNL     1      76.559  64.354  92.072  1.00  0.00     0.180 C 
HETATM    4  C7  UNL     1      77.464  65.328  91.393  1.00  0.00     0.182 C 
HETATM    5  C8  UNL     1      77.223  66.602  92.159  1.00  0.00     0.198 C 
ENDROOT
BRANCH   1   6
HETATM    6  N1  UNL     1      75.870  66.866  94.161  1.00  0.00    -0.249 N 
HETATM    7  C3  UNL     1      74.914  67.743  94.503  1.00  0.00     0.153 A 
HETATM    8  C2  UNL     1      74.829  68.267  95.794  1.00  0.00     0.130 A 
HETATM    9  C1  UNL     1      75.755  67.872  96.735  1.00  0.00     0.253 A 
HETATM   10  O1  UNL     1      75.729  68.314  97.922  1.00  0.00    -0.268 OA
HETATM   11  N2  UNL     1      76.705  66.989  96.361  1.00  0.00    -0.275 N 
HETATM   12  C9  UNL     1      76.751  66.504  95.094  1.00  0.00     0.333 A 
ATOM     13  H2  UNL     1      77.400  66.683  97.040  1.00  0.00     0.173 HD
HETATM   14  O10 UNL     1      77.654  65.685  94.797  1.00  0.00    -0.246 OA
BRANCH   7  15
HETATM   15  O2  UNL     1      73.953  68.180  93.602  1.00  0.00    -0.346 OA
ATOM     16  H2  UNL     1      73.063  67.892  93.767  1.00  0.00     0.219 HD
ENDBRANCH   7  15
ENDBRANCH   1   6
BRANCH   5  17
HETATM   17  O9  UNL     1      77.160  67.637  91.214  1.00  0.00    -0.388 OA
ATOM     18  H9  UNL     1      77.661  67.430  90.433  1.00  0.00     0.210 HD
ENDBRANCH   5  17
BRANCH   3  19
HETATM   19  C6  UNL     1      77.391  63.457  92.990  1.00  0.00     0.217 C 
BRANCH  19  20
HETATM   20  O4  UNL     1      78.307  62.777  92.170  1.00  0.00    -0.280 OA
BRANCH  20  21
HETATM   21  P1  UNL     1      79.802  62.814  92.917  1.00  0.00     0.422 P 
HETATM   22  O5  UNL     1      79.630  62.198  94.305  1.00  0.00    -0.617 OA
HETATM   23  O6  UNL     1      80.962  61.904  92.112  1.00  0.00    -0.617 OA
HETATM   24  O7  UNL     1      80.276  64.423  93.110  1.00  0.00    -0.617 OA
ENDBRANCH  20  21
ENDBRANCH  19  20
ENDBRANCH   3  19
BRANCH   4  25
HETATM   25  O8  UNL     1      77.158  65.482  90.035  1.00  0.00    -0.390 OA
ATOM     26  H8  UNL     1      76.817  66.346  89.838  1.00  0.00     0.210 HD
ENDBRANCH   4  25
TORSDOF 7
ENDMDL
