MODEL 2
REMARK VINA RESULT: -8.551669347      0.761      1.209
REMARK  7 active torsions:
REMARK  status: ('A' for Active; 'I' for Inactive)
REMARK    1  A    between atoms: C3_4  and  O2_5 
REMARK    2  A    between atoms: N1_7  and  C4_8 
REMARK    3  A    between atoms: C5_10  and  C6_11 
REMARK    4  A    between atoms: C6_11  and  O4_12 
REMARK    5  A    between atoms: O4_12  and  P1_13 
REMARK    6  A    between atoms: C7_17  and  O8_18 
REMARK    7  A    between atoms: C8_20  and  O9_21 
ROOT
HETATM    1  C4  UNL     1      74.487  66.802  93.026  1.00  0.00     0.266 C 
HETATM    2  O3  UNL     1      74.904  65.505  92.964  1.00  0.00    -0.353 OA
HETATM    3  C5  UNL     1      75.995  65.394  92.162  1.00  0.00     0.180 C 
HETATM    4  C7  UNL     1      76.287  66.710  91.522  1.00  0.00     0.182 C 
HETATM    5  C8  UNL     1      75.502  67.677  92.369  1.00  0.00     0.198 C 
ENDROOT
BRANCH   1   6
HETATM    6  N1  UNL     1      74.287  67.173  94.413  1.00  0.00    -0.249 N 
HETATM    7  C3  UNL     1      73.033  67.287  94.874  1.00  0.00     0.153 A 
HETATM    8  C2  UNL     1      72.769  67.640  96.198  1.00  0.00     0.130 A 
HETATM    9  C1  UNL     1      73.828  67.878  97.047  1.00  0.00     0.253 A 
HETATM   10  O1  UNL     1      73.651  68.203  98.259  1.00  0.00    -0.268 OA
HETATM   11  N2  UNL     1      75.078  67.757  96.554  1.00  0.00    -0.275 N 
HETATM   12  C9  UNL     1      75.290  67.410  95.259  1.00  0.00     0.333 A 
ATOM     13  H2  UNL     1      75.877  67.928  97.164  1.00  0.00     0.173 HD
HETATM   14  O10 UNL     1      76.472  67.310  94.850  1.00  0.00    -0.246 OA
BRANCH   7  15
HETATM   15  O2  UNL     1      71.924  67.060  94.070  1.00  0.00    -0.346 OA
ATOM     16  H2  UNL     1      72.087  67.019  93.136  1.00  0.00     0.219 HD
ENDBRANCH   7  15
ENDBRANCH   1   6
BRANCH   5  17
HETATM   17  O9  UNL     1      74.903  68.592  91.489  1.00  0.00    -0.388 OA
ATOM     18  H9  UNL     1      75.390  69.407  91.446  1.00  0.00     0.210 HD
ENDBRANCH   5  17
BRANCH   3  19
HETATM   19  C6  UNL     1      77.199  64.971  93.006  1.00  0.00     0.217 C 
BRANCH  19  20
HETATM   20  O4  UNL     1      78.309  65.670  92.503  1.00  0.00    -0.280 OA
BRANCH  20  21
HETATM   21  P1  UNL     1      79.432  64.550  91.972  1.00  0.00     0.422 P 
HETATM   22  O5  UNL     1      80.765  64.896  92.633  1.00  0.00    -0.617 OA
HETATM   23  O6  UNL     1      79.052  62.977  92.419  1.00  0.00    -0.617 OA
HETATM   24  O7  UNL     1      79.614  64.711  90.301  1.00  0.00    -0.617 OA
ENDBRANCH  20  21
ENDBRANCH  19  20
ENDBRANCH   3  19
BRANCH   4  25
HETATM   25  O8  UNL     1      75.879  66.754  90.184  1.00  0.00    -0.390 OA
ATOM     26  H8  UNL     1      76.317  66.101  89.651  1.00  0.00     0.210 HD
ENDBRANCH   4  25
TORSDOF 7
ENDMDL
