MODEL 8
REMARK VINA RESULT: -7.440149985      2.664      6.019
REMARK  7 active torsions:
REMARK  status: ('A' for Active; 'I' for Inactive)
REMARK    1  A    between atoms: C3_4  and  O2_5 
REMARK    2  A    between atoms: N1_7  and  C4_8 
REMARK    3  A    between atoms: C5_10  and  C6_11 
REMARK    4  A    between atoms: C6_11  and  O4_12 
REMARK    5  A    between atoms: O4_12  and  P1_13 
REMARK    6  A    between atoms: C7_17  and  O8_18 
REMARK    7  A    between atoms: C8_20  and  O9_21 
ROOT
HETATM    1  C4  UNL     1      77.042  66.600  92.210  1.00  0.00     0.266 C 
HETATM    2  O3  UNL     1      76.751  67.232  93.383  1.00  0.00    -0.353 OA
HETATM    3  C5  UNL     1      75.477  67.703  93.366  1.00  0.00     0.180 C 
HETATM    4  C7  UNL     1      74.873  67.477  92.021  1.00  0.00     0.182 C 
HETATM    5  C8  UNL     1      75.792  66.454  91.406  1.00  0.00     0.198 C 
ENDROOT
BRANCH   1   6
HETATM    6  N1  UNL     1      77.638  65.310  92.499  1.00  0.00    -0.249 N 
HETATM    7  C3  UNL     1      78.968  65.238  92.661  1.00  0.00     0.153 A 
HETATM    8  C2  UNL     1      79.606  64.028  92.940  1.00  0.00     0.130 A 
HETATM    9  C1  UNL     1      78.846  62.884  93.050  1.00  0.00     0.253 A 
HETATM   10  O1  UNL     1      79.369  61.758  93.302  1.00  0.00    -0.268 OA
HETATM   11  N2  UNL     1      77.511  62.989  92.881  1.00  0.00    -0.275 N 
HETATM   12  C9  UNL     1      76.931  64.186  92.610  1.00  0.00     0.333 A 
ATOM     13  H2  UNL     1      76.929  62.155  92.958  1.00  0.00     0.173 HD
HETATM   14  O10 UNL     1      75.686  64.229  92.463  1.00  0.00    -0.246 OA
BRANCH   7  15
HETATM   15  O2  UNL     1      79.788  66.353  92.563  1.00  0.00    -0.346 OA
ATOM     16  H2  UNL     1      79.356  67.196  92.626  1.00  0.00     0.219 HD
ENDBRANCH   7  15
ENDBRANCH   1   6
BRANCH   5  17
HETATM   17  O9  UNL     1      75.989  66.837  90.071  1.00  0.00    -0.388 OA
ATOM     18  H9  UNL     1      76.412  67.686  90.008  1.00  0.00     0.210 HD
ENDBRANCH   5  17
BRANCH   3  19
HETATM   19  C6  UNL     1      74.651  66.957  94.416  1.00  0.00     0.217 C 
BRANCH  19  20
HETATM   20  O4  UNL     1      73.793  67.902  95.002  1.00  0.00    -0.280 OA
BRANCH  20  21
HETATM   21  P1  UNL     1      74.494  68.429  96.425  1.00  0.00     0.422 P 
HETATM   22  O5  UNL     1      73.486  68.178  97.546  1.00  0.00    -0.617 OA
HETATM   23  O6  UNL     1      75.892  67.587  96.820  1.00  0.00    -0.617 OA
HETATM   24  O7  UNL     1      74.761  70.093  96.319  1.00  0.00    -0.617 OA
ENDBRANCH  20  21
ENDBRANCH  19  20
ENDBRANCH   3  19
BRANCH   4  25
HETATM   25  O8  UNL     1      74.826  68.648  91.254  1.00  0.00    -0.390 OA
ATOM     26  H8  UNL     1      74.162  69.254  91.560  1.00  0.00     0.210 HD
ENDBRANCH   4  25
TORSDOF 7
ENDMDL
