MODEL 11
REMARK VINA RESULT: -6.880643083      2.655      5.765
REMARK  7 active torsions:
REMARK  status: ('A' for Active; 'I' for Inactive)
REMARK    1  A    between atoms: C3_4  and  O2_5 
REMARK    2  A    between atoms: N1_7  and  C4_8 
REMARK    3  A    between atoms: C5_10  and  C6_11 
REMARK    4  A    between atoms: C6_11  and  O4_12 
REMARK    5  A    between atoms: O4_12  and  P1_13 
REMARK    6  A    between atoms: C7_17  and  O8_18 
REMARK    7  A    between atoms: C8_20  and  O9_21 
ROOT
HETATM    1  C4  UNL     1      77.050  66.710  92.136  1.00  0.00     0.266 C 
HETATM    2  O3  UNL     1      76.758  67.329  93.315  1.00  0.00    -0.353 OA
HETATM    3  C5  UNL     1      75.465  67.745  93.327  1.00  0.00     0.180 C 
HETATM    4  C7  UNL     1      74.842  67.493  91.994  1.00  0.00     0.182 C 
HETATM    5  C8  UNL     1      75.791  66.511  91.359  1.00  0.00     0.198 C 
ENDROOT
BRANCH   1   6
HETATM    6  N1  UNL     1      77.708  65.447  92.410  1.00  0.00    -0.249 N 
HETATM    7  C3  UNL     1      76.951  64.355  92.597  1.00  0.00     0.153 A 
HETATM    8  C2  UNL     1      77.518  63.108  92.865  1.00  0.00     0.130 A 
HETATM    9  C1  UNL     1      78.890  63.004  92.938  1.00  0.00     0.253 A 
HETATM   10  O1  UNL     1      79.463  61.899  93.178  1.00  0.00    -0.268 OA
HETATM   11  N2  UNL     1      79.625  64.120  92.747  1.00  0.00    -0.275 N 
HETATM   12  C9  UNL     1      79.031  65.313  92.488  1.00  0.00     0.333 A 
ATOM     13  H2  UNL     1      80.642  64.066  92.796  1.00  0.00     0.173 HD
HETATM   14  O10 UNL     1      79.759  66.320  92.317  1.00  0.00    -0.246 OA
BRANCH   7  15
HETATM   15  O2  UNL     1      75.564  64.394  92.536  1.00  0.00    -0.346 OA
ATOM     16  H2  UNL     1      75.171  65.259  92.531  1.00  0.00     0.219 HD
ENDBRANCH   7  15
ENDBRANCH   1   6
BRANCH   5  17
HETATM   17  O9  UNL     1      75.942  66.901  90.020  1.00  0.00    -0.388 OA
ATOM     18  H9  UNL     1      75.141  67.275  89.671  1.00  0.00     0.210 HD
ENDBRANCH   5  17
BRANCH   3  19
HETATM   19  C6  UNL     1      74.695  66.963  94.393  1.00  0.00     0.217 C 
BRANCH  19  20
HETATM   20  O4  UNL     1      73.913  67.898  95.092  1.00  0.00    -0.280 OA
BRANCH  20  21
HETATM   21  P1  UNL     1      74.757  68.363  96.459  1.00  0.00     0.422 P 
HETATM   22  O5  UNL     1      73.844  68.120  97.660  1.00  0.00    -0.617 OA
HETATM   23  O6  UNL     1      76.152  67.461  96.708  1.00  0.00    -0.617 OA
HETATM   24  O7  UNL     1      75.076  70.018  96.366  1.00  0.00    -0.617 OA
ENDBRANCH  20  21
ENDBRANCH  19  20
ENDBRANCH   3  19
BRANCH   4  25
HETATM   25  O8  UNL     1      74.728  68.661  91.230  1.00  0.00    -0.390 OA
ATOM     26  H8  UNL     1      75.567  69.084  91.090  1.00  0.00     0.210 HD
ENDBRANCH   4  25
TORSDOF 7
ENDMDL
