MODEL 3
REMARK VINA RESULT: -8.022311167      0.581      1.709
REMARK  7 active torsions:
REMARK  status: ('A' for Active; 'I' for Inactive)
REMARK    1  A    between atoms: C3_4  and  O2_5 
REMARK    2  A    between atoms: N1_7  and  C4_8 
REMARK    3  A    between atoms: C5_10  and  C6_11 
REMARK    4  A    between atoms: C6_11  and  O4_12 
REMARK    5  A    between atoms: O4_12  and  P1_13 
REMARK    6  A    between atoms: C7_17  and  O8_18 
REMARK    7  A    between atoms: C8_20  and  O9_21 
ROOT
HETATM    1  C4  UNL     1      74.793  66.783  93.014  1.00  0.00     0.266 C 
HETATM    2  O3  UNL     1      75.117  65.462  92.924  1.00  0.00    -0.353 OA
HETATM    3  C5  UNL     1      76.126  65.278  92.033  1.00  0.00     0.180 C 
HETATM    4  C7  UNL     1      76.450  66.572  91.365  1.00  0.00     0.182 C 
HETATM    5  C8  UNL     1      75.805  67.589  92.270  1.00  0.00     0.198 C 
ENDROOT
BRANCH   1   6
HETATM    6  N1  UNL     1      74.737  67.166  94.411  1.00  0.00    -0.249 N 
HETATM    7  C3  UNL     1      75.871  67.159  95.127  1.00  0.00     0.153 A 
HETATM    8  C2  UNL     1      75.888  67.516  96.476  1.00  0.00     0.130 A 
HETATM    9  C1  UNL     1      74.706  67.883  97.082  1.00  0.00     0.253 A 
HETATM   10  O1  UNL     1      74.658  68.217  98.303  1.00  0.00    -0.268 OA
HETATM   11  N2  UNL     1      73.581  67.879  96.336  1.00  0.00    -0.275 N 
HETATM   12  C9  UNL     1      73.610  67.524  95.026  1.00  0.00     0.333 A 
ATOM     13  H2  UNL     1      72.695  68.147  96.764  1.00  0.00     0.173 HD
HETATM   14  O10 UNL     1      72.536  67.538  94.378  1.00  0.00    -0.246 OA
BRANCH   7  15
HETATM   15  O2  UNL     1      77.094  66.800  94.575  1.00  0.00    -0.346 OA
ATOM     16  H2  UNL     1      77.666  66.282  95.129  1.00  0.00     0.219 HD
ENDBRANCH   7  15
ENDBRANCH   1   6
BRANCH   5  17
HETATM   17  O9  UNL     1      75.197  68.542  91.439  1.00  0.00    -0.388 OA
ATOM     18  H9  UNL     1      74.308  68.296  91.214  1.00  0.00     0.210 HD
ENDBRANCH   5  17
BRANCH   3  19
HETATM   19  C6  UNL     1      77.366  64.775  92.775  1.00  0.00     0.217 C 
BRANCH  19  20
HETATM   20  O4  UNL     1      77.997  63.851  91.925  1.00  0.00    -0.280 OA
BRANCH  20  21
HETATM   21  P1  UNL     1      79.582  64.340  91.712  1.00  0.00     0.422 P 
HETATM   22  O5  UNL     1      79.726  64.786  90.258  1.00  0.00    -0.617 OA
HETATM   23  O6  UNL     1      80.001  65.650  92.675  1.00  0.00    -0.617 OA
HETATM   24  O7  UNL     1      80.600  63.016  91.960  1.00  0.00    -0.617 OA
ENDBRANCH  20  21
ENDBRANCH  19  20
ENDBRANCH   3  19
BRANCH   4  25
HETATM   25  O8  UNL     1      75.935  66.645  90.065  1.00  0.00    -0.390 OA
ATOM     26  H8  UNL     1      75.070  66.257  89.997  1.00  0.00     0.210 HD
ENDBRANCH   4  25
TORSDOF 7
ENDMDL
