MODEL 1
REMARK VINA RESULT: -8.560552202      0.000      0.000
REMARK  7 active torsions:
REMARK  status: ('A' for Active; 'I' for Inactive)
REMARK    1  A    between atoms: C3_4  and  O2_5 
REMARK    2  A    between atoms: N1_7  and  C4_8 
REMARK    3  A    between atoms: C5_10  and  C6_11 
REMARK    4  A    between atoms: C6_11  and  O4_12 
REMARK    5  A    between atoms: O4_12  and  P1_13 
REMARK    6  A    between atoms: C7_17  and  O8_18 
REMARK    7  A    between atoms: C8_20  and  O9_21 
ROOT
HETATM    1  C4  UNL     1      74.874  66.748  93.037  1.00  0.00     0.266 C 
HETATM    2  O3  UNL     1      75.167  65.421  92.934  1.00  0.00    -0.353 OA
HETATM    3  C5  UNL     1      76.159  65.221  92.027  1.00  0.00     0.180 C 
HETATM    4  C7  UNL     1      76.501  66.513  91.362  1.00  0.00     0.182 C 
HETATM    5  C8  UNL     1      75.891  67.538  92.282  1.00  0.00     0.198 C 
ENDROOT
BRANCH   1   6
HETATM    6  N1  UNL     1      74.846  67.124  94.437  1.00  0.00    -0.249 N 
HETATM    7  C3  UNL     1      73.674  67.477  94.985  1.00  0.00     0.153 A 
HETATM    8  C2  UNL     1      73.576  67.849  96.327  1.00  0.00     0.130 A 
HETATM    9  C1  UNL     1      74.716  67.853  97.102  1.00  0.00     0.253 A 
HETATM   10  O1  UNL     1      74.689  68.181  98.325  1.00  0.00    -0.268 OA
HETATM   11  N2  UNL     1      75.880  67.493  96.522  1.00  0.00    -0.275 N 
HETATM   12  C9  UNL     1      75.930  67.137  95.213  1.00  0.00     0.333 A 
ATOM     13  H2  UNL     1      76.736  67.488  97.076  1.00  0.00     0.173 HD
HETATM   14  O10 UNL     1      77.037  66.811  94.722  1.00  0.00    -0.246 OA
BRANCH   7  15
HETATM   15  O2  UNL     1      72.491  67.495  94.259  1.00  0.00    -0.346 OA
ATOM     16  H2  UNL     1      72.545  67.856  93.382  1.00  0.00     0.219 HD
ENDBRANCH   7  15
ENDBRANCH   1   6
BRANCH   5  17
HETATM   17  O9  UNL     1      75.292  68.509  91.466  1.00  0.00    -0.388 OA
ATOM     18  H9  UNL     1      75.905  69.194  91.229  1.00  0.00     0.210 HD
ENDBRANCH   5  17
BRANCH   3  19
HETATM   19  C6  UNL     1      77.398  64.688  92.747  1.00  0.00     0.217 C 
BRANCH  19  20
HETATM   20  O4  UNL     1      78.037  63.810  91.855  1.00  0.00    -0.280 OA
BRANCH  20  21
HETATM   21  P1  UNL     1      79.622  64.313  91.675  1.00  0.00     0.422 P 
HETATM   22  O5  UNL     1      79.789  64.778  90.229  1.00  0.00    -0.617 OA
HETATM   23  O6  UNL     1      80.013  65.615  92.661  1.00  0.00    -0.617 OA
HETATM   24  O7  UNL     1      80.645  62.994  91.926  1.00  0.00    -0.617 OA
ENDBRANCH  20  21
ENDBRANCH  19  20
ENDBRANCH   3  19
BRANCH   4  25
HETATM   25  O8  UNL     1      75.967  66.604  90.070  1.00  0.00    -0.390 OA
ATOM     26  H8  UNL     1      76.641  66.615  89.401  1.00  0.00     0.210 HD
ENDBRANCH   4  25
TORSDOF 7
ENDMDL
