MODEL 12
REMARK VINA RESULT: -6.663041161      2.877      6.203
REMARK  7 active torsions:
REMARK  status: ('A' for Active; 'I' for Inactive)
REMARK    1  A    between atoms: C3_4  and  O2_5 
REMARK    2  A    between atoms: N1_7  and  C4_8 
REMARK    3  A    between atoms: C5_10  and  C6_11 
REMARK    4  A    between atoms: C6_11  and  O4_12 
REMARK    5  A    between atoms: O4_12  and  P1_13 
REMARK    6  A    between atoms: C7_17  and  O8_18 
REMARK    7  A    between atoms: C8_20  and  O9_21 
ROOT
HETATM    1  C4  UNL     1      77.250  66.644  92.485  1.00  0.00     0.266 C 
HETATM    2  O3  UNL     1      76.525  66.951  93.598  1.00  0.00    -0.353 OA
HETATM    3  C5  UNL     1      75.299  67.424  93.253  1.00  0.00     0.180 C 
HETATM    4  C7  UNL     1      75.212  67.564  91.769  1.00  0.00     0.182 C 
HETATM    5  C8  UNL     1      76.367  66.726  91.285  1.00  0.00     0.198 C 
ENDROOT
BRANCH   1   6
HETATM    6  N1  UNL     1      77.815  65.317  92.636  1.00  0.00    -0.249 N 
HETATM    7  C3  UNL     1      79.143  65.196  92.781  1.00  0.00     0.153 A 
HETATM    8  C2  UNL     1      79.752  63.949  92.930  1.00  0.00     0.130 A 
HETATM    9  C1  UNL     1      78.964  62.819  92.927  1.00  0.00     0.253 A 
HETATM   10  O1  UNL     1      79.460  61.660  93.058  1.00  0.00    -0.268 OA
HETATM   11  N2  UNL     1      77.632  62.973  92.779  1.00  0.00    -0.275 N 
HETATM   12  C9  UNL     1      77.080  64.205  92.636  1.00  0.00     0.333 A 
ATOM     13  H2  UNL     1      77.030  62.150  92.773  1.00  0.00     0.173 HD
HETATM   14  O10 UNL     1      75.836  64.293  92.502  1.00  0.00    -0.246 OA
BRANCH   7  15
HETATM   15  O2  UNL     1      79.990  66.296  92.792  1.00  0.00    -0.346 OA
ATOM     16  H2  UNL     1      80.787  66.214  92.281  1.00  0.00     0.219 HD
ENDBRANCH   7  15
ENDBRANCH   1   6
BRANCH   5  17
HETATM   17  O9  UNL     1      76.976  67.441  90.243  1.00  0.00    -0.388 OA
ATOM     18  H9  UNL     1      76.334  67.881  89.697  1.00  0.00     0.210 HD
ENDBRANCH   5  17
BRANCH   3  19
HETATM   19  C6  UNL     1      74.229  66.439  93.725  1.00  0.00     0.217 C 
BRANCH  19  20
HETATM   20  O4  UNL     1      72.987  67.064  93.520  1.00  0.00    -0.280 OA
BRANCH  20  21
HETATM   21  P1  UNL     1      71.964  66.608  94.762  1.00  0.00     0.422 P 
HETATM   22  O5  UNL     1      70.606  67.254  94.491  1.00  0.00    -0.617 OA
HETATM   23  O6  UNL     1      71.717  64.948  94.833  1.00  0.00    -0.617 OA
HETATM   24  O7  UNL     1      72.561  67.226  96.215  1.00  0.00    -0.617 OA
ENDBRANCH  20  21
ENDBRANCH  19  20
ENDBRANCH   3  19
BRANCH   4  25
HETATM   25  O8  UNL     1      75.335  68.894  91.351  1.00  0.00    -0.390 OA
ATOM     26  H8  UNL     1      74.499  69.275  91.109  1.00  0.00     0.210 HD
ENDBRANCH   4  25
TORSDOF 7
ENDMDL
