MODEL 3
REMARK VINA RESULT: -5.214162541      1.089      1.183
REMARK  4 active torsions:
REMARK  status: ('A' for Active; 'I' for Inactive)
REMARK    1  A    between atoms: O1_1  and  C1_3 
REMARK    2  A    between atoms: C3_6  and  O3_7 
REMARK    3  A    between atoms: C4_9  and  O4_10 
REMARK    4  A    between atoms: C5_12  and  O5_13 
ROOT
HETATM    1  C1  UNL     1      50.865  35.258  44.990  1.00  0.00     0.173 C 
HETATM    2  C2  UNL     1      51.090  35.020  43.512  1.00  0.00     0.205 C 
HETATM    3  O2  UNL     1      50.779  33.691  43.183  1.00  0.00    -0.356 OA
HETATM    4  C3  UNL     1      49.387  33.588  43.274  1.00  0.00     0.288 C 
HETATM    5  C4  UNL     1      49.045  33.659  44.747  1.00  0.00     0.204 C 
HETATM    6  C5  UNL     1      49.433  34.986  45.355  1.00  0.00     0.182 C 
ENDROOT
BRANCH   1   7
HETATM    7  O1  UNL     1      51.245  36.577  45.259  1.00  0.00    -0.391 OA
ATOM      8  H1  UNL     1      50.448  37.082  45.370  1.00  0.00     0.210 HD
ENDBRANCH   1   7
BRANCH   6   9
HETATM    9  O5  UNL     1      48.585  36.011  44.981  1.00  0.00    -0.390 OA
ATOM     10  H5  UNL     1      47.720  35.700  44.741  1.00  0.00     0.210 HD
ENDBRANCH   6   9
BRANCH   5  11
HETATM   11  O4  UNL     1      47.692  33.423  44.976  1.00  0.00    -0.388 OA
ATOM     12  H4  UNL     1      47.349  33.977  45.668  1.00  0.00     0.210 HD
ENDBRANCH   5  11
BRANCH   4  13
HETATM   13  O3  UNL     1      48.973  32.361  42.791  1.00  0.00    -0.369 OA
ATOM     14  H3  UNL     1      48.070  32.415  42.502  1.00  0.00     0.212 HD
ENDBRANCH   4  13
TORSDOF 4
ENDMDL
