MODEL 15
REMARK VINA RESULT: -2.198607906      6.751      8.855
REMARK  4 active torsions:
REMARK  status: ('A' for Active; 'I' for Inactive)
REMARK    1  A    between atoms: O1_1  and  C1_3 
REMARK    2  A    between atoms: C3_6  and  O3_7 
REMARK    3  A    between atoms: C4_9  and  O4_10 
REMARK    4  A    between atoms: C5_12  and  O5_13 
ROOT
HETATM    1  C1  UNL     1      56.189  38.252  45.189  1.00  0.00     0.173 C 
HETATM    2  C2  UNL     1      54.739  38.578  45.474  1.00  0.00     0.205 C 
HETATM    3  O2  UNL     1      54.594  39.018  46.799  1.00  0.00    -0.356 OA
HETATM    4  C3  UNL     1      55.180  40.288  46.849  1.00  0.00     0.288 C 
HETATM    5  C4  UNL     1      56.674  40.077  46.726  1.00  0.00     0.204 C 
HETATM    6  C5  UNL     1      57.052  39.464  45.398  1.00  0.00     0.182 C 
ENDROOT
BRANCH   1   7
HETATM    7  O1  UNL     1      56.255  37.768  43.878  1.00  0.00    -0.391 OA
ATOM      8  H1  UNL     1      56.056  38.495  43.299  1.00  0.00     0.210 HD
ENDBRANCH   1   7
BRANCH   6   9
HETATM    9  O5  UNL     1      56.967  40.365  44.353  1.00  0.00    -0.390 OA
ATOM     10  H5  UNL     1      57.818  40.674  44.067  1.00  0.00     0.210 HD
ENDBRANCH   6   9
BRANCH   5  11
HETATM   11  O4  UNL     1      57.380  41.264  46.906  1.00  0.00    -0.388 OA
ATOM     12  H4  UNL     1      57.054  41.957  46.342  1.00  0.00     0.210 HD
ENDBRANCH   5  11
BRANCH   4  13
HETATM   13  O3  UNL     1      54.923  40.877  48.072  1.00  0.00    -0.369 OA
ATOM     14  H3  UNL     1      53.986  40.944  48.209  1.00  0.00     0.212 HD
ENDBRANCH   4  13
TORSDOF 4
ENDMDL
