MODEL 1
REMARK VINA RESULT: -7.047944303      0.000      0.000
REMARK  4 active torsions:
REMARK  status: ('A' for Active; 'I' for Inactive)
REMARK    1  A    between atoms: O1_1  and  C1_3 
REMARK    2  A    between atoms: C3_6  and  O3_7 
REMARK    3  A    between atoms: C4_9  and  O4_10 
REMARK    4  A    between atoms: C5_12  and  O5_13 
ROOT
HETATM    1  C1  UNL     1      50.293  35.508  45.701  1.00  0.00     0.173 C 
HETATM    2  C2  UNL     1      51.102  35.796  44.455  1.00  0.00     0.205 C 
HETATM    3  O2  UNL     1      51.503  34.594  43.850  1.00  0.00    -0.356 OA
HETATM    4  C3  UNL     1      50.341  34.033  43.306  1.00  0.00     0.288 C 
HETATM    5  C4  UNL     1      49.504  33.559  44.475  1.00  0.00     0.204 C 
HETATM    6  C5  UNL     1      49.072  34.702  45.362  1.00  0.00     0.182 C 
ENDROOT
BRANCH   1   7
HETATM    7  O1  UNL     1      49.977  36.741  46.283  1.00  0.00    -0.391 OA
ATOM      8  H1  UNL     1      50.094  36.647  47.222  1.00  0.00     0.210 HD
ENDBRANCH   1   7
BRANCH   6   9
HETATM    9  O5  UNL     1      48.071  35.468  44.793  1.00  0.00    -0.390 OA
ATOM     10  H5  UNL     1      47.700  35.065  44.016  1.00  0.00     0.210 HD
ENDBRANCH   6   9
BRANCH   5  11
HETATM   11  O4  UNL     1      48.382  32.850  44.053  1.00  0.00    -0.388 OA
ATOM     12  H4  UNL     1      47.584  33.189  44.443  1.00  0.00     0.210 HD
ENDBRANCH   5  11
BRANCH   4  13
HETATM   13  O3  UNL     1      50.667  32.936  42.532  1.00  0.00    -0.369 OA
ATOM     14  H3  UNL     1      50.128  32.194  42.779  1.00  0.00     0.212 HD
ENDBRANCH   4  13
TORSDOF 4
ENDMDL
