MODEL 8
REMARK VINA RESULT: -3.950881004      6.939      8.286
REMARK  4 active torsions:
REMARK  status: ('A' for Active; 'I' for Inactive)
REMARK    1  A    between atoms: O1_1  and  C1_3 
REMARK    2  A    between atoms: C3_6  and  O3_7 
REMARK    3  A    between atoms: C4_9  and  O4_10 
REMARK    4  A    between atoms: C5_12  and  O5_13 
ROOT
HETATM    1  C1  UNL     1      57.317  40.240  46.774  1.00  0.00     0.173 C 
HETATM    2  C2  UNL     1      57.380  40.891  45.410  1.00  0.00     0.205 C 
HETATM    3  O2  UNL     1      57.379  39.910  44.405  1.00  0.00    -0.356 OA
HETATM    4  C3  UNL     1      56.088  39.369  44.398  1.00  0.00     0.288 C 
HETATM    5  C4  UNL     1      55.957  38.552  45.666  1.00  0.00     0.204 C 
HETATM    6  C5  UNL     1      56.073  39.409  46.905  1.00  0.00     0.182 C 
ENDROOT
BRANCH   1   7
HETATM    7  O1  UNL     1      57.379  41.265  47.725  1.00  0.00    -0.391 OA
ATOM      8  H1  UNL     1      56.535  41.701  47.724  1.00  0.00     0.210 HD
ENDBRANCH   1   7
BRANCH   6   9
HETATM    9  O5  UNL     1      54.944  40.173  47.131  1.00  0.00    -0.390 OA
ATOM     10  H5  UNL     1      54.507  39.949  47.944  1.00  0.00     0.210 HD
ENDBRANCH   6   9
BRANCH   5  11
HETATM   11  O4  UNL     1      54.757  37.845  45.702  1.00  0.00    -0.388 OA
ATOM     12  H4  UNL     1      54.825  37.064  46.240  1.00  0.00     0.210 HD
ENDBRANCH   5  11
BRANCH   4  13
HETATM   13  O3  UNL     1      55.940  38.521  43.317  1.00  0.00    -0.369 OA
ATOM     14  H3  UNL     1      55.020  38.328  43.181  1.00  0.00     0.212 HD
ENDBRANCH   4  13
TORSDOF 4
ENDMDL
