MODEL 14
REMARK VINA RESULT: -2.468202724      6.420      7.602
REMARK  4 active torsions:
REMARK  status: ('A' for Active; 'I' for Inactive)
REMARK    1  A    between atoms: O1_1  and  C1_3 
REMARK    2  A    between atoms: C3_6  and  O3_7 
REMARK    3  A    between atoms: C4_9  and  O4_10 
REMARK    4  A    between atoms: C5_12  and  O5_13 
ROOT
HETATM    1  C1  UNL     1      55.890  39.363  46.586  1.00  0.00     0.173 C 
HETATM    2  C2  UNL     1      56.165  40.581  45.731  1.00  0.00     0.205 C 
HETATM    3  O2  UNL     1      57.081  40.262  44.716  1.00  0.00    -0.356 OA
HETATM    4  C3  UNL     1      56.389  39.441  43.818  1.00  0.00     0.288 C 
HETATM    5  C4  UNL     1      56.186  38.113  44.518  1.00  0.00     0.204 C 
HETATM    6  C5  UNL     1      55.325  38.249  45.751  1.00  0.00     0.182 C 
ENDROOT
BRANCH   1   7
HETATM    7  O1  UNL     1      55.020  39.761  47.607  1.00  0.00    -0.391 OA
ATOM      8  H1  UNL     1      54.671  38.971  48.003  1.00  0.00     0.210 HD
ENDBRANCH   1   7
BRANCH   6   9
HETATM    9  O5  UNL     1      53.989  38.436  45.449  1.00  0.00    -0.390 OA
ATOM     10  H5  UNL     1      53.573  39.075  46.016  1.00  0.00     0.210 HD
ENDBRANCH   6   9
BRANCH   5  11
HETATM   11  O4  UNL     1      55.631  37.161  43.667  1.00  0.00    -0.388 OA
ATOM     12  H4  UNL     1      55.487  36.333  44.111  1.00  0.00     0.210 HD
ENDBRANCH   5  11
BRANCH   4  13
HETATM   13  O3  UNL     1      57.156  39.224  42.690  1.00  0.00    -0.369 OA
ATOM     14  H3  UNL     1      56.737  39.617  41.933  1.00  0.00     0.212 HD
ENDBRANCH   4  13
TORSDOF 4
ENDMDL
