MODEL 7
REMARK VINA RESULT: -4.762267115      6.778      8.123
REMARK  4 active torsions:
REMARK  status: ('A' for Active; 'I' for Inactive)
REMARK    1  A    between atoms: O1_1  and  C1_3 
REMARK    2  A    between atoms: C3_6  and  O3_7 
REMARK    3  A    between atoms: C4_9  and  O4_10 
REMARK    4  A    between atoms: C5_12  and  O5_13 
ROOT
HETATM    1  C1  UNL     1      56.864  39.644  47.222  1.00  0.00     0.173 C 
HETATM    2  C2  UNL     1      57.022  40.294  45.865  1.00  0.00     0.205 C 
HETATM    3  O2  UNL     1      56.985  39.319  44.855  1.00  0.00    -0.356 OA
HETATM    4  C3  UNL     1      55.659  38.874  44.799  1.00  0.00     0.288 C 
HETATM    5  C4  UNL     1      55.424  38.065  46.057  1.00  0.00     0.204 C 
HETATM    6  C5  UNL     1      55.559  38.905  47.304  1.00  0.00     0.182 C 
ENDROOT
BRANCH   1   7
HETATM    7  O1  UNL     1      56.967  40.658  48.181  1.00  0.00    -0.391 OA
ATOM      8  H1  UNL     1      56.288  40.503  48.828  1.00  0.00     0.210 HD
ENDBRANCH   1   7
BRANCH   6   9
HETATM    9  O5  UNL     1      54.481  39.749  47.496  1.00  0.00    -0.390 OA
ATOM     10  H5  UNL     1      54.338  40.331  46.759  1.00  0.00     0.210 HD
ENDBRANCH   6   9
BRANCH   5  11
HETATM   11  O4  UNL     1      54.176  37.446  46.047  1.00  0.00    -0.388 OA
ATOM     12  H4  UNL     1      53.933  37.157  45.175  1.00  0.00     0.210 HD
ENDBRANCH   5  11
BRANCH   4  13
HETATM   13  O3  UNL     1      55.487  38.043  43.709  1.00  0.00    -0.369 OA
ATOM     14  H3  UNL     1      56.269  37.521  43.573  1.00  0.00     0.212 HD
ENDBRANCH   4  13
TORSDOF 4
ENDMDL
