MODEL 11
REMARK VINA RESULT: -3.909417594      5.783      7.194
REMARK  4 active torsions:
REMARK  status: ('A' for Active; 'I' for Inactive)
REMARK    1  A    between atoms: O1_1  and  C1_3 
REMARK    2  A    between atoms: C3_6  and  O3_7 
REMARK    3  A    between atoms: C4_9  and  O4_10 
REMARK    4  A    between atoms: C5_12  and  O5_13 
ROOT
HETATM    1  C1  UNL     1      54.511  38.237  45.776  1.00  0.00     0.173 C 
HETATM    2  C2  UNL     1      54.537  36.724  45.762  1.00  0.00     0.205 C 
HETATM    3  O2  UNL     1      54.399  36.250  44.447  1.00  0.00    -0.356 OA
HETATM    4  C3  UNL     1      55.601  36.556  43.800  1.00  0.00     0.288 C 
HETATM    5  C4  UNL     1      55.620  38.059  43.616  1.00  0.00     0.204 C 
HETATM    6  C5  UNL     1      55.627  38.791  44.937  1.00  0.00     0.182 C 
ENDROOT
BRANCH   1   7
HETATM    7  O1  UNL     1      54.595  38.640  47.113  1.00  0.00    -0.391 OA
ATOM      8  H1  UNL     1      55.483  38.947  47.259  1.00  0.00     0.210 HD
ENDBRANCH   1   7
BRANCH   6   9
HETATM    9  O5  UNL     1      56.853  38.728  45.573  1.00  0.00    -0.390 OA
ATOM     10  H5  UNL     1      57.528  38.341  45.028  1.00  0.00     0.210 HD
ENDBRANCH   6   9
BRANCH   5  11
HETATM   11  O4  UNL     1      56.708  38.472  42.851  1.00  0.00    -0.388 OA
ATOM     12  H4  UNL     1      56.705  39.412  42.712  1.00  0.00     0.210 HD
ENDBRANCH   5  11
BRANCH   4  13
HETATM   13  O3  UNL     1      55.627  35.965  42.551  1.00  0.00    -0.369 OA
ATOM     14  H3  UNL     1      54.749  35.708  42.297  1.00  0.00     0.212 HD
ENDBRANCH   4  13
TORSDOF 4
ENDMDL
