MODEL 5
REMARK VINA RESULT: -4.836605300      6.268      7.342
REMARK  4 active torsions:
REMARK  status: ('A' for Active; 'I' for Inactive)
REMARK    1  A    between atoms: O1_1  and  C1_3 
REMARK    2  A    between atoms: C3_6  and  O3_7 
REMARK    3  A    between atoms: C4_9  and  O4_10 
REMARK    4  A    between atoms: C5_12  and  O5_13 
ROOT
HETATM    1  C1  UNL     1      55.974  38.791  46.596  1.00  0.00     0.173 C 
HETATM    2  C2  UNL     1      56.198  39.846  45.535  1.00  0.00     0.205 C 
HETATM    3  O2  UNL     1      56.791  39.271  44.399  1.00  0.00    -0.356 OA
HETATM    4  C3  UNL     1      55.798  38.484  43.805  1.00  0.00     0.288 C 
HETATM    5  C4  UNL     1      55.591  37.292  44.716  1.00  0.00     0.204 C 
HETATM    6  C5  UNL     1      55.078  37.702  46.076  1.00  0.00     0.182 C 
ENDROOT
BRANCH   1   7
HETATM    7  O1  UNL     1      55.437  39.436  47.716  1.00  0.00    -0.391 OA
ATOM      8  H1  UNL     1      54.563  39.087  47.850  1.00  0.00     0.210 HD
ENDBRANCH   1   7
BRANCH   6   9
HETATM    9  O5  UNL     1      53.747  38.074  46.053  1.00  0.00    -0.390 OA
ATOM     10  H5  UNL     1      53.304  37.795  45.260  1.00  0.00     0.210 HD
ENDBRANCH   6   9
BRANCH   5  11
HETATM   11  O4  UNL     1      54.723  36.359  44.155  1.00  0.00    -0.388 OA
ATOM     12  H4  UNL     1      54.712  35.546  44.649  1.00  0.00     0.210 HD
ENDBRANCH   5  11
BRANCH   4  13
HETATM   13  O3  UNL     1      56.235  38.022  42.578  1.00  0.00    -0.369 OA
ATOM     14  H3  UNL     1      55.505  37.663  42.088  1.00  0.00     0.212 HD
ENDBRANCH   4  13
TORSDOF 4
ENDMDL
