MODEL 6
REMARK VINA RESULT: -4.835086848      1.247      1.423
REMARK  4 active torsions:
REMARK  status: ('A' for Active; 'I' for Inactive)
REMARK    1  A    between atoms: O1_1  and  C1_3 
REMARK    2  A    between atoms: C3_6  and  O3_7 
REMARK    3  A    between atoms: C4_9  and  O4_10 
REMARK    4  A    between atoms: C5_12  and  O5_13 
ROOT
HETATM    1  C1  UNL     1      50.895  34.986  45.213  1.00  0.00     0.173 C 
HETATM    2  C2  UNL     1      50.854  34.722  43.724  1.00  0.00     0.205 C 
HETATM    3  O2  UNL     1      50.367  33.428  43.475  1.00  0.00    -0.356 OA
HETATM    4  C3  UNL     1      49.004  33.464  43.789  1.00  0.00     0.288 C 
HETATM    5  C4  UNL     1      48.913  33.574  45.297  1.00  0.00     0.204 C 
HETATM    6  C5  UNL     1      49.521  34.859  45.809  1.00  0.00     0.182 C 
ENDROOT
BRANCH   1   7
HETATM    7  O1  UNL     1      51.440  36.262  45.393  1.00  0.00    -0.391 OA
ATOM      8  H1  UNL     1      51.487  36.671  44.536  1.00  0.00     0.210 HD
ENDBRANCH   1   7
BRANCH   6   9
HETATM    9  O5  UNL     1      48.727  35.961  45.555  1.00  0.00    -0.390 OA
ATOM     10  H5  UNL     1      48.095  35.805  44.863  1.00  0.00     0.210 HD
ENDBRANCH   6   9
BRANCH   5  11
HETATM   11  O4  UNL     1      47.597  33.475  45.743  1.00  0.00    -0.388 OA
ATOM     12  H4  UNL     1      47.470  32.713  46.297  1.00  0.00     0.210 HD
ENDBRANCH   5  11
BRANCH   4  13
HETATM   13  O3  UNL     1      48.400  32.283  43.403  1.00  0.00    -0.369 OA
ATOM     14  H3  UNL     1      47.905  31.920  44.127  1.00  0.00     0.212 HD
ENDBRANCH   4  13
TORSDOF 4
ENDMDL
