MODEL 1
REMARK VINA RESULT: -6.957436107      0.000      0.000
REMARK  4 active torsions:
REMARK  status: ('A' for Active; 'I' for Inactive)
REMARK    1  A    between atoms: O1_1  and  C1_3 
REMARK    2  A    between atoms: C3_6  and  O3_7 
REMARK    3  A    between atoms: C4_9  and  O4_10 
REMARK    4  A    between atoms: C5_12  and  O5_13 
ROOT
HETATM    1  C1  UNL     1      49.976  35.132  45.991  1.00  0.00     0.173 C 
HETATM    2  C2  UNL     1      50.731  35.457  44.720  1.00  0.00     0.205 C 
HETATM    3  O2  UNL     1      51.101  34.274  44.061  1.00  0.00    -0.356 OA
HETATM    4  C3  UNL     1      49.915  33.733  43.550  1.00  0.00     0.288 C 
HETATM    5  C4  UNL     1      49.127  33.224  44.738  1.00  0.00     0.204 C 
HETATM    6  C5  UNL     1      48.738  34.340  45.679  1.00  0.00     0.182 C 
ENDROOT
BRANCH   1   7
HETATM    7  O1  UNL     1      49.689  36.346  46.625  1.00  0.00    -0.391 OA
ATOM      8  H1  UNL     1      48.837  36.255  47.034  1.00  0.00     0.210 HD
ENDBRANCH   1   7
BRANCH   6   9
HETATM    9  O5  UNL     1      47.716  35.125  45.179  1.00  0.00    -0.390 OA
ATOM     10  H5  UNL     1      47.071  34.621  44.696  1.00  0.00     0.210 HD
ENDBRANCH   6   9
BRANCH   5  11
HETATM   11  O4  UNL     1      47.985  32.532  44.343  1.00  0.00    -0.388 OA
ATOM     12  H4  UNL     1      47.775  31.826  44.944  1.00  0.00     0.210 HD
ENDBRANCH   5  11
BRANCH   4  13
HETATM   13  O3  UNL     1      50.203  32.661  42.728  1.00  0.00    -0.369 OA
ATOM     14  H3  UNL     1      50.216  31.858  43.235  1.00  0.00     0.212 HD
ENDBRANCH   4  13
TORSDOF 4
ENDMDL
