MODEL 1
REMARK VINA RESULT: -9.925457033      0.000      0.000
REMARK  15 active torsions:
REMARK  status: ('A' for Active; 'I' for Inactive)
REMARK    1  A    between atoms: C2_2  and  C3_4 
REMARK    2  A    between atoms: N1_6  and  C5_7 
REMARK    3  A    between atoms: C6_9  and  C7_10 
REMARK    4  A    between atoms: C7_10  and  O3_11 
REMARK    5  A    between atoms: O3_11  and  P1_12 
REMARK    6  A    between atoms: P1_12  and  O6_15 
REMARK    7  A    between atoms: O6_15  and  P2_16 
REMARK    8  A    between atoms: P2_16  and  O9_19 
REMARK    9  A    between atoms: O9_19  and  C8_20 
REMARK   10  A    between atoms: C8_20  and  C9_21 
REMARK   11  A    between atoms: C10_23  and  N2_24 
REMARK   12  A    between atoms: C16_37  and  O11_38 
REMARK   13  A    between atoms: C17_40  and  O12_41 
REMARK   14  A    between atoms: C18_43  and  O13_44 
REMARK   15  A    between atoms: C19_46  and  O14_47 
ROOT
HETATM    1  P2  UNL     1       8.332  28.814  23.212  1.00  0.00     0.417 P 
HETATM    2  O7  UNL     1       8.405  30.473  23.107  1.00  0.00    -0.624 OA
HETATM    3  O8  UNL     1       7.353  28.172  24.375  1.00  0.00    -0.624 OA
ENDROOT
BRANCH   1   4
HETATM    4  O6  UNL     1       9.517  28.810  24.184  1.00  0.00    -0.180 OA
BRANCH   4   5
HETATM    5  P1  UNL     1      10.933  28.241  23.975  1.00  0.00     0.417 P 
HETATM    6  O4  UNL     1      10.322  26.762  24.450  1.00  0.00    -0.624 OA
HETATM    7  O5  UNL     1      12.302  27.612  23.678  1.00  0.00    -0.624 OA
BRANCH   5   8
HETATM    8  O3  UNL     1      11.521  29.249  25.113  1.00  0.00    -0.287 OA
BRANCH   8   9
HETATM    9  C7  UNL     1      11.759  30.484  24.569  1.00  0.00     0.216 C 
BRANCH   9  10
HETATM   10  C6  UNL     1      12.063  31.490  25.622  1.00  0.00     0.180 C 
HETATM   11  O2  UNL     1      10.966  32.048  26.218  1.00  0.00    -0.353 OA
HETATM   12  C5  UNL     1      11.409  32.612  27.427  1.00  0.00     0.259 C 
HETATM   13  C19 UNL     1      12.721  32.074  27.761  1.00  0.00     0.198 C 
HETATM   14  C18 UNL     1      12.804  30.872  26.805  1.00  0.00     0.182 C 
BRANCH  12  15
HETATM   15  N1  UNL     1      10.343  32.495  28.360  1.00  0.00    -0.337 N 
HETATM   16  C4  UNL     1       9.021  32.494  27.834  1.00  0.00     0.104 A 
HETATM   17  C3  UNL     1       7.932  32.393  28.569  1.00  0.00     0.006 A 
HETATM   18  C22 UNL     1       8.010  32.268  30.028  1.00  0.00     0.072 A 
HETATM   19  C21 UNL     1       9.392  32.274  30.517  1.00  0.00    -0.005 A 
HETATM   20  C20 UNL     1      10.454  32.375  29.770  1.00  0.00     0.089 A 
BRANCH  17  21
HETATM   21  C2  UNL     1       6.596  32.402  27.944  1.00  0.00     0.153 C 
HETATM   22  C1  UNL     1       5.483  33.044  28.649  1.00  0.00     0.096 C 
HETATM   23  O1  UNL     1       6.428  31.867  26.835  1.00  0.00    -0.293 OA
ENDBRANCH  17  21
ENDBRANCH  12  15
BRANCH  13  24
HETATM   24  O14 UNL     1      13.749  32.938  27.305  1.00  0.00    -0.388 OA
ATOM     25  H14 UNL     1      13.528  33.846  27.481  1.00  0.00     0.210 HD
ENDBRANCH  13  24
BRANCH  14  26
HETATM   26  O13 UNL     1      14.118  30.567  26.500  1.00  0.00    -0.390 OA
ATOM     27  H13 UNL     1      14.479  29.905  27.078  1.00  0.00     0.210 HD
ENDBRANCH  14  26
ENDBRANCH   9  10
ENDBRANCH   8   9
ENDBRANCH   5   8
ENDBRANCH   4   5
ENDBRANCH   1   4
BRANCH   1  28
HETATM   28  O9  UNL     1       7.180  28.805  22.180  1.00  0.00    -0.287 OA
BRANCH  28  29
HETATM   29  C8  UNL     1       7.444  28.171  20.963  1.00  0.00     0.216 C 
BRANCH  29  30
HETATM   30  C9  UNL     1       8.217  29.008  20.025  1.00  0.00     0.180 C 
HETATM   31  O10 UNL     1       8.408  28.287  18.850  1.00  0.00    -0.353 OA
HETATM   32  C10 UNL     1       8.685  29.176  17.850  1.00  0.00     0.262 C 
HETATM   33  C16 UNL     1       8.212  30.531  18.263  1.00  0.00     0.198 C 
HETATM   34  C17 UNL     1       7.478  30.241  19.555  1.00  0.00     0.182 C 
BRANCH  32  35
HETATM   35  N2  UNL     1       7.982  28.775  16.639  1.00  0.00    -0.297 N 
HETATM   36  C11 UNL     1       6.654  28.561  16.556  1.00  0.00     0.188 A 
HETATM   37  N3  UNL     1       6.353  28.207  15.302  1.00  0.00    -0.346 N 
HETATM   38  C12 UNL     1       7.489  28.191  14.564  1.00  0.00     0.119 A 
ATOM     39  H3  UNL     1       5.419  27.985  14.957  1.00  0.00     0.167 HD
HETATM   40  C13 UNL     1       7.773  27.907  13.248  1.00  0.00     0.148 A 
HETATM   41  C15 UNL     1       8.494  28.548  15.418  1.00  0.00     0.142 A 
HETATM   42  N4  UNL     1       6.747  27.532  12.339  1.00  0.00    -0.080 NA
HETATM   43  N5  UNL     1       9.035  27.979  12.796  1.00  0.00    -0.339 N 
HETATM   44  C14 UNL     1      10.033  28.332  13.636  1.00  0.00     0.183 A 
ATOM     45  H5  UNL     1       9.240  27.767  11.819  1.00  0.00     0.167 HD
HETATM   46  N6  UNL     1       9.742  28.607  14.923  1.00  0.00    -0.336 N 
ATOM     47  H6  UNL     1      10.502  28.873  15.548  1.00  0.00     0.168 HD
ENDBRANCH  32  35
BRANCH  33  48
HETATM   48  O11 UNL     1       9.362  31.286  18.583  1.00  0.00    -0.388 OA
ATOM     49  H11 UNL     1       9.085  32.193  18.651  1.00  0.00     0.210 HD
ENDBRANCH  33  48
BRANCH  34  50
HETATM   50  O12 UNL     1       7.621  31.320  20.395  1.00  0.00    -0.390 OA
ATOM     51  H12 UNL     1       6.807  31.780  20.563  1.00  0.00     0.210 HD
ENDBRANCH  34  50
ENDBRANCH  29  30
ENDBRANCH  28  29
ENDBRANCH   1  28
TORSDOF 15
ENDMDL
