MODEL 4
REMARK VINA RESULT: -9.735770143      3.010     12.706
REMARK  15 active torsions:
REMARK  status: ('A' for Active; 'I' for Inactive)
REMARK    1  A    between atoms: C2_2  and  C3_4 
REMARK    2  A    between atoms: N1_6  and  C5_7 
REMARK    3  A    between atoms: C6_9  and  C7_10 
REMARK    4  A    between atoms: C7_10  and  O3_11 
REMARK    5  A    between atoms: O3_11  and  P1_12 
REMARK    6  A    between atoms: P1_12  and  O6_15 
REMARK    7  A    between atoms: O6_15  and  P2_16 
REMARK    8  A    between atoms: P2_16  and  O9_19 
REMARK    9  A    between atoms: O9_19  and  C8_20 
REMARK   10  A    between atoms: C8_20  and  C9_21 
REMARK   11  A    between atoms: C10_23  and  N2_24 
REMARK   12  A    between atoms: C16_37  and  O11_38 
REMARK   13  A    between atoms: C17_40  and  O12_41 
REMARK   14  A    between atoms: C18_43  and  O13_44 
REMARK   15  A    between atoms: C19_46  and  O14_47 
ROOT
HETATM    1  P2  UNL     1       9.153  28.732  21.045  1.00  0.00     0.417 P 
HETATM    2  O7  UNL     1      10.732  28.929  20.558  1.00  0.00    -0.624 OA
HETATM    3  O8  UNL     1       8.631  27.191  21.315  1.00  0.00    -0.624 OA
ENDROOT
BRANCH   1   4
HETATM    4  O6  UNL     1       8.699  28.648  19.583  1.00  0.00    -0.180 OA
BRANCH   4   5
HETATM    5  P1  UNL     1       7.500  29.338  18.905  1.00  0.00     0.417 P 
HETATM    6  O4  UNL     1       6.934  27.812  18.535  1.00  0.00    -0.624 OA
HETATM    7  O5  UNL     1       6.239  29.981  18.313  1.00  0.00    -0.624 OA
BRANCH   5   8
HETATM    8  O3  UNL     1       8.504  30.079  17.855  1.00  0.00    -0.287 OA
BRANCH   8   9
HETATM    9  C7  UNL     1       9.271  29.148  17.203  1.00  0.00     0.216 C 
BRANCH   9  10
HETATM   10  C6  UNL     1       9.045  29.197  15.733  1.00  0.00     0.180 C 
HETATM   11  O2  UNL     1      10.169  29.021  14.973  1.00  0.00    -0.353 OA
HETATM   12  C5  UNL     1       9.730  28.669  13.685  1.00  0.00     0.259 C 
HETATM   13  C19 UNL     1       8.334  28.259  13.743  1.00  0.00     0.198 C 
HETATM   14  C18 UNL     1       8.141  28.063  15.256  1.00  0.00     0.182 C 
BRANCH  12  15
HETATM   15  N1  UNL     1      10.700  27.786  13.139  1.00  0.00    -0.337 N 
HETATM   16  C4  UNL     1      11.740  28.368  12.360  1.00  0.00     0.104 A 
HETATM   17  C3  UNL     1      12.710  27.683  11.790  1.00  0.00     0.006 A 
HETATM   18  C22 UNL     1      12.789  26.224  11.924  1.00  0.00     0.072 A 
HETATM   19  C21 UNL     1      11.697  25.676  12.734  1.00  0.00    -0.005 A 
HETATM   20  C20 UNL     1      10.748  26.375  13.289  1.00  0.00     0.089 A 
BRANCH  17  21
HETATM   21  C2  UNL     1      13.749  28.364  10.996  1.00  0.00     0.153 C 
HETATM   22  C1  UNL     1      14.628  27.567  10.136  1.00  0.00     0.096 C 
HETATM   23  O1  UNL     1      13.871  29.599  11.065  1.00  0.00    -0.293 OA
ENDBRANCH  17  21
ENDBRANCH  12  15
BRANCH  13  24
HETATM   24  O14 UNL     1       7.477  29.347  13.432  1.00  0.00    -0.388 OA
ATOM     25  H14 UNL     1       7.724  29.743  12.604  1.00  0.00     0.210 HD
ENDBRANCH  13  24
BRANCH  14  26
HETATM   26  O13 UNL     1       6.821  28.255  15.620  1.00  0.00    -0.390 OA
ATOM     27  H13 UNL     1       6.219  27.782  15.058  1.00  0.00     0.210 HD
ENDBRANCH  14  26
ENDBRANCH   9  10
ENDBRANCH   8   9
ENDBRANCH   5   8
ENDBRANCH   4   5
ENDBRANCH   1   4
BRANCH   1  28
HETATM   28  O9  UNL     1       9.595  28.884  22.520  1.00  0.00    -0.287 OA
BRANCH  28  29
HETATM   29  C8  UNL     1       9.229  30.072  23.157  1.00  0.00     0.216 C 
BRANCH  29  30
HETATM   30  C9  UNL     1      10.317  30.663  23.960  1.00  0.00     0.180 C 
HETATM   31  O10 UNL     1       9.756  31.550  24.873  1.00  0.00    -0.353 OA
HETATM   32  C10 UNL     1      10.650  31.730  25.891  1.00  0.00     0.262 C 
HETATM   33  C16 UNL     1      11.617  30.592  25.892  1.00  0.00     0.198 C 
HETATM   34  C17 UNL     1      11.034  29.667  24.845  1.00  0.00     0.182 C 
BRANCH  32  35
HETATM   35  N2  UNL     1       9.937  31.750  27.162  1.00  0.00    -0.297 N 
HETATM   36  C11 UNL     1      10.341  32.424  28.257  1.00  0.00     0.188 A 
HETATM   37  N3  UNL     1       9.454  32.221  29.238  1.00  0.00    -0.346 N 
HETATM   38  C12 UNL     1       8.468  31.414  28.779  1.00  0.00     0.119 A 
ATOM     39  H3  UNL     1       9.511  32.612  30.178  1.00  0.00     0.167 HD
HETATM   40  C13 UNL     1       7.325  30.887  29.335  1.00  0.00     0.148 A 
HETATM   41  C15 UNL     1       8.789  31.132  27.481  1.00  0.00     0.142 A 
HETATM   42  N4  UNL     1       6.967  31.163  30.681  1.00  0.00    -0.080 NA
HETATM   43  N5  UNL     1       6.521  30.095  28.607  1.00  0.00    -0.339 N 
HETATM   44  C14 UNL     1       6.833  29.812  27.324  1.00  0.00     0.183 A 
ATOM     45  H5  UNL     1       5.674  29.706  29.024  1.00  0.00     0.167 HD
HETATM   46  N6  UNL     1       7.956  30.335  26.791  1.00  0.00    -0.336 N 
ATOM     47  H6  UNL     1       8.183  30.115  25.821  1.00  0.00     0.168 HD
ENDBRANCH  32  35
BRANCH  33  48
HETATM   48  O11 UNL     1      12.838  31.092  25.389  1.00  0.00    -0.388 OA
ATOM     49  H11 UNL     1      13.110  30.506  24.692  1.00  0.00     0.210 HD
ENDBRANCH  33  48
BRANCH  34  50
HETATM   50  O12 UNL     1      12.063  29.012  24.212  1.00  0.00    -0.390 OA
ATOM     51  H12 UNL     1      12.915  29.185  24.595  1.00  0.00     0.210 HD
ENDBRANCH  34  50
ENDBRANCH  29  30
ENDBRANCH  28  29
ENDBRANCH   1  28
TORSDOF 15
ENDMDL
