MODEL 3
REMARK VINA RESULT: -9.740748736      3.073     12.731
REMARK  15 active torsions:
REMARK  status: ('A' for Active; 'I' for Inactive)
REMARK    1  A    between atoms: C2_2  and  C3_4 
REMARK    2  A    between atoms: N1_6  and  C5_7 
REMARK    3  A    between atoms: C6_9  and  C7_10 
REMARK    4  A    between atoms: C7_10  and  O3_11 
REMARK    5  A    between atoms: O3_11  and  P1_12 
REMARK    6  A    between atoms: P1_12  and  O6_15 
REMARK    7  A    between atoms: O6_15  and  P2_16 
REMARK    8  A    between atoms: P2_16  and  O9_19 
REMARK    9  A    between atoms: O9_19  and  C8_20 
REMARK   10  A    between atoms: C8_20  and  C9_21 
REMARK   11  A    between atoms: C10_23  and  N2_24 
REMARK   12  A    between atoms: C16_37  and  O11_38 
REMARK   13  A    between atoms: C17_40  and  O12_41 
REMARK   14  A    between atoms: C18_43  and  O13_44 
REMARK   15  A    between atoms: C19_46  and  O14_47 
ROOT
HETATM    1  P2  UNL     1       8.142  28.868  20.600  1.00  0.00     0.417 P 
HETATM    2  O7  UNL     1       9.468  27.866  20.666  1.00  0.00    -0.624 OA
HETATM    3  O8  UNL     1       6.675  28.165  20.328  1.00  0.00    -0.624 OA
ENDROOT
BRANCH   1   4
HETATM    4  O6  UNL     1       8.347  29.061  19.093  1.00  0.00    -0.180 OA
BRANCH   4   5
HETATM    5  P1  UNL     1       8.775  30.332  18.334  1.00  0.00     0.417 P 
HETATM    6  O4  UNL     1       7.615  31.150  19.211  1.00  0.00    -0.624 OA
HETATM    7  O5  UNL     1       9.242  31.638  17.677  1.00  0.00    -0.624 OA
BRANCH   5   8
HETATM    8  O3  UNL     1       8.349  29.645  16.918  1.00  0.00    -0.287 OA
BRANCH   8   9
HETATM    9  C7  UNL     1       9.421  29.625  16.064  1.00  0.00     0.216 C 
BRANCH   9  10
HETATM   10  C6  UNL     1       9.177  28.718  14.911  1.00  0.00     0.180 C 
HETATM   11  O2  UNL     1      10.171  28.702  13.971  1.00  0.00    -0.353 OA
HETATM   12  C5  UNL     1       9.995  27.526  13.221  1.00  0.00     0.259 C 
HETATM   13  C19 UNL     1       9.110  26.620  13.940  1.00  0.00     0.198 C 
HETATM   14  C18 UNL     1       9.105  27.255  15.341  1.00  0.00     0.182 C 
BRANCH  12  15
HETATM   15  N1  UNL     1      11.287  27.083  12.827  1.00  0.00    -0.337 N 
HETATM   16  C4  UNL     1      12.090  28.001  12.094  1.00  0.00     0.104 A 
HETATM   17  C3  UNL     1      13.307  27.739  11.661  1.00  0.00     0.006 A 
HETATM   18  C22 UNL     1      13.938  26.439  11.914  1.00  0.00     0.072 A 
HETATM   19  C21 UNL     1      13.070  25.533  12.672  1.00  0.00    -0.005 A 
HETATM   20  C20 UNL     1      11.870  25.816  13.090  1.00  0.00     0.089 A 
BRANCH  17  21
HETATM   21  C2  UNL     1      14.073  28.747  10.906  1.00  0.00     0.153 C 
HETATM   22  C1  UNL     1      15.107  28.302   9.967  1.00  0.00     0.096 C 
HETATM   23  O1  UNL     1      13.837  29.956  11.072  1.00  0.00    -0.293 OA
ENDBRANCH  17  21
ENDBRANCH  12  15
BRANCH  13  24
HETATM   24  O14 UNL     1       7.771  26.769  13.497  1.00  0.00    -0.388 OA
ATOM     25  H14 UNL     1       7.352  27.502  13.933  1.00  0.00     0.210 HD
ENDBRANCH  13  24
BRANCH  14  26
HETATM   26  O13 UNL     1       7.933  26.963  16.016  1.00  0.00    -0.390 OA
ATOM     27  H13 UNL     1       7.415  26.303  15.570  1.00  0.00     0.210 HD
ENDBRANCH  14  26
ENDBRANCH   9  10
ENDBRANCH   8   9
ENDBRANCH   5   8
ENDBRANCH   4   5
ENDBRANCH   1   4
BRANCH   1  28
HETATM   28  O9  UNL     1       7.969  28.733  22.131  1.00  0.00    -0.287 OA
BRANCH  28  29
HETATM   29  C8  UNL     1       8.594  29.706  22.914  1.00  0.00     0.216 C 
BRANCH  29  30
HETATM   30  C9  UNL     1       9.995  29.379  23.244  1.00  0.00     0.180 C 
HETATM   31  O10 UNL     1      10.526  30.427  23.990  1.00  0.00    -0.353 OA
HETATM   32  C10 UNL     1      11.605  29.950  24.678  1.00  0.00     0.262 C 
HETATM   33  C16 UNL     1      11.511  28.462  24.756  1.00  0.00     0.198 C 
HETATM   34  C17 UNL     1      10.142  28.190  24.168  1.00  0.00     0.182 C 
BRANCH  32  35
HETATM   35  N2  UNL     1      11.599  30.499  26.028  1.00  0.00    -0.297 N 
HETATM   36  C11 UNL     1      12.662  30.512  26.857  1.00  0.00     0.188 A 
HETATM   37  N3  UNL     1      12.302  31.087  28.009  1.00  0.00    -0.346 N 
HETATM   38  C12 UNL     1      11.000  31.451  27.931  1.00  0.00     0.119 A 
ATOM     39  H3  UNL     1      12.910  31.229  28.816  1.00  0.00     0.167 HD
HETATM   40  C13 UNL     1      10.123  32.067  28.795  1.00  0.00     0.148 A 
HETATM   41  C15 UNL     1      10.580  31.075  26.687  1.00  0.00     0.142 A 
HETATM   42  N4  UNL     1      10.532  32.468  30.095  1.00  0.00    -0.080 NA
HETATM   43  N5  UNL     1       8.855  32.301  28.422  1.00  0.00    -0.339 N 
HETATM   44  C14 UNL     1       8.435  31.931  27.192  1.00  0.00     0.183 A 
ATOM     45  H5  UNL     1       8.209  32.758  29.066  1.00  0.00     0.167 HD
HETATM   46  N6  UNL     1       9.302  31.328  26.355  1.00  0.00    -0.336 N 
ATOM     47  H6  UNL     1       8.976  31.053  25.429  1.00  0.00     0.168 HD
ENDBRANCH  32  35
BRANCH  33  48
HETATM   48  O11 UNL     1      12.473  27.943  23.861  1.00  0.00    -0.388 OA
ATOM     49  H11 UNL     1      12.147  27.101  23.564  1.00  0.00     0.210 HD
ENDBRANCH  33  48
BRANCH  34  50
HETATM   50  O12 UNL     1      10.176  26.984  23.509  1.00  0.00    -0.390 OA
ATOM     51  H12 UNL     1      11.057  26.677  23.327  1.00  0.00     0.210 HD
ENDBRANCH  34  50
ENDBRANCH  29  30
ENDBRANCH  28  29
ENDBRANCH   1  28
TORSDOF 15
ENDMDL
