MODEL 14
REMARK VINA RESULT: -9.212387501      3.236      5.699
REMARK  15 active torsions:
REMARK  status: ('A' for Active; 'I' for Inactive)
REMARK    1  A    between atoms: C2_2  and  C3_4 
REMARK    2  A    between atoms: N1_6  and  C5_7 
REMARK    3  A    between atoms: C6_9  and  C7_10 
REMARK    4  A    between atoms: C7_10  and  O3_11 
REMARK    5  A    between atoms: O3_11  and  P1_12 
REMARK    6  A    between atoms: P1_12  and  O6_15 
REMARK    7  A    between atoms: O6_15  and  P2_16 
REMARK    8  A    between atoms: P2_16  and  O9_19 
REMARK    9  A    between atoms: O9_19  and  C8_20 
REMARK   10  A    between atoms: C8_20  and  C9_21 
REMARK   11  A    between atoms: C10_23  and  N2_24 
REMARK   12  A    between atoms: C16_37  and  O11_38 
REMARK   13  A    between atoms: C17_40  and  O12_41 
REMARK   14  A    between atoms: C18_43  and  O13_44 
REMARK   15  A    between atoms: C19_46  and  O14_47 
ROOT
HETATM    1  P2  UNL     1       8.410  29.818  17.873  1.00  0.00     0.417 P 
HETATM    2  O7  UNL     1       9.246  31.148  17.326  1.00  0.00    -0.624 OA
HETATM    3  O8  UNL     1       6.833  29.672  17.411  1.00  0.00    -0.624 OA
ENDROOT
BRANCH   1   4
HETATM    4  O6  UNL     1       7.988  30.585  19.132  1.00  0.00    -0.180 OA
BRANCH   4   5
HETATM    5  P1  UNL     1       7.653  30.032  20.530  1.00  0.00     0.417 P 
HETATM    6  O4  UNL     1       7.870  31.584  21.107  1.00  0.00    -0.624 OA
HETATM    7  O5  UNL     1       7.221  29.545  21.920  1.00  0.00    -0.624 OA
BRANCH   5   8
HETATM    8  O3  UNL     1       8.940  29.035  20.460  1.00  0.00    -0.287 OA
BRANCH   8   9
HETATM    9  C7  UNL     1      10.081  29.717  20.795  1.00  0.00     0.216 C 
BRANCH   9  10
HETATM   10  C6  UNL     1      10.906  28.946  21.763  1.00  0.00     0.180 C 
HETATM   11  O2  UNL     1      11.283  29.642  22.879  1.00  0.00    -0.353 OA
HETATM   12  C5  UNL     1      11.656  28.687  23.840  1.00  0.00     0.259 C 
HETATM   13  C19 UNL     1      11.153  27.379  23.446  1.00  0.00     0.198 C 
HETATM   14  C18 UNL     1      10.141  27.764  22.353  1.00  0.00     0.182 C 
BRANCH  12  15
HETATM   15  N1  UNL     1      11.313  29.218  25.114  1.00  0.00    -0.337 N 
HETATM   16  C4  UNL     1      11.690  30.565  25.376  1.00  0.00     0.104 A 
HETATM   17  C3  UNL     1      11.442  31.196  26.506  1.00  0.00     0.006 A 
HETATM   18  C22 UNL     1      10.737  30.532  27.607  1.00  0.00     0.072 A 
HETATM   19  C21 UNL     1      10.372  29.149  27.286  1.00  0.00    -0.005 A 
HETATM   20  C20 UNL     1      10.627  28.546  26.160  1.00  0.00     0.089 A 
BRANCH  17  21
HETATM   21  C2  UNL     1      11.869  32.594  26.698  1.00  0.00     0.153 C 
HETATM   22  C1  UNL     1      12.640  32.947  27.894  1.00  0.00     0.096 C 
HETATM   23  O1  UNL     1      11.572  33.454  25.852  1.00  0.00    -0.293 OA
ENDBRANCH  17  21
ENDBRANCH  12  15
BRANCH  13  24
HETATM   24  O14 UNL     1      12.146  26.649  22.744  1.00  0.00    -0.388 OA
ATOM     25  H14 UNL     1      11.800  25.818  22.438  1.00  0.00     0.210 HD
ENDBRANCH  13  24
BRANCH  14  26
HETATM   26  O13 UNL     1       9.978  26.738  21.440  1.00  0.00    -0.390 OA
ATOM     27  H13 UNL     1      10.229  25.894  21.797  1.00  0.00     0.210 HD
ENDBRANCH  14  26
ENDBRANCH   9  10
ENDBRANCH   8   9
ENDBRANCH   5   8
ENDBRANCH   4   5
ENDBRANCH   1   4
BRANCH   1  28
HETATM   28  O9  UNL     1       8.888  29.016  16.640  1.00  0.00    -0.287 OA
BRANCH  28  29
HETATM   29  C8  UNL     1       9.215  29.762  15.505  1.00  0.00     0.216 C 
BRANCH  29  30
HETATM   30  C9  UNL     1       8.753  29.143  14.247  1.00  0.00     0.180 C 
HETATM   31  O10 UNL     1       9.786  28.363  13.737  1.00  0.00    -0.353 OA
HETATM   32  C10 UNL     1       9.242  27.450  12.879  1.00  0.00     0.262 C 
HETATM   33  C16 UNL     1       7.785  27.313  13.179  1.00  0.00     0.198 C 
HETATM   34  C17 UNL     1       7.630  28.146  14.434  1.00  0.00     0.182 C 
BRANCH  32  35
HETATM   35  N2  UNL     1       9.890  26.159  13.071  1.00  0.00    -0.297 N 
HETATM   36  C11 UNL     1       9.293  25.070  13.595  1.00  0.00     0.188 A 
HETATM   37  N3  UNL     1      10.178  24.067  13.624  1.00  0.00    -0.346 N 
HETATM   38  C12 UNL     1      11.356  24.504  13.117  1.00  0.00     0.119 A 
ATOM     39  H3  UNL     1       9.996  23.126  13.973  1.00  0.00     0.167 HD
HETATM   40  C13 UNL     1      12.585  23.921  12.908  1.00  0.00     0.148 A 
HETATM   41  C15 UNL     1      11.154  25.812  12.778  1.00  0.00     0.142 A 
HETATM   42  N4  UNL     1      12.822  22.564  13.252  1.00  0.00    -0.080 NA
HETATM   43  N5  UNL     1      13.590  24.632  12.372  1.00  0.00    -0.339 N 
HETATM   44  C14 UNL     1      13.396  25.926  12.035  1.00  0.00     0.183 A 
ATOM     45  H5  UNL     1      14.499  24.195  12.219  1.00  0.00     0.167 HD
HETATM   46  N6  UNL     1      12.188  26.486  12.244  1.00  0.00    -0.336 N 
ATOM     47  H6  UNL     1      12.052  27.463  11.986  1.00  0.00     0.168 HD
ENDBRANCH  32  35
BRANCH  33  48
HETATM   48  O11 UNL     1       7.090  27.970  12.139  1.00  0.00    -0.388 OA
ATOM     49  H11 UNL     1       7.059  28.892  12.369  1.00  0.00     0.210 HD
ENDBRANCH  33  48
BRANCH  34  50
HETATM   50  O12 UNL     1       6.381  28.719  14.431  1.00  0.00    -0.390 OA
ATOM     51  H12 UNL     1       5.691  28.124  14.164  1.00  0.00     0.210 HD
ENDBRANCH  34  50
ENDBRANCH  29  30
ENDBRANCH  28  29
ENDBRANCH   1  28
TORSDOF 15
ENDMDL
