MODEL 11
REMARK VINA RESULT: -6.809684880      6.263      7.939
REMARK  7 active torsions:
REMARK  status: ('A' for Active; 'I' for Inactive)
REMARK    1  A    between atoms: N1_5  and  C4_6 
REMARK    2  A    between atoms: C6_8  and  O2_9 
REMARK    3  A    between atoms: C7_11  and  C8_12 
REMARK    4  A    between atoms: C8_12  and  O3_13 
REMARK    5  A    between atoms: O3_13  and  P1_14 
REMARK    6  A    between atoms: P1_14  and  O6_17 
REMARK    7  A    between atoms: O6_17  and  P2_18 
ROOT
HETATM    1  C4  UNL     1     -14.610  39.715  35.378  1.00  0.00     0.235 C 
HETATM    2  C5  UNL     1     -15.459  40.740  34.657  1.00  0.00     0.088 C 
HETATM    3  C6  UNL     1     -14.916  40.626  33.235  1.00  0.00     0.153 C 
HETATM    4  C7  UNL     1     -14.554  39.145  33.243  1.00  0.00     0.177 C 
HETATM    5  O10 UNL     1     -13.872  39.045  34.434  1.00  0.00    -0.356 OA
ENDROOT
BRANCH   4   6
HETATM    6  C8  UNL     1     -13.710  38.838  32.040  1.00  0.00     0.216 C 
BRANCH   6   7
HETATM    7  O3  UNL     1     -12.887  39.896  31.809  1.00  0.00    -0.287 OA
BRANCH   7   8
HETATM    8  P1  UNL     1     -12.091  40.039  30.424  1.00  0.00     0.418 P 
HETATM    9  O4  UNL     1     -10.906  38.971  29.952  1.00  0.00    -0.624 OA
HETATM   10  O5  UNL     1     -12.462  41.265  29.334  1.00  0.00    -0.624 OA
BRANCH   8  11
HETATM   11  O6  UNL     1     -11.020  40.958  31.020  1.00  0.00    -0.173 OA
BRANCH  11  12
HETATM   12  P2  UNL     1     -10.745  41.301  32.484  1.00  0.00     0.431 P 
HETATM   13  O7  UNL     1     -12.101  42.261  32.500  1.00  0.00    -0.616 OA
HETATM   14  O8  UNL     1     -10.804  39.796  33.021  1.00  0.00    -0.616 OA
HETATM   15  O9  UNL     1      -9.293  42.001  31.992  1.00  0.00    -0.616 OA
ENDBRANCH  11  12
ENDBRANCH   8  11
ENDBRANCH   7   8
ENDBRANCH   6   7
ENDBRANCH   4   6
BRANCH   3  16
HETATM   16  O2  UNL     1     -15.864  40.927  32.283  1.00  0.00    -0.393 OA
ATOM     17  H2  UNL     1     -15.478  41.172  31.450  1.00  0.00     0.210 HD
ENDBRANCH   3  16
BRANCH   1  18
HETATM   18  N1  UNL     1     -13.765  40.441  36.303  1.00  0.00    -0.282 N 
HETATM   19  C3  UNL     1     -13.403  41.711  36.008  1.00  0.00     0.104 A 
HETATM   20  C2  UNL     1     -12.607  42.458  36.839  1.00  0.00     0.092 A 
HETATM   21  C1  UNL     1     -12.159  41.902  38.007  1.00  0.00     0.250 A 
HETATM   22  O1  UNL     1     -11.427  42.574  38.778  1.00  0.00    -0.268 OA
HETATM   23  N2  UNL     1     -12.519  40.629  38.307  1.00  0.00    -0.275 N 
HETATM   24  C9  UNL     1     -13.311  39.925  37.456  1.00  0.00     0.331 A 
ATOM     25  H2  UNL     1     -12.195  40.199  39.173  1.00  0.00     0.173 HD
HETATM   26  O11 UNL     1     -13.657  38.730  37.723  1.00  0.00    -0.246 OA
ENDBRANCH   1  18
TORSDOF 7
ENDMDL
