MODEL 3
REMARK VINA RESULT: -7.225277669      1.095      1.515
REMARK  7 active torsions:
REMARK  status: ('A' for Active; 'I' for Inactive)
REMARK    1  A    between atoms: N1_5  and  C4_6 
REMARK    2  A    between atoms: C6_8  and  O2_9 
REMARK    3  A    between atoms: C7_11  and  C8_12 
REMARK    4  A    between atoms: C8_12  and  O3_13 
REMARK    5  A    between atoms: O3_13  and  P1_14 
REMARK    6  A    between atoms: P1_14  and  O6_17 
REMARK    7  A    between atoms: O6_17  and  P2_18 
ROOT
HETATM    1  C4  UNL     1      -6.288  36.439  32.243  1.00  0.00     0.235 C 
HETATM    2  C5  UNL     1      -5.614  36.421  33.599  1.00  0.00     0.088 C 
HETATM    3  C6  UNL     1      -6.443  37.455  34.356  1.00  0.00     0.153 C 
HETATM    4  C7  UNL     1      -7.785  37.225  33.668  1.00  0.00     0.177 C 
HETATM    5  O10 UNL     1      -7.409  37.226  32.345  1.00  0.00    -0.356 OA
ENDROOT
BRANCH   4   6
HETATM    6  C8  UNL     1      -8.721  38.341  34.028  1.00  0.00     0.216 C 
BRANCH   6   7
HETATM    7  O3  UNL     1      -8.696  39.263  33.029  1.00  0.00    -0.287 OA
BRANCH   7   8
HETATM    8  P1  UNL     1      -8.818  40.831  33.345  1.00  0.00     0.418 P 
HETATM    9  O4  UNL     1     -10.020  41.466  34.304  1.00  0.00    -0.624 OA
HETATM   10  O5  UNL     1      -7.680  41.924  32.762  1.00  0.00    -0.624 OA
BRANCH   8  11
HETATM   11  O6  UNL     1      -9.662  41.118  32.101  1.00  0.00    -0.173 OA
BRANCH  11  12
HETATM   12  P2  UNL     1     -11.181  41.084  31.933  1.00  0.00     0.431 P 
HETATM   13  O7  UNL     1     -10.983  40.648  30.342  1.00  0.00    -0.616 OA
HETATM   14  O8  UNL     1     -11.448  39.977  33.056  1.00  0.00    -0.616 OA
HETATM   15  O9  UNL     1     -11.205  42.729  32.299  1.00  0.00    -0.616 OA
ENDBRANCH  11  12
ENDBRANCH   8  11
ENDBRANCH   7   8
ENDBRANCH   6   7
ENDBRANCH   4   6
BRANCH   3  16
HETATM   16  O2  UNL     1      -6.498  37.200  35.707  1.00  0.00    -0.393 OA
ATOM     17  H2  UNL     1      -7.159  36.554  35.929  1.00  0.00     0.210 HD
ENDBRANCH   3  16
BRANCH   1  18
HETATM   18  N1  UNL     1      -5.332  36.986  31.303  1.00  0.00    -0.282 N 
HETATM   19  C3  UNL     1      -4.594  38.060  31.663  1.00  0.00     0.104 A 
HETATM   20  C2  UNL     1      -3.668  38.629  30.824  1.00  0.00     0.092 A 
HETATM   21  C1  UNL     1      -3.485  38.094  29.577  1.00  0.00     0.250 A 
HETATM   22  O1  UNL     1      -2.642  38.604  28.796  1.00  0.00    -0.268 OA
HETATM   23  N2  UNL     1      -4.224  37.017  29.212  1.00  0.00    -0.275 N 
HETATM   24  C9  UNL     1      -5.128  36.484  30.075  1.00  0.00     0.331 A 
ATOM     25  H2  UNL     1      -4.100  36.605  28.287  1.00  0.00     0.173 HD
HETATM   26  O11 UNL     1      -5.828  35.474  29.747  1.00  0.00    -0.246 OA
ENDBRANCH   1  18
TORSDOF 7
ENDMDL
