MODEL 9
REMARK VINA RESULT: -6.888124650      3.403      6.806
REMARK  7 active torsions:
REMARK  status: ('A' for Active; 'I' for Inactive)
REMARK    1  A    between atoms: N1_5  and  C4_6 
REMARK    2  A    between atoms: C6_8  and  O2_9 
REMARK    3  A    between atoms: C7_11  and  C8_12 
REMARK    4  A    between atoms: C8_12  and  O3_13 
REMARK    5  A    between atoms: O3_13  and  P1_14 
REMARK    6  A    between atoms: P1_14  and  O6_17 
REMARK    7  A    between atoms: O6_17  and  P2_18 
ROOT
HETATM    1  C4  UNL     1      -9.070  40.195  33.301  1.00  0.00     0.235 C 
HETATM    2  C5  UNL     1      -9.023  39.977  34.799  1.00  0.00     0.088 C 
HETATM    3  C6  UNL     1      -8.679  38.492  34.870  1.00  0.00     0.153 C 
HETATM    4  C7  UNL     1      -7.834  38.388  33.605  1.00  0.00     0.177 C 
HETATM    5  O10 UNL     1      -8.634  39.042  32.697  1.00  0.00    -0.356 OA
ENDROOT
BRANCH   4   6
HETATM    6  C8  UNL     1      -7.613  36.940  33.278  1.00  0.00     0.216 C 
BRANCH   6   7
HETATM    7  O3  UNL     1      -6.355  36.798  32.781  1.00  0.00    -0.287 OA
BRANCH   7   8
HETATM    8  P1  UNL     1      -6.105  36.541  31.217  1.00  0.00     0.418 P 
HETATM    9  O4  UNL     1      -4.751  35.769  30.637  1.00  0.00    -0.624 OA
HETATM   10  O5  UNL     1      -7.250  36.994  30.071  1.00  0.00    -0.624 OA
BRANCH   8  11
HETATM   11  O6  UNL     1      -5.423  37.894  31.002  1.00  0.00    -0.173 OA
BRANCH  11  12
HETATM   12  P2  UNL     1      -4.100  38.412  31.566  1.00  0.00     0.431 P 
HETATM   13  O7  UNL     1      -4.921  39.634  32.337  1.00  0.00    -0.616 OA
HETATM   14  O8  UNL     1      -3.715  37.069  32.344  1.00  0.00    -0.616 OA
HETATM   15  O9  UNL     1      -3.592  38.684  29.982  1.00  0.00    -0.616 OA
ENDBRANCH  11  12
ENDBRANCH   8  11
ENDBRANCH   7   8
ENDBRANCH   6   7
ENDBRANCH   4   6
BRANCH   3  16
HETATM   16  O2  UNL     1      -7.966  38.170  36.002  1.00  0.00    -0.393 OA
ATOM     17  H2  UNL     1      -8.092  37.266  36.268  1.00  0.00     0.210 HD
ENDBRANCH   3  16
BRANCH   1  18
HETATM   18  N1  UNL     1     -10.446  40.493  32.960  1.00  0.00    -0.282 N 
HETATM   19  C3  UNL     1     -11.424  39.655  33.374  1.00  0.00     0.104 A 
HETATM   20  C2  UNL     1     -12.748  39.875  33.089  1.00  0.00     0.092 A 
HETATM   21  C1  UNL     1     -13.095  40.980  32.359  1.00  0.00     0.250 A 
HETATM   22  O1  UNL     1     -14.304  41.195  32.089  1.00  0.00    -0.268 OA
HETATM   23  N2  UNL     1     -12.118  41.823  31.941  1.00  0.00    -0.275 N 
HETATM   24  C9  UNL     1     -10.818  41.567  32.247  1.00  0.00     0.331 A 
ATOM     25  H2  UNL     1     -12.358  42.651  31.397  1.00  0.00     0.173 HD
HETATM   26  O11 UNL     1      -9.891  42.348  31.863  1.00  0.00    -0.246 OA
ENDBRANCH   1  18
TORSDOF 7
ENDMDL
