MODEL 4
REMARK VINA RESULT: -7.152115121      0.934      1.643
REMARK  7 active torsions:
REMARK  status: ('A' for Active; 'I' for Inactive)
REMARK    1  A    between atoms: N1_5  and  C4_6 
REMARK    2  A    between atoms: C6_8  and  O2_9 
REMARK    3  A    between atoms: C7_11  and  C8_12 
REMARK    4  A    between atoms: C8_12  and  O3_13 
REMARK    5  A    between atoms: O3_13  and  P1_14 
REMARK    6  A    between atoms: P1_14  and  O6_17 
REMARK    7  A    between atoms: O6_17  and  P2_18 
ROOT
HETATM    1  C4  UNL     1      -6.533  36.372  33.640  1.00  0.00     0.235 C 
HETATM    2  C5  UNL     1      -6.213  36.875  35.032  1.00  0.00     0.088 C 
HETATM    3  C6  UNL     1      -7.471  37.676  35.355  1.00  0.00     0.153 C 
HETATM    4  C7  UNL     1      -8.482  36.846  34.570  1.00  0.00     0.177 C 
HETATM    5  O10 UNL     1      -7.834  36.710  33.363  1.00  0.00    -0.356 OA
ENDROOT
BRANCH   4   6
HETATM    6  C8  UNL     1      -9.775  37.603  34.477  1.00  0.00     0.216 C 
BRANCH   6   7
HETATM    7  O3  UNL     1      -9.511  38.927  34.636  1.00  0.00    -0.287 OA
BRANCH   7   8
HETATM    8  P1  UNL     1     -10.697  40.002  34.736  1.00  0.00     0.418 P 
HETATM    9  O4  UNL     1     -12.001  40.002  33.703  1.00  0.00    -0.624 OA
HETATM   10  O5  UNL     1     -10.712  41.167  35.949  1.00  0.00    -0.624 OA
BRANCH   8  11
HETATM   11  O6  UNL     1      -9.988  41.017  33.835  1.00  0.00    -0.173 OA
BRANCH  11  12
HETATM   12  P2  UNL     1     -10.217  41.323  32.355  1.00  0.00     0.431 P 
HETATM   13  O7  UNL     1      -8.658  41.888  32.244  1.00  0.00    -0.616 OA
HETATM   14  O8  UNL     1     -10.574  39.824  31.929  1.00  0.00    -0.616 OA
HETATM   15  O9  UNL     1     -11.416  42.412  32.820  1.00  0.00    -0.616 OA
ENDBRANCH  11  12
ENDBRANCH   8  11
ENDBRANCH   7   8
ENDBRANCH   6   7
ENDBRANCH   4   6
BRANCH   3  16
HETATM   16  O2  UNL     1      -7.749  37.701  36.702  1.00  0.00    -0.393 OA
ATOM     17  H2  UNL     1      -7.624  38.562  37.084  1.00  0.00     0.210 HD
ENDBRANCH   3  16
BRANCH   1  18
HETATM   18  N1  UNL     1      -5.607  37.019  32.734  1.00  0.00    -0.282 N 
HETATM   19  C3  UNL     1      -5.295  38.321  32.928  1.00  0.00     0.104 A 
HETATM   20  C2  UNL     1      -4.424  38.997  32.110  1.00  0.00     0.092 A 
HETATM   21  C1  UNL     1      -3.851  38.334  31.058  1.00  0.00     0.250 A 
HETATM   22  O1  UNL     1      -3.052  38.939  30.299  1.00  0.00    -0.268 OA
HETATM   23  N2  UNL     1      -4.161  37.028  30.860  1.00  0.00    -0.275 N 
HETATM   24  C9  UNL     1      -5.027  36.397  31.695  1.00  0.00     0.331 A 
ATOM     25  H2  UNL     1      -3.742  36.518  30.081  1.00  0.00     0.173 HD
HETATM   26  O11 UNL     1      -5.328  35.173  31.522  1.00  0.00    -0.246 OA
ENDBRANCH   1  18
TORSDOF 7
ENDMDL
