MODEL 10
REMARK VINA RESULT: -6.822593793      1.467      2.339
REMARK  7 active torsions:
REMARK  status: ('A' for Active; 'I' for Inactive)
REMARK    1  A    between atoms: N1_5  and  C4_6 
REMARK    2  A    between atoms: C6_8  and  O2_9 
REMARK    3  A    between atoms: C7_11  and  C8_12 
REMARK    4  A    between atoms: C8_12  and  O3_13 
REMARK    5  A    between atoms: O3_13  and  P1_14 
REMARK    6  A    between atoms: P1_14  and  O6_17 
REMARK    7  A    between atoms: O6_17  and  P2_18 
ROOT
HETATM    1  C4  UNL     1      -6.356  36.253  33.692  1.00  0.00     0.235 C 
HETATM    2  C5  UNL     1      -6.611  37.005  34.982  1.00  0.00     0.088 C 
HETATM    3  C6  UNL     1      -8.060  37.444  34.788  1.00  0.00     0.153 C 
HETATM    4  C7  UNL     1      -8.551  36.262  33.958  1.00  0.00     0.177 C 
HETATM    5  O10 UNL     1      -7.549  36.162  33.020  1.00  0.00    -0.356 OA
ENDROOT
BRANCH   4   6
HETATM    6  C8  UNL     1      -9.892  36.595  33.372  1.00  0.00     0.216 C 
BRANCH   6   7
HETATM    7  O3  UNL     1      -9.965  37.942  33.201  1.00  0.00    -0.287 OA
BRANCH   7   8
HETATM    8  P1  UNL     1     -10.844  38.581  32.021  1.00  0.00     0.418 P 
HETATM    9  O4  UNL     1     -10.511  38.326  30.411  1.00  0.00    -0.624 OA
HETATM   10  O5  UNL     1     -12.206  39.508  32.359  1.00  0.00    -0.624 OA
BRANCH   8  11
HETATM   11  O6  UNL     1     -10.030  39.877  31.981  1.00  0.00    -0.173 OA
BRANCH  11  12
HETATM   12  P2  UNL     1      -9.770  40.891  33.096  1.00  0.00     0.431 P 
HETATM   13  O7  UNL     1     -10.313  42.106  32.101  1.00  0.00    -0.616 OA
HETATM   14  O8  UNL     1     -10.747  40.215  34.167  1.00  0.00    -0.616 OA
HETATM   15  O9  UNL     1      -8.138  40.481  33.016  1.00  0.00    -0.616 OA
ENDBRANCH  11  12
ENDBRANCH   8  11
ENDBRANCH   7   8
ENDBRANCH   6   7
ENDBRANCH   4   6
BRANCH   3  16
HETATM   16  O2  UNL     1      -8.739  37.564  35.978  1.00  0.00    -0.393 OA
ATOM     17  H2  UNL     1      -9.347  36.849  36.124  1.00  0.00     0.210 HD
ENDBRANCH   3  16
BRANCH   1  18
HETATM   18  N1  UNL     1      -5.376  37.015  32.947  1.00  0.00    -0.282 N 
HETATM   19  C3  UNL     1      -5.473  38.364  32.917  1.00  0.00     0.104 A 
HETATM   20  C2  UNL     1      -4.580  39.149  32.231  1.00  0.00     0.092 A 
HETATM   21  C1  UNL     1      -3.554  38.549  31.552  1.00  0.00     0.250 A 
HETATM   22  O1  UNL     1      -2.727  39.254  30.918  1.00  0.00    -0.268 OA
HETATM   23  N2  UNL     1      -3.453  37.196  31.579  1.00  0.00    -0.275 N 
HETATM   24  C9  UNL     1      -4.359  36.457  32.271  1.00  0.00     0.331 A 
ATOM     25  H2  UNL     1      -2.695  36.732  31.078  1.00  0.00     0.173 HD
HETATM   26  O11 UNL     1      -4.278  35.188  32.306  1.00  0.00    -0.246 OA
ENDBRANCH   1  18
TORSDOF 7
ENDMDL
