MODEL 1
REMARK VINA RESULT: -7.442564614      0.000      0.000
REMARK  7 active torsions:
REMARK  status: ('A' for Active; 'I' for Inactive)
REMARK    1  A    between atoms: N1_5  and  C4_6 
REMARK    2  A    between atoms: C6_8  and  O2_9 
REMARK    3  A    between atoms: C7_11  and  C8_12 
REMARK    4  A    between atoms: C8_12  and  O3_13 
REMARK    5  A    between atoms: O3_13  and  P1_14 
REMARK    6  A    between atoms: P1_14  and  O6_17 
REMARK    7  A    between atoms: O6_17  and  P2_18 
ROOT
HETATM    1  C4  UNL     1      -6.866  36.732  33.208  1.00  0.00     0.235 C 
HETATM    2  C5  UNL     1      -6.381  36.754  34.643  1.00  0.00     0.088 C 
HETATM    3  C6  UNL     1      -7.314  37.796  35.254  1.00  0.00     0.153 C 
HETATM    4  C7  UNL     1      -8.548  37.533  34.398  1.00  0.00     0.177 C 
HETATM    5  O10 UNL     1      -7.997  37.507  33.138  1.00  0.00    -0.356 OA
ENDROOT
BRANCH   4   6
HETATM    6  C8  UNL     1      -9.534  38.647  34.600  1.00  0.00     0.216 C 
BRANCH   6   7
HETATM    7  O3  UNL     1      -9.502  39.454  33.506  1.00  0.00    -0.287 OA
BRANCH   7   8
HETATM    8  P1  UNL     1      -8.994  40.972  33.611  1.00  0.00     0.418 P 
HETATM    9  O4  UNL     1      -8.716  41.729  35.065  1.00  0.00    -0.624 OA
HETATM   10  O5  UNL     1      -8.654  41.870  32.230  1.00  0.00    -0.624 OA
BRANCH   8  11
HETATM   11  O6  UNL     1     -10.411  41.553  33.582  1.00  0.00    -0.173 OA
BRANCH  11  12
HETATM   12  P2  UNL     1     -11.493  41.412  32.511  1.00  0.00     0.431 P 
HETATM   13  O7  UNL     1     -11.685  43.063  32.507  1.00  0.00    -0.616 OA
HETATM   14  O8  UNL     1     -10.560  40.696  31.426  1.00  0.00    -0.616 OA
HETATM   15  O9  UNL     1     -12.397  40.518  33.617  1.00  0.00    -0.616 OA
ENDBRANCH  11  12
ENDBRANCH   8  11
ENDBRANCH   7   8
ENDBRANCH   6   7
ENDBRANCH   4   6
BRANCH   3  16
HETATM   16  O2  UNL     1      -7.549  37.572  36.592  1.00  0.00    -0.393 OA
ATOM     17  H2  UNL     1      -8.173  38.188  36.959  1.00  0.00     0.210 HD
ENDBRANCH   3  16
BRANCH   1  18
HETATM   18  N1  UNL     1      -5.796  37.267  32.392  1.00  0.00    -0.282 N 
HETATM   19  C3  UNL     1      -5.199  38.422  32.763  1.00  0.00     0.104 A 
HETATM   20  C2  UNL     1      -4.178  38.986  32.039  1.00  0.00     0.092 A 
HETATM   21  C1  UNL     1      -3.748  38.361  30.899  1.00  0.00     0.250 A 
HETATM   22  O1  UNL     1      -2.815  38.865  30.224  1.00  0.00    -0.268 OA
HETATM   23  N2  UNL     1      -4.345  37.202  30.523  1.00  0.00    -0.275 N 
HETATM   24  C9  UNL     1      -5.352  36.678  31.271  1.00  0.00     0.331 A 
ATOM     25  H2  UNL     1      -4.037  36.722  29.677  1.00  0.00     0.173 HD
HETATM   26  O11 UNL     1      -5.921  35.592  30.931  1.00  0.00    -0.246 OA
ENDBRANCH   1  18
TORSDOF 7
ENDMDL
