MODEL 10
REMARK VINA RESULT: -7.253042799      3.250      6.419
REMARK  10 active torsions:
REMARK  status: ('A' for Active; 'I' for Inactive)
REMARK    1  A    between atoms: N1_1  and  P1_4 
REMARK    2  A    between atoms: P1_4  and  N2_6 
REMARK    3  A    between atoms: P1_4  and  N4_18 
REMARK    4  A    between atoms: N2_6  and  C1_7 
REMARK    5  A    between atoms: C1_7  and  C2_8 
REMARK    6  A    between atoms: C2_8  and  C3_9 
REMARK    7  A    between atoms: C3_9  and  C4_10 
REMARK    8  A    between atoms: C4_10  and  N3_11 
REMARK    9  A    between atoms: C4_10  and  C5_15 
REMARK   10  A    between atoms: N4_18  and  S1_20 
ROOT
HETATM    1  N2  UNL     1      27.485  11.065  25.509  1.00  0.00    -0.150 NA
ENDROOT
BRANCH   1   2
HETATM    2  P1  UNL     1      28.791  10.733  24.420  1.00  0.00     0.350 P 
HETATM    3  O1  UNL     1      28.591  11.553  23.176  1.00  0.00    -0.254 OA
BRANCH   2   4
HETATM    4  N1  UNL     1      28.699   9.044  23.963  1.00  0.00    -0.351 N 
ATOM      5  H12 UNL     1      28.263   8.305  24.514  1.00  0.00     0.160 HD
ATOM      6  H11 UNL     1      29.157   8.944  23.056  1.00  0.00     0.160 HD
ENDBRANCH   2   4
BRANCH   2   7
HETATM    7  N4  UNL     1      30.352  11.001  25.143  1.00  0.00    -0.217 N 
ATOM      8  H4  UNL     1      30.558  11.783  25.765  1.00  0.00     0.185 HD
BRANCH   7   9
HETATM    9  S1  UNL     1      31.432   9.888  24.726  1.00  0.00     0.212 S 
HETATM   10  O4  UNL     1      32.919  10.231  25.259  1.00  0.00    -0.578 OA
HETATM   11  O5  UNL     1      31.482   9.696  23.084  1.00  0.00    -0.578 OA
HETATM   12  O6  UNL     1      30.939   8.417  25.380  1.00  0.00    -0.578 OA
ENDBRANCH   7   9
ENDBRANCH   2   7
ENDBRANCH   1   2
BRANCH   1  13
HETATM   13  C1  UNL     1      26.615  12.120  25.042  1.00  0.00     0.120 C 
BRANCH  13  14
HETATM   14  C2  UNL     1      27.199  13.435  25.554  1.00  0.00     0.019 C 
BRANCH  14  15
HETATM   15  C3  UNL     1      26.557  14.543  24.770  1.00  0.00     0.045 C 
BRANCH  15  16
HETATM   16  C4  UNL     1      27.335  14.971  23.568  1.00  0.00     0.283 C 
BRANCH  16  17
HETATM   17  N3  UNL     1      28.659  14.447  23.490  1.00  0.00    -0.065 N 
ATOM     18  H33 UNL     1      28.991  14.188  24.418  1.00  0.00     0.275 HD
ATOM     19  H32 UNL     1      28.649  13.531  23.041  1.00  0.00     0.275 HD
ATOM     20  H31 UNL     1      29.337  15.057  23.031  1.00  0.00     0.275 HD
ENDBRANCH  16  17
BRANCH  16  21
HETATM   21  C5  UNL     1      27.437  16.461  23.610  1.00  0.00     0.204 C 
HETATM   22  O2  UNL     1      27.341  17.169  22.566  1.00  0.00    -0.646 OA
HETATM   23  O3  UNL     1      27.643  17.151  24.797  1.00  0.00    -0.646 OA
ENDBRANCH  16  21
ENDBRANCH  15  16
ENDBRANCH  14  15
ENDBRANCH  13  14
ENDBRANCH   1  13
TORSDOF 10
ENDMDL
