MODEL 4
REMARK VINA RESULT: -8.392098048      1.240      1.347
REMARK  10 active torsions:
REMARK  status: ('A' for Active; 'I' for Inactive)
REMARK    1  A    between atoms: N1_1  and  P1_4 
REMARK    2  A    between atoms: P1_4  and  N2_6 
REMARK    3  A    between atoms: P1_4  and  N4_18 
REMARK    4  A    between atoms: N2_6  and  C1_7 
REMARK    5  A    between atoms: C1_7  and  C2_8 
REMARK    6  A    between atoms: C2_8  and  C3_9 
REMARK    7  A    between atoms: C3_9  and  C4_10 
REMARK    8  A    between atoms: C4_10  and  N3_11 
REMARK    9  A    between atoms: C4_10  and  C5_15 
REMARK   10  A    between atoms: N4_18  and  S1_20 
ROOT
HETATM    1  N2  UNL     1      28.182  13.269  25.258  1.00  0.00    -0.150 NA
ENDROOT
BRANCH   1   2
HETATM    2  P1  UNL     1      26.661  14.084  25.116  1.00  0.00     0.350 P 
HETATM    3  O1  UNL     1      26.466  14.941  26.336  1.00  0.00    -0.254 OA
BRANCH   2   4
HETATM    4  N1  UNL     1      25.394  12.873  25.111  1.00  0.00    -0.351 N 
ATOM      5  H12 UNL     1      24.724  12.721  24.357  1.00  0.00     0.160 HD
ATOM      6  H11 UNL     1      25.455  12.360  25.991  1.00  0.00     0.160 HD
ENDBRANCH   2   4
BRANCH   2   7
HETATM    7  N4  UNL     1      26.525  14.998  23.641  1.00  0.00    -0.217 N 
ATOM      8  H4  UNL     1      25.855  14.781  22.902  1.00  0.00     0.185 HD
BRANCH   7   9
HETATM    9  S1  UNL     1      27.565  16.220  23.566  1.00  0.00     0.212 S 
HETATM   10  O4  UNL     1      27.573  17.117  24.911  1.00  0.00    -0.578 OA
HETATM   11  O5  UNL     1      27.239  17.197  22.271  1.00  0.00    -0.578 OA
HETATM   12  O6  UNL     1      29.102  15.578  23.324  1.00  0.00    -0.578 OA
ENDBRANCH   7   9
ENDBRANCH   2   7
ENDBRANCH   1   2
BRANCH   1  13
HETATM   13  C1  UNL     1      28.393  12.281  24.225  1.00  0.00     0.120 C 
BRANCH  13  14
HETATM   14  C2  UNL     1      28.283  10.912  24.891  1.00  0.00     0.019 C 
BRANCH  14  15
HETATM   15  C3  UNL     1      29.046   9.939  24.039  1.00  0.00     0.045 C 
BRANCH  15  16
HETATM   16  C4  UNL     1      30.454  10.350  23.753  1.00  0.00     0.283 C 
BRANCH  16  17
HETATM   17  N3  UNL     1      30.940   9.979  22.465  1.00  0.00    -0.065 N 
ATOM     18  H33 UNL     1      30.877   8.969  22.342  1.00  0.00     0.275 HD
ATOM     19  H32 UNL     1      30.289  10.287  21.742  1.00  0.00     0.275 HD
ATOM     20  H31 UNL     1      31.884  10.302  22.251  1.00  0.00     0.275 HD
ENDBRANCH  16  17
BRANCH  16  21
HETATM   21  C5  UNL     1      31.326   9.695  24.774  1.00  0.00     0.204 C 
HETATM   22  O2  UNL     1      30.982   8.631  25.366  1.00  0.00    -0.646 OA
HETATM   23  O3  UNL     1      32.562  10.218  25.129  1.00  0.00    -0.646 OA
ENDBRANCH  16  21
ENDBRANCH  15  16
ENDBRANCH  14  15
ENDBRANCH  13  14
ENDBRANCH   1  13
TORSDOF 10
ENDMDL
