MODEL 9
REMARK VINA RESULT: -7.279573812      2.918      6.175
REMARK  10 active torsions:
REMARK  status: ('A' for Active; 'I' for Inactive)
REMARK    1  A    between atoms: N1_1  and  P1_4 
REMARK    2  A    between atoms: P1_4  and  N2_6 
REMARK    3  A    between atoms: P1_4  and  N4_18 
REMARK    4  A    between atoms: N2_6  and  C1_7 
REMARK    5  A    between atoms: C1_7  and  C2_8 
REMARK    6  A    between atoms: C2_8  and  C3_9 
REMARK    7  A    between atoms: C3_9  and  C4_10 
REMARK    8  A    between atoms: C4_10  and  N3_11 
REMARK    9  A    between atoms: C4_10  and  C5_15 
REMARK   10  A    between atoms: N4_18  and  S1_20 
ROOT
HETATM    1  N2  UNL     1      28.625  10.200  25.751  1.00  0.00    -0.150 NA
ENDROOT
BRANCH   1   2
HETATM    2  P1  UNL     1      29.728   9.430  24.660  1.00  0.00     0.350 P 
HETATM    3  O1  UNL     1      30.106   8.093  25.235  1.00  0.00    -0.254 OA
BRANCH   2   4
HETATM    4  N1  UNL     1      31.183  10.404  24.582  1.00  0.00    -0.351 N 
ATOM      5  H12 UNL     1      31.291  11.338  24.978  1.00  0.00     0.160 HD
ATOM      6  H11 UNL     1      31.886   9.867  24.073  1.00  0.00     0.160 HD
ENDBRANCH   2   4
BRANCH   2   7
HETATM    7  N4  UNL     1      29.092   9.296  23.046  1.00  0.00    -0.217 N 
ATOM      8  H4  UNL     1      28.319   8.679  22.793  1.00  0.00     0.185 HD
BRANCH   7   9
HETATM    9  S1  UNL     1      29.850  10.246  21.996  1.00  0.00     0.212 S 
HETATM   10  O4  UNL     1      29.933  11.783  22.490  1.00  0.00    -0.578 OA
HETATM   11  O5  UNL     1      29.115  10.198  20.515  1.00  0.00    -0.578 OA
HETATM   12  O6  UNL     1      31.411   9.650  21.791  1.00  0.00    -0.578 OA
ENDBRANCH   7   9
ENDBRANCH   2   7
ENDBRANCH   1   2
BRANCH   1  13
HETATM   13  C1  UNL     1      27.754  11.150  25.097  1.00  0.00     0.120 C 
BRANCH  13  14
HETATM   14  C2  UNL     1      28.257  12.542  25.468  1.00  0.00     0.019 C 
BRANCH  14  15
HETATM   15  C3  UNL     1      27.800  13.483  24.391  1.00  0.00     0.045 C 
BRANCH  15  16
HETATM   16  C4  UNL     1      26.797  14.493  24.846  1.00  0.00     0.283 C 
BRANCH  16  17
HETATM   17  N3  UNL     1      25.446  14.198  24.499  1.00  0.00    -0.065 N 
ATOM     18  H33 UNL     1      25.368  14.030  23.497  1.00  0.00     0.275 HD
ATOM     19  H32 UNL     1      25.184  13.278  24.855  1.00  0.00     0.275 HD
ATOM     20  H31 UNL     1      24.763  14.897  24.793  1.00  0.00     0.275 HD
ENDBRANCH  16  17
BRANCH  16  21
HETATM   21  C5  UNL     1      27.156  15.796  24.210  1.00  0.00     0.204 C 
HETATM   22  O2  UNL     1      27.401  16.832  24.895  1.00  0.00    -0.646 OA
HETATM   23  O3  UNL     1      27.239  15.944  22.832  1.00  0.00    -0.646 OA
ENDBRANCH  16  21
ENDBRANCH  15  16
ENDBRANCH  14  15
ENDBRANCH  13  14
ENDBRANCH   1  13
TORSDOF 10
ENDMDL
