MODEL 1
REMARK VINA RESULT: -8.746618979      0.000      0.000
REMARK  10 active torsions:
REMARK  status: ('A' for Active; 'I' for Inactive)
REMARK    1  A    between atoms: N1_1  and  P1_4 
REMARK    2  A    between atoms: P1_4  and  N2_6 
REMARK    3  A    between atoms: P1_4  and  N4_18 
REMARK    4  A    between atoms: N2_6  and  C1_7 
REMARK    5  A    between atoms: C1_7  and  C2_8 
REMARK    6  A    between atoms: C2_8  and  C3_9 
REMARK    7  A    between atoms: C3_9  and  C4_10 
REMARK    8  A    between atoms: C4_10  and  N3_11 
REMARK    9  A    between atoms: C4_10  and  C5_15 
REMARK   10  A    between atoms: N4_18  and  S1_20 
ROOT
HETATM    1  N2  UNL     1      28.210  13.247  25.312  1.00  0.00    -0.150 NA
ENDROOT
BRANCH   1   2
HETATM    2  P1  UNL     1      26.679  14.036  25.123  1.00  0.00     0.350 P 
HETATM    3  O1  UNL     1      26.442  14.904  26.327  1.00  0.00    -0.254 OA
BRANCH   2   4
HETATM    4  N1  UNL     1      25.433  12.804  25.103  1.00  0.00    -0.351 N 
ATOM      5  H12 UNL     1      24.433  12.976  24.994  1.00  0.00     0.160 HD
ATOM      6  H11 UNL     1      25.891  11.900  25.221  1.00  0.00     0.160 HD
ENDBRANCH   2   4
BRANCH   2   7
HETATM    7  N4  UNL     1      26.564  14.929  23.634  1.00  0.00    -0.217 N 
ATOM      8  H4  UNL     1      25.921  14.687  22.879  1.00  0.00     0.185 HD
BRANCH   7   9
HETATM    9  S1  UNL     1      27.578  16.174  23.573  1.00  0.00     0.212 S 
HETATM   10  O4  UNL     1      27.583  17.042  24.937  1.00  0.00    -0.578 OA
HETATM   11  O5  UNL     1      27.216  17.172  22.304  1.00  0.00    -0.578 OA
HETATM   12  O6  UNL     1      29.125  15.570  23.300  1.00  0.00    -0.578 OA
ENDBRANCH   7   9
ENDBRANCH   2   7
ENDBRANCH   1   2
BRANCH   1  13
HETATM   13  C1  UNL     1      28.543  12.386  24.200  1.00  0.00     0.120 C 
BRANCH  13  14
HETATM   14  C2  UNL     1      28.574  10.958  24.740  1.00  0.00     0.019 C 
BRANCH  14  15
HETATM   15  C3  UNL     1      28.649  10.037  23.557  1.00  0.00     0.045 C 
BRANCH  15  16
HETATM   16  C4  UNL     1      29.699   8.979  23.671  1.00  0.00     0.283 C 
BRANCH  16  17
HETATM   17  N3  UNL     1      29.845   8.414  24.971  1.00  0.00    -0.065 N 
ATOM     18  H33 UNL     1      30.787   8.583  25.324  1.00  0.00     0.275 HD
ATOM     19  H32 UNL     1      29.302   8.947  25.650  1.00  0.00     0.275 HD
ATOM     20  H31 UNL     1      29.617   7.421  25.038  1.00  0.00     0.275 HD
ENDBRANCH  16  17
BRANCH  16  21
HETATM   21  C5  UNL     1      31.003   9.603  23.296  1.00  0.00     0.204 C 
HETATM   22  O2  UNL     1      31.832   9.997  24.167  1.00  0.00    -0.646 OA
HETATM   23  O3  UNL     1      31.378   9.785  21.971  1.00  0.00    -0.646 OA
ENDBRANCH  16  21
ENDBRANCH  15  16
ENDBRANCH  14  15
ENDBRANCH  13  14
ENDBRANCH   1  13
TORSDOF 10
ENDMDL
