MODEL 7
REMARK VINA RESULT: -7.364802670      2.933      6.274
REMARK  10 active torsions:
REMARK  status: ('A' for Active; 'I' for Inactive)
REMARK    1  A    between atoms: N1_1  and  P1_4 
REMARK    2  A    between atoms: P1_4  and  N2_6 
REMARK    3  A    between atoms: P1_4  and  N4_18 
REMARK    4  A    between atoms: N2_6  and  C1_7 
REMARK    5  A    between atoms: C1_7  and  C2_8 
REMARK    6  A    between atoms: C2_8  and  C3_9 
REMARK    7  A    between atoms: C3_9  and  C4_10 
REMARK    8  A    between atoms: C4_10  and  N3_11 
REMARK    9  A    between atoms: C4_10  and  C5_15 
REMARK   10  A    between atoms: N4_18  and  S1_20 
ROOT
HETATM    1  N2  UNL     1      28.591  10.162  25.787  1.00  0.00    -0.150 NA
ENDROOT
BRANCH   1   2
HETATM    2  P1  UNL     1      29.689   9.411  24.676  1.00  0.00     0.350 P 
HETATM    3  O1  UNL     1      30.054   8.056  25.215  1.00  0.00    -0.254 OA
BRANCH   2   4
HETATM    4  N1  UNL     1      31.153  10.374  24.627  1.00  0.00    -0.351 N 
ATOM      5  H12 UNL     1      32.034  10.088  24.199  1.00  0.00     0.160 HD
ATOM      6  H11 UNL     1      30.957  11.257  25.099  1.00  0.00     0.160 HD
ENDBRANCH   2   4
BRANCH   2   7
HETATM    7  N4  UNL     1      29.055   9.328  23.058  1.00  0.00    -0.217 N 
ATOM      8  H4  UNL     1      28.240   8.771  22.800  1.00  0.00     0.185 HD
BRANCH   7   9
HETATM    9  S1  UNL     1      29.888  10.221  22.014  1.00  0.00     0.212 S 
HETATM   10  O4  UNL     1      31.394   9.677  21.789  1.00  0.00    -0.578 OA
HETATM   11  O5  UNL     1      29.956  11.799  22.506  1.00  0.00    -0.578 OA
HETATM   12  O6  UNL     1      29.070  10.198  20.544  1.00  0.00    -0.578 OA
ENDBRANCH   7   9
ENDBRANCH   2   7
ENDBRANCH   1   2
BRANCH   1  13
HETATM   13  C1  UNL     1      27.723  11.130  25.155  1.00  0.00     0.120 C 
BRANCH  13  14
HETATM   14  C2  UNL     1      28.279  12.510  25.495  1.00  0.00     0.019 C 
BRANCH  14  15
HETATM   15  C3  UNL     1      27.840  13.447  24.407  1.00  0.00     0.045 C 
BRANCH  15  16
HETATM   16  C4  UNL     1      26.822  14.453  24.839  1.00  0.00     0.283 C 
BRANCH  16  17
HETATM   17  N3  UNL     1      25.474  14.125  24.509  1.00  0.00    -0.065 N 
ATOM     18  H33 UNL     1      24.840  14.838  24.868  1.00  0.00     0.275 HD
ATOM     19  H32 UNL     1      25.319  14.238  23.506  1.00  0.00     0.275 HD
ATOM     20  H31 UNL     1      25.170  13.198  24.810  1.00  0.00     0.275 HD
ENDBRANCH  16  17
BRANCH  16  21
HETATM   21  C5  UNL     1      27.155  15.743  24.164  1.00  0.00     0.204 C 
HETATM   22  O2  UNL     1      27.180  15.853  22.904  1.00  0.00    -0.646 OA
HETATM   23  O3  UNL     1      27.454  16.892  24.883  1.00  0.00    -0.646 OA
ENDBRANCH  16  21
ENDBRANCH  15  16
ENDBRANCH  14  15
ENDBRANCH  13  14
ENDBRANCH   1  13
TORSDOF 10
ENDMDL
