MODEL 5
REMARK VINA RESULT: -8.318403876      1.005      1.528
REMARK  10 active torsions:
REMARK  status: ('A' for Active; 'I' for Inactive)
REMARK    1  A    between atoms: N1_1  and  P1_4 
REMARK    2  A    between atoms: P1_4  and  N2_6 
REMARK    3  A    between atoms: P1_4  and  N4_18 
REMARK    4  A    between atoms: N2_6  and  C1_7 
REMARK    5  A    between atoms: C1_7  and  C2_8 
REMARK    6  A    between atoms: C2_8  and  C3_9 
REMARK    7  A    between atoms: C3_9  and  C4_10 
REMARK    8  A    between atoms: C4_10  and  N3_11 
REMARK    9  A    between atoms: C4_10  and  C5_15 
REMARK   10  A    between atoms: N4_18  and  S1_20 
ROOT
HETATM    1  N2  UNL     1      28.203  13.313  25.235  1.00  0.00    -0.150 NA
ENDROOT
BRANCH   1   2
HETATM    2  P1  UNL     1      26.662  14.093  25.107  1.00  0.00     0.350 P 
HETATM    3  O1  UNL     1      26.459  14.945  26.330  1.00  0.00    -0.254 OA
BRANCH   2   4
HETATM    4  N1  UNL     1      25.424  12.852  25.115  1.00  0.00    -0.351 N 
ATOM      5  H12 UNL     1      24.643  12.800  25.769  1.00  0.00     0.160 HD
ATOM      6  H11 UNL     1      25.632  12.205  24.354  1.00  0.00     0.160 HD
ENDBRANCH   2   4
BRANCH   2   7
HETATM    7  N4  UNL     1      26.491  15.003  23.634  1.00  0.00    -0.217 N 
ATOM      8  H4  UNL     1      25.777  14.809  22.931  1.00  0.00     0.185 HD
BRANCH   7   9
HETATM    9  S1  UNL     1      27.575  16.181  23.499  1.00  0.00     0.212 S 
HETATM   10  O4  UNL     1      27.261  17.180  22.267  1.00  0.00    -0.578 OA
HETATM   11  O5  UNL     1      29.099  15.566  23.316  1.00  0.00    -0.578 OA
HETATM   12  O6  UNL     1      27.567  17.060  24.935  1.00  0.00    -0.578 OA
ENDBRANCH   7   9
ENDBRANCH   2   7
ENDBRANCH   1   2
BRANCH   1  13
HETATM   13  C1  UNL     1      28.375  12.241  24.281  1.00  0.00     0.120 C 
BRANCH  13  14
HETATM   14  C2  UNL     1      28.301  10.934  25.066  1.00  0.00     0.019 C 
BRANCH  14  15
HETATM   15  C3  UNL     1      28.826   9.847  24.172  1.00  0.00     0.045 C 
BRANCH  15  16
HETATM   16  C4  UNL     1      29.371  10.337  22.870  1.00  0.00     0.283 C 
BRANCH  16  17
HETATM   17  N3  UNL     1      28.721   9.818  21.712  1.00  0.00    -0.065 N 
ATOM     18  H33 UNL     1      29.224   9.003  21.361  1.00  0.00     0.275 HD
ATOM     19  H32 UNL     1      27.835   9.383  21.970  1.00  0.00     0.275 HD
ATOM     20  H31 UNL     1      28.577  10.493  20.960  1.00  0.00     0.275 HD
ENDBRANCH  16  17
BRANCH  16  21
HETATM   21  C5  UNL     1      30.807   9.931  22.806  1.00  0.00     0.204 C 
HETATM   22  O2  UNL     1      31.498   9.744  23.850  1.00  0.00    -0.646 OA
HETATM   23  O3  UNL     1      31.463   9.737  21.598  1.00  0.00    -0.646 OA
ENDBRANCH  16  21
ENDBRANCH  15  16
ENDBRANCH  14  15
ENDBRANCH  13  14
ENDBRANCH   1  13
TORSDOF 10
ENDMDL
