MODEL 2
REMARK VINA RESULT: -8.722896256      0.044      1.130
REMARK  10 active torsions:
REMARK  status: ('A' for Active; 'I' for Inactive)
REMARK    1  A    between atoms: N1_1  and  P1_4 
REMARK    2  A    between atoms: P1_4  and  N2_6 
REMARK    3  A    between atoms: P1_4  and  N4_18 
REMARK    4  A    between atoms: N2_6  and  C1_7 
REMARK    5  A    between atoms: C1_7  and  C2_8 
REMARK    6  A    between atoms: C2_8  and  C3_9 
REMARK    7  A    between atoms: C3_9  and  C4_10 
REMARK    8  A    between atoms: C4_10  and  N3_11 
REMARK    9  A    between atoms: C4_10  and  C5_15 
REMARK   10  A    between atoms: N4_18  and  S1_20 
ROOT
HETATM    1  N2  UNL     1      28.229  13.272  25.281  1.00  0.00    -0.150 NA
ENDROOT
BRANCH   1   2
HETATM    2  P1  UNL     1      26.691  14.052  25.119  1.00  0.00     0.350 P 
HETATM    3  O1  UNL     1      26.454  14.892  26.343  1.00  0.00    -0.254 OA
BRANCH   2   4
HETATM    4  N1  UNL     1      25.455  12.810  25.081  1.00  0.00    -0.351 N 
ATOM      5  H12 UNL     1      25.118  12.286  25.890  1.00  0.00     0.160 HD
ATOM      6  H11 UNL     1      25.143  12.714  24.114  1.00  0.00     0.160 HD
ENDBRANCH   2   4
BRANCH   2   7
HETATM    7  N4  UNL     1      26.559  14.976  23.650  1.00  0.00    -0.217 N 
ATOM      8  H4  UNL     1      25.880  14.773  22.915  1.00  0.00     0.185 HD
BRANCH   7   9
HETATM    9  S1  UNL     1      27.618  16.181  23.573  1.00  0.00     0.212 S 
HETATM   10  O4  UNL     1      29.127  15.669  23.300  1.00  0.00    -0.578 OA
HETATM   11  O5  UNL     1      27.599  17.077  24.964  1.00  0.00    -0.578 OA
HETATM   12  O6  UNL     1      27.149  17.203  22.321  1.00  0.00    -0.578 OA
ENDBRANCH   7   9
ENDBRANCH   2   7
ENDBRANCH   1   2
BRANCH   1  13
HETATM   13  C1  UNL     1      28.544  12.405  24.169  1.00  0.00     0.120 C 
BRANCH  13  14
HETATM   14  C2  UNL     1      28.584  10.980  24.716  1.00  0.00     0.019 C 
BRANCH  14  15
HETATM   15  C3  UNL     1      28.651  10.053  23.537  1.00  0.00     0.045 C 
BRANCH  15  16
HETATM   16  C4  UNL     1      29.697   8.992  23.651  1.00  0.00     0.283 C 
BRANCH  16  17
HETATM   17  N3  UNL     1      29.842   8.428  24.953  1.00  0.00    -0.065 N 
ATOM     18  H33 UNL     1      30.798   8.550  25.285  1.00  0.00     0.275 HD
ATOM     19  H32 UNL     1      29.341   8.993  25.639  1.00  0.00     0.275 HD
ATOM     20  H31 UNL     1      29.564   7.449  25.032  1.00  0.00     0.275 HD
ENDBRANCH  16  17
BRANCH  16  21
HETATM   21  C5  UNL     1      31.004   9.610  23.275  1.00  0.00     0.204 C 
HETATM   22  O2  UNL     1      31.845   9.981  24.145  1.00  0.00    -0.646 OA
HETATM   23  O3  UNL     1      31.367   9.812  21.951  1.00  0.00    -0.646 OA
ENDBRANCH  16  21
ENDBRANCH  15  16
ENDBRANCH  14  15
ENDBRANCH  13  14
ENDBRANCH   1  13
TORSDOF 10
ENDMDL
