MODEL 9
REMARK VINA RESULT: -8.559284014      3.586      7.214
REMARK  7 active torsions:
REMARK  status: ('A' for Active; 'I' for Inactive)
REMARK    1  A    between atoms: O1_1  and  C1_3 
REMARK    2  A    between atoms: C1_3  and  C2_4 
REMARK    3  A    between atoms: C1_3  and  C6_11 
REMARK    4  A    between atoms: C2_4  and  N1_5 
REMARK    5  A    between atoms: N1_5  and  C3_8 
REMARK    6  A    between atoms: C6_11  and  O2_12 
REMARK    7  A    between atoms: O2_12  and  C7_13 
ROOT
HETATM    1  C6  UNL     1      27.650  57.756  86.147  1.00  0.00     0.209 C 
ENDROOT
BRANCH   1   2
HETATM    2  C1  UNL     1      28.591  57.938  87.329  1.00  0.00     0.168 C 
BRANCH   2   3
HETATM    3  O1  UNL     1      29.715  58.662  86.970  1.00  0.00    -0.392 OA
ATOM      4  H1  UNL     1      30.145  58.263  86.223  1.00  0.00     0.210 HD
ENDBRANCH   2   3
BRANCH   2   5
HETATM    5  C2  UNL     1      27.832  58.644  88.462  1.00  0.00     0.266 C 
BRANCH   5   6
HETATM    6  N1  UNL     1      27.432  57.620  89.387  1.00  0.00    -0.068 N 
ATOM      7  H12 UNL     1      27.887  56.735  89.162  1.00  0.00     0.277 HD
ATOM      8  H11 UNL     1      27.835  57.788  90.308  1.00  0.00     0.277 HD
BRANCH   6   9
HETATM    9  C3  UNL     1      26.007  57.451  89.478  1.00  0.00     0.186 A 
HETATM   10  C4  UNL     1      25.596  56.135  90.140  1.00  0.00     0.035 A 
HETATM   11  C5  UNL     1      25.269  56.458  88.691  1.00  0.00     0.035 A 
ENDBRANCH   6   9
ENDBRANCH   5   6
ENDBRANCH   2   5
ENDBRANCH   1   2
BRANCH   1  12
HETATM   12  O2  UNL     1      26.815  58.878  86.093  1.00  0.00    -0.348 OA
BRANCH  12  13
HETATM   13  C7  UNL     1      26.277  59.435  84.981  1.00  0.00     0.080 A 
HETATM   14  C8  UNL     1      25.228  58.827  84.345  1.00  0.00     0.037 A 
HETATM   15  C9  UNL     1      24.629  59.330  83.210  1.00  0.00     0.004 A 
HETATM   16  C10 UNL     1      25.134  60.511  82.710  1.00  0.00     0.012 A 
HETATM   17  C11 UNL     1      26.191  61.138  83.337  1.00  0.00    -0.023 A 
HETATM   18  C12 UNL     1      26.700  62.327  82.833  1.00  0.00     0.012 A 
HETATM   19  C16 UNL     1      26.776  60.607  84.480  1.00  0.00     0.007 A 
HETATM   20  C13 UNL     1      27.758  62.964  83.452  1.00  0.00     0.001 A 
HETATM   21  C14 UNL     1      28.326  62.420  84.590  1.00  0.00     0.001 A 
HETATM   22  C15 UNL     1      27.837  61.244  85.105  1.00  0.00     0.015 A 
ENDBRANCH  12  13
ENDBRANCH   1  12
TORSDOF 7
ENDMDL
