MODEL 2
REMARK VINA RESULT: -8.716208283      0.992      1.230
REMARK  7 active torsions:
REMARK  status: ('A' for Active; 'I' for Inactive)
REMARK    1  A    between atoms: O1_1  and  C1_3 
REMARK    2  A    between atoms: C1_3  and  C2_4 
REMARK    3  A    between atoms: C1_3  and  C6_11 
REMARK    4  A    between atoms: C2_4  and  N1_5 
REMARK    5  A    between atoms: N1_5  and  C3_8 
REMARK    6  A    between atoms: C6_11  and  O2_12 
REMARK    7  A    between atoms: O2_12  and  C7_13 
ROOT
HETATM    1  C6  UNL     1      25.959  55.487  91.792  1.00  0.00     0.209 C 
ENDROOT
BRANCH   1   2
HETATM    2  C1  UNL     1      26.948  56.598  91.471  1.00  0.00     0.168 C 
BRANCH   2   3
HETATM    3  O1  UNL     1      27.894  56.733  92.473  1.00  0.00    -0.392 OA
ATOM      4  H1  UNL     1      28.266  55.889  92.697  1.00  0.00     0.210 HD
ENDBRANCH   2   3
BRANCH   2   5
HETATM    5  C2  UNL     1      27.623  56.288  90.128  1.00  0.00     0.266 C 
BRANCH   5   6
HETATM    6  N1  UNL     1      27.896  57.553  89.505  1.00  0.00    -0.068 N 
ATOM      7  H12 UNL     1      27.182  58.238  89.752  1.00  0.00     0.277 HD
ATOM      8  H11 UNL     1      28.711  57.996  89.930  1.00  0.00     0.277 HD
BRANCH   6   9
HETATM    9  C3  UNL     1      28.050  57.471  88.077  1.00  0.00     0.186 A 
HETATM   10  C4  UNL     1      28.605  58.754  87.456  1.00  0.00     0.035 A 
HETATM   11  C5  UNL     1      27.214  58.228  87.140  1.00  0.00     0.035 A 
ENDBRANCH   6   9
ENDBRANCH   5   6
ENDBRANCH   2   5
ENDBRANCH   1   2
BRANCH   1  12
HETATM   12  O2  UNL     1      25.403  55.052  90.583  1.00  0.00    -0.348 OA
BRANCH  12  13
HETATM   13  C7  UNL     1      24.086  54.913  90.302  1.00  0.00     0.080 A 
HETATM   14  C8  UNL     1      23.257  54.272  91.185  1.00  0.00     0.037 A 
HETATM   15  C9  UNL     1      21.908  54.089  90.969  1.00  0.00     0.004 A 
HETATM   16  C10 UNL     1      21.391  54.589  89.793  1.00  0.00     0.012 A 
HETATM   17  C11 UNL     1      22.210  55.237  88.892  1.00  0.00    -0.023 A 
HETATM   18  C12 UNL     1      21.689  55.740  87.707  1.00  0.00     0.012 A 
HETATM   19  C16 UNL     1      23.567  55.406  89.135  1.00  0.00     0.007 A 
HETATM   20  C13 UNL     1      22.499  56.390  86.797  1.00  0.00     0.001 A 
HETATM   21  C14 UNL     1      23.848  56.550  87.057  1.00  0.00     0.001 A 
HETATM   22  C15 UNL     1      24.383  56.059  88.224  1.00  0.00     0.015 A 
ENDBRANCH  12  13
ENDBRANCH   1  12
TORSDOF 7
ENDMDL
