MODEL 8
REMARK VINA RESULT: -8.568987112      2.566      4.889
REMARK  7 active torsions:
REMARK  status: ('A' for Active; 'I' for Inactive)
REMARK    1  A    between atoms: O1_1  and  C1_3 
REMARK    2  A    between atoms: C1_3  and  C2_4 
REMARK    3  A    between atoms: C1_3  and  C6_11 
REMARK    4  A    between atoms: C2_4  and  N1_5 
REMARK    5  A    between atoms: N1_5  and  C3_8 
REMARK    6  A    between atoms: C6_11  and  O2_12 
REMARK    7  A    between atoms: O2_12  and  C7_13 
ROOT
HETATM    1  C6  UNL     1      26.060  56.483  90.383  1.00  0.00     0.209 C 
ENDROOT
BRANCH   1   2
HETATM    2  C1  UNL     1      26.813  55.961  91.598  1.00  0.00     0.168 C 
BRANCH   2   3
HETATM    3  O1  UNL     1      27.862  56.799  91.938  1.00  0.00    -0.392 OA
ATOM      4  H1  UNL     1      28.312  57.102  91.159  1.00  0.00     0.210 HD
ENDBRANCH   2   3
BRANCH   2   5
HETATM    5  C2  UNL     1      25.829  55.824  92.769  1.00  0.00     0.266 C 
BRANCH   5   6
HETATM    6  N1  UNL     1      25.377  54.461  92.767  1.00  0.00    -0.068 N 
ATOM      7  H12 UNL     1      24.815  54.269  91.938  1.00  0.00     0.277 HD
ATOM      8  H11 UNL     1      26.155  53.823  92.596  1.00  0.00     0.277 HD
BRANCH   6   9
HETATM    9  C3  UNL     1      24.667  54.088  93.961  1.00  0.00     0.186 A 
HETATM   10  C4  UNL     1      23.737  52.890  93.760  1.00  0.00     0.035 A 
HETATM   11  C5  UNL     1      23.222  54.274  94.120  1.00  0.00     0.035 A 
ENDBRANCH   6   9
ENDBRANCH   5   6
ENDBRANCH   2   5
ENDBRANCH   1   2
BRANCH   1  12
HETATM   12  O2  UNL     1      25.068  55.549  90.065  1.00  0.00    -0.348 OA
BRANCH  12  13
HETATM   13  C7  UNL     1      24.067  55.705  89.166  1.00  0.00     0.080 A 
HETATM   14  C8  UNL     1      24.280  56.417  88.015  1.00  0.00     0.037 A 
HETATM   15  C9  UNL     1      23.312  56.620  87.054  1.00  0.00     0.004 A 
HETATM   16  C10 UNL     1      22.072  56.067  87.291  1.00  0.00     0.012 A 
HETATM   17  C11 UNL     1      21.839  55.348  88.445  1.00  0.00    -0.023 A 
HETATM   18  C12 UNL     1      20.590  54.791  88.684  1.00  0.00     0.012 A 
HETATM   19  C16 UNL     1      22.833  55.158  89.397  1.00  0.00     0.007 A 
HETATM   20  C13 UNL     1      20.344  54.069  89.836  1.00  0.00     0.001 A 
HETATM   21  C14 UNL     1      21.347  53.891  90.771  1.00  0.00     0.001 A 
HETATM   22  C15 UNL     1      22.591  54.434  90.554  1.00  0.00     0.015 A 
ENDBRANCH  12  13
ENDBRANCH   1  12
TORSDOF 7
ENDMDL
