MODEL 3
REMARK VINA RESULT: -8.670843817      3.610      7.363
REMARK  7 active torsions:
REMARK  status: ('A' for Active; 'I' for Inactive)
REMARK    1  A    between atoms: O1_1  and  C1_3 
REMARK    2  A    between atoms: C1_3  and  C2_4 
REMARK    3  A    between atoms: C1_3  and  C6_11 
REMARK    4  A    between atoms: C2_4  and  N1_5 
REMARK    5  A    between atoms: N1_5  and  C3_8 
REMARK    6  A    between atoms: C6_11  and  O2_12 
REMARK    7  A    between atoms: O2_12  and  C7_13 
ROOT
HETATM    1  C6  UNL     1      28.493  60.880  87.360  1.00  0.00     0.209 C 
ENDROOT
BRANCH   1   2
HETATM    2  C1  UNL     1      29.038  59.708  88.164  1.00  0.00     0.168 C 
BRANCH   2   3
HETATM    3  O1  UNL     1      29.356  60.090  89.456  1.00  0.00    -0.392 OA
ATOM      4  H1  UNL     1      29.847  60.902  89.453  1.00  0.00     0.210 HD
ENDBRANCH   2   3
BRANCH   2   5
HETATM    5  C2  UNL     1      27.990  58.585  88.174  1.00  0.00     0.266 C 
BRANCH   5   6
HETATM    6  N1  UNL     1      27.829  58.189  89.545  1.00  0.00    -0.068 N 
ATOM      7  H12 UNL     1      28.636  58.473  90.100  1.00  0.00     0.277 HD
ATOM      8  H11 UNL     1      27.106  58.746  89.999  1.00  0.00     0.277 HD
BRANCH   6   9
HETATM    9  C3  UNL     1      27.567  56.784  89.711  1.00  0.00     0.186 A 
HETATM   10  C4  UNL     1      26.216  56.496  90.369  1.00  0.00     0.035 A 
HETATM   11  C5  UNL     1      27.539  56.127  91.021  1.00  0.00     0.035 A 
ENDBRANCH   6   9
ENDBRANCH   5   6
ENDBRANCH   2   5
ENDBRANCH   1   2
BRANCH   1  12
HETATM   12  O2  UNL     1      28.548  60.527  86.007  1.00  0.00    -0.348 OA
BRANCH  12  13
HETATM   13  C7  UNL     1      27.900  61.137  84.985  1.00  0.00     0.080 A 
HETATM   14  C8  UNL     1      28.342  62.344  84.512  1.00  0.00     0.037 A 
HETATM   15  C9  UNL     1      27.737  63.026  83.478  1.00  0.00     0.004 A 
HETATM   16  C10 UNL     1      26.629  62.438  82.907  1.00  0.00     0.012 A 
HETATM   17  C11 UNL     1      26.170  61.222  83.369  1.00  0.00    -0.023 A 
HETATM   18  C12 UNL     1      25.053  60.629  82.794  1.00  0.00     0.012 A 
HETATM   19  C16 UNL     1      26.799  60.557  84.414  1.00  0.00     0.007 A 
HETATM   20  C13 UNL     1      24.584  59.413  83.249  1.00  0.00     0.001 A 
HETATM   21  C14 UNL     1      25.224  58.766  84.290  1.00  0.00     0.001 A 
HETATM   22  C15 UNL     1      26.331  59.335  84.873  1.00  0.00     0.015 A 
ENDBRANCH  12  13
ENDBRANCH   1  12
TORSDOF 7
ENDMDL
