MODEL 16
REMARK VINA RESULT: -5.428036371      2.558      4.537
REMARK  3 active torsions:
REMARK  status: ('A' for Active; 'I' for Inactive)
REMARK    1  A    between atoms: O1_2  and  C2_3 
REMARK    2  A    between atoms: C5_10  and  C6_11 
REMARK    3  A    between atoms: C6_11  and  C7_12 
ROOT
HETATM    1  C2  UNL     1      -1.855  26.838  13.730  1.00  0.00     0.165 A 
HETATM    2  N1  UNL     1      -2.559  27.693  14.460  1.00  0.00    -0.344 N 
ATOM      3  H1  UNL     1      -2.554  27.572  15.473  1.00  0.00     0.167 HD
HETATM    4  C3  UNL     1      -3.281  28.711  13.951  1.00  0.00     0.107 A 
HETATM    5  C4  UNL     1      -3.274  28.856  12.561  1.00  0.00     0.105 A 
HETATM    6  N2  UNL     1      -2.564  27.992  11.822  1.00  0.00    -0.364 N 
ATOM      7  H2  UNL     1      -2.564  28.103  10.808  1.00  0.00     0.165 HD
HETATM    8  C5  UNL     1      -1.850  26.984  12.358  1.00  0.00     0.061 A 
ENDROOT
BRANCH   8   9
HETATM    9  C6  UNL     1      -1.058  26.046  11.512  1.00  0.00     0.065 C 
BRANCH   9  10
HETATM   10  C7  UNL     1      -0.178  26.890  10.611  1.00  0.00    -0.017 C 
HETATM   11  C8  UNL     1       0.064  26.160   9.300  1.00  0.00     0.010 C 
HETATM   12  C9  UNL     1       1.132  27.112  11.319  1.00  0.00     0.010 C 
ENDBRANCH   9  10
ENDBRANCH   8   9
BRANCH   1  13
HETATM   13  O1  UNL     1      -1.109  25.788  14.259  1.00  0.00    -0.339 OA
HETATM   14  C1  UNL     1       0.021  25.994  15.077  1.00  0.00     0.211 C 
ENDBRANCH   1  13
TORSDOF 3
ENDMDL
