MODEL 2
REMARK VINA RESULT: -8.030863013      3.915      6.956
REMARK  3 active torsions:
REMARK  status: ('A' for Active; 'I' for Inactive)
REMARK    1  A    between atoms: C2_5  and  O1_6 
REMARK    2  A    between atoms: O1_6  and  C3_7 
REMARK    3  A    between atoms: C3_7  and  C4_8 
ROOT
HETATM    1  N1  UNL     1       0.091  22.795  10.129  1.00  0.00    -0.063 NA
HETATM    2  C1  UNL     1      -0.259  23.908  10.934  1.00  0.00     0.196 A 
HETATM    3  N2  UNL     1      -0.292  25.155  10.431  1.00  0.00    -0.309 N 
ATOM      4  H2  UNL     1      -0.056  25.282   9.447  1.00  0.00     0.170 HD
HETATM    5  C2  UNL     1      -0.619  26.247  11.149  1.00  0.00     0.176 A 
HETATM    6  C10 UNL     1      -0.934  26.072  12.464  1.00  0.00     0.129 A 
HETATM    7  N3  UNL     1      -1.289  26.950  13.401  1.00  0.00    -0.346 N 
ATOM      8  H3  UNL     1      -1.390  27.959  13.283  1.00  0.00     0.167 HD
HETATM    9  C11 UNL     1      -1.487  26.249  14.531  1.00  0.00     0.182 A 
HETATM   10  N4  UNL     1      -1.259  24.947  14.302  1.00  0.00    -0.337 N 
ATOM     11  H4  UNL     1      -1.338  24.196  14.987  1.00  0.00     0.168 HD
HETATM   12  C12 UNL     1      -0.905  24.802  12.993  1.00  0.00     0.140 A 
HETATM   13  N5  UNL     1      -0.576  23.755  12.244  1.00  0.00    -0.315 N 
ATOM     14  H5  UNL     1      -0.562  22.823  12.660  1.00  0.00     0.170 HD
ENDROOT
BRANCH   5  15
HETATM   15  O1  UNL     1      -0.608  27.453  10.499  1.00  0.00    -0.334 OA
BRANCH  15  16
HETATM   16  C3  UNL     1       0.492  28.203  10.138  1.00  0.00     0.182 C 
BRANCH  16  17
HETATM   17  C4  UNL     1       0.727  28.250   8.625  1.00  0.00     0.010 C 
HETATM   18  C5  UNL     1       2.054  27.640   8.266  1.00  0.00     0.007 C 
HETATM   19  C6  UNL     1       3.052  28.774   8.095  1.00  0.00     0.000 C 
HETATM   20  C7  UNL     1       2.698  29.498   6.835  1.00  0.00     0.000 C 
HETATM   21  C8  UNL     1       1.309  30.035   6.952  1.00  0.00     0.000 C 
HETATM   22  C9  UNL     1       0.621  29.693   8.233  1.00  0.00     0.007 C 
ENDBRANCH  16  17
ENDBRANCH  15  16
ENDBRANCH   5  15
TORSDOF 3
ENDMDL
