MODEL 4
REMARK VINA RESULT: -7.958658724      4.030      6.693
REMARK  3 active torsions:
REMARK  status: ('A' for Active; 'I' for Inactive)
REMARK    1  A    between atoms: C2_5  and  O1_6 
REMARK    2  A    between atoms: O1_6  and  C3_7 
REMARK    3  A    between atoms: C3_7  and  C4_8 
ROOT
HETATM    1  N1  UNL     1      -2.054  26.502  15.069  1.00  0.00    -0.063 NA
HETATM    2  C1  UNL     1      -1.525  26.097  13.818  1.00  0.00     0.196 A 
HETATM    3  N2  UNL     1      -1.288  26.984  12.835  1.00  0.00    -0.309 N 
ATOM      4  H2  UNL     1      -1.501  27.965  13.014  1.00  0.00     0.170 HD
HETATM    5  C2  UNL     1      -0.785  26.655  11.630  1.00  0.00     0.176 A 
HETATM    6  C10 UNL     1      -0.502  25.342  11.397  1.00  0.00     0.129 A 
HETATM    7  N3  UNL     1      -0.006  24.734  10.319  1.00  0.00    -0.346 N 
ATOM      8  H3  UNL     1       0.259  25.176   9.439  1.00  0.00     0.167 HD
HETATM    9  C11 UNL     1       0.076  23.426  10.618  1.00  0.00     0.182 A 
HETATM   10  N4  UNL     1      -0.363  23.219  11.870  1.00  0.00    -0.337 N 
ATOM     11  H4  UNL     1      -0.408  22.319  12.347  1.00  0.00     0.168 HD
HETATM   12  C12 UNL     1      -0.738  24.422  12.392  1.00  0.00     0.140 A 
HETATM   13  N5  UNL     1      -1.236  24.795  13.566  1.00  0.00    -0.315 N 
ATOM     14  H5  UNL     1      -1.402  24.093  14.288  1.00  0.00     0.170 HD
ENDROOT
BRANCH   5  15
HETATM   15  O1  UNL     1      -0.598  27.670  10.729  1.00  0.00    -0.334 OA
BRANCH  15  16
HETATM   16  C3  UNL     1       0.599  28.216  10.313  1.00  0.00     0.182 C 
BRANCH  16  17
HETATM   17  C4  UNL     1       0.786  28.186   8.793  1.00  0.00     0.010 C 
HETATM   18  C5  UNL     1       2.125  27.608   8.426  1.00  0.00     0.007 C 
HETATM   19  C6  UNL     1       3.071  28.767   8.160  1.00  0.00     0.000 C 
HETATM   20  C7  UNL     1       2.650  29.405   6.873  1.00  0.00     0.000 C 
HETATM   21  C8  UNL     1       1.246  29.893   7.006  1.00  0.00     0.000 C 
HETATM   22  C9  UNL     1       0.611  29.599   8.325  1.00  0.00     0.007 C 
ENDBRANCH  16  17
ENDBRANCH  15  16
ENDBRANCH   5  15
TORSDOF 3
ENDMDL
