MODEL 3
REMARK VINA RESULT: -7.972348613      3.944      7.009
REMARK  3 active torsions:
REMARK  status: ('A' for Active; 'I' for Inactive)
REMARK    1  A    between atoms: C2_5  and  O1_6 
REMARK    2  A    between atoms: O1_6  and  C3_7 
REMARK    3  A    between atoms: C3_7  and  C4_8 
ROOT
HETATM    1  N1  UNL     1       0.160  22.686  10.186  1.00  0.00    -0.063 NA
HETATM    2  C1  UNL     1      -0.209  23.803  10.977  1.00  0.00     0.196 A 
HETATM    3  N2  UNL     1      -0.223  25.048  10.469  1.00  0.00    -0.309 N 
ATOM      4  H2  UNL     1       0.041  25.170   9.492  1.00  0.00     0.170 HD
HETATM    5  C2  UNL     1      -0.567  26.144  11.174  1.00  0.00     0.176 A 
HETATM    6  C10 UNL     1      -0.919  25.974  12.480  1.00  0.00     0.129 A 
HETATM    7  N3  UNL     1      -1.297  26.858  13.404  1.00  0.00    -0.346 N 
ATOM      8  H3  UNL     1      -1.391  27.866  13.279  1.00  0.00     0.167 HD
HETATM    9  C11 UNL     1      -1.529  26.162  14.530  1.00  0.00     0.182 A 
HETATM   10  N4  UNL     1      -1.300  24.858  14.312  1.00  0.00    -0.337 N 
ATOM     11  H4  UNL     1      -1.400  24.109  14.998  1.00  0.00     0.168 HD
HETATM   12  C12 UNL     1      -0.909  24.706  13.014  1.00  0.00     0.140 A 
HETATM   13  N5  UNL     1      -0.563  23.656  12.279  1.00  0.00    -0.315 N 
ATOM     14  H5  UNL     1      -0.564  22.726  12.698  1.00  0.00     0.170 HD
ENDROOT
BRANCH   5  15
HETATM   15  O1  UNL     1      -0.533  27.347  10.520  1.00  0.00    -0.334 OA
BRANCH  15  16
HETATM   16  C3  UNL     1      -0.122  27.589   9.226  1.00  0.00     0.182 C 
BRANCH  16  17
HETATM   17  C4  UNL     1       0.987  28.642   9.126  1.00  0.00     0.010 C 
HETATM   18  C5  UNL     1       0.526  29.838   8.340  1.00  0.00     0.007 C 
HETATM   19  C6  UNL     1       1.040  29.683   6.918  1.00  0.00     0.000 C 
HETATM   20  C7  UNL     1       2.522  29.889   6.950  1.00  0.00     0.000 C 
HETATM   21  C8  UNL     1       3.139  28.867   7.846  1.00  0.00     0.000 C 
HETATM   22  C9  UNL     1       2.162  27.950   8.503  1.00  0.00     0.007 C 
ENDBRANCH  16  17
ENDBRANCH  15  16
ENDBRANCH   5  15
TORSDOF 3
ENDMDL
