MODEL 3
REMARK VINA RESULT: -7.647057788      1.630      2.439
REMARK  5 active torsions:
REMARK  status: ('A' for Active; 'I' for Inactive)
REMARK    1  A    between atoms: C3_7  and  N4_8 
REMARK    2  A    between atoms: N4_8  and  O1_10 
REMARK    3  A    between atoms: C4_12  and  O2_13 
REMARK    4  A    between atoms: O2_13  and  C5_14 
REMARK    5  A    between atoms: C5_14  and  C6_15 
ROOT
HETATM    1  N1  UNL     1       2.275  23.652  10.878  1.00  0.00    -0.063 NA
HETATM    2  C1  UNL     1       1.191  24.461  11.317  1.00  0.00     0.195 A 
HETATM    3  N2  UNL     1       0.486  24.038  12.384  1.00  0.00    -0.317 N 
ATOM      4  H2  UNL     1       0.749  23.161  12.835  1.00  0.00     0.169 HD
HETATM    5  C2  UNL     1      -0.570  24.745  12.878  1.00  0.00     0.151 A 
HETATM    6  N3  UNL     1      -1.287  24.271  13.997  1.00  0.00    -0.080 NA
HETATM    7  C3  UNL     1      -0.882  25.924  12.226  1.00  0.00     0.146 A 
HETATM    8  C4  UNL     1      -0.164  26.377  11.123  1.00  0.00     0.177 A 
HETATM    9  N5  UNL     1       0.852  25.614  10.716  1.00  0.00    -0.309 N 
ATOM     10  H5  UNL     1       1.397  25.920   9.909  1.00  0.00     0.170 HD
ENDROOT
BRANCH   8  11
HETATM   11  O2  UNL     1      -0.560  27.557  10.558  1.00  0.00    -0.334 OA
BRANCH  11  12
HETATM   12  C5  UNL     1       0.263  28.537  10.009  1.00  0.00     0.182 C 
BRANCH  12  13
HETATM   13  C6  UNL     1      -0.336  28.912   8.647  1.00  0.00     0.010 C 
HETATM   14  C7  UNL     1       0.314  28.151   7.535  1.00  0.00     0.007 C 
HETATM   15  C8  UNL     1       1.668  28.691   7.213  1.00  0.00     0.000 C 
HETATM   16  C9  UNL     1       1.578  30.160   6.863  1.00  0.00     0.000 C 
HETATM   17  C10 UNL     1       0.936  30.966   7.959  1.00  0.00     0.000 C 
HETATM   18  C11 UNL     1      -0.349  30.392   8.458  1.00  0.00     0.007 C 
ENDBRANCH  12  13
ENDBRANCH  11  12
ENDBRANCH   8  11
BRANCH   7  19
HETATM   19  N4  UNL     1      -1.979  26.680  12.722  1.00  0.00    -0.262 N 
ATOM     20  H4  UNL     1      -1.790  27.498  13.302  1.00  0.00     0.194 HD
BRANCH  19  21
HETATM   21  O1  UNL     1      -3.171  26.378  12.473  1.00  0.00    -0.289 OA
ATOM     22  H1  UNL     1      -3.895  26.681  13.008  1.00  0.00     0.244 HD
ENDBRANCH  19  21
ENDBRANCH   7  19
TORSDOF 5
ENDMDL
