MODEL 2
REMARK VINA RESULT: -7.700426112      1.871      2.841
REMARK  5 active torsions:
REMARK  status: ('A' for Active; 'I' for Inactive)
REMARK    1  A    between atoms: C3_7  and  N4_8 
REMARK    2  A    between atoms: N4_8  and  O1_10 
REMARK    3  A    between atoms: C4_12  and  O2_13 
REMARK    4  A    between atoms: O2_13  and  C5_14 
REMARK    5  A    between atoms: C5_14  and  C6_15 
ROOT
HETATM    1  N1  UNL     1       0.507  23.244   8.676  1.00  0.00    -0.063 NA
HETATM    2  C1  UNL     1       0.159  24.127   9.734  1.00  0.00     0.195 A 
HETATM    3  N2  UNL     1      -0.029  23.594  10.957  1.00  0.00    -0.317 N 
ATOM      4  H2  UNL     1       0.082  22.588  11.081  1.00  0.00     0.169 HD
HETATM    5  C2  UNL     1      -0.365  24.360  12.033  1.00  0.00     0.151 A 
HETATM    6  N3  UNL     1      -0.555  23.769  13.300  1.00  0.00    -0.080 NA
HETATM    7  C3  UNL     1      -0.504  25.717  11.806  1.00  0.00     0.146 A 
HETATM    8  C4  UNL     1      -0.313  26.285  10.550  1.00  0.00     0.177 A 
HETATM    9  N5  UNL     1       0.014  25.452   9.560  1.00  0.00    -0.309 N 
ATOM     10  H5  UNL     1       0.161  25.839   8.627  1.00  0.00     0.170 HD
ENDROOT
BRANCH   8  11
HETATM   11  O2  UNL     1      -0.475  27.638  10.441  1.00  0.00    -0.334 OA
BRANCH  11  12
HETATM   12  C5  UNL     1       0.410  28.540   9.856  1.00  0.00     0.182 C 
BRANCH  12  13
HETATM   13  C6  UNL     1      -0.231  29.007   8.543  1.00  0.00     0.010 C 
HETATM   14  C7  UNL     1       0.374  28.316   7.363  1.00  0.00     0.007 C 
HETATM   15  C8  UNL     1       1.721  28.864   7.030  1.00  0.00     0.000 C 
HETATM   16  C9  UNL     1       1.634  30.353   6.778  1.00  0.00     0.000 C 
HETATM   17  C10 UNL     1       1.038  31.092   7.946  1.00  0.00     0.000 C 
HETATM   18  C11 UNL     1      -0.235  30.497   8.450  1.00  0.00     0.007 C 
ENDBRANCH  12  13
ENDBRANCH  11  12
ENDBRANCH   8  11
BRANCH   7  19
HETATM   19  N4  UNL     1      -0.853  26.538  12.913  1.00  0.00    -0.262 N 
ATOM     20  H4  UNL     1      -0.196  26.624  13.688  1.00  0.00     0.194 HD
BRANCH  19  21
HETATM   21  O1  UNL     1      -1.942  27.160  12.971  1.00  0.00    -0.289 OA
ATOM     22  H1  UNL     1      -2.089  27.871  13.583  1.00  0.00     0.244 HD
ENDBRANCH  19  21
ENDBRANCH   7  19
TORSDOF 5
ENDMDL
