MODEL 19
REMARK VINA RESULT: -6.822986674      4.927      7.210
REMARK  5 active torsions:
REMARK  status: ('A' for Active; 'I' for Inactive)
REMARK    1  A    between atoms: C3_7  and  N4_8 
REMARK    2  A    between atoms: N4_8  and  O1_10 
REMARK    3  A    between atoms: C4_12  and  O2_13 
REMARK    4  A    between atoms: O2_13  and  C5_14 
REMARK    5  A    between atoms: C5_14  and  C6_15 
ROOT
HETATM    1  N1  UNL     1       4.640  27.657   5.587  1.00  0.00    -0.063 NA
HETATM    2  C1  UNL     1       3.459  28.002   6.300  1.00  0.00     0.195 A 
HETATM    3  N2  UNL     1       2.987  29.255   6.159  1.00  0.00    -0.317 N 
ATOM      4  H2  UNL     1       3.485  29.907   5.553  1.00  0.00     0.169 HD
HETATM    5  C2  UNL     1       1.862  29.679   6.803  1.00  0.00     0.151 A 
HETATM    6  N3  UNL     1       1.395  31.000   6.632  1.00  0.00    -0.080 NA
HETATM    7  C3  UNL     1       1.228  28.754   7.611  1.00  0.00     0.146 A 
HETATM    8  C4  UNL     1       1.701  27.455   7.768  1.00  0.00     0.177 A 
HETATM    9  N5  UNL     1       2.810  27.136   7.096  1.00  0.00    -0.309 N 
ATOM     10  H5  UNL     1       3.181  26.190   7.192  1.00  0.00     0.170 HD
ENDROOT
BRANCH   8  11
HETATM   11  O2  UNL     1       0.994  26.624   8.592  1.00  0.00    -0.334 OA
BRANCH  11  12
HETATM   12  C5  UNL     1       1.466  25.979   9.732  1.00  0.00     0.182 C 
BRANCH  12  13
HETATM   13  C6  UNL     1       1.729  24.518   9.344  1.00  0.00     0.010 C 
HETATM   14  C7  UNL     1       0.464  23.819   8.960  1.00  0.00     0.007 C 
HETATM   15  C8  UNL     1      -0.360  23.469  10.154  1.00  0.00     0.000 C 
HETATM   16  C9  UNL     1       0.441  22.617  11.113  1.00  0.00     0.000 C 
HETATM   17  C10 UNL     1       1.721  23.288  11.534  1.00  0.00     0.000 C 
HETATM   18  C11 UNL     1       2.526  23.820  10.395  1.00  0.00     0.007 C 
ENDBRANCH  12  13
ENDBRANCH  11  12
ENDBRANCH   8  11
BRANCH   7  19
HETATM   19  N4  UNL     1       0.052  29.171   8.293  1.00  0.00    -0.262 N 
ATOM     20  H4  UNL     1      -0.847  29.086   7.819  1.00  0.00     0.194 HD
BRANCH  19  21
HETATM   21  O1  UNL     1       0.081  29.640   9.457  1.00  0.00    -0.289 OA
ATOM     22  H1  UNL     1      -0.149  29.122  10.219  1.00  0.00     0.244 HD
ENDBRANCH  19  21
ENDBRANCH   7  19
TORSDOF 5
ENDMDL
