MODEL 1
REMARK VINA RESULT: -7.786512664      0.000      0.000
REMARK  5 active torsions:
REMARK  status: ('A' for Active; 'I' for Inactive)
REMARK    1  A    between atoms: C3_7  and  N4_8 
REMARK    2  A    between atoms: N4_8  and  O1_10 
REMARK    3  A    between atoms: C4_12  and  O2_13 
REMARK    4  A    between atoms: O2_13  and  C5_14 
REMARK    5  A    between atoms: C5_14  and  C6_15 
ROOT
HETATM    1  N1  UNL     1       1.066  21.862  12.129  1.00  0.00    -0.063 NA
HETATM    2  C1  UNL     1       0.225  22.896  12.623  1.00  0.00     0.195 A 
HETATM    3  N2  UNL     1      -0.496  22.641  13.732  1.00  0.00    -0.317 N 
ATOM      4  H2  UNL     1      -0.416  21.725  14.174  1.00  0.00     0.169 HD
HETATM    5  C2  UNL     1      -1.331  23.569  14.279  1.00  0.00     0.151 A 
HETATM    6  N3  UNL     1      -2.071  23.267  15.441  1.00  0.00    -0.080 NA
HETATM    7  C3  UNL     1      -1.400  24.792  13.637  1.00  0.00     0.146 A 
HETATM    8  C4  UNL     1      -0.663  25.073  12.491  1.00  0.00     0.177 A 
HETATM    9  N5  UNL     1       0.126  24.099  12.032  1.00  0.00    -0.309 N 
ATOM     10  H5  UNL     1       0.679  24.276  11.193  1.00  0.00     0.170 HD
ENDROOT
BRANCH   8  11
HETATM   11  O2  UNL     1      -0.809  26.315  11.939  1.00  0.00    -0.334 OA
BRANCH  11  12
HETATM   12  C5  UNL     1      -0.736  26.642  10.588  1.00  0.00     0.182 C 
BRANCH  12  13
HETATM   13  C6  UNL     1       0.469  27.576  10.418  1.00  0.00     0.010 C 
HETATM   14  C7  UNL     1       0.076  28.864   9.767  1.00  0.00     0.007 C 
HETATM   15  C8  UNL     1      -0.144  28.699   8.300  1.00  0.00     0.000 C 
HETATM   16  C9  UNL     1       1.097  28.136   7.643  1.00  0.00     0.000 C 
HETATM   17  C10 UNL     1       1.525  26.833   8.262  1.00  0.00     0.000 C 
HETATM   18  C11 UNL     1       1.603  26.869   9.752  1.00  0.00     0.007 C 
ENDBRANCH  12  13
ENDBRANCH  11  12
ENDBRANCH   8  11
BRANCH   7  19
HETATM   19  N4  UNL     1      -2.264  25.777  14.188  1.00  0.00    -0.262 N 
ATOM     20  H4  UNL     1      -1.862  26.658  14.510  1.00  0.00     0.194 HD
BRANCH  19  21
HETATM   21  O1  UNL     1      -3.502  25.603  14.294  1.00  0.00    -0.289 OA
ATOM     22  H1  UNL     1      -4.055  26.180  14.808  1.00  0.00     0.244 HD
ENDBRANCH  19  21
ENDBRANCH   7  19
TORSDOF 5
ENDMDL
