MODEL 8
REMARK VINA RESULT: -6.427086363      2.418      5.143
REMARK  4 active torsions:
REMARK  status: ('A' for Active; 'I' for Inactive)
REMARK    1  A    between atoms: N1_4  and  C4_5 
REMARK    2  A    between atoms: C6_7  and  O1_8 
REMARK    3  A    between atoms: C7_10  and  C8_11 
REMARK    4  A    between atoms: C8_11  and  O2_12 
ROOT
HETATM    1  C4  UNL     1      48.832  32.526  -1.229  1.00  0.00     0.101 A 
HETATM    2  C5  UNL     1      48.937  31.262  -0.460  1.00  0.00     0.058 A 
HETATM    3  C6  UNL     1      47.532  30.769  -0.252  1.00  0.00     0.131 A 
HETATM    4  C7  UNL     1      46.614  31.759  -0.875  1.00  0.00     0.013 A 
HETATM    5  C9  UNL     1      46.668  31.830  -2.382  1.00  0.00     0.022 A 
HETATM    6  C10 UNL     1      47.380  32.837  -1.488  1.00  0.00     0.023 A 
ENDROOT
BRANCH   1   7
HETATM    7  N1  UNL     1      49.472  33.651  -0.646  1.00  0.00    -0.304 N 
HETATM    8  C3  UNL     1      48.968  34.195   0.475  1.00  0.00     0.108 A 
HETATM    9  C2  UNL     1      49.579  35.282   1.046  1.00  0.00     0.022 A 
HETATM   10  C1  UNL     1      49.052  35.911   2.286  1.00  0.00     0.056 C 
HETATM   11  C12 UNL     1      50.710  35.785   0.436  1.00  0.00     0.256 A 
HETATM   12  N2  UNL     1      51.181  35.210  -0.685  1.00  0.00    -0.275 N 
HETATM   13  O4  UNL     1      51.273  36.789   0.965  1.00  0.00    -0.267 OA
HETATM   14  C11 UNL     1      50.576  34.144  -1.240  1.00  0.00     0.329 A 
ATOM     15  H2  UNL     1      52.018  35.592  -1.126  1.00  0.00     0.173 HD
HETATM   16  O3  UNL     1      51.076  33.661  -2.289  1.00  0.00    -0.246 OA
ENDBRANCH   1   7
BRANCH   3  17
HETATM   17  O1  UNL     1      47.330  29.540  -0.910  1.00  0.00    -0.395 OA
ATOM     18  H1  UNL     1      46.624  29.608  -1.543  1.00  0.00     0.210 HD
ENDBRANCH   3  17
BRANCH   4  19
HETATM   19  C8  UNL     1      45.245  32.016  -0.295  1.00  0.00     0.176 C 
BRANCH  19  20
HETATM   20  O2  UNL     1      44.338  31.931  -1.357  1.00  0.00    -0.400 OA
ATOM     21  H2  UNL     1      43.472  31.865  -0.971  1.00  0.00     0.209 HD
ENDBRANCH  19  20
ENDBRANCH   4  19
TORSDOF 4
ENDMDL
