MODEL 2
REMARK VINA RESULT: -8.163850923      1.100      1.278
REMARK  4 active torsions:
REMARK  status: ('A' for Active; 'I' for Inactive)
REMARK    1  A    between atoms: N1_4  and  C4_5 
REMARK    2  A    between atoms: C6_7  and  O1_8 
REMARK    3  A    between atoms: C7_10  and  C8_11 
REMARK    4  A    between atoms: C8_11  and  O2_12 
ROOT
HETATM    1  C4  UNL     1      48.436  33.381   0.196  1.00  0.00     0.101 A 
HETATM    2  C5  UNL     1      48.800  33.615  -1.223  1.00  0.00     0.058 A 
HETATM    3  C6  UNL     1      49.977  34.551  -1.213  1.00  0.00     0.131 A 
HETATM    4  C7  UNL     1      50.275  34.880   0.206  1.00  0.00     0.013 A 
HETATM    5  C9  UNL     1      50.817  33.739   1.032  1.00  0.00     0.022 A 
HETATM    6  C10 UNL     1      49.357  34.172   1.089  1.00  0.00     0.023 A 
ENDROOT
BRANCH   1   7
HETATM    7  N1  UNL     1      47.084  33.653   0.533  1.00  0.00    -0.304 N 
HETATM    8  C3  UNL     1      46.785  34.756   1.239  1.00  0.00     0.108 A 
HETATM    9  C2  UNL     1      45.481  35.028   1.569  1.00  0.00     0.022 A 
HETATM   10  C1  UNL     1      45.110  36.239   2.349  1.00  0.00     0.056 C 
HETATM   11  C12 UNL     1      44.509  34.142   1.154  1.00  0.00     0.256 A 
HETATM   12  N2  UNL     1      44.853  33.049   0.448  1.00  0.00    -0.275 N 
HETATM   13  O4  UNL     1      43.305  34.395   1.460  1.00  0.00    -0.267 OA
HETATM   14  C11 UNL     1      46.133  32.789   0.128  1.00  0.00     0.329 A 
ATOM     15  H2  UNL     1      44.124  32.402   0.147  1.00  0.00     0.173 HD
HETATM   16  O3  UNL     1      46.376  31.747  -0.534  1.00  0.00    -0.246 OA
ENDBRANCH   1   7
BRANCH   3  17
HETATM   17  O1  UNL     1      51.120  33.924  -1.747  1.00  0.00    -0.395 OA
ATOM     18  H1  UNL     1      51.476  34.429  -2.468  1.00  0.00     0.210 HD
ENDBRANCH   3  17
BRANCH   4  19
HETATM   19  C8  UNL     1      50.826  36.232   0.587  1.00  0.00     0.176 C 
BRANCH  19  20
HETATM   20  O2  UNL     1      50.247  36.569   1.815  1.00  0.00    -0.400 OA
ATOM     21  H2  UNL     1      50.308  37.514   1.895  1.00  0.00     0.209 HD
ENDBRANCH  19  20
ENDBRANCH   4  19
TORSDOF 4
ENDMDL
