MODEL 6
REMARK VINA RESULT: -6.586275125      2.196      5.500
REMARK  4 active torsions:
REMARK  status: ('A' for Active; 'I' for Inactive)
REMARK    1  A    between atoms: N1_4  and  C4_5 
REMARK    2  A    between atoms: C6_7  and  O1_8 
REMARK    3  A    between atoms: C7_10  and  C8_11 
REMARK    4  A    between atoms: C8_11  and  O2_12 
ROOT
HETATM    1  C4  UNL     1      47.836  32.949   0.354  1.00  0.00     0.101 A 
HETATM    2  C5  UNL     1      46.473  33.509   0.527  1.00  0.00     0.058 A 
HETATM    3  C6  UNL     1      45.633  32.940  -0.583  1.00  0.00     0.131 A 
HETATM    4  C7  UNL     1      46.513  32.074  -1.411  1.00  0.00     0.013 A 
HETATM    5  C9  UNL     1      46.990  30.809  -0.741  1.00  0.00     0.022 A 
HETATM    6  C10 UNL     1      47.861  32.053  -0.857  1.00  0.00     0.023 A 
ENDROOT
BRANCH   1   7
HETATM    7  N1  UNL     1      48.884  33.904   0.272  1.00  0.00    -0.304 N 
HETATM    8  C3  UNL     1      49.893  33.709  -0.593  1.00  0.00     0.108 A 
HETATM    9  C2  UNL     1      50.910  34.626  -0.681  1.00  0.00     0.022 A 
HETATM   10  C1  UNL     1      52.044  34.446  -1.626  1.00  0.00     0.056 C 
HETATM   11  C12 UNL     1      50.855  35.735   0.139  1.00  0.00     0.256 A 
HETATM   12  N2  UNL     1      49.825  35.891   0.991  1.00  0.00    -0.275 N 
HETATM   13  O4  UNL     1      51.794  36.581   0.057  1.00  0.00    -0.267 OA
HETATM   14  C11 UNL     1      48.832  34.988   1.071  1.00  0.00     0.329 A 
ATOM     15  H2  UNL     1      49.796  36.715   1.590  1.00  0.00     0.173 HD
HETATM   16  O3  UNL     1      47.902  35.202   1.892  1.00  0.00    -0.246 OA
ENDBRANCH   1   7
BRANCH   3  17
HETATM   17  O1  UNL     1      44.609  32.122  -0.065  1.00  0.00    -0.395 OA
ATOM     18  H1  UNL     1      44.435  32.334   0.844  1.00  0.00     0.210 HD
ENDBRANCH   3  17
BRANCH   4  19
HETATM   19  C8  UNL     1      46.285  31.936  -2.897  1.00  0.00     0.176 C 
BRANCH  19  20
HETATM   20  O2  UNL     1      44.940  31.586  -3.064  1.00  0.00    -0.400 OA
ATOM     21  H2  UNL     1      44.594  31.415  -2.197  1.00  0.00     0.209 HD
ENDBRANCH  19  20
ENDBRANCH   4  19
TORSDOF 4
ENDMDL
