MODEL 5
REMARK VINA RESULT: -6.940266161      1.610      5.398
REMARK  4 active torsions:
REMARK  status: ('A' for Active; 'I' for Inactive)
REMARK    1  A    between atoms: N1_4  and  C4_5 
REMARK    2  A    between atoms: C6_7  and  O1_8 
REMARK    3  A    between atoms: C7_10  and  C8_11 
REMARK    4  A    between atoms: C8_11  and  O2_12 
ROOT
HETATM    1  C4  UNL     1      46.273  34.177   0.150  1.00  0.00     0.101 A 
HETATM    2  C5  UNL     1      45.074  33.309   0.241  1.00  0.00     0.058 A 
HETATM    3  C6  UNL     1      44.421  33.618   1.560  1.00  0.00     0.131 A 
HETATM    4  C7  UNL     1      45.256  34.642   2.243  1.00  0.00     0.013 A 
HETATM    5  C9  UNL     1      45.255  36.008   1.601  1.00  0.00     0.022 A 
HETATM    6  C10 UNL     1      46.387  35.010   1.401  1.00  0.00     0.023 A 
ENDROOT
BRANCH   1   7
HETATM    7  N1  UNL     1      47.498  33.503  -0.096  1.00  0.00    -0.304 N 
HETATM    8  C3  UNL     1      48.532  33.676   0.744  1.00  0.00     0.108 A 
HETATM    9  C2  UNL     1      49.720  33.029   0.515  1.00  0.00     0.022 A 
HETATM   10  C1  UNL     1      50.886  33.195   1.421  1.00  0.00     0.056 C 
HETATM   11  C12 UNL     1      49.808  32.208  -0.591  1.00  0.00     0.256 A 
HETATM   12  N2  UNL     1      48.747  32.063  -1.407  1.00  0.00    -0.275 N 
HETATM   13  O4  UNL     1      50.906  31.611  -0.801  1.00  0.00    -0.267 OA
HETATM   14  C11 UNL     1      47.586  32.701  -1.176  1.00  0.00     0.329 A 
ATOM     15  H2  UNL     1      48.826  31.453  -2.221  1.00  0.00     0.173 HD
HETATM   16  O3  UNL     1      46.639  32.515  -1.983  1.00  0.00    -0.246 OA
ENDBRANCH   1   7
BRANCH   3  17
HETATM   17  O1  UNL     1      43.144  34.180   1.367  1.00  0.00    -0.395 OA
ATOM     18  H1  UNL     1      42.531  33.857   2.017  1.00  0.00     0.210 HD
ENDBRANCH   3  17
BRANCH   4  19
HETATM   19  C8  UNL     1      45.370  34.668   3.747  1.00  0.00     0.176 C 
BRANCH  19  20
HETATM   20  O2  UNL     1      44.067  34.566   4.249  1.00  0.00    -0.400 OA
ATOM     21  H2  UNL     1      43.964  33.674   4.559  1.00  0.00     0.209 HD
ENDBRANCH  19  20
ENDBRANCH   4  19
TORSDOF 4
ENDMDL
