MODEL 1
REMARK VINA RESULT: -9.432360878      0.000      0.000
REMARK  4 active torsions:
REMARK  status: ('A' for Active; 'I' for Inactive)
REMARK    1  A    between atoms: N1_4  and  C4_5 
REMARK    2  A    between atoms: C6_7  and  O1_8 
REMARK    3  A    between atoms: C7_10  and  C8_11 
REMARK    4  A    between atoms: C8_11  and  O2_12 
ROOT
HETATM    1  C4  UNL     1      47.982  32.918  -0.703  1.00  0.00     0.101 A 
HETATM    2  C5  UNL     1      48.602  33.982  -1.530  1.00  0.00     0.058 A 
HETATM    3  C6  UNL     1      50.000  34.168  -1.011  1.00  0.00     0.131 A 
HETATM    4  C7  UNL     1      50.181  33.234   0.132  1.00  0.00     0.013 A 
HETATM    5  C9  UNL     1      50.207  31.768  -0.230  1.00  0.00     0.022 A 
HETATM    6  C10 UNL     1      48.969  32.451   0.336  1.00  0.00     0.023 A 
ENDROOT
BRANCH   1   7
HETATM    7  N1  UNL     1      46.753  33.265  -0.082  1.00  0.00    -0.304 N 
HETATM    8  C3  UNL     1      46.691  34.349   0.709  1.00  0.00     0.108 A 
HETATM    9  C2  UNL     1      45.508  34.692   1.313  1.00  0.00     0.022 A 
HETATM   10  C1  UNL     1      45.400  35.884   2.195  1.00  0.00     0.056 C 
HETATM   11  C12 UNL     1      44.406  33.895   1.079  1.00  0.00     0.256 A 
HETATM   12  N2  UNL     1      44.512  32.818   0.280  1.00  0.00    -0.275 N 
HETATM   13  O4  UNL     1      43.314  34.213   1.638  1.00  0.00    -0.267 OA
HETATM   14  C11 UNL     1      45.675  32.488  -0.309  1.00  0.00     0.329 A 
ATOM     15  H2  UNL     1      43.690  32.238   0.116  1.00  0.00     0.173 HD
HETATM   16  O3  UNL     1      45.697  31.466  -1.043  1.00  0.00    -0.246 OA
ENDBRANCH   1   7
BRANCH   3  17
HETATM   17  O1  UNL     1      50.949  33.817  -1.992  1.00  0.00    -0.395 OA
ATOM     18  H1  UNL     1      51.814  34.130  -1.752  1.00  0.00     0.210 HD
ENDBRANCH   3  17
BRANCH   4  19
HETATM   19  C8  UNL     1      51.072  33.597   1.294  1.00  0.00     0.176 C 
BRANCH  19  20
HETATM   20  O2  UNL     1      51.468  34.925   1.095  1.00  0.00    -0.400 OA
ATOM     21  H2  UNL     1      52.284  35.039   1.568  1.00  0.00     0.209 HD
ENDBRANCH  19  20
ENDBRANCH   4  19
TORSDOF 4
ENDMDL
