MODEL 10
REMARK VINA RESULT: -5.888673736      2.209      4.838
REMARK  4 active torsions:
REMARK  status: ('A' for Active; 'I' for Inactive)
REMARK    1  A    between atoms: N1_4  and  C4_5 
REMARK    2  A    between atoms: C6_7  and  O1_8 
REMARK    3  A    between atoms: C7_10  and  C8_11 
REMARK    4  A    between atoms: C8_11  and  O2_12 
ROOT
HETATM    1  C4  UNL     1      48.579  32.745  -1.385  1.00  0.00     0.101 A 
HETATM    2  C5  UNL     1      48.754  31.451  -0.682  1.00  0.00     0.058 A 
HETATM    3  C6  UNL     1      47.375  30.902  -0.444  1.00  0.00     0.131 A 
HETATM    4  C7  UNL     1      46.402  31.890  -0.983  1.00  0.00     0.013 A 
HETATM    5  C9  UNL     1      46.393  32.033  -2.486  1.00  0.00     0.022 A 
HETATM    6  C10 UNL     1      47.109  33.020  -1.573  1.00  0.00     0.023 A 
ENDROOT
BRANCH   1   7
HETATM    7  N1  UNL     1      49.205  33.863  -0.773  1.00  0.00    -0.304 N 
HETATM    8  C3  UNL     1      48.750  34.316   0.406  1.00  0.00     0.108 A 
HETATM    9  C2  UNL     1      49.349  35.395   1.006  1.00  0.00     0.022 A 
HETATM   10  C1  UNL     1      48.874  35.926   2.311  1.00  0.00     0.056 C 
HETATM   11  C12 UNL     1      50.418  35.984   0.361  1.00  0.00     0.256 A 
HETATM   12  N2  UNL     1      50.842  35.497  -0.820  1.00  0.00    -0.275 N 
HETATM   13  O4  UNL     1      50.970  36.981   0.916  1.00  0.00    -0.267 OA
HETATM   14  C11 UNL     1      50.249  34.439  -1.401  1.00  0.00     0.329 A 
ATOM     15  H2  UNL     1      51.633  35.942  -1.285  1.00  0.00     0.173 HD
HETATM   16  O3  UNL     1      50.702  34.042  -2.506  1.00  0.00    -0.246 OA
ENDBRANCH   1   7
BRANCH   3  17
HETATM   17  O1  UNL     1      47.186  29.699  -1.153  1.00  0.00    -0.395 OA
ATOM     18  H1  UNL     1      46.369  29.284  -0.900  1.00  0.00     0.210 HD
ENDBRANCH   3  17
BRANCH   4  19
HETATM   19  C8  UNL     1      45.050  32.073  -0.339  1.00  0.00     0.176 C 
BRANCH  19  20
HETATM   20  O2  UNL     1      45.027  33.373   0.179  1.00  0.00    -0.400 OA
ATOM     21  H2  UNL     1      45.031  33.963  -0.566  1.00  0.00     0.209 HD
ENDBRANCH  19  20
ENDBRANCH   4  19
TORSDOF 4
ENDMDL
