MODEL 11
REMARK VINA RESULT: -5.788283316      1.907      5.962
REMARK  4 active torsions:
REMARK  status: ('A' for Active; 'I' for Inactive)
REMARK    1  A    between atoms: N1_4  and  C4_5 
REMARK    2  A    between atoms: C6_7  and  O1_8 
REMARK    3  A    between atoms: C7_10  and  C8_11 
REMARK    4  A    between atoms: C8_11  and  O2_12 
ROOT
HETATM    1  C4  UNL     1      46.826  35.049   0.598  1.00  0.00     0.101 A 
HETATM    2  C5  UNL     1      45.813  34.021   0.256  1.00  0.00     0.058 A 
HETATM    3  C6  UNL     1      44.845  33.976   1.406  1.00  0.00     0.131 A 
HETATM    4  C7  UNL     1      45.313  34.955   2.423  1.00  0.00     0.013 A 
HETATM    5  C9  UNL     1      45.204  36.406   2.020  1.00  0.00     0.022 A 
HETATM    6  C10 UNL     1      46.514  35.633   1.952  1.00  0.00     0.023 A 
ENDROOT
BRANCH   1   7
HETATM    7  N1  UNL     1      48.177  34.612   0.559  1.00  0.00    -0.304 N 
HETATM    8  C3  UNL     1      48.514  33.564  -0.212  1.00  0.00     0.108 A 
HETATM    9  C2  UNL     1      49.816  33.135  -0.257  1.00  0.00     0.022 A 
HETATM   10  C1  UNL     1      50.228  31.980  -1.098  1.00  0.00     0.056 C 
HETATM   11  C12 UNL     1      50.748  33.809   0.506  1.00  0.00     0.256 A 
HETATM   12  N2  UNL     1      50.367  34.853   1.264  1.00  0.00    -0.275 N 
HETATM   13  O4  UNL     1      51.950  33.410   0.464  1.00  0.00    -0.267 OA
HETATM   14  C11 UNL     1      49.088  35.269   1.303  1.00  0.00     0.329 A 
ATOM     15  H2  UNL     1      51.066  35.343   1.823  1.00  0.00     0.173 HD
HETATM   16  O3  UNL     1      48.809  36.253   2.036  1.00  0.00    -0.246 OA
ENDBRANCH   1   7
BRANCH   3  17
HETATM   17  O1  UNL     1      43.560  34.382   0.995  1.00  0.00    -0.395 OA
ATOM     18  H1  UNL     1      42.975  33.636   0.933  1.00  0.00     0.210 HD
ENDBRANCH   3  17
BRANCH   4  19
HETATM   19  C8  UNL     1      45.091  34.707   3.895  1.00  0.00     0.176 C 
BRANCH  19  20
HETATM   20  O2  UNL     1      43.709  34.765   4.107  1.00  0.00    -0.400 OA
ATOM     21  H2  UNL     1      43.583  35.018   5.014  1.00  0.00     0.209 HD
ENDBRANCH  19  20
ENDBRANCH   4  19
TORSDOF 4
ENDMDL
