MODEL 6
REMARK VINA RESULT: -6.159345192      1.616      5.420
REMARK  4 active torsions:
REMARK  status: ('A' for Active; 'I' for Inactive)
REMARK    1  A    between atoms: N1_4  and  C4_5 
REMARK    2  A    between atoms: C6_7  and  O1_8 
REMARK    3  A    between atoms: C7_10  and  C8_11 
REMARK    4  A    between atoms: C8_11  and  O2_12 
ROOT
HETATM    1  C4  UNL     1      46.581  34.494   0.073  1.00  0.00     0.101 A 
HETATM    2  C5  UNL     1      45.410  33.587   0.154  1.00  0.00     0.058 A 
HETATM    3  C6  UNL     1      44.715  33.900   1.450  1.00  0.00     0.131 A 
HETATM    4  C7  UNL     1      45.497  34.966   2.131  1.00  0.00     0.013 A 
HETATM    5  C9  UNL     1      45.466  36.318   1.461  1.00  0.00     0.022 A 
HETATM    6  C10 UNL     1      46.636  35.355   1.308  1.00  0.00     0.023 A 
ENDROOT
BRANCH   1   7
HETATM    7  N1  UNL     1      47.834  33.857  -0.130  1.00  0.00    -0.304 N 
HETATM    8  C3  UNL     1      48.827  34.050   0.753  1.00  0.00     0.108 A 
HETATM    9  C2  UNL     1      50.041  33.439   0.566  1.00  0.00     0.022 A 
HETATM   10  C1  UNL     1      51.165  33.628   1.522  1.00  0.00     0.056 C 
HETATM   11  C12 UNL     1      50.198  32.633  -0.543  1.00  0.00     0.256 A 
HETATM   12  N2  UNL     1      49.176  32.467  -1.402  1.00  0.00    -0.275 N 
HETATM   13  O4  UNL     1      51.320  32.070  -0.714  1.00  0.00    -0.267 OA
HETATM   14  C11 UNL     1      47.988  33.070  -1.213  1.00  0.00     0.329 A 
ATOM     15  H2  UNL     1      49.305  31.869  -2.218  1.00  0.00     0.173 HD
HETATM   16  O3  UNL     1      47.080  32.866  -2.060  1.00  0.00    -0.246 OA
ENDBRANCH   1   7
BRANCH   3  17
HETATM   17  O1  UNL     1      43.425  34.415   1.215  1.00  0.00    -0.395 OA
ATOM     18  H1  UNL     1      42.901  33.797   0.716  1.00  0.00     0.210 HD
ENDBRANCH   3  17
BRANCH   4  19
HETATM   19  C8  UNL     1      45.574  35.026   3.637  1.00  0.00     0.176 C 
BRANCH  19  20
HETATM   20  O2  UNL     1      44.298  34.706   4.115  1.00  0.00    -0.400 OA
ATOM     21  H2  UNL     1      44.400  33.944   4.673  1.00  0.00     0.209 HD
ENDBRANCH  19  20
ENDBRANCH   4  19
TORSDOF 4
ENDMDL
