MODEL 1
REMARK VINA RESULT: -9.422136147      0.000      0.000
REMARK  4 active torsions:
REMARK  status: ('A' for Active; 'I' for Inactive)
REMARK    1  A    between atoms: N1_4  and  C4_5 
REMARK    2  A    between atoms: C6_7  and  O1_8 
REMARK    3  A    between atoms: C7_10  and  C8_11 
REMARK    4  A    between atoms: C8_11  and  O2_12 
ROOT
HETATM    1  C4  UNL     1      48.092  33.152  -1.215  1.00  0.00     0.101 A 
HETATM    2  C5  UNL     1      48.706  34.299  -1.927  1.00  0.00     0.058 A 
HETATM    3  C6  UNL     1      50.140  34.363  -1.479  1.00  0.00     0.131 A 
HETATM    4  C7  UNL     1      50.348  33.273  -0.489  1.00  0.00     0.013 A 
HETATM    5  C9  UNL     1      50.290  31.873  -1.049  1.00  0.00     0.022 A 
HETATM    6  C10 UNL     1      49.118  32.511  -0.316  1.00  0.00     0.023 A 
ENDROOT
BRANCH   1   7
HETATM    7  N1  UNL     1      46.918  33.450  -0.474  1.00  0.00    -0.304 N 
HETATM    8  C3  UNL     1      46.896  34.527   0.330  1.00  0.00     0.108 A 
HETATM    9  C2  UNL     1      45.767  34.823   1.050  1.00  0.00     0.022 A 
HETATM   10  C1  UNL     1      45.703  36.005   1.950  1.00  0.00     0.056 C 
HETATM   11  C12 UNL     1      44.675  33.989   0.917  1.00  0.00     0.256 A 
HETATM   12  N2  UNL     1      44.741  32.922   0.100  1.00  0.00    -0.275 N 
HETATM   13  O4  UNL     1      43.633  34.265   1.583  1.00  0.00    -0.267 OA
HETATM   14  C11 UNL     1      45.851  32.637  -0.602  1.00  0.00     0.329 A 
ATOM     15  H2  UNL     1      43.927  32.314   0.011  1.00  0.00     0.173 HD
HETATM   16  O3  UNL     1      45.836  31.622  -1.345  1.00  0.00    -0.246 OA
ENDBRANCH   1   7
BRANCH   3  17
HETATM   17  O1  UNL     1      51.013  34.120  -2.558  1.00  0.00    -0.395 OA
ATOM     18  H1  UNL     1      51.919  34.207  -2.285  1.00  0.00     0.210 HD
ENDBRANCH   3  17
BRANCH   4  19
HETATM   19  C8  UNL     1      51.322  33.441   0.651  1.00  0.00     0.176 C 
BRANCH  19  20
HETATM   20  O2  UNL     1      51.227  34.774   1.067  1.00  0.00    -0.400 OA
ATOM     21  H2  UNL     1      52.055  34.990   1.479  1.00  0.00     0.209 HD
ENDBRANCH  19  20
ENDBRANCH   4  19
TORSDOF 4
ENDMDL
