MODEL 5
REMARK VINA RESULT: -7.554724358      1.488      6.162
REMARK  1 active torsions:
REMARK  status: ('A' for Active; 'I' for Inactive)
REMARK    1  A    between atoms: C2_2  and  O1_3 
ROOT
HETATM    1  C1  UNL     1       2.066  28.147   5.009  1.00  0.00     0.047 C 
HETATM    2  C2  UNL     1       2.982  29.330   4.783  1.00  0.00     0.065 C 
HETATM    3  C3  UNL     1       3.521  29.871   6.097  1.00  0.00     0.039 C 
HETATM    4  C4  UNL     1       3.181  31.358   6.072  1.00  0.00     0.009 C 
HETATM    5  C5  UNL     1       1.947  31.371   5.262  1.00  0.00     0.009 C 
HETATM    6  C6  UNL     1       1.552  32.685   4.677  1.00  0.00     0.025 C 
HETATM    7  C7  UNL     1       1.362  33.792   5.664  1.00  0.00     0.014 C 
HETATM    8  C8  UNL     1       0.968  35.033   4.850  1.00  0.00     0.040 C 
HETATM    9  C9  UNL     1      -0.339  34.724   4.239  1.00  0.00    -0.048 C 
HETATM   10  C10 UNL     1      -1.271  35.641   4.205  1.00  0.00     0.057 C 
HETATM   11  C11 UNL     1      -2.563  35.308   3.591  1.00  0.00     0.150 C 
HETATM   12  O2  UNL     1      -3.618  35.863   3.993  1.00  0.00    -0.293 OA
HETATM   13  C12 UNL     1      -2.525  34.301   2.498  1.00  0.00     0.087 C 
HETATM   14  C13 UNL     1      -1.777  33.067   2.873  1.00  0.00     0.047 C 
HETATM   15  C14 UNL     1      -0.553  33.402   3.688  1.00  0.00    -0.045 C 
HETATM   16  C15 UNL     1       0.322  32.419   3.880  1.00  0.00    -0.047 C 
HETATM   17  C16 UNL     1       0.111  31.087   3.336  1.00  0.00     0.005 C 
HETATM   18  C17 UNL     1       1.046  30.126   3.424  1.00  0.00    -0.014 C 
HETATM   19  C18 UNL     1       2.304  30.461   4.092  1.00  0.00     0.009 C 
HETATM   20  C19 UNL     1       3.193  31.161   3.089  1.00  0.00     0.023 C 
ENDROOT
BRANCH   2  21
HETATM   21  O1  UNL     1       4.088  28.902   4.038  1.00  0.00    -0.389 OA
ATOM     22  H1  UNL     1       3.909  28.031   3.704  1.00  0.00     0.210 HD
ENDBRANCH   2  21
TORSDOF 1
ENDMDL
