MODEL 3
REMARK VINA RESULT: -7.952738473      0.948      1.007
REMARK  1 active torsions:
REMARK  status: ('A' for Active; 'I' for Inactive)
REMARK    1  A    between atoms: C2_2  and  O1_3 
ROOT
HETATM    1  C1  UNL     1      -2.561  33.790   3.668  1.00  0.00     0.047 C 
HETATM    2  C2  UNL     1      -1.691  33.816   4.906  1.00  0.00     0.065 C 
HETATM    3  C3  UNL     1      -0.484  34.719   4.714  1.00  0.00     0.039 C 
HETATM    4  C4  UNL     1       0.715  33.843   5.063  1.00  0.00     0.009 C 
HETATM    5  C5  UNL     1       0.231  32.503   4.679  1.00  0.00     0.009 C 
HETATM    6  C6  UNL     1       0.968  31.341   5.256  1.00  0.00     0.025 C 
HETATM    7  C7  UNL     1       2.434  31.306   4.963  1.00  0.00     0.014 C 
HETATM    8  C8  UNL     1       2.980  30.046   5.648  1.00  0.00     0.040 C 
HETATM    9  C9  UNL     1       2.342  28.901   4.971  1.00  0.00    -0.048 C 
HETATM   10  C10 UNL     1       3.050  27.838   4.687  1.00  0.00     0.057 C 
HETATM   11  C11 UNL     1       2.390  26.713   4.013  1.00  0.00     0.150 C 
HETATM   12  O2  UNL     1       3.044  25.962   3.244  1.00  0.00    -0.293 OA
HETATM   13  C12 UNL     1       0.942  26.538   4.301  1.00  0.00     0.087 C 
HETATM   14  C13 UNL     1       0.162  27.797   4.129  1.00  0.00     0.047 C 
HETATM   15  C14 UNL     1       0.935  28.988   4.637  1.00  0.00    -0.045 C 
HETATM   16  C15 UNL     1       0.260  30.128   4.760  1.00  0.00    -0.047 C 
HETATM   17  C16 UNL     1      -1.150  30.224   4.420  1.00  0.00     0.005 C 
HETATM   18  C17 UNL     1      -1.864  31.339   4.656  1.00  0.00    -0.014 C 
HETATM   19  C18 UNL     1      -1.173  32.470   5.275  1.00  0.00     0.009 C 
HETATM   20  C19 UNL     1      -1.141  32.236   6.769  1.00  0.00     0.023 C 
ENDROOT
BRANCH   2  21
HETATM   21  O1  UNL     1      -2.435  34.354   5.963  1.00  0.00    -0.389 OA
ATOM     22  H1  UNL     1      -1.839  34.784   6.564  1.00  0.00     0.210 HD
ENDBRANCH   2  21
TORSDOF 1
ENDMDL
