MODEL 1
REMARK VINA RESULT: -11.131564624      0.000      0.000
REMARK  1 active torsions:
REMARK  status: ('A' for Active; 'I' for Inactive)
REMARK    1  A    between atoms: C2_2  and  O1_3 
ROOT
HETATM    1  C1  UNL     1      -1.525  34.479   2.528  1.00  0.00     0.047 C 
HETATM    2  C2  UNL     1      -0.800  34.526   3.856  1.00  0.00     0.065 C 
HETATM    3  C3  UNL     1       0.549  35.213   3.724  1.00  0.00     0.039 C 
HETATM    4  C4  UNL     1       1.548  34.219   4.309  1.00  0.00     0.009 C 
HETATM    5  C5  UNL     1       0.900  32.928   4.007  1.00  0.00     0.009 C 
HETATM    6  C6  UNL     1       1.375  31.749   4.788  1.00  0.00     0.025 C 
HETATM    7  C7  UNL     1       2.839  31.464   4.686  1.00  0.00     0.014 C 
HETATM    8  C8  UNL     1       3.100  30.229   5.560  1.00  0.00     0.040 C 
HETATM    9  C9  UNL     1       2.363  29.117   4.930  1.00  0.00    -0.048 C 
HETATM   10  C10 UNL     1       2.919  27.936   4.848  1.00  0.00     0.057 C 
HETATM   11  C11 UNL     1       2.164  26.846   4.216  1.00  0.00     0.150 C 
HETATM   12  O2  UNL     1       2.769  25.920   3.616  1.00  0.00    -0.293 OA
HETATM   13  C12 UNL     1       0.684  26.921   4.336  1.00  0.00     0.087 C 
HETATM   14  C13 UNL     1       0.139  28.251   3.940  1.00  0.00     0.047 C 
HETATM   15  C14 UNL     1       1.033  29.369   4.415  1.00  0.00    -0.045 C 
HETATM   16  C15 UNL     1       0.540  30.601   4.335  1.00  0.00    -0.047 C 
HETATM   17  C16 UNL     1      -0.792  30.862   3.813  1.00  0.00     0.005 C 
HETATM   18  C17 UNL     1      -1.339  32.089   3.842  1.00  0.00    -0.014 C 
HETATM   19  C18 UNL     1      -0.547  33.174   4.423  1.00  0.00     0.009 C 
HETATM   20  C19 UNL     1      -0.714  33.120   5.925  1.00  0.00     0.023 C 
ENDROOT
BRANCH   2  21
HETATM   21  O1  UNL     1      -1.558  35.291   4.750  1.00  0.00    -0.389 OA
ATOM     22  H1  UNL     1      -0.985  35.922   5.170  1.00  0.00     0.210 HD
ENDBRANCH   2  21
TORSDOF 1
ENDMDL
