MODEL 4
REMARK VINA RESULT: -7.793248272      1.032      6.126
REMARK  1 active torsions:
REMARK  status: ('A' for Active; 'I' for Inactive)
REMARK    1  A    between atoms: C2_2  and  O1_3 
ROOT
HETATM    1  C1  UNL     1      -0.032  26.677   5.432  1.00  0.00     0.047 C 
HETATM    2  C2  UNL     1       1.094  27.067   4.498  1.00  0.00     0.065 C 
HETATM    3  C3  UNL     1       2.431  27.079   5.220  1.00  0.00     0.039 C 
HETATM    4  C4  UNL     1       3.011  28.462   4.939  1.00  0.00     0.009 C 
HETATM    5  C5  UNL     1       1.789  29.278   4.803  1.00  0.00     0.009 C 
HETATM    6  C6  UNL     1       1.943  30.595   4.120  1.00  0.00     0.025 C 
HETATM    7  C7  UNL     1       2.944  31.520   4.735  1.00  0.00     0.014 C 
HETATM    8  C8  UNL     1       2.939  32.793   3.877  1.00  0.00     0.040 C 
HETATM    9  C9  UNL     1       1.597  33.388   4.032  1.00  0.00    -0.048 C 
HETATM   10  C10 UNL     1       1.474  34.683   4.169  1.00  0.00     0.057 C 
HETATM   11  C11 UNL     1       0.128  35.249   4.322  1.00  0.00     0.150 C 
HETATM   12  O2  UNL     1      -0.046  36.304   4.984  1.00  0.00    -0.293 OA
HETATM   13  C12 UNL     1      -0.974  34.502   3.657  1.00  0.00     0.087 C 
HETATM   14  C13 UNL     1      -0.964  33.047   3.982  1.00  0.00     0.047 C 
HETATM   15  C14 UNL     1       0.444  32.510   4.029  1.00  0.00    -0.045 C 
HETATM   16  C15 UNL     1       0.577  31.188   4.071  1.00  0.00    -0.047 C 
HETATM   17  C16 UNL     1      -0.575  30.302   4.075  1.00  0.00     0.005 C 
HETATM   18  C17 UNL     1      -0.446  28.966   3.995  1.00  0.00    -0.014 C 
HETATM   19  C18 UNL     1       0.908  28.419   3.903  1.00  0.00     0.009 C 
HETATM   20  C19 UNL     1       1.344  28.495   2.457  1.00  0.00     0.023 C 
ENDROOT
BRANCH   2  21
HETATM   21  O1  UNL     1       1.188  26.103   3.487  1.00  0.00    -0.389 OA
ATOM     22  H1  UNL     1       2.077  26.101   3.153  1.00  0.00     0.210 HD
ENDBRANCH   2  21
TORSDOF 1
ENDMDL
