MODEL 17
REMARK VINA RESULT: -7.474574401      2.039      3.109
REMARK  6 active torsions:
REMARK  status: ('A' for Active; 'I' for Inactive)
REMARK    1  A    between atoms: C2_2  and  C3_3 
REMARK    2  A    between atoms: C2_2  and  C6_8 
REMARK    3  A    between atoms: C3_3  and  C4_4 
REMARK    4  A    between atoms: C4_4  and  C5_5 
REMARK    5  A    between atoms: C15_17  and  O3_18 
REMARK    6  A    between atoms: C22_26  and  O4_27 
ROOT
HETATM    1  C6  UNL     1       2.125 -10.973  85.349  1.00  0.00     0.000 C 
HETATM    2  C7  UNL     1       1.733 -10.909  83.866  1.00  0.00     0.006 C 
HETATM    3  C8  UNL     1       1.130  -9.528  83.668  1.00  0.00     0.006 C 
HETATM    4  C9  UNL     1       1.846  -8.783  84.737  1.00  0.00     0.001 C 
HETATM    5  C10 UNL     1       1.427  -7.395  84.987  1.00  0.00    -0.005 C 
HETATM    6  C11 UNL     1       1.462  -6.662  83.652  1.00  0.00     0.006 C 
HETATM    7  C12 UNL     1       1.927  -5.253  83.768  1.00  0.00     0.006 C 
HETATM    8  C13 UNL     1       1.571  -4.727  85.128  1.00  0.00    -0.004 C 
HETATM    9  C14 UNL     1       1.691  -3.221  85.151  1.00  0.00     0.037 C 
HETATM   10  C15 UNL     1       3.096  -2.744  85.171  1.00  0.00     0.118 C 
HETATM   11  C16 UNL     1       4.093  -3.719  85.689  1.00  0.00     0.032 C 
HETATM   12  C17 UNL     1       3.575  -4.725  86.642  1.00  0.00     0.012 C 
HETATM   13  C18 UNL     1       2.295  -5.393  86.251  1.00  0.00    -0.036 C 
HETATM   14  C19 UNL     1       1.372  -5.304  87.477  1.00  0.00     0.016 C 
HETATM   15  C20 UNL     1       2.501  -6.829  85.924  1.00  0.00     0.001 C 
HETATM   16  C21 UNL     1       2.561  -7.663  87.162  1.00  0.00     0.038 C 
HETATM   17  C22 UNL     1       2.728  -9.120  86.938  1.00  0.00     0.127 C 
HETATM   18  C23 UNL     1       1.721  -9.705  85.962  1.00  0.00    -0.010 C 
HETATM   19  C24 UNL     1       0.380  -9.616  86.585  1.00  0.00     0.018 C 
ENDROOT
BRANCH   1  20
HETATM   20  C2  UNL     1       1.660 -12.267  85.872  1.00  0.00    -0.013 C 
HETATM   21  C1  UNL     1       2.370 -12.804  87.076  1.00  0.00     0.010 C 
BRANCH  20  22
HETATM   22  C3  UNL     1       1.447 -13.341  84.830  1.00  0.00     0.015 C 
BRANCH  22  23
HETATM   23  C4  UNL     1       2.559 -14.394  84.953  1.00  0.00     0.113 C 
BRANCH  23  24
HETATM   24  C5  UNL     1       3.746 -14.041  84.199  1.00  0.00     0.172 C 
HETATM   25  O1  UNL     1       4.865 -14.039  84.757  1.00  0.00    -0.648 OA
HETATM   26  O2  UNL     1       3.677 -13.705  82.863  1.00  0.00    -0.648 OA
ENDBRANCH  23  24
ENDBRANCH  22  23
ENDBRANCH  20  22
ENDBRANCH   1  20
BRANCH  17  27
HETATM   27  O4  UNL     1       4.032  -9.479  86.599  1.00  0.00    -0.395 OA
ATOM     28  H4  UNL     1       4.074 -10.214  85.999  1.00  0.00     0.210 HD
ENDBRANCH  17  27
BRANCH  10  29
HETATM   29  O3  UNL     1       3.470  -2.413  83.855  1.00  0.00    -0.396 OA
ATOM     30  H3  UNL     1       4.253  -2.904  83.634  1.00  0.00     0.210 HD
ENDBRANCH  10  29
TORSDOF 6
ENDMDL
