MODEL 8
REMARK VINA RESULT: -7.648962106      3.910      7.743
REMARK  6 active torsions:
REMARK  status: ('A' for Active; 'I' for Inactive)
REMARK    1  A    between atoms: C2_2  and  C3_3 
REMARK    2  A    between atoms: C2_2  and  C6_8 
REMARK    3  A    between atoms: C3_3  and  C4_4 
REMARK    4  A    between atoms: C4_4  and  C5_5 
REMARK    5  A    between atoms: C15_17  and  O3_18 
REMARK    6  A    between atoms: C22_26  and  O4_27 
ROOT
HETATM    1  C6  UNL     1       6.130  -6.955  86.278  1.00  0.00     0.000 C 
HETATM    2  C7  UNL     1       6.476  -7.600  87.628  1.00  0.00     0.006 C 
HETATM    3  C8  UNL     1       5.351  -8.584  87.904  1.00  0.00     0.006 C 
HETATM    4  C9  UNL     1       4.944  -8.901  86.510  1.00  0.00     0.001 C 
HETATM    5  C10 UNL     1       3.745  -9.734  86.331  1.00  0.00    -0.005 C 
HETATM    6  C11 UNL     1       3.934 -10.989  87.175  1.00  0.00     0.006 C 
HETATM    7  C12 UNL     1       3.390 -12.216  86.533  1.00  0.00     0.006 C 
HETATM    8  C13 UNL     1       2.244 -11.839  85.641  1.00  0.00    -0.004 C 
HETATM    9  C14 UNL     1       1.448 -13.068  85.269  1.00  0.00     0.037 C 
HETATM   10  C15 UNL     1       2.131 -13.932  84.274  1.00  0.00     0.118 C 
HETATM   11  C16 UNL     1       3.152 -13.251  83.433  1.00  0.00     0.032 C 
HETATM   12  C17 UNL     1       2.956 -11.798  83.232  1.00  0.00     0.012 C 
HETATM   13  C18 UNL     1       2.633 -11.010  84.461  1.00  0.00    -0.036 C 
HETATM   14  C19 UNL     1       1.406 -10.151  84.110  1.00  0.00     0.016 C 
HETATM   15  C20 UNL     1       3.746 -10.101  84.841  1.00  0.00     0.001 C 
HETATM   16  C21 UNL     1       3.725  -8.848  84.028  1.00  0.00     0.038 C 
HETATM   17  C22 UNL     1       4.778  -7.857  84.360  1.00  0.00     0.127 C 
HETATM   18  C23 UNL     1       4.851  -7.520  85.840  1.00  0.00    -0.010 C 
HETATM   19  C24 UNL     1       3.603  -6.811  86.206  1.00  0.00     0.018 C 
ENDROOT
BRANCH   1  20
HETATM   20  C2  UNL     1       6.327  -5.504  86.420  1.00  0.00    -0.013 C 
HETATM   21  C1  UNL     1       6.490  -4.717  85.157  1.00  0.00     0.010 C 
BRANCH  20  22
HETATM   22  C3  UNL     1       7.340  -5.092  87.463  1.00  0.00     0.015 C 
BRANCH  22  23
HETATM   23  C4  UNL     1       8.669  -4.752  86.772  1.00  0.00     0.113 C 
BRANCH  23  24
HETATM   24  C5  UNL     1       9.597  -5.866  86.770  1.00  0.00     0.172 C 
HETATM   25  O1  UNL     1      10.156  -6.218  87.831  1.00  0.00    -0.648 OA
HETATM   26  O2  UNL     1       9.885  -6.561  85.614  1.00  0.00    -0.648 OA
ENDBRANCH  23  24
ENDBRANCH  22  23
ENDBRANCH  20  22
ENDBRANCH   1  20
BRANCH  17  27
HETATM   27  O4  UNL     1       6.032  -8.198  83.854  1.00  0.00    -0.395 OA
ATOM     28  H4  UNL     1       6.723  -8.150  84.504  1.00  0.00     0.210 HD
ENDBRANCH  17  27
BRANCH  10  29
HETATM   29  O3  UNL     1       2.777 -14.976  84.963  1.00  0.00    -0.396 OA
ATOM     30  H3  UNL     1       3.519 -15.263  84.445  1.00  0.00     0.210 HD
ENDBRANCH  10  29
TORSDOF 6
ENDMDL
