MODEL 4
REMARK VINA RESULT: -7.779119719      3.639      7.979
REMARK  6 active torsions:
REMARK  status: ('A' for Active; 'I' for Inactive)
REMARK    1  A    between atoms: C2_2  and  C3_3 
REMARK    2  A    between atoms: C2_2  and  C6_8 
REMARK    3  A    between atoms: C3_3  and  C4_4 
REMARK    4  A    between atoms: C4_4  and  C5_5 
REMARK    5  A    between atoms: C15_17  and  O3_18 
REMARK    6  A    between atoms: C22_26  and  O4_27 
ROOT
HETATM    1  C6  UNL     1       5.360  -6.541  86.967  1.00  0.00     0.000 C 
HETATM    2  C7  UNL     1       6.078  -7.535  87.892  1.00  0.00     0.006 C 
HETATM    3  C8  UNL     1       5.329  -8.847  87.730  1.00  0.00     0.006 C 
HETATM    4  C9  UNL     1       4.815  -8.678  86.346  1.00  0.00     0.001 C 
HETATM    5  C10 UNL     1       3.883  -9.699  85.843  1.00  0.00    -0.005 C 
HETATM    6  C11 UNL     1       4.543 -11.057  86.049  1.00  0.00     0.006 C 
HETATM    7  C12 UNL     1       4.270 -12.016  84.945  1.00  0.00     0.006 C 
HETATM    8  C13 UNL     1       2.939 -11.693  84.330  1.00  0.00    -0.004 C 
HETATM    9  C14 UNL     1       2.470 -12.846  83.472  1.00  0.00     0.037 C 
HETATM   10  C15 UNL     1       3.203 -12.958  82.187  1.00  0.00     0.118 C 
HETATM   11  C16 UNL     1       3.850 -11.706  81.710  1.00  0.00     0.032 C 
HETATM   12  C17 UNL     1       3.228 -10.445  82.169  1.00  0.00     0.012 C 
HETATM   13  C18 UNL     1       2.893 -10.378  83.625  1.00  0.00    -0.036 C 
HETATM   14  C19 UNL     1       1.437  -9.891  83.709  1.00  0.00     0.016 C 
HETATM   15  C20 UNL     1       3.754  -9.402  84.344  1.00  0.00     0.001 C 
HETATM   16  C21 UNL     1       3.257  -8.004  84.162  1.00  0.00     0.038 C 
HETATM   17  C22 UNL     1       4.031  -6.957  84.874  1.00  0.00     0.127 C 
HETATM   18  C23 UNL     1       4.237  -7.252  86.351  1.00  0.00    -0.010 C 
HETATM   19  C24 UNL     1       2.914  -7.194  87.014  1.00  0.00     0.018 C 
ENDROOT
BRANCH   1  20
HETATM   20  C2  UNL     1       5.164  -5.296  87.727  1.00  0.00    -0.013 C 
HETATM   21  C1  UNL     1       5.479  -4.015  87.018  1.00  0.00     0.010 C 
BRANCH  20  22
HETATM   22  C3  UNL     1       5.726  -5.305  89.130  1.00  0.00     0.015 C 
BRANCH  22  23
HETATM   23  C4  UNL     1       4.883  -4.378  90.018  1.00  0.00     0.113 C 
BRANCH  23  24
HETATM   24  C5  UNL     1       5.694  -3.579  90.916  1.00  0.00     0.172 C 
HETATM   25  O1  UNL     1       6.638  -2.894  90.467  1.00  0.00    -0.648 OA
HETATM   26  O2  UNL     1       5.449  -3.550  92.274  1.00  0.00    -0.648 OA
ENDBRANCH  23  24
ENDBRANCH  22  23
ENDBRANCH  20  22
ENDBRANCH   1  20
BRANCH  17  27
HETATM   27  O4  UNL     1       5.235  -6.642  84.246  1.00  0.00    -0.395 OA
ATOM     28  H4  UNL     1       5.156  -5.930  83.622  1.00  0.00     0.210 HD
ENDBRANCH  17  27
BRANCH  10  29
HETATM   29  O3  UNL     1       4.213 -13.927  82.337  1.00  0.00    -0.396 OA
ATOM     30  H3  UNL     1       4.813 -13.850  81.604  1.00  0.00     0.210 HD
ENDBRANCH  10  29
TORSDOF 6
ENDMDL
