MODEL 7
REMARK VINA RESULT: -7.666494572      3.240      7.702
REMARK  6 active torsions:
REMARK  status: ('A' for Active; 'I' for Inactive)
REMARK    1  A    between atoms: C2_2  and  C3_3 
REMARK    2  A    between atoms: C2_2  and  C6_8 
REMARK    3  A    between atoms: C3_3  and  C4_4 
REMARK    4  A    between atoms: C4_4  and  C5_5 
REMARK    5  A    between atoms: C15_17  and  O3_18 
REMARK    6  A    between atoms: C22_26  and  O4_27 
ROOT
HETATM    1  C6  UNL     1       6.218  -6.728  86.040  1.00  0.00     0.000 C 
HETATM    2  C7  UNL     1       6.550  -7.296  87.428  1.00  0.00     0.006 C 
HETATM    3  C8  UNL     1       5.437  -8.285  87.734  1.00  0.00     0.006 C 
HETATM    4  C9  UNL     1       5.062  -8.681  86.352  1.00  0.00     0.001 C 
HETATM    5  C10 UNL     1       3.881  -9.544  86.195  1.00  0.00    -0.005 C 
HETATM    6  C11 UNL     1       4.076 -10.750  87.107  1.00  0.00     0.006 C 
HETATM    7  C12 UNL     1       3.565 -12.018  86.519  1.00  0.00     0.006 C 
HETATM    8  C13 UNL     1       2.429 -11.708  85.588  1.00  0.00    -0.004 C 
HETATM    9  C14 UNL     1       1.662 -12.969  85.267  1.00  0.00     0.037 C 
HETATM   10  C15 UNL     1       2.378 -13.871  84.331  1.00  0.00     0.118 C 
HETATM   11  C16 UNL     1       3.403 -13.216  83.473  1.00  0.00     0.032 C 
HETATM   12  C17 UNL     1       3.186 -11.779  83.194  1.00  0.00     0.012 C 
HETATM   13  C18 UNL     1       2.826 -10.934  84.375  1.00  0.00    -0.036 C 
HETATM   14  C19 UNL     1       1.591 -10.117  83.958  1.00  0.00     0.016 C 
HETATM   15  C20 UNL     1       3.916  -9.987  84.727  1.00  0.00     0.001 C 
HETATM   16  C21 UNL     1       3.888  -8.777  83.849  1.00  0.00     0.038 C 
HETATM   17  C22 UNL     1       4.918  -7.752  84.148  1.00  0.00     0.127 C 
HETATM   18  C23 UNL     1       4.957  -7.338  85.609  1.00  0.00    -0.010 C 
HETATM   19  C24 UNL     1       3.691  -6.634  85.916  1.00  0.00     0.018 C 
ENDROOT
BRANCH   1  20
HETATM   20  C2  UNL     1       6.387  -5.268  86.110  1.00  0.00    -0.013 C 
HETATM   21  C1  UNL     1       7.331  -4.649  85.126  1.00  0.00     0.010 C 
BRANCH  20  22
HETATM   22  C3  UNL     1       6.593  -4.711  87.500  1.00  0.00     0.015 C 
BRANCH  22  23
HETATM   23  C4  UNL     1       5.328  -3.958  87.937  1.00  0.00     0.113 C 
BRANCH  23  24
HETATM   24  C5  UNL     1       4.622  -4.630  89.010  1.00  0.00     0.172 C 
HETATM   25  O1  UNL     1       5.257  -5.104  89.977  1.00  0.00    -0.648 OA
HETATM   26  O2  UNL     1       3.249  -4.761  88.997  1.00  0.00    -0.648 OA
ENDBRANCH  23  24
ENDBRANCH  22  23
ENDBRANCH  20  22
ENDBRANCH   1  20
BRANCH  17  27
HETATM   27  O4  UNL     1       6.186  -8.096  83.682  1.00  0.00    -0.395 OA
ATOM     28  H4  UNL     1       6.882  -7.861  84.285  1.00  0.00     0.210 HD
ENDBRANCH  17  27
BRANCH  10  29
HETATM   29  O3  UNL     1       3.029 -14.866  85.084  1.00  0.00    -0.396 OA
ATOM     30  H3  UNL     1       3.937 -14.904  84.809  1.00  0.00     0.210 HD
ENDBRANCH  10  29
TORSDOF 6
ENDMDL
