MODEL 16
REMARK VINA RESULT: -3.825901808      6.541      9.203
REMARK  1 active torsions:
REMARK  status: ('A' for Active; 'I' for Inactive)
REMARK    1  A    between atoms: O1_1  and  C1_3 
ROOT
HETATM    1  C1  UNL     1      47.509  -1.407  31.518  1.00  0.00     0.103 A 
HETATM    2  C2  UNL     1      46.304  -2.067  31.629  1.00  0.00     0.064 A 
HETATM    3 BR1  UNL     1      45.143  -2.062  30.113  1.00  0.00    -0.047 Br
HETATM    4  C3  UNL     1      45.920  -2.720  32.782  1.00  0.00     0.050 A 
HETATM    5 BR2  UNL     1      44.250  -3.620  32.900  1.00  0.00    -0.048 Br
HETATM    6  C4  UNL     1      46.751  -2.728  33.879  1.00  0.00     0.048 A 
HETATM    7 BR3  UNL     1      46.264  -3.619  35.502  1.00  0.00    -0.048 Br
HETATM    8  C5  UNL     1      47.950  -2.066  33.756  1.00  0.00     0.050 A 
HETATM    9 BR4  UNL     1      49.125  -2.061  35.262  1.00  0.00    -0.048 Br
HETATM   10  C6  UNL     1      48.340  -1.415  32.612  1.00  0.00     0.064 A 
HETATM   11 BR5  UNL     1      50.012  -0.502  32.467  1.00  0.00    -0.047 Br
ENDROOT
BRANCH   1  12
HETATM   12  O1  UNL     1      47.875  -0.749  30.328  1.00  0.00    -0.358 OA
ATOM     13  H1  UNL     1      48.779  -0.725  30.035  1.00  0.00     0.217 HD
ENDBRANCH   1  12
TORSDOF 1
ENDMDL
