MODEL 7
REMARK VINA RESULT: -5.069647347      1.267      1.658
REMARK  1 active torsions:
REMARK  status: ('A' for Active; 'I' for Inactive)
REMARK    1  A    between atoms: O1_1  and  C1_3 
ROOT
HETATM    1  C1  UNL     1      42.016   0.234  27.206  1.00  0.00     0.103 A 
HETATM    2  C2  UNL     1      43.261  -0.336  27.368  1.00  0.00     0.064 A 
HETATM    3 BR1  UNL     1      43.782  -0.851  29.131  1.00  0.00    -0.047 Br
HETATM    4  C3  UNL     1      44.125  -0.542  26.312  1.00  0.00     0.050 A 
HETATM    5 BR2  UNL     1      45.835  -1.330  26.571  1.00  0.00    -0.048 Br
HETATM    6  C4  UNL     1      43.757  -0.173  25.038  1.00  0.00     0.048 A 
HETATM    7 BR3  UNL     1      44.918  -0.437  23.540  1.00  0.00    -0.048 Br
HETATM    8  C5  UNL     1      42.513   0.395  24.890  1.00  0.00     0.050 A 
HETATM    9 BR4  UNL     1      41.973   0.915  23.132  1.00  0.00    -0.048 Br
HETATM   10  C6  UNL     1      41.647   0.602  25.935  1.00  0.00     0.064 A 
HETATM   11 BR5  UNL     1      39.923   1.393  25.702  1.00  0.00    -0.047 Br
ENDROOT
BRANCH   1  12
HETATM   12  O1  UNL     1      41.155   0.431  28.303  1.00  0.00    -0.358 OA
ATOM     13  H1  UNL     1      41.074  -0.220  28.990  1.00  0.00     0.217 HD
ENDBRANCH   1  12
TORSDOF 1
ENDMDL
