MODEL 9
REMARK VINA RESULT: -5.002307994      1.272      3.517
REMARK  1 active torsions:
REMARK  status: ('A' for Active; 'I' for Inactive)
REMARK    1  A    between atoms: O1_1  and  C1_3 
ROOT
HETATM    1  C1  UNL     1      42.031   0.181  27.248  1.00  0.00     0.103 A 
HETATM    2  C2  UNL     1      41.646   0.562  25.980  1.00  0.00     0.064 A 
HETATM    3 BR1  UNL     1      39.914   1.339  25.772  1.00  0.00    -0.047 Br
HETATM    4  C3  UNL     1      42.459   0.401  24.878  1.00  0.00     0.050 A 
HETATM    5 BR2  UNL     1      41.895   0.936  23.144  1.00  0.00    -0.048 Br
HETATM    6  C4  UNL     1      43.709  -0.159  25.019  1.00  0.00     0.048 A 
HETATM    7 BR3  UNL     1      44.876  -0.405  23.523  1.00  0.00    -0.048 Br
HETATM    8  C5  UNL     1      44.082  -0.535  26.289  1.00  0.00     0.050 A 
HETATM    9 BR4  UNL     1      45.812  -1.313  26.517  1.00  0.00    -0.048 Br
HETATM   10  C6  UNL     1      43.278  -0.377  27.391  1.00  0.00     0.064 A 
HETATM   11 BR5  UNL     1      43.821  -0.907  29.145  1.00  0.00    -0.047 Br
ENDROOT
BRANCH   1  12
HETATM   12  O1  UNL     1      41.179   0.359  28.355  1.00  0.00    -0.358 OA
ATOM     13  H1  UNL     1      40.285   0.038  28.345  1.00  0.00     0.217 HD
ENDBRANCH   1  12
TORSDOF 1
ENDMDL
