MODEL 15
REMARK VINA RESULT: -3.864297914      6.679      9.374
REMARK  1 active torsions:
REMARK  status: ('A' for Active; 'I' for Inactive)
REMARK    1  A    between atoms: O1_1  and  C1_3 
ROOT
HETATM    1  C1  UNL     1      38.149   1.256  31.588  1.00  0.00     0.103 A 
HETATM    2  C2  UNL     1      37.318   1.277  32.688  1.00  0.00     0.064 A 
HETATM    3 BR1  UNL     1      35.669   0.323  32.576  1.00  0.00    -0.047 Br
HETATM    4  C3  UNL     1      37.638   1.955  33.846  1.00  0.00     0.050 A 
HETATM    5 BR2  UNL     1      36.469   1.964  35.344  1.00  0.00    -0.048 Br
HETATM    6  C4  UNL     1      38.826   2.645  33.935  1.00  0.00     0.048 A 
HETATM    7 BR3  UNL     1      39.317   3.602  35.518  1.00  0.00    -0.048 Br
HETATM    8  C5  UNL     1      39.646   2.617  32.831  1.00  0.00     0.050 A 
HETATM    9 BR4  UNL     1      41.302   3.565  32.924  1.00  0.00    -0.048 Br
HETATM   10  C6  UNL     1      39.335   1.944  31.675  1.00  0.00     0.064 A 
HETATM   11 BR5  UNL     1      40.492   1.920  30.155  1.00  0.00    -0.047 Br
ENDROOT
BRANCH   1  12
HETATM   12  O1  UNL     1      37.796   0.554  30.419  1.00  0.00    -0.358 OA
ATOM     13  H1  UNL     1      37.929   0.932  29.558  1.00  0.00     0.217 HD
ENDBRANCH   1  12
TORSDOF 1
ENDMDL
