MODEL 1
REMARK VINA RESULT: -5.996605123      0.000      0.000
REMARK  1 active torsions:
REMARK  status: ('A' for Active; 'I' for Inactive)
REMARK    1  A    between atoms: O1_1  and  C1_3 
ROOT
HETATM    1  C1  UNL     1      42.974   0.018  27.723  1.00  0.00     0.103 A 
HETATM    2  C2  UNL     1      44.077  -0.390  27.003  1.00  0.00     0.064 A 
HETATM    3 BR1  UNL     1      45.616  -0.960  27.979  1.00  0.00    -0.047 Br
HETATM    4  C3  UNL     1      44.100  -0.400  25.624  1.00  0.00     0.050 A 
HETATM    5 BR2  UNL     1      45.638  -0.969  24.663  1.00  0.00    -0.048 Br
HETATM    6  C4  UNL     1      42.995   0.010  24.913  1.00  0.00     0.048 A 
HETATM    7 BR3  UNL     1      42.976   0.016  22.999  1.00  0.00    -0.048 Br
HETATM    8  C5  UNL     1      41.901   0.415  25.642  1.00  0.00     0.050 A 
HETATM    9 BR4  UNL     1      40.351   0.988  24.683  1.00  0.00    -0.048 Br
HETATM   10  C6  UNL     1      41.870   0.426  27.015  1.00  0.00     0.064 A 
HETATM   11 BR5  UNL     1      40.338   0.994  28.005  1.00  0.00    -0.047 Br
ENDROOT
BRANCH   1  12
HETATM   12  O1  UNL     1      42.979   0.016  29.131  1.00  0.00    -0.358 OA
ATOM     13  H1  UNL     1      42.438   0.619  29.627  1.00  0.00     0.217 HD
ENDBRANCH   1  12
TORSDOF 1
ENDMDL
