MODEL 2
REMARK VINA RESULT: -5.993274860      0.048      3.524
REMARK  1 active torsions:
REMARK  status: ('A' for Active; 'I' for Inactive)
REMARK    1  A    between atoms: O1_1  and  C1_3 
ROOT
HETATM    1  C1  UNL     1      43.026  -0.016  27.721  1.00  0.00     0.103 A 
HETATM    2  C2  UNL     1      41.923   0.393  27.002  1.00  0.00     0.064 A 
HETATM    3 BR1  UNL     1      40.384   0.960  27.978  1.00  0.00    -0.047 Br
HETATM    4  C3  UNL     1      41.900   0.405  25.622  1.00  0.00     0.050 A 
HETATM    5 BR2  UNL     1      40.362   0.975  24.662  1.00  0.00    -0.048 Br
HETATM    6  C4  UNL     1      43.005  -0.003  24.911  1.00  0.00     0.048 A 
HETATM    7 BR3  UNL     1      43.024  -0.005  22.997  1.00  0.00    -0.048 Br
HETATM    8  C5  UNL     1      44.099  -0.409  25.639  1.00  0.00     0.050 A 
HETATM    9 BR4  UNL     1      45.649  -0.979  24.679  1.00  0.00    -0.048 Br
HETATM   10  C6  UNL     1      44.130  -0.423  27.012  1.00  0.00     0.064 A 
HETATM   11 BR5  UNL     1      45.663  -0.992  28.001  1.00  0.00    -0.047 Br
ENDROOT
BRANCH   1  12
HETATM   12  O1  UNL     1      43.021  -0.017  29.129  1.00  0.00    -0.358 OA
ATOM     13  H1  UNL     1      42.629  -0.730  29.620  1.00  0.00     0.217 HD
ENDBRANCH   1  12
TORSDOF 1
ENDMDL
