MODEL 17
REMARK VINA RESULT: -3.819993144      6.507      8.691
REMARK  1 active torsions:
REMARK  status: ('A' for Active; 'I' for Inactive)
REMARK    1  A    between atoms: O1_1  and  C1_3 
ROOT
HETATM    1  C1  UNL     1      38.502   1.401  31.542  1.00  0.00     0.103 A 
HETATM    2  C2  UNL     1      39.706   2.063  31.642  1.00  0.00     0.064 A 
HETATM    3 BR1  UNL     1      40.853   2.061  30.116  1.00  0.00    -0.047 Br
HETATM    4  C3  UNL     1      40.101   2.715  32.792  1.00  0.00     0.050 A 
HETATM    5 BR2  UNL     1      41.770   3.618  32.896  1.00  0.00    -0.048 Br
HETATM    6  C4  UNL     1      39.280   2.721  33.897  1.00  0.00     0.048 A 
HETATM    7 BR3  UNL     1      39.780   3.611  35.516  1.00  0.00    -0.048 Br
HETATM    8  C5  UNL     1      38.081   2.057  33.785  1.00  0.00     0.050 A 
HETATM    9 BR4  UNL     1      36.919   2.049  35.302  1.00  0.00    -0.048 Br
HETATM   10  C6  UNL     1      37.681   1.406  32.643  1.00  0.00     0.064 A 
HETATM   11 BR5  UNL     1      36.009   0.490  32.513  1.00  0.00    -0.047 Br
ENDROOT
BRANCH   1  12
HETATM   12  O1  UNL     1      38.126   0.744  30.354  1.00  0.00    -0.358 OA
ATOM     13  H1  UNL     1      37.252   0.386  30.244  1.00  0.00     0.217 HD
ENDBRANCH   1  12
TORSDOF 1
ENDMDL
