MODEL 8
REMARK VINA RESULT: -5.023456010      1.269      1.663
REMARK  1 active torsions:
REMARK  status: ('A' for Active; 'I' for Inactive)
REMARK    1  A    between atoms: O1_1  and  C1_3 
ROOT
HETATM    1  C1  UNL     1      43.955  -0.248  27.234  1.00  0.00     0.103 A 
HETATM    2  C2  UNL     1      44.312  -0.612  25.953  1.00  0.00     0.064 A 
HETATM    3 BR1  UNL     1      46.025  -1.418  25.702  1.00  0.00    -0.047 Br
HETATM    4  C3  UNL     1      43.484  -0.415  24.868  1.00  0.00     0.050 A 
HETATM    5 BR2  UNL     1      44.010  -0.928  23.115  1.00  0.00    -0.048 Br
HETATM    6  C4  UNL     1      42.248   0.166  25.041  1.00  0.00     0.048 A 
HETATM    7 BR3  UNL     1      41.062   0.461  23.568  1.00  0.00    -0.048 Br
HETATM    8  C5  UNL     1      41.903   0.525  26.323  1.00  0.00     0.050 A 
HETATM    9 BR4  UNL     1      40.193   1.332  26.594  1.00  0.00    -0.048 Br
HETATM   10  C6  UNL     1      42.721   0.331  27.408  1.00  0.00     0.064 A 
HETATM   11 BR5  UNL     1      42.218   0.838  29.180  1.00  0.00    -0.047 Br
ENDROOT
BRANCH   1  12
HETATM   12  O1  UNL     1      44.821  -0.463  28.323  1.00  0.00    -0.358 OA
ATOM     13  H1  UNL     1      45.697  -0.808  28.196  1.00  0.00     0.217 HD
ENDBRANCH   1  12
TORSDOF 1
ENDMDL
