MODEL 5
REMARK VINA RESULT: -8.386766295      9.647     11.969
REMARK  1 active torsions:
REMARK  status: ('A' for Active; 'I' for Inactive)
REMARK    1  A    between atoms: C2_2  and  C3_3 
ROOT
HETATM    1  C3  UNL     1       4.470  61.688  70.904  1.00  0.00    -0.083 C 
HETATM    2  C4  UNL     1       3.994  61.910  69.688  1.00  0.00    -0.019 C 
HETATM    3  C5  UNL     1       2.683  61.257  69.349  1.00  0.00     0.014 C 
HETATM    4  C6  UNL     1       1.626  61.956  70.136  1.00  0.00     0.066 C 
HETATM    5  C7  UNL     1       1.054  61.144  71.240  1.00  0.00     0.018 A 
HETATM    6  N1  UNL     1      -0.163  61.492  71.756  1.00  0.00    -0.358 N 
ATOM      7  H1  UNL     1      -0.647  62.301  71.367  1.00  0.00     0.166 HD
HETATM    8  C8  UNL     1      -0.743  60.812  72.750  1.00  0.00     0.046 A 
HETATM    9  C9  UNL     1      -1.973  61.213  73.230  1.00  0.00     0.054 A 
HETATM   10  C10 UNL     1      -2.585  60.504  74.270  1.00  0.00     0.036 A 
HETATM   11 CL1  UNL     1      -4.161  61.024  74.878  1.00  0.00    -0.084 Cl
HETATM   12  C11 UNL     1      -1.953  59.406  74.813  1.00  0.00     0.025 A 
HETATM   13  C12 UNL     1      -0.706  59.016  74.312  1.00  0.00     0.017 A 
HETATM   14  C13 UNL     1      -0.118  59.725  73.288  1.00  0.00     0.015 A 
HETATM   15  C14 UNL     1       1.127  59.348  72.777  1.00  0.00     0.067 A 
HETATM   16  N2  UNL     1       1.738  58.205  73.373  1.00  0.00    -0.101 NA
HETATM   17  C15 UNL     1       1.699  60.060  71.760  1.00  0.00    -0.006 A 
HETATM   18  C16 UNL     1       3.004  59.674  71.215  1.00  0.00     0.027 C 
HETATM   19  C17 UNL     1       4.136  60.496  71.728  1.00  0.00     0.043 C 
HETATM   20  C18 UNL     1       2.860  59.794  69.690  1.00  0.00     0.018 C 
ENDROOT
BRANCH   1  21
HETATM   21  C2  UNL     1       5.398  62.681  71.497  1.00  0.00     0.029 C 
HETATM   22  C1  UNL     1       5.362  63.952  70.684  1.00  0.00     0.010 C 
ENDBRANCH   1  21
TORSDOF 1
ENDMDL
