MODEL 3
REMARK VINA RESULT: -8.552945653      3.111      4.649
REMARK  1 active torsions:
REMARK  status: ('A' for Active; 'I' for Inactive)
REMARK    1  A    between atoms: C2_2  and  C3_3 
ROOT
HETATM    1  C3  UNL     1      -1.171  68.565  65.893  1.00  0.00    -0.083 C 
HETATM    2  C4  UNL     1      -1.301  67.762  66.939  1.00  0.00    -0.019 C 
HETATM    3  C5  UNL     1      -0.034  67.189  67.509  1.00  0.00     0.014 C 
HETATM    4  C6  UNL     1       0.696  68.308  68.173  1.00  0.00     0.066 C 
HETATM    5  C7  UNL     1       1.926  68.738  67.460  1.00  0.00     0.018 A 
HETATM    6  N1  UNL     1       2.877  69.440  68.145  1.00  0.00    -0.358 N 
ATOM      7  H1  UNL     1       2.717  69.650  69.130  1.00  0.00     0.166 HD
HETATM    8  C8  UNL     1       4.010  69.863  67.574  1.00  0.00     0.046 A 
HETATM    9  C9  UNL     1       4.932  70.570  68.318  1.00  0.00     0.054 A 
HETATM   10  C10 UNL     1       6.120  71.014  67.724  1.00  0.00     0.036 A 
HETATM   11 CL1  UNL     1       7.297  71.917  68.686  1.00  0.00    -0.084 Cl
HETATM   12  C11 UNL     1       6.362  70.742  66.395  1.00  0.00     0.025 A 
HETATM   13  C12 UNL     1       5.413  70.025  65.658  1.00  0.00     0.017 A 
HETATM   14  C13 UNL     1       4.251  69.595  66.258  1.00  0.00     0.015 A 
HETATM   15  C14 UNL     1       3.294  68.878  65.535  1.00  0.00     0.067 A 
HETATM   16  N2  UNL     1       3.593  68.623  64.163  1.00  0.00    -0.101 NA
HETATM   17  C15 UNL     1       2.144  68.457  66.142  1.00  0.00    -0.006 A 
HETATM   18  C16 UNL     1       1.133  67.702  65.396  1.00  0.00     0.027 C 
HETATM   19  C17 UNL     1      -0.024  68.527  64.947  1.00  0.00     0.043 C 
HETATM   20  C18 UNL     1       0.693  66.569  66.336  1.00  0.00     0.018 C 
ENDROOT
BRANCH   1  21
HETATM   21  C2  UNL     1      -2.228  69.571  65.632  1.00  0.00     0.029 C 
HETATM   22  C1  UNL     1      -3.578  68.895  65.633  1.00  0.00     0.010 C 
ENDBRANCH   1  21
TORSDOF 1
ENDMDL
