MODEL 4
REMARK VINA RESULT: -8.501639454      4.193      6.211
REMARK  1 active torsions:
REMARK  status: ('A' for Active; 'I' for Inactive)
REMARK    1  A    between atoms: C2_2  and  C3_3 
ROOT
HETATM    1  C3  UNL     1      -0.164  67.210  68.576  1.00  0.00    -0.083 C 
HETATM    2  C4  UNL     1      -1.288  67.826  68.242  1.00  0.00    -0.019 C 
HETATM    3  C5  UNL     1      -1.172  68.940  67.239  1.00  0.00     0.014 C 
HETATM    4  C6  UNL     1      -0.857  68.316  65.921  1.00  0.00     0.066 C 
HETATM    5  C7  UNL     1       0.530  68.560  65.449  1.00  0.00     0.018 A 
HETATM    6  N1  UNL     1       0.814  68.406  64.121  1.00  0.00    -0.358 N 
ATOM      7  H1  UNL     1       0.064  68.128  63.488  1.00  0.00     0.166 HD
HETATM    8  C8  UNL     1       2.037  68.606  63.620  1.00  0.00     0.046 A 
HETATM    9  C9  UNL     1       2.262  68.434  62.269  1.00  0.00     0.054 A 
HETATM   10  C10 UNL     1       3.542  68.644  61.740  1.00  0.00     0.036 A 
HETATM   11 CL1  UNL     1       3.821  68.422  60.008  1.00  0.00    -0.084 Cl
HETATM   12  C11 UNL     1       4.572  69.021  62.573  1.00  0.00     0.025 A 
HETATM   13  C12 UNL     1       4.322  69.190  63.939  1.00  0.00     0.017 A 
HETATM   14  C13 UNL     1       3.059  68.981  64.444  1.00  0.00     0.015 A 
HETATM   15  C14 UNL     1       2.794  69.145  65.806  1.00  0.00     0.067 A 
HETATM   16  N2  UNL     1       3.894  69.537  66.624  1.00  0.00    -0.101 NA
HETATM   17  C15 UNL     1       1.535  68.934  66.293  1.00  0.00    -0.006 A 
HETATM   18  C16 UNL     1       1.243  69.105  67.720  1.00  0.00     0.027 C 
HETATM   19  C17 UNL     1       1.188  67.824  68.480  1.00  0.00     0.043 C 
HETATM   20  C18 UNL     1      -0.095  69.857  67.775  1.00  0.00     0.018 C 
ENDROOT
BRANCH   1  21
HETATM   21  C2  UNL     1      -0.238  65.818  69.080  1.00  0.00     0.029 C 
HETATM   22  C1  UNL     1       0.479  65.723  70.404  1.00  0.00     0.010 C 
ENDBRANCH   1  21
TORSDOF 1
ENDMDL
