MODEL 1
REMARK VINA RESULT: -11.290878559      0.000      0.000
REMARK  1 active torsions:
REMARK  status: ('A' for Active; 'I' for Inactive)
REMARK    1  A    between atoms: C2_2  and  C3_3 
ROOT
HETATM    1  C3  UNL     1       3.758  66.292  63.230  1.00  0.00    -0.083 C 
HETATM    2  C4  UNL     1       4.264  66.962  62.205  1.00  0.00    -0.019 C 
HETATM    3  C5  UNL     1       4.516  68.428  62.418  1.00  0.00     0.014 C 
HETATM    4  C6  UNL     1       5.670  68.546  63.356  1.00  0.00     0.066 C 
HETATM    5  C7  UNL     1       5.304  69.030  64.712  1.00  0.00     0.018 A 
HETATM    6  N1  UNL     1       6.277  69.560  65.511  1.00  0.00    -0.358 N 
ATOM      7  H1  UNL     1       7.231  69.611  65.153  1.00  0.00     0.166 HD
HETATM    8  C8  UNL     1       6.028  70.016  66.743  1.00  0.00     0.046 A 
HETATM    9  C9  UNL     1       7.054  70.540  67.502  1.00  0.00     0.054 A 
HETATM   10  C10 UNL     1       6.797  71.019  68.793  1.00  0.00     0.036 A 
HETATM   11 CL1  UNL     1       8.117  71.689  69.758  1.00  0.00    -0.084 Cl
HETATM   12  C11 UNL     1       5.516  70.963  69.299  1.00  0.00     0.025 A 
HETATM   13  C12 UNL     1       4.491  70.428  68.512  1.00  0.00     0.017 A 
HETATM   14  C13 UNL     1       4.760  69.962  67.245  1.00  0.00     0.015 A 
HETATM   15  C14 UNL     1       3.747  69.424  66.448  1.00  0.00     0.067 A 
HETATM   16  N2  UNL     1       2.440  69.390  67.019  1.00  0.00    -0.101 NA
HETATM   17  C15 UNL     1       4.028  68.965  65.192  1.00  0.00    -0.006 A 
HETATM   18  C16 UNL     1       2.973  68.400  64.344  1.00  0.00     0.027 C 
HETATM   19  C17 UNL     1       2.956  66.910  64.320  1.00  0.00     0.043 C 
HETATM   20  C18 UNL     1       3.214  68.990  62.947  1.00  0.00     0.018 C 
ENDROOT
BRANCH   1  21
HETATM   21  C2  UNL     1       3.996  64.831  63.313  1.00  0.00     0.029 C 
HETATM   22  C1  UNL     1       3.600  64.332  64.681  1.00  0.00     0.010 C 
ENDBRANCH   1  21
TORSDOF 1
ENDMDL
