MODEL 9
REMARK VINA RESULT: -5.997219932      2.126      4.227
REMARK  6 active torsions:
REMARK  status: ('A' for Active; 'I' for Inactive)
REMARK    1  A    between atoms: O1_1  and  C1_3 
REMARK    2  A    between atoms: C1_3  and  C2_4 
REMARK    3  A    between atoms: N2_8  and  O2_10 
REMARK    4  A    between atoms: C4_12  and  O3_13 
REMARK    5  A    between atoms: C5_15  and  O4_16 
REMARK    6  A    between atoms: C6_18  and  O5_19 
ROOT
HETATM    1  C2  UNL     1      48.847 120.667  52.919  1.00  0.00     0.137 C 
HETATM    2  N1  UNL     1      50.116 120.711  52.210  1.00  0.00    -0.367 N 
ATOM      3  H1  UNL     1      50.901 121.221  52.616  1.00  0.00     0.161 HD
HETATM    4  C3  UNL     1      50.279 120.056  50.960  1.00  0.00     0.129 C 
HETATM    5  N2  UNL     1      51.425 119.623  50.536  1.00  0.00    -0.255 N 
ATOM      6  H2  UNL     1      52.250 119.757  51.120  1.00  0.00     0.195 HD
HETATM    7  C4  UNL     1      49.082 119.857  50.102  1.00  0.00     0.218 C 
HETATM    8  C5  UNL     1      47.798 119.869  50.890  1.00  0.00     0.185 C 
HETATM    9  C6  UNL     1      48.134 119.466  52.331  1.00  0.00     0.174 C 
ENDROOT
BRANCH   5  10
HETATM   10  O2  UNL     1      51.564 118.990  49.319  1.00  0.00    -0.288 OA
ATOM     11  H2  UNL     1      51.258 118.101  49.175  1.00  0.00     0.244 HD
ENDBRANCH   5  10
BRANCH   7  12
HETATM   12  O3  UNL     1      48.974 120.884  49.143  1.00  0.00    -0.385 OA
ATOM     13  H3  UNL     1      48.844 121.727  49.561  1.00  0.00     0.210 HD
ENDBRANCH   7  12
BRANCH   1  14
HETATM   14  C1  UNL     1      49.106 120.506  54.398  1.00  0.00     0.191 C 
BRANCH  14  15
HETATM   15  O1  UNL     1      49.157 119.179  54.751  1.00  0.00    -0.399 OA
ATOM     16  H1  UNL     1      49.048 119.070  55.688  1.00  0.00     0.209 HD
ENDBRANCH  14  15
ENDBRANCH   1  14
BRANCH   8  17
HETATM   17  O4  UNL     1      46.873 118.951  50.416  1.00  0.00    -0.390 OA
ATOM     18  H4  UNL     1      46.032 119.348  50.224  1.00  0.00     0.210 HD
ENDBRANCH   8  17
BRANCH   9  19
HETATM   19  O5  UNL     1      46.934 119.199  52.956  1.00  0.00    -0.391 OA
ATOM     20  H5  UNL     1      46.971 118.425  53.506  1.00  0.00     0.210 HD
ENDBRANCH   9  19
TORSDOF 6
ENDMDL
