MODEL 8
REMARK VINA RESULT: -6.013425064      2.217      4.422
REMARK  6 active torsions:
REMARK  status: ('A' for Active; 'I' for Inactive)
REMARK    1  A    between atoms: O1_1  and  C1_3 
REMARK    2  A    between atoms: C1_3  and  C2_4 
REMARK    3  A    between atoms: N2_8  and  O2_10 
REMARK    4  A    between atoms: C4_12  and  O3_13 
REMARK    5  A    between atoms: C5_15  and  O4_16 
REMARK    6  A    between atoms: C6_18  and  O5_19 
ROOT
HETATM    1  C2  UNL     1      48.391 121.057  52.206  1.00  0.00     0.137 C 
HETATM    2  N1  UNL     1      49.767 120.989  51.740  1.00  0.00    -0.367 N 
ATOM      3  H1  UNL     1      50.470 121.601  52.156  1.00  0.00     0.161 HD
HETATM    4  C3  UNL     1      50.149 120.083  50.714  1.00  0.00     0.129 C 
HETATM    5  N2  UNL     1      51.349 119.608  50.605  1.00  0.00    -0.255 N 
ATOM      6  H2  UNL     1      52.057 119.893  51.281  1.00  0.00     0.195 HD
HETATM    7  C4  UNL     1      49.124 119.661  49.724  1.00  0.00     0.218 C 
HETATM    8  C5  UNL     1      47.719 119.801  50.250  1.00  0.00     0.185 C 
HETATM    9  C6  UNL     1      47.789 119.733  51.780  1.00  0.00     0.174 C 
ENDROOT
BRANCH   5  10
HETATM   10  O2  UNL     1      51.701 118.729  49.602  1.00  0.00    -0.288 OA
ATOM     11  H2  UNL     1      52.168 119.011  48.824  1.00  0.00     0.244 HD
ENDBRANCH   5  10
BRANCH   7  12
HETATM   12  O3  UNL     1      49.196 120.450  48.558  1.00  0.00    -0.385 OA
ATOM     13  H3  UNL     1      48.378 120.909  48.408  1.00  0.00     0.210 HD
ENDBRANCH   7  12
BRANCH   1  14
HETATM   14  C1  UNL     1      48.380 121.232  53.705  1.00  0.00     0.191 C 
BRANCH  14  15
HETATM   15  O1  UNL     1      47.175 121.735  54.136  1.00  0.00    -0.399 OA
ATOM     16  H1  UNL     1      47.289 122.576  54.564  1.00  0.00     0.209 HD
ENDBRANCH  14  15
ENDBRANCH   1  14
BRANCH   8  17
HETATM   17  O4  UNL     1      46.890 118.771  49.834  1.00  0.00    -0.390 OA
ATOM     18  H4  UNL     1      46.610 118.870  48.932  1.00  0.00     0.210 HD
ENDBRANCH   8  17
BRANCH   9  19
HETATM   19  O5  UNL     1      46.495 119.569  52.227  1.00  0.00    -0.391 OA
ATOM     20  H5  UNL     1      46.253 120.200  52.894  1.00  0.00     0.210 HD
ENDBRANCH   9  19
TORSDOF 6
ENDMDL
