MODEL 5
REMARK VINA RESULT: -6.100052254      1.428      3.785
REMARK  6 active torsions:
REMARK  status: ('A' for Active; 'I' for Inactive)
REMARK    1  A    between atoms: O1_1  and  C1_3 
REMARK    2  A    between atoms: C1_3  and  C2_4 
REMARK    3  A    between atoms: N2_8  and  O2_10 
REMARK    4  A    between atoms: C4_12  and  O3_13 
REMARK    5  A    between atoms: C5_15  and  O4_16 
REMARK    6  A    between atoms: C6_18  and  O5_19 
ROOT
HETATM    1  C2  UNL     1      47.300 121.983  53.471  1.00  0.00     0.137 C 
HETATM    2  N1  UNL     1      46.975 121.142  52.331  1.00  0.00    -0.367 N 
ATOM      3  H1  UNL     1      46.294 121.467  51.644  1.00  0.00     0.161 HD
HETATM    4  C3  UNL     1      47.590 119.872  52.158  1.00  0.00     0.129 C 
HETATM    5  N2  UNL     1      47.754 119.321  50.997  1.00  0.00    -0.255 N 
ATOM      6  H2  UNL     1      47.428 119.814  50.166  1.00  0.00     0.195 HD
HETATM    7  C4  UNL     1      48.067 119.146  53.364  1.00  0.00     0.218 C 
HETATM    8  C5  UNL     1      48.340 120.069  54.524  1.00  0.00     0.185 C 
HETATM    9  C6  UNL     1      48.639 121.459  53.950  1.00  0.00     0.174 C 
ENDROOT
BRANCH   5  10
HETATM   10  O2  UNL     1      48.353 118.088  50.849  1.00  0.00    -0.288 OA
ATOM     11  H2  UNL     1      48.737 117.809  50.026  1.00  0.00     0.244 HD
ENDBRANCH   5  10
BRANCH   7  12
HETATM   12  O3  UNL     1      47.104 118.219  53.807  1.00  0.00    -0.385 OA
ATOM     13  H3  UNL     1      47.517 117.415  54.101  1.00  0.00     0.210 HD
ENDBRANCH   7  12
BRANCH   1  14
HETATM   14  C1  UNL     1      47.379 123.422  53.024  1.00  0.00     0.191 C 
BRANCH  14  15
HETATM   15  O1  UNL     1      47.860 123.517  51.740  1.00  0.00    -0.399 OA
ATOM     16  H1  UNL     1      48.770 123.248  51.694  1.00  0.00     0.209 HD
ENDBRANCH  14  15
ENDBRANCH   1  14
BRANCH   8  17
HETATM   17  O4  UNL     1      49.451 119.685  55.260  1.00  0.00    -0.390 OA
ATOM     18  H4  UNL     1      49.968 120.426  55.553  1.00  0.00     0.210 HD
ENDBRANCH   8  17
BRANCH   9  19
HETATM   19  O5  UNL     1      49.166 122.206  54.982  1.00  0.00    -0.391 OA
ATOM     20  H5  UNL     1      49.807 122.841  54.685  1.00  0.00     0.210 HD
ENDBRANCH   9  19
TORSDOF 6
ENDMDL
