MODEL 13
REMARK VINA RESULT: -5.807163638      2.698      3.908
REMARK  6 active torsions:
REMARK  status: ('A' for Active; 'I' for Inactive)
REMARK    1  A    between atoms: O1_1  and  C1_3 
REMARK    2  A    between atoms: C1_3  and  C2_4 
REMARK    3  A    between atoms: N2_8  and  O2_10 
REMARK    4  A    between atoms: C4_12  and  O3_13 
REMARK    5  A    between atoms: C5_15  and  O4_16 
REMARK    6  A    between atoms: C6_18  and  O5_19 
ROOT
HETATM    1  C2  UNL     1      48.361 119.734  49.132  1.00  0.00     0.137 C 
HETATM    2  N1  UNL     1      48.338 120.725  50.195  1.00  0.00    -0.367 N 
ATOM      3  H1  UNL     1      47.526 121.335  50.297  1.00  0.00     0.161 HD
HETATM    4  C3  UNL     1      49.429 120.857  51.096  1.00  0.00     0.129 C 
HETATM    5  N2  UNL     1      49.295 121.309  52.304  1.00  0.00    -0.255 N 
ATOM      6  H2  UNL     1      48.368 121.585  52.627  1.00  0.00     0.195 HD
HETATM    7  C4  UNL     1      50.783 120.458  50.632  1.00  0.00     0.218 C 
HETATM    8  C5  UNL     1      50.737 119.467  49.498  1.00  0.00     0.185 C 
HETATM    9  C6  UNL     1      49.398 118.726  49.584  1.00  0.00     0.174 C 
ENDROOT
BRANCH   5  10
HETATM   10  O2  UNL     1      50.365 121.430  53.164  1.00  0.00    -0.288 OA
ATOM     11  H2  UNL     1      50.512 122.214  53.680  1.00  0.00     0.244 HD
ENDBRANCH   5  10
BRANCH   7  12
HETATM   12  O3  UNL     1      51.503 121.574  50.162  1.00  0.00    -0.385 OA
ATOM     13  H3  UNL     1      51.045 122.382  50.361  1.00  0.00     0.210 HD
ENDBRANCH   7  12
BRANCH   1  14
HETATM   14  C1  UNL     1      46.990 119.117  48.994  1.00  0.00     0.191 C 
BRANCH  14  15
HETATM   15  O1  UNL     1      46.340 119.077  50.204  1.00  0.00    -0.399 OA
ATOM     16  H1  UNL     1      46.309 118.192  50.547  1.00  0.00     0.209 HD
ENDBRANCH  14  15
ENDBRANCH   1  14
BRANCH   8  17
HETATM   17  O4  UNL     1      51.738 118.511  49.586  1.00  0.00    -0.390 OA
ATOM     18  H4  UNL     1      51.672 117.852  48.905  1.00  0.00     0.210 HD
ENDBRANCH   8  17
BRANCH   9  19
HETATM   19  O5  UNL     1      49.492 117.642  48.738  1.00  0.00    -0.391 OA
ATOM     20  H5  UNL     1      50.000 116.929  49.109  1.00  0.00     0.210 HD
ENDBRANCH   9  19
TORSDOF 6
ENDMDL
