MODEL 1
REMARK VINA RESULT: -8.558427953      0.000      0.000
REMARK  7 active torsions:
REMARK  status: ('A' for Active; 'I' for Inactive)
REMARK    1  A    between atoms: C1_2  and  C2_6 
REMARK    2  A    between atoms: C6_10  and  C7_11 
REMARK       I    between atoms: C7_11  and  N3_13 
REMARK    3  A    between atoms: N3_13  and  C8_15 
REMARK    4  A    between atoms: C8_15  and  C9_16 
REMARK    5  A    between atoms: C8_15  and  C22_32 
REMARK       I    between atoms: C9_16  and  N4_18 
REMARK    6  A    between atoms: C12_21  and  C13_22 
REMARK    7  A    between atoms: C13_22  and  C14_24 
ROOT
HETATM    1  C8  UNL     1       8.994  -6.754  22.644  1.00  0.00     0.210 C 
ENDROOT
BRANCH   1   2
HETATM    2  N3  UNL     1       9.628  -5.907  23.668  1.00  0.00    -0.340 N 
HETATM    3  C7  UNL     1      10.969  -5.447  23.406  1.00  0.00     0.252 C 
HETATM    4  O1  UNL     1      11.507  -5.806  22.307  1.00  0.00    -0.268 OA
ATOM      5  H3  UNL     1       9.139  -5.657  24.527  1.00  0.00     0.164 HD
BRANCH   3   6
HETATM    6  C6  UNL     1      11.712  -4.610  24.322  1.00  0.00     0.033 A 
HETATM    7  C5  UNL     1      12.886  -4.024  23.917  1.00  0.00     0.017 A 
HETATM    8  C4  UNL     1      13.612  -3.224  24.763  1.00  0.00     0.002 A 
HETATM    9  C3  UNL     1      13.171  -2.980  26.071  1.00  0.00     0.015 A 
HETATM   10  C2  UNL     1      12.002  -3.552  26.500  1.00  0.00     0.005 A 
HETATM   11  C28 UNL     1      11.294  -4.362  25.603  1.00  0.00     0.031 A 
BRANCH  10  12
HETATM   12  C1  UNL     1      11.492  -3.345  27.827  1.00  0.00     0.120 C 
HETATM   13  N1  UNL     1      12.413  -3.246  28.931  1.00  0.00    -0.082 NA
HETATM   14  N2  UNL     1      10.245  -3.247  28.065  1.00  0.00    -0.387 N 
ATOM     15  H22 UNL     1       9.883  -3.101  29.007  1.00  0.00     0.157 HD
ATOM     16  H21 UNL     1       9.593  -3.318  27.283  1.00  0.00     0.157 HD
ENDBRANCH  10  12
ENDBRANCH   3   6
ENDBRANCH   1   2
BRANCH   1  17
HETATM   17  C9  UNL     1       8.373  -7.916  23.310  1.00  0.00     0.247 C 
HETATM   18  O2  UNL     1       7.170  -7.842  23.648  1.00  0.00    -0.271 OA
HETATM   19  N4  UNL     1       9.086  -9.106  23.582  1.00  0.00    -0.350 N 
HETATM   20  C10 UNL     1      10.487  -9.175  23.203  1.00  0.00     0.126 C 
HETATM   21  C21 UNL     1       8.402 -10.200  24.222  1.00  0.00     0.126 C 
HETATM   22  C11 UNL     1      11.248 -10.052  24.197  1.00  0.00     0.032 C 
HETATM   23  C12 UNL     1      10.638 -11.413  24.258  1.00  0.00     0.064 C 
HETATM   24  C20 UNL     1       9.217 -11.342  24.669  1.00  0.00     0.032 C 
BRANCH  23  25
HETATM   25  C13 UNL     1      10.872 -12.247  23.056  1.00  0.00     0.163 C 
HETATM   26  O3  UNL     1       9.900 -12.960  22.681  1.00  0.00    -0.292 OA
BRANCH  25  27
HETATM   27  C14 UNL     1      12.102 -12.289  22.308  1.00  0.00     0.010 A 
HETATM   28  C15 UNL     1      13.134 -13.119  22.756  1.00  0.00     0.015 A 
HETATM   29  C16 UNL     1      14.352 -13.206  22.110  1.00  0.00     0.001 A 
HETATM   30  C17 UNL     1      14.554 -12.447  20.983  1.00  0.00     0.000 A 
HETATM   31  C18 UNL     1      13.581 -11.623  20.507  1.00  0.00     0.001 A 
HETATM   32  C19 UNL     1      12.367 -11.559  21.181  1.00  0.00     0.015 A 
ENDBRANCH  25  27
ENDBRANCH  23  25
ENDBRANCH   1  17
BRANCH   1  33
HETATM   33  C22 UNL     1       7.858  -5.893  22.139  1.00  0.00    -0.026 A 
HETATM   34  C23 UNL     1       7.351  -6.199  20.896  1.00  0.00     0.010 A 
HETATM   35  C24 UNL     1       6.298  -5.446  20.397  1.00  0.00     0.001 A 
HETATM   36  C25 UNL     1       5.744  -4.402  21.102  1.00  0.00     0.000 A 
HETATM   37  C26 UNL     1       6.291  -4.138  22.342  1.00  0.00     0.001 A 
HETATM   38  C27 UNL     1       7.334  -4.871  22.856  1.00  0.00     0.010 A 
ENDBRANCH   1  33
TORSDOF 7
ENDMDL
