MODEL 2
REMARK VINA RESULT: -8.289028797      4.110      7.220
REMARK  7 active torsions:
REMARK  status: ('A' for Active; 'I' for Inactive)
REMARK    1  A    between atoms: C1_2  and  C2_6 
REMARK    2  A    between atoms: C6_10  and  C7_11 
REMARK       I    between atoms: C7_11  and  N3_13 
REMARK    3  A    between atoms: N3_13  and  C8_15 
REMARK    4  A    between atoms: C8_15  and  C9_16 
REMARK    5  A    between atoms: C8_15  and  C22_32 
REMARK       I    between atoms: C9_16  and  N4_18 
REMARK    6  A    between atoms: C12_21  and  C13_22 
REMARK    7  A    between atoms: C13_22  and  C14_24 
ROOT
HETATM    1  C8  UNL     1      11.571  -7.290  21.822  1.00  0.00     0.210 C 
ENDROOT
BRANCH   1   2
HETATM    2  N3  UNL     1      12.289  -6.499  22.834  1.00  0.00    -0.340 N 
HETATM    3  C7  UNL     1      11.593  -5.372  23.407  1.00  0.00     0.252 C 
HETATM    4  O1  UNL     1      10.409  -5.145  22.994  1.00  0.00    -0.268 OA
ATOM      5  H3  UNL     1      13.239  -6.737  23.119  1.00  0.00     0.164 HD
BRANCH   3   6
HETATM    6  C6  UNL     1      12.176  -4.509  24.410  1.00  0.00     0.033 A 
HETATM    7  C5  UNL     1      13.338  -3.829  24.136  1.00  0.00     0.017 A 
HETATM    8  C4  UNL     1      13.914  -3.001  25.068  1.00  0.00     0.002 A 
HETATM    9  C3  UNL     1      13.328  -2.825  26.328  1.00  0.00     0.015 A 
HETATM   10  C2  UNL     1      12.169  -3.492  26.626  1.00  0.00     0.005 A 
HETATM   11  C28 UNL     1      11.616  -4.327  25.647  1.00  0.00     0.031 A 
BRANCH  10  12
HETATM   12  C1  UNL     1      11.516  -3.359  27.899  1.00  0.00     0.120 C 
HETATM   13  N1  UNL     1      12.310  -3.308  29.100  1.00  0.00    -0.082 NA
HETATM   14  N2  UNL     1      10.249  -3.285  28.004  1.00  0.00    -0.387 N 
ATOM     15  H22 UNL     1       9.786  -3.192  28.908  1.00  0.00     0.157 HD
ATOM     16  H21 UNL     1       9.686  -3.322  27.154  1.00  0.00     0.157 HD
ENDBRANCH  10  12
ENDBRANCH   3   6
ENDBRANCH   1   2
BRANCH   1  17
HETATM   17  C9  UNL     1      12.525  -7.682  20.765  1.00  0.00     0.247 C 
HETATM   18  O2  UNL     1      12.748  -8.899  20.578  1.00  0.00    -0.271 OA
HETATM   19  N4  UNL     1      13.195  -6.733  19.959  1.00  0.00    -0.350 N 
HETATM   20  C10 UNL     1      12.944  -5.322  20.196  1.00  0.00     0.126 C 
HETATM   21  C21 UNL     1      14.099  -7.198  18.939  1.00  0.00     0.126 C 
HETATM   22  C11 UNL     1      14.206  -4.514  19.893  1.00  0.00     0.032 C 
HETATM   23  C12 UNL     1      14.647  -4.754  18.488  1.00  0.00     0.064 C 
HETATM   24  C20 UNL     1      14.927  -6.190  18.255  1.00  0.00     0.032 C 
BRANCH  23  25
HETATM   25  C13 UNL     1      13.779  -4.140  17.456  1.00  0.00     0.163 C 
HETATM   26  O3  UNL     1      13.340  -4.921  16.567  1.00  0.00    -0.292 OA
BRANCH  25  27
HETATM   27  C14 UNL     1      13.412  -2.748  17.409  1.00  0.00     0.010 A 
HETATM   28  C15 UNL     1      14.366  -1.789  17.761  1.00  0.00     0.015 A 
HETATM   29  C16 UNL     1      14.093  -0.434  17.762  1.00  0.00     0.001 A 
HETATM   30  C17 UNL     1      12.835  -0.017  17.402  1.00  0.00     0.000 A 
HETATM   31  C18 UNL     1      11.871  -0.912  17.051  1.00  0.00     0.001 A 
HETATM   32  C19 UNL     1      12.179  -2.268  17.061  1.00  0.00     0.015 A 
ENDBRANCH  25  27
ENDBRANCH  23  25
ENDBRANCH   1  17
BRANCH   1  33
HETATM   33  C22 UNL     1      11.213  -8.558  22.565  1.00  0.00    -0.026 A 
HETATM   34  C23 UNL     1      12.084  -8.968  23.551  1.00  0.00     0.010 A 
HETATM   35  C24 UNL     1      11.790 -10.117  24.270  1.00  0.00     0.001 A 
HETATM   36  C25 UNL     1      10.660 -10.863  24.031  1.00  0.00     0.000 A 
HETATM   37  C26 UNL     1       9.822 -10.408  23.032  1.00  0.00     0.001 A 
HETATM   38  C27 UNL     1      10.092  -9.272  22.307  1.00  0.00     0.010 A 
ENDBRANCH   1  33
TORSDOF 7
ENDMDL
