MODEL 5
REMARK VINA RESULT: -8.169940793      4.735      6.602
REMARK  7 active torsions:
REMARK  status: ('A' for Active; 'I' for Inactive)
REMARK    1  A    between atoms: C1_2  and  C2_6 
REMARK    2  A    between atoms: C6_10  and  C7_11 
REMARK       I    between atoms: C7_11  and  N3_13 
REMARK    3  A    between atoms: N3_13  and  C8_15 
REMARK    4  A    between atoms: C8_15  and  C9_16 
REMARK    5  A    between atoms: C8_15  and  C22_32 
REMARK       I    between atoms: C9_16  and  N4_18 
REMARK    6  A    between atoms: C12_21  and  C13_22 
REMARK    7  A    between atoms: C13_22  and  C14_24 
ROOT
HETATM    1  C8  UNL     1      12.990  -5.688  20.833  1.00  0.00     0.210 C 
ENDROOT
BRANCH   1   2
HETATM    2  N3  UNL     1      13.674  -4.540  20.215  1.00  0.00    -0.340 N 
HETATM    3  C7  UNL     1      13.652  -4.455  18.776  1.00  0.00     0.252 C 
HETATM    4  O1  UNL     1      13.043  -5.381  18.145  1.00  0.00    -0.268 OA
ATOM      5  H3  UNL     1      14.143  -3.833  20.782  1.00  0.00     0.164 HD
BRANCH   3   6
HETATM    6  C6  UNL     1      14.282  -3.384  18.036  1.00  0.00     0.033 A 
HETATM    7  C5  UNL     1      15.358  -3.651  17.226  1.00  0.00     0.017 A 
HETATM    8  C4  UNL     1      15.975  -2.655  16.511  1.00  0.00     0.002 A 
HETATM    9  C3  UNL     1      15.520  -1.332  16.587  1.00  0.00     0.015 A 
HETATM   10  C2  UNL     1      14.448  -1.039  17.387  1.00  0.00     0.005 A 
HETATM   11  C28 UNL     1      13.848  -2.086  18.100  1.00  0.00     0.031 A 
BRANCH  10  12
HETATM   12  C1  UNL     1      13.929   0.295  17.513  1.00  0.00     0.120 C 
HETATM   13  N1  UNL     1      12.621   0.495  18.084  1.00  0.00    -0.082 NA
HETATM   14  N2  UNL     1      14.589   1.316  17.134  1.00  0.00    -0.387 N 
ATOM     15  H22 UNL     1      14.221   2.263  17.223  1.00  0.00     0.157 HD
ATOM     16  H21 UNL     1      15.515   1.174  16.730  1.00  0.00     0.157 HD
ENDBRANCH  10  12
ENDBRANCH   3   6
ENDBRANCH   1   2
BRANCH   1  17
HETATM   17  C9  UNL     1      14.006  -6.684  21.229  1.00  0.00     0.247 C 
HETATM   18  O2  UNL     1      14.985  -6.305  21.911  1.00  0.00    -0.271 OA
HETATM   19  N4  UNL     1      13.913  -8.047  20.866  1.00  0.00    -0.350 N 
HETATM   20  C10 UNL     1      12.782  -8.474  20.060  1.00  0.00     0.126 C 
HETATM   21  C21 UNL     1      14.938  -8.959  21.306  1.00  0.00     0.126 C 
HETATM   22  C11 UNL     1      13.206  -9.620  19.141  1.00  0.00     0.032 C 
HETATM   23  C12 UNL     1      13.751 -10.752  19.946  1.00  0.00     0.064 C 
HETATM   24  C20 UNL     1      14.919 -10.321  20.748  1.00  0.00     0.032 C 
BRANCH  23  25
HETATM   25  C13 UNL     1      12.735 -11.500  20.723  1.00  0.00     0.163 C 
HETATM   26  O3  UNL     1      11.671 -11.789  20.107  1.00  0.00    -0.292 OA
BRANCH  25  27
HETATM   27  C14 UNL     1      12.885 -11.911  22.095  1.00  0.00     0.010 A 
HETATM   28  C15 UNL     1      12.339 -11.110  23.101  1.00  0.00     0.015 A 
HETATM   29  C16 UNL     1      12.452 -11.420  24.443  1.00  0.00     0.001 A 
HETATM   30  C17 UNL     1      13.128 -12.561  24.799  1.00  0.00     0.000 A 
HETATM   31  C18 UNL     1      13.678 -13.375  23.856  1.00  0.00     0.001 A 
HETATM   32  C19 UNL     1      13.545 -13.034  22.516  1.00  0.00     0.015 A 
ENDBRANCH  25  27
ENDBRANCH  23  25
ENDBRANCH   1  17
BRANCH   1  33
HETATM   33  C22 UNL     1      12.436  -5.110  22.116  1.00  0.00    -0.026 A 
HETATM   34  C23 UNL     1      11.307  -5.707  22.631  1.00  0.00     0.010 A 
HETATM   35  C24 UNL     1      10.772  -5.221  23.814  1.00  0.00     0.001 A 
HETATM   36  C25 UNL     1      11.328  -4.160  24.491  1.00  0.00     0.000 A 
HETATM   37  C26 UNL     1      12.458  -3.598  23.930  1.00  0.00     0.001 A 
HETATM   38  C27 UNL     1      13.007  -4.064  22.760  1.00  0.00     0.010 A 
ENDBRANCH   1  33
TORSDOF 7
ENDMDL
