MODEL 4
REMARK VINA RESULT: -8.204711790      4.186      9.435
REMARK  7 active torsions:
REMARK  status: ('A' for Active; 'I' for Inactive)
REMARK    1  A    between atoms: C1_2  and  C2_6 
REMARK    2  A    between atoms: C6_10  and  C7_11 
REMARK       I    between atoms: C7_11  and  N3_13 
REMARK    3  A    between atoms: N3_13  and  C8_15 
REMARK    4  A    between atoms: C8_15  and  C9_16 
REMARK    5  A    between atoms: C8_15  and  C22_32 
REMARK       I    between atoms: C9_16  and  N4_18 
REMARK    6  A    between atoms: C12_21  and  C13_22 
REMARK    7  A    between atoms: C13_22  and  C14_24 
ROOT
HETATM    1  C8  UNL     1      13.491 -10.078  21.929  1.00  0.00     0.210 C 
ENDROOT
BRANCH   1   2
HETATM    2  N3  UNL     1      14.117 -10.768  20.789  1.00  0.00    -0.340 N 
HETATM    3  C7  UNL     1      15.282 -10.151  20.203  1.00  0.00     0.252 C 
HETATM    4  O1  UNL     1      15.683  -9.054  20.714  1.00  0.00    -0.268 OA
ATOM      5  H3  UNL     1      13.743 -11.646  20.429  1.00  0.00     0.164 HD
BRANCH   3   6
HETATM    6  C6  UNL     1      15.997 -10.717  19.081  1.00  0.00     0.033 A 
HETATM    7  C5  UNL     1      15.544 -11.874  18.494  1.00  0.00     0.017 A 
HETATM    8  C4  UNL     1      16.200 -12.434  17.426  1.00  0.00     0.002 A 
HETATM    9  C3  UNL     1      17.355 -11.837  16.902  1.00  0.00     0.015 A 
HETATM   10  C2  UNL     1      17.827 -10.683  17.470  1.00  0.00     0.005 A 
HETATM   11  C28 UNL     1      17.126 -10.146  18.558  1.00  0.00     0.031 A 
BRANCH  10  12
HETATM   12  C1  UNL     1      19.005 -10.018  16.985  1.00  0.00     0.120 C 
HETATM   13  N1  UNL     1      20.268 -10.713  17.005  1.00  0.00    -0.082 NA
HETATM   14  N2  UNL     1      18.973  -8.828  16.535  1.00  0.00    -0.387 N 
ATOM     15  H22 UNL     1      19.810  -8.356  16.191  1.00  0.00     0.157 HD
ATOM     16  H21 UNL     1      18.080  -8.336  16.521  1.00  0.00     0.157 HD
ENDBRANCH  10  12
ENDBRANCH   3   6
ENDBRANCH   1   2
BRANCH   1  17
HETATM   17  C9  UNL     1      12.290  -9.366  21.448  1.00  0.00     0.247 C 
HETATM   18  O2  UNL     1      11.478  -9.982  20.721  1.00  0.00    -0.271 OA
HETATM   19  N4  UNL     1      12.025  -8.017  21.776  1.00  0.00    -0.350 N 
HETATM   20  C10 UNL     1      12.983  -7.305  22.605  1.00  0.00     0.126 C 
HETATM   21  C21 UNL     1      10.823  -7.400  21.279  1.00  0.00     0.126 C 
HETATM   22  C11 UNL     1      13.010  -5.828  22.211  1.00  0.00     0.032 C 
HETATM   23  C12 UNL     1      11.646  -5.236  22.335  1.00  0.00     0.064 C 
HETATM   24  C20 UNL     1      10.676  -5.947  21.470  1.00  0.00     0.032 C 
BRANCH  23  25
HETATM   25  C13 UNL     1      11.179  -5.050  23.728  1.00  0.00     0.163 C 
HETATM   26  O3  UNL     1      10.039  -5.520  23.997  1.00  0.00    -0.292 OA
BRANCH  25  27
HETATM   27  C14 UNL     1      11.927  -4.388  24.766  1.00  0.00     0.010 A 
HETATM   28  C15 UNL     1      11.267  -4.023  25.943  1.00  0.00     0.015 A 
HETATM   29  C16 UNL     1      11.903  -3.370  26.981  1.00  0.00     0.001 A 
HETATM   30  C17 UNL     1      13.236  -3.068  26.848  1.00  0.00     0.000 A 
HETATM   31  C18 UNL     1      13.924  -3.402  25.721  1.00  0.00     0.001 A 
HETATM   32  C19 UNL     1      13.253  -4.059  24.697  1.00  0.00     0.015 A 
ENDBRANCH  25  27
ENDBRANCH  23  25
ENDBRANCH   1  17
BRANCH   1  33
HETATM   33  C22 UNL     1      12.996 -11.216  22.792  1.00  0.00    -0.026 A 
HETATM   34  C23 UNL     1      13.237 -12.493  22.336  1.00  0.00     0.010 A 
HETATM   35  C24 UNL     1      12.814 -13.570  23.101  1.00  0.00     0.001 A 
HETATM   36  C25 UNL     1      12.160 -13.406  24.300  1.00  0.00     0.000 A 
HETATM   37  C26 UNL     1      11.944 -12.106  24.711  1.00  0.00     0.001 A 
HETATM   38  C27 UNL     1      12.354 -11.023  23.969  1.00  0.00     0.010 A 
ENDBRANCH   1  33
TORSDOF 7
ENDMDL
