MODEL 2
REMARK VINA RESULT: -6.813481284      0.170      1.566
REMARK  3 active torsions:
REMARK  status: ('A' for Active; 'I' for Inactive)
REMARK    1  A    between atoms: C1_2  and  C2_3 
REMARK       I    between atoms: C1_2  and  N1_8 
REMARK    2  A    between atoms: C2_3  and  P1_4 
REMARK    3  A    between atoms: N1_8  and  O5_10 
ROOT
HETATM    1  O1  UNL     1      17.224   4.531  18.723  1.00  0.00    -0.271 OA
HETATM    2  C1  UNL     1      18.153   4.950  19.461  1.00  0.00     0.253 C 
HETATM    3  N1  UNL     1      19.308   4.121  19.509  1.00  0.00    -0.237 N 
ATOM      4  H1  UNL     1      20.093   4.412  20.092  1.00  0.00     0.197 HD
ENDROOT
BRANCH   2   5
HETATM    5  C2  UNL     1      17.996   6.206  20.195  1.00  0.00     0.250 C 
BRANCH   5   6
HETATM    6  P1  UNL     1      18.546   6.182  21.904  1.00  0.00     0.268 P 
HETATM    7  O2  UNL     1      17.485   6.850  22.779  1.00  0.00    -0.639 OA
HETATM    8  O3  UNL     1      20.060   6.817  22.167  1.00  0.00    -0.639 OA
HETATM    9  O4  UNL     1      18.553   4.523  22.345  1.00  0.00    -0.639 OA
ENDBRANCH   5   6
ENDBRANCH   2   5
BRANCH   3  10
HETATM   10  O5  UNL     1      19.413   2.952  18.806  1.00  0.00    -0.287 OA
ATOM     11  H5  UNL     1      20.132   2.343  18.922  1.00  0.00     0.244 HD
ENDBRANCH   3  10
TORSDOF 3
ENDMDL
