MODEL 4
REMARK VINA RESULT: -6.456320367      1.355      2.322
REMARK  3 active torsions:
REMARK  status: ('A' for Active; 'I' for Inactive)
REMARK    1  A    between atoms: C1_2  and  C2_3 
REMARK       I    between atoms: C1_2  and  N1_8 
REMARK    2  A    between atoms: C2_3  and  P1_4 
REMARK    3  A    between atoms: N1_8  and  O5_10 
ROOT
HETATM    1  O1  UNL     1      17.945   3.009  19.600  1.00  0.00    -0.271 OA
HETATM    2  C1  UNL     1      18.208   4.239  19.651  1.00  0.00     0.253 C 
HETATM    3  N1  UNL     1      17.402   5.064  18.818  1.00  0.00    -0.237 N 
ATOM      4  H1  UNL     1      17.572   6.070  18.818  1.00  0.00     0.197 HD
ENDROOT
BRANCH   2   5
HETATM    5  C2  UNL     1      19.278   4.724  20.522  1.00  0.00     0.250 C 
BRANCH   5   6
HETATM    6  P1  UNL     1      18.755   5.751  21.900  1.00  0.00     0.268 P 
HETATM    7  O2  UNL     1      17.267   6.068  21.749  1.00  0.00    -0.639 OA
HETATM    8  O3  UNL     1      19.663   7.122  22.142  1.00  0.00    -0.639 OA
HETATM    9  O4  UNL     1      18.890   4.742  23.282  1.00  0.00    -0.639 OA
ENDBRANCH   5   6
ENDBRANCH   2   5
BRANCH   3  10
HETATM   10  O5  UNL     1      16.411   4.568  18.017  1.00  0.00    -0.287 OA
ATOM     11  H5  UNL     1      16.544   4.361  17.099  1.00  0.00     0.244 HD
ENDBRANCH   3  10
TORSDOF 3
ENDMDL
