MODEL 6
REMARK VINA RESULT: -6.011415931      1.671      2.697
REMARK  3 active torsions:
REMARK  status: ('A' for Active; 'I' for Inactive)
REMARK    1  A    between atoms: C1_2  and  C2_3 
REMARK       I    between atoms: C1_2  and  N1_8 
REMARK    2  A    between atoms: C2_3  and  P1_4 
REMARK    3  A    between atoms: N1_8  and  O5_10 
ROOT
HETATM    1  O1  UNL     1      17.250   5.054  18.694  1.00  0.00    -0.271 OA
HETATM    2  C1  UNL     1      17.775   5.740  19.610  1.00  0.00     0.253 C 
HETATM    3  N1  UNL     1      17.557   7.143  19.515  1.00  0.00    -0.237 N 
ATOM      4  H1  UNL     1      17.960   7.748  20.230  1.00  0.00     0.197 HD
ENDROOT
BRANCH   2   5
HETATM    5  C2  UNL     1      18.545   5.085  20.667  1.00  0.00     0.250 C 
BRANCH   5   6
HETATM    6  P1  UNL     1      18.737   6.024  22.186  1.00  0.00     0.268 P 
HETATM    7  O2  UNL     1      17.445   6.794  22.463  1.00  0.00    -0.639 OA
HETATM    8  O3  UNL     1      20.075   7.011  22.240  1.00  0.00    -0.639 OA
HETATM    9  O4  UNL     1      18.865   4.844  23.425  1.00  0.00    -0.639 OA
ENDBRANCH   5   6
ENDBRANCH   2   5
BRANCH   3  10
HETATM   10  O5  UNL     1      16.830   7.715  18.507  1.00  0.00    -0.287 OA
ATOM     11  H5  UNL     1      17.014   8.582  18.166  1.00  0.00     0.244 HD
ENDBRANCH   3  10
TORSDOF 3
ENDMDL
