MODEL 1
REMARK VINA RESULT: -6.825900439      0.000      0.000
REMARK  3 active torsions:
REMARK  status: ('A' for Active; 'I' for Inactive)
REMARK    1  A    between atoms: C1_2  and  C2_3 
REMARK       I    between atoms: C1_2  and  N1_8 
REMARK    2  A    between atoms: C2_3  and  P1_4 
REMARK    3  A    between atoms: N1_8  and  O5_10 
ROOT
HETATM    1  O1  UNL     1      17.234   4.678  18.760  1.00  0.00    -0.271 OA
HETATM    2  C1  UNL     1      18.190   5.012  19.507  1.00  0.00     0.253 C 
HETATM    3  N1  UNL     1      19.297   4.118  19.510  1.00  0.00    -0.237 N 
ATOM      4  H1  UNL     1      20.100   4.339  20.099  1.00  0.00     0.197 HD
ENDROOT
BRANCH   2   5
HETATM    5  C2  UNL     1      18.109   6.242  20.295  1.00  0.00     0.250 C 
BRANCH   5   6
HETATM    6  P1  UNL     1      18.656   6.111  22.001  1.00  0.00     0.268 P 
HETATM    7  O2  UNL     1      20.026   6.776  22.138  1.00  0.00    -0.639 OA
HETATM    8  O3  UNL     1      18.644   4.571  22.628  1.00  0.00    -0.639 OA
HETATM    9  O4  UNL     1      17.561   7.085  22.894  1.00  0.00    -0.639 OA
ENDBRANCH   5   6
ENDBRANCH   2   5
BRANCH   3  10
HETATM   10  O5  UNL     1      19.331   2.976  18.757  1.00  0.00    -0.287 OA
ATOM     11  H5  UNL     1      19.435   2.111  19.137  1.00  0.00     0.244 HD
ENDBRANCH   3  10
TORSDOF 3
ENDMDL
