MODEL 2
REMARK VINA RESULT: -12.029474338      1.239      9.763
REMARK  17 active torsions:
REMARK  status: ('A' for Active; 'I' for Inactive)
REMARK       I    between atoms: C1_2  and  N1_3 
REMARK    1  A    between atoms: C1_2  and  C11_16 
REMARK    2  A    between atoms: N1_3  and  C2_5 
REMARK    3  A    between atoms: C10_13  and  O2_14 
REMARK    4  A    between atoms: C11_16  and  O3_17 
REMARK    5  A    between atoms: C11_16  and  C19_25 
REMARK    6  A    between atoms: O3_17  and  C12_18 
REMARK    7  A    between atoms: C12_18  and  C13_19 
REMARK    8  A    between atoms: C19_25  and  O4_26 
REMARK    9  A    between atoms: C19_25  and  C20_28 
REMARK   10  A    between atoms: C20_28  and  O5_29 
REMARK   11  A    between atoms: C20_28  and  C21_31 
REMARK   12  A    between atoms: C21_31  and  O6_32 
REMARK   13  A    between atoms: C21_31  and  C29_40 
REMARK   14  A    between atoms: O6_32  and  C22_33 
REMARK   15  A    between atoms: C22_33  and  C23_34 
REMARK       I    between atoms: C29_40  and  N2_42 
REMARK   16  A    between atoms: N2_42  and  C30_44 
REMARK   17  A    between atoms: C38_52  and  O8_53 
ROOT
HETATM    1  C19 UNL     1      13.825  23.148   4.866  1.00  0.00     0.188 C 
ENDROOT
BRANCH   1   2
HETATM    2  C11 UNL     1      15.057  22.868   5.723  1.00  0.00     0.244 C 
BRANCH   2   3
HETATM    3  C1  UNL     1      15.311  21.403   5.662  1.00  0.00     0.250 C 
HETATM    4  O1  UNL     1      14.362  20.618   5.903  1.00  0.00    -0.271 OA
HETATM    5  N1  UNL     1      16.561  20.818   5.346  1.00  0.00    -0.348 N 
ATOM      6  H1  UNL     1      17.346  21.439   5.152  1.00  0.00     0.163 HD
BRANCH   5   7
HETATM    7  C2  UNL     1      16.790  19.387   5.285  1.00  0.00     0.147 C 
HETATM    8  C3  UNL     1      16.738  18.966   3.879  1.00  0.00    -0.027 A 
HETATM    9  C4  UNL     1      15.967  19.329   2.781  1.00  0.00     0.010 A 
HETATM   10  C8  UNL     1      17.691  17.996   3.668  1.00  0.00    -0.047 A 
HETATM   11  C5  UNL     1      16.118  18.776   1.543  1.00  0.00     0.001 A 
HETATM   12  C6  UNL     1      17.094  17.797   1.368  1.00  0.00     0.001 A 
HETATM   13  C7  UNL     1      17.862  17.424   2.429  1.00  0.00     0.008 A 
HETATM   14  C9  UNL     1      18.424  17.733   4.953  1.00  0.00     0.073 C 
HETATM   15  C10 UNL     1      18.202  19.031   5.698  1.00  0.00     0.149 C 
BRANCH  15  16
HETATM   16  O2  UNL     1      19.085  19.989   5.234  1.00  0.00    -0.393 OA
ATOM     17  H2  UNL     1      19.777  19.576   4.730  1.00  0.00     0.210 HD
ENDBRANCH  15  16
ENDBRANCH   5   7
ENDBRANCH   2   3
BRANCH   2  18
HETATM   18  O3  UNL     1      14.792  23.237   7.052  1.00  0.00    -0.369 OA
BRANCH  18  19
HETATM   19  C12 UNL     1      15.950  23.443   7.768  1.00  0.00     0.207 C 
BRANCH  19  20
HETATM   20  C13 UNL     1      16.209  22.257   8.645  1.00  0.00    -0.035 A 
HETATM   21  C14 UNL     1      15.199  21.775   9.455  1.00  0.00     0.009 A 
HETATM   22  C15 UNL     1      15.440  20.682  10.260  1.00  0.00     0.001 A 
HETATM   23  C16 UNL     1      16.651  20.066  10.275  1.00  0.00     0.000 A 
HETATM   24  C17 UNL     1      17.658  20.543   9.471  1.00  0.00     0.001 A 
HETATM   25  C18 UNL     1      17.436  21.629   8.664  1.00  0.00     0.009 A 
ENDBRANCH  19  20
ENDBRANCH  18  19
ENDBRANCH   2  18
ENDBRANCH   1   2
BRANCH   1  26
HETATM   26  O4  UNL     1      14.075  22.773   3.573  1.00  0.00    -0.390 OA
ATOM     27  H4  UNL     1      13.253  22.609   3.126  1.00  0.00     0.210 HD
ENDBRANCH   1  26
BRANCH   1  28
HETATM   28  C20 UNL     1      13.315  24.546   5.034  1.00  0.00     0.188 C 
BRANCH  28  29
HETATM   29  O5  UNL     1      14.230  25.418   4.458  1.00  0.00    -0.390 OA
ATOM     30  H5  UNL     1      13.998  26.305   4.710  1.00  0.00     0.210 HD
ENDBRANCH  28  29
BRANCH  28  31
HETATM   31  C21 UNL     1      11.914  24.725   4.516  1.00  0.00     0.244 C 
BRANCH  31  32
HETATM   32  O6  UNL     1      11.602  23.695   3.622  1.00  0.00    -0.369 OA
BRANCH  32  33
HETATM   33  C22 UNL     1      11.368  24.176   2.341  1.00  0.00     0.207 C 
BRANCH  33  34
HETATM   34  C23 UNL     1       9.907  24.367   2.191  1.00  0.00    -0.035 A 
HETATM   35  C24 UNL     1       8.979  23.376   2.503  1.00  0.00     0.009 A 
HETATM   36  C25 UNL     1       7.629  23.580   2.358  1.00  0.00     0.001 A 
HETATM   37  C26 UNL     1       7.142  24.777   1.898  1.00  0.00     0.000 A 
HETATM   38  C27 UNL     1       8.026  25.783   1.579  1.00  0.00     0.001 A 
HETATM   39  C28 UNL     1       9.377  25.558   1.730  1.00  0.00     0.009 A 
ENDBRANCH  33  34
ENDBRANCH  32  33
ENDBRANCH  31  32
BRANCH  31  40
HETATM   40  C29 UNL     1      10.925  24.645   5.615  1.00  0.00     0.250 C 
HETATM   41  O7  UNL     1      10.927  23.669   6.400  1.00  0.00    -0.271 OA
HETATM   42  N2  UNL     1       9.936  25.645   5.838  1.00  0.00    -0.348 N 
ATOM     43  H2  UNL     1       9.923  26.443   5.204  1.00  0.00     0.163 HD
BRANCH  42  44
HETATM   44  C30 UNL     1       8.955  25.613   6.889  1.00  0.00     0.147 C 
HETATM   45  C31 UNL     1       9.328  26.358   8.093  1.00  0.00    -0.027 A 
HETATM   46  C32 UNL     1       9.951  25.966   9.273  1.00  0.00     0.010 A 
HETATM   47  C36 UNL     1       8.951  27.667   7.914  1.00  0.00    -0.047 A 
HETATM   48  C33 UNL     1      10.215  26.849  10.297  1.00  0.00     0.001 A 
HETATM   49  C34 UNL     1       9.827  28.163  10.093  1.00  0.00     0.001 A 
HETATM   50  C35 UNL     1       9.213  28.558   8.934  1.00  0.00     0.008 A 
HETATM   51  C37 UNL     1       8.303  27.825   6.570  1.00  0.00     0.073 C 
HETATM   52  C38 UNL     1       7.757  26.407   6.347  1.00  0.00     0.149 C 
BRANCH  52  53
HETATM   53  O8  UNL     1       7.663  26.134   5.000  1.00  0.00    -0.393 OA
ATOM     54  H8  UNL     1       7.126  26.815   4.612  1.00  0.00     0.210 HD
ENDBRANCH  52  53
ENDBRANCH  42  44
ENDBRANCH  31  40
ENDBRANCH  28  31
ENDBRANCH   1  28
TORSDOF 17
ENDMDL
