MODEL 6
REMARK VINA RESULT: -11.167246912      1.091      1.920
REMARK  17 active torsions:
REMARK  status: ('A' for Active; 'I' for Inactive)
REMARK       I    between atoms: C1_2  and  N1_3 
REMARK    1  A    between atoms: C1_2  and  C11_16 
REMARK    2  A    between atoms: N1_3  and  C2_5 
REMARK    3  A    between atoms: C10_13  and  O2_14 
REMARK    4  A    between atoms: C11_16  and  O3_17 
REMARK    5  A    between atoms: C11_16  and  C19_25 
REMARK    6  A    between atoms: O3_17  and  C12_18 
REMARK    7  A    between atoms: C12_18  and  C13_19 
REMARK    8  A    between atoms: C19_25  and  O4_26 
REMARK    9  A    between atoms: C19_25  and  C20_28 
REMARK   10  A    between atoms: C20_28  and  O5_29 
REMARK   11  A    between atoms: C20_28  and  C21_31 
REMARK   12  A    between atoms: C21_31  and  O6_32 
REMARK   13  A    between atoms: C21_31  and  C29_40 
REMARK   14  A    between atoms: O6_32  and  C22_33 
REMARK   15  A    between atoms: C22_33  and  C23_34 
REMARK       I    between atoms: C29_40  and  N2_42 
REMARK   16  A    between atoms: N2_42  and  C30_44 
REMARK   17  A    between atoms: C38_52  and  O8_53 
ROOT
HETATM    1  C19 UNL     1      12.448  23.159   4.472  1.00  0.00     0.188 C 
ENDROOT
BRANCH   1   2
HETATM    2  C11 UNL     1      12.400  24.637   4.093  1.00  0.00     0.244 C 
BRANCH   2   3
HETATM    3  C1  UNL     1      11.848  25.374   5.261  1.00  0.00     0.250 C 
HETATM    4  O1  UNL     1      12.635  25.735   6.170  1.00  0.00    -0.271 OA
HETATM    5  N1  UNL     1      10.482  25.704   5.429  1.00  0.00    -0.348 N 
ATOM      6  H1  UNL     1       9.825  25.415   4.704  1.00  0.00     0.163 HD
BRANCH   5   7
HETATM    7  C2  UNL     1       9.961  26.429   6.573  1.00  0.00     0.147 C 
HETATM    8  C3  UNL     1       8.546  26.734   6.328  1.00  0.00    -0.027 A 
HETATM    9  C4  UNL     1       7.809  27.104   5.209  1.00  0.00     0.010 A 
HETATM   10  C8  UNL     1       7.851  26.606   7.508  1.00  0.00    -0.047 A 
HETATM   11  C5  UNL     1       6.464  27.335   5.241  1.00  0.00     0.001 A 
HETATM   12  C6  UNL     1       5.795  27.195   6.454  1.00  0.00     0.001 A 
HETATM   13  C7  UNL     1       6.496  26.834   7.564  1.00  0.00     0.008 A 
HETATM   14  C9  UNL     1       8.799  26.204   8.602  1.00  0.00     0.073 C 
HETATM   15  C10 UNL     1       9.915  25.558   7.810  1.00  0.00     0.149 C 
BRANCH  15  16
HETATM   16  O2  UNL     1       9.552  24.268   7.465  1.00  0.00    -0.393 OA
ATOM     17  H2  UNL     1       9.912  23.651   8.092  1.00  0.00     0.210 HD
ENDBRANCH  15  16
ENDBRANCH   5   7
ENDBRANCH   2   3
BRANCH   2  18
HETATM   18  O3  UNL     1      11.545  24.806   2.992  1.00  0.00    -0.369 OA
BRANCH  18  19
HETATM   19  C12 UNL     1      10.769  23.691   2.767  1.00  0.00     0.207 C 
BRANCH  19  20
HETATM   20  C13 UNL     1       9.349  24.111   2.544  1.00  0.00    -0.035 A 
HETATM   21  C14 UNL     1       9.086  25.315   1.919  1.00  0.00     0.009 A 
HETATM   22  C15 UNL     1       7.778  25.699   1.715  1.00  0.00     0.001 A 
HETATM   23  C16 UNL     1       6.739  24.920   2.114  1.00  0.00     0.000 A 
HETATM   24  C17 UNL     1       6.998  23.722   2.736  1.00  0.00     0.001 A 
HETATM   25  C18 UNL     1       8.292  23.324   2.948  1.00  0.00     0.009 A 
ENDBRANCH  19  20
ENDBRANCH  18  19
ENDBRANCH   2  18
ENDBRANCH   1   2
BRANCH   1  26
HETATM   26  O4  UNL     1      11.737  22.962   5.626  1.00  0.00    -0.390 OA
ATOM     27  H4  UNL     1      11.892  22.082   5.947  1.00  0.00     0.210 HD
ENDBRANCH   1  26
BRANCH   1  28
HETATM   28  C20 UNL     1      13.843  22.615   4.486  1.00  0.00     0.188 C 
BRANCH  28  29
HETATM   29  O5  UNL     1      14.696  23.609   4.952  1.00  0.00    -0.390 OA
ATOM     30  H5  UNL     1      15.263  23.876   4.238  1.00  0.00     0.210 HD
ENDBRANCH  28  29
BRANCH  28  31
HETATM   31  C21 UNL     1      13.961  21.324   5.249  1.00  0.00     0.244 C 
BRANCH  31  32
HETATM   32  O6  UNL     1      15.049  20.586   4.770  1.00  0.00    -0.369 OA
BRANCH  32  33
HETATM   33  C22 UNL     1      14.751  19.233   4.671  1.00  0.00     0.207 C 
BRANCH  33  34
HETATM   34  C23 UNL     1      15.628  18.654   3.628  1.00  0.00    -0.035 A 
HETATM   35  C24 UNL     1      15.524  18.989   2.280  1.00  0.00     0.009 A 
HETATM   36  C25 UNL     1      16.353  18.440   1.334  1.00  0.00     0.001 A 
HETATM   37  C26 UNL     1      17.322  17.534   1.684  1.00  0.00     0.000 A 
HETATM   38  C27 UNL     1      17.458  17.176   3.007  1.00  0.00     0.001 A 
HETATM   39  C28 UNL     1      16.617  17.738   3.941  1.00  0.00     0.009 A 
ENDBRANCH  33  34
ENDBRANCH  32  33
ENDBRANCH  31  32
BRANCH  31  40
HETATM   40  C29 UNL     1      14.221  21.575   6.685  1.00  0.00     0.250 C 
HETATM   41  O7  UNL     1      13.272  21.642   7.498  1.00  0.00    -0.271 OA
HETATM   42  N2  UNL     1      15.531  21.754   7.212  1.00  0.00    -0.348 N 
ATOM     43  H2  UNL     1      16.313  21.704   6.560  1.00  0.00     0.163 HD
BRANCH  42  44
HETATM   44  C30 UNL     1      15.836  22.000   8.596  1.00  0.00     0.147 C 
HETATM   45  C31 UNL     1      16.443  20.867   9.297  1.00  0.00    -0.027 A 
HETATM   46  C32 UNL     1      15.893  19.844  10.063  1.00  0.00     0.010 A 
HETATM   47  C36 UNL     1      17.800  20.920   9.090  1.00  0.00    -0.047 A 
HETATM   48  C33 UNL     1      16.662  18.858  10.640  1.00  0.00     0.001 A 
HETATM   49  C34 UNL     1      18.027  18.932  10.416  1.00  0.00     0.001 A 
HETATM   50  C35 UNL     1      18.578  19.936   9.663  1.00  0.00     0.008 A 
HETATM   51  C37 UNL     1      18.134  22.111   8.241  1.00  0.00     0.073 C 
HETATM   52  C38 UNL     1      16.963  23.044   8.583  1.00  0.00     0.149 C 
BRANCH  52  53
HETATM   53  O8  UNL     1      16.710  23.903   7.536  1.00  0.00    -0.393 OA
ATOM     54  H8  UNL     1      16.317  23.390   6.840  1.00  0.00     0.210 HD
ENDBRANCH  52  53
ENDBRANCH  42  44
ENDBRANCH  31  40
ENDBRANCH  28  31
ENDBRANCH   1  28
TORSDOF 17
ENDMDL
