MODEL 8
REMARK VINA RESULT: -10.913034346      1.323     10.347
REMARK  17 active torsions:
REMARK  status: ('A' for Active; 'I' for Inactive)
REMARK       I    between atoms: C1_2  and  N1_3 
REMARK    1  A    between atoms: C1_2  and  C11_16 
REMARK    2  A    between atoms: N1_3  and  C2_5 
REMARK    3  A    between atoms: C10_13  and  O2_14 
REMARK    4  A    between atoms: C11_16  and  O3_17 
REMARK    5  A    between atoms: C11_16  and  C19_25 
REMARK    6  A    between atoms: O3_17  and  C12_18 
REMARK    7  A    between atoms: C12_18  and  C13_19 
REMARK    8  A    between atoms: C19_25  and  O4_26 
REMARK    9  A    between atoms: C19_25  and  C20_28 
REMARK   10  A    between atoms: C20_28  and  O5_29 
REMARK   11  A    between atoms: C20_28  and  C21_31 
REMARK   12  A    between atoms: C21_31  and  O6_32 
REMARK   13  A    between atoms: C21_31  and  C29_40 
REMARK   14  A    between atoms: O6_32  and  C22_33 
REMARK   15  A    between atoms: C22_33  and  C23_34 
REMARK       I    between atoms: C29_40  and  N2_42 
REMARK   16  A    between atoms: N2_42  and  C30_44 
REMARK   17  A    between atoms: C38_52  and  O8_53 
ROOT
HETATM    1  C19 UNL     1      13.570  24.197   5.655  1.00  0.00     0.188 C 
ENDROOT
BRANCH   1   2
HETATM    2  C11 UNL     1      14.927  23.543   5.901  1.00  0.00     0.244 C 
BRANCH   2   3
HETATM    3  C1  UNL     1      15.080  22.456   4.895  1.00  0.00     0.250 C 
HETATM    4  O1  UNL     1      14.380  22.498   3.855  1.00  0.00    -0.271 OA
HETATM    5  N1  UNL     1      15.970  21.363   5.024  1.00  0.00    -0.348 N 
ATOM      6  H1  UNL     1      16.545  21.308   5.865  1.00  0.00     0.163 HD
BRANCH   5   7
HETATM    7  C2  UNL     1      16.111  20.316   4.030  1.00  0.00     0.147 C 
HETATM    8  C3  UNL     1      17.009  19.283   4.564  1.00  0.00    -0.027 A 
HETATM    9  C4  UNL     1      18.162  19.302   5.339  1.00  0.00     0.010 A 
HETATM   10  C8  UNL     1      16.550  18.047   4.172  1.00  0.00    -0.047 A 
HETATM   11  C5  UNL     1      18.830  18.173   5.715  1.00  0.00     0.001 A 
HETATM   12  C6  UNL     1      18.335  16.939   5.300  1.00  0.00     0.001 A 
HETATM   13  C7  UNL     1      17.207  16.895   4.539  1.00  0.00     0.008 A 
HETATM   14  C9  UNL     1      15.305  18.217   3.348  1.00  0.00     0.073 C 
HETATM   15  C10 UNL     1      14.812  19.566   3.824  1.00  0.00     0.149 C 
BRANCH  15  16
HETATM   16  O2  UNL     1      14.154  19.421   5.032  1.00  0.00    -0.393 OA
ATOM     17  H2  UNL     1      13.899  20.272   5.367  1.00  0.00     0.210 HD
ENDBRANCH  15  16
ENDBRANCH   5   7
ENDBRANCH   2   3
BRANCH   2  18
HETATM   18  O3  UNL     1      14.948  22.987   7.190  1.00  0.00    -0.369 OA
BRANCH  18  19
HETATM   19  C12 UNL     1      16.139  23.232   7.836  1.00  0.00     0.207 C 
BRANCH  19  20
HETATM   20  C13 UNL     1      16.550  22.012   8.601  1.00  0.00    -0.035 A 
HETATM   21  C14 UNL     1      17.828  21.510   8.447  1.00  0.00     0.009 A 
HETATM   22  C15 UNL     1      18.203  20.387   9.153  1.00  0.00     0.001 A 
HETATM   23  C16 UNL     1      17.343  19.760   9.998  1.00  0.00     0.000 A 
HETATM   24  C17 UNL     1      16.071  20.257  10.153  1.00  0.00     0.001 A 
HETATM   25  C18 UNL     1      15.680  21.373   9.459  1.00  0.00     0.009 A 
ENDBRANCH  19  20
ENDBRANCH  18  19
ENDBRANCH   2  18
ENDBRANCH   1   2
BRANCH   1  26
HETATM   26  O4  UNL     1      13.731  25.288   4.843  1.00  0.00    -0.390 OA
ATOM     27  H4  UNL     1      12.918  25.779   4.808  1.00  0.00     0.210 HD
ENDBRANCH   1  26
BRANCH   1  28
HETATM   28  C20 UNL     1      12.819  24.456   6.924  1.00  0.00     0.188 C 
BRANCH  28  29
HETATM   29  O5  UNL     1      13.369  25.576   7.537  1.00  0.00    -0.390 OA
ATOM     30  H5  UNL     1      13.629  25.337   8.419  1.00  0.00     0.210 HD
ENDBRANCH  28  29
BRANCH  28  31
HETATM   31  C21 UNL     1      11.334  24.561   6.716  1.00  0.00     0.244 C 
BRANCH  31  32
HETATM   32  O6  UNL     1      10.983  25.889   6.449  1.00  0.00    -0.369 OA
BRANCH  32  33
HETATM   33  C22 UNL     1       9.624  26.110   6.631  1.00  0.00     0.207 C 
BRANCH  33  34
HETATM   34  C23 UNL     1       9.461  26.932   7.852  1.00  0.00    -0.035 A 
HETATM   35  C24 UNL     1       8.342  27.728   8.086  1.00  0.00     0.009 A 
HETATM   36  C25 UNL     1       8.215  28.477   9.229  1.00  0.00     0.001 A 
HETATM   37  C26 UNL     1       9.193  28.468  10.191  1.00  0.00     0.000 A 
HETATM   38  C27 UNL     1      10.315  27.693   9.999  1.00  0.00     0.001 A 
HETATM   39  C28 UNL     1      10.424  26.949   8.845  1.00  0.00     0.009 A 
ENDBRANCH  33  34
ENDBRANCH  32  33
ENDBRANCH  31  32
BRANCH  31  40
HETATM   40  C29 UNL     1      10.902  23.766   5.543  1.00  0.00     0.250 C 
HETATM   41  O7  UNL     1      10.940  22.515   5.578  1.00  0.00    -0.271 OA
HETATM   42  N2  UNL     1      10.434  24.361   4.338  1.00  0.00    -0.348 N 
ATOM     43  H2  UNL     1      10.401  25.379   4.297  1.00  0.00     0.163 HD
BRANCH  42  44
HETATM   44  C30 UNL     1      10.005  23.635   3.173  1.00  0.00     0.147 C 
HETATM   45  C31 UNL     1       8.644  23.944   2.730  1.00  0.00    -0.027 A 
HETATM   46  C32 UNL     1       7.418  23.346   3.004  1.00  0.00     0.010 A 
HETATM   47  C36 UNL     1       8.707  25.039   1.903  1.00  0.00    -0.047 A 
HETATM   48  C33 UNL     1       6.235  23.811   2.473  1.00  0.00     0.001 A 
HETATM   49  C34 UNL     1       6.325  24.916   1.643  1.00  0.00     0.001 A 
HETATM   50  C35 UNL     1       7.528  25.512   1.367  1.00  0.00     0.008 A 
HETATM   51  C37 UNL     1      10.133  25.487   1.769  1.00  0.00     0.073 C 
HETATM   52  C38 UNL     1      10.874  24.165   2.023  1.00  0.00     0.149 C 
BRANCH  52  53
HETATM   53  O8  UNL     1      12.128  24.407   2.538  1.00  0.00    -0.393 OA
ATOM     54  H8  UNL     1      12.673  23.662   2.315  1.00  0.00     0.210 HD
ENDBRANCH  52  53
ENDBRANCH  42  44
ENDBRANCH  31  40
ENDBRANCH  28  31
ENDBRANCH   1  28
TORSDOF 17
ENDMDL
