MODEL 3
REMARK VINA RESULT: -11.665347609      1.151      4.327
REMARK  17 active torsions:
REMARK  status: ('A' for Active; 'I' for Inactive)
REMARK       I    between atoms: C1_2  and  N1_3 
REMARK    1  A    between atoms: C1_2  and  C11_16 
REMARK    2  A    between atoms: N1_3  and  C2_5 
REMARK    3  A    between atoms: C10_13  and  O2_14 
REMARK    4  A    between atoms: C11_16  and  O3_17 
REMARK    5  A    between atoms: C11_16  and  C19_25 
REMARK    6  A    between atoms: O3_17  and  C12_18 
REMARK    7  A    between atoms: C12_18  and  C13_19 
REMARK    8  A    between atoms: C19_25  and  O4_26 
REMARK    9  A    between atoms: C19_25  and  C20_28 
REMARK   10  A    between atoms: C20_28  and  O5_29 
REMARK   11  A    between atoms: C20_28  and  C21_31 
REMARK   12  A    between atoms: C21_31  and  O6_32 
REMARK   13  A    between atoms: C21_31  and  C29_40 
REMARK   14  A    between atoms: O6_32  and  C22_33 
REMARK   15  A    between atoms: C22_33  and  C23_34 
REMARK       I    between atoms: C29_40  and  N2_42 
REMARK   16  A    between atoms: N2_42  and  C30_44 
REMARK   17  A    between atoms: C38_52  and  O8_53 
ROOT
HETATM    1  C19 UNL     1      13.161  24.162   5.904  1.00  0.00     0.188 C 
ENDROOT
BRANCH   1   2
HETATM    2  C11 UNL     1      12.088  24.684   4.951  1.00  0.00     0.244 C 
BRANCH   2   3
HETATM    3  C1  UNL     1      10.840  24.852   5.744  1.00  0.00     0.250 C 
HETATM    4  O1  UNL     1      10.446  23.895   6.453  1.00  0.00    -0.271 OA
HETATM    5  N1  UNL     1      10.052  26.028   5.760  1.00  0.00    -0.348 N 
ATOM      6  H1  UNL     1      10.354  26.816   5.186  1.00  0.00     0.163 HD
BRANCH   5   7
HETATM    7  C2  UNL     1       8.841  26.176   6.544  1.00  0.00     0.147 C 
HETATM    8  C3  UNL     1       9.177  26.867   7.796  1.00  0.00    -0.027 A 
HETATM    9  C4  UNL     1      10.256  26.827   8.670  1.00  0.00     0.010 A 
HETATM   10  C8  UNL     1       8.155  27.730   8.118  1.00  0.00    -0.047 A 
HETATM   11  C5  UNL     1      10.335  27.592   9.798  1.00  0.00     0.001 A 
HETATM   12  C6  UNL     1       9.281  28.454  10.091  1.00  0.00     0.001 A 
HETATM   13  C7  UNL     1       8.212  28.509   9.250  1.00  0.00     0.008 A 
HETATM   14  C9  UNL     1       7.081  27.641   7.070  1.00  0.00     0.073 C 
HETATM   15  C10 UNL     1       7.862  27.123   5.882  1.00  0.00     0.149 C 
BRANCH  15  16
HETATM   16  O2  UNL     1       8.546  28.167   5.286  1.00  0.00    -0.393 OA
ATOM     17  H2  UNL     1       8.909  27.885   4.455  1.00  0.00     0.210 HD
ENDBRANCH  15  16
ENDBRANCH   5   7
ENDBRANCH   2   3
BRANCH   2  18
HETATM   18  O3  UNL     1      11.869  23.739   3.936  1.00  0.00    -0.369 OA
BRANCH  18  19
HETATM   19  C12 UNL     1      11.581  24.337   2.730  1.00  0.00     0.207 C 
BRANCH  19  20
HETATM   20  C13 UNL     1      10.100  24.323   2.509  1.00  0.00    -0.035 A 
HETATM   21  C14 UNL     1       9.471  25.458   2.035  1.00  0.00     0.009 A 
HETATM   22  C15 UNL     1       8.108  25.441   1.833  1.00  0.00     0.001 A 
HETATM   23  C16 UNL     1       7.365  24.332   2.089  1.00  0.00     0.000 A 
HETATM   24  C17 UNL     1       7.988  23.202   2.562  1.00  0.00     0.001 A 
HETATM   25  C18 UNL     1       9.343  23.200   2.769  1.00  0.00     0.009 A 
ENDBRANCH  19  20
ENDBRANCH  18  19
ENDBRANCH   2  18
ENDBRANCH   1   2
BRANCH   1  26
HETATM   26  O4  UNL     1      13.383  25.086   6.890  1.00  0.00    -0.390 OA
ATOM     27  H4  UNL     1      13.544  24.639   7.712  1.00  0.00     0.210 HD
ENDBRANCH   1  26
BRANCH   1  28
HETATM   28  C20 UNL     1      14.388  23.694   5.185  1.00  0.00     0.188 C 
BRANCH  28  29
HETATM   29  O5  UNL     1      15.074  24.809   4.717  1.00  0.00    -0.390 OA
ATOM     30  H5  UNL     1      15.978  24.744   5.000  1.00  0.00     0.210 HD
ENDBRANCH  28  29
BRANCH  28  31
HETATM   31  C21 UNL     1      15.241  22.777   6.018  1.00  0.00     0.244 C 
BRANCH  31  32
HETATM   32  O6  UNL     1      14.867  22.870   7.363  1.00  0.00    -0.369 OA
BRANCH  32  33
HETATM   33  C22 UNL     1      15.937  23.228   8.173  1.00  0.00     0.207 C 
BRANCH  33  34
HETATM   34  C23 UNL     1      16.411  22.004   8.860  1.00  0.00    -0.035 A 
HETATM   35  C24 UNL     1      15.555  21.127   9.520  1.00  0.00     0.009 A 
HETATM   36  C25 UNL     1      16.020  19.997  10.145  1.00  0.00     0.001 A 
HETATM   37  C26 UNL     1      17.357  19.688  10.142  1.00  0.00     0.000 A 
HETATM   38  C27 UNL     1      18.238  20.530   9.500  1.00  0.00     0.001 A 
HETATM   39  C28 UNL     1      17.751  21.659   8.878  1.00  0.00     0.009 A 
ENDBRANCH  33  34
ENDBRANCH  32  33
ENDBRANCH  31  32
BRANCH  31  40
HETATM   40  C29 UNL     1      15.048  21.363   5.622  1.00  0.00     0.250 C 
HETATM   41  O7  UNL     1      13.897  20.916   5.411  1.00  0.00    -0.271 OA
HETATM   42  N2  UNL     1      16.129  20.451   5.465  1.00  0.00    -0.348 N 
ATOM     43  H2  UNL     1      17.071  20.802   5.637  1.00  0.00     0.163 HD
BRANCH  42  44
HETATM   44  C30 UNL     1      15.993  19.071   5.084  1.00  0.00     0.147 C 
HETATM   45  C31 UNL     1      15.869  18.846   3.642  1.00  0.00    -0.027 A 
HETATM   46  C32 UNL     1      14.760  18.720   2.812  1.00  0.00     0.010 A 
HETATM   47  C36 UNL     1      17.136  18.766   3.116  1.00  0.00    -0.047 A 
HETATM   48  C33 UNL     1      14.872  18.512   1.455  1.00  0.00     0.001 A 
HETATM   49  C34 UNL     1      16.159  18.436   0.949  1.00  0.00     0.001 A 
HETATM   50  C35 UNL     1      17.258  18.559   1.758  1.00  0.00     0.008 A 
HETATM   51  C37 UNL     1      18.147  18.930   4.212  1.00  0.00     0.073 C 
HETATM   52  C38 UNL     1      17.345  18.424   5.421  1.00  0.00     0.149 C 
BRANCH  52  53
HETATM   53  O8  UNL     1      17.800  19.011   6.581  1.00  0.00    -0.393 OA
ATOM     54  H8  UNL     1      17.123  19.607   6.879  1.00  0.00     0.210 HD
ENDBRANCH  52  53
ENDBRANCH  42  44
ENDBRANCH  31  40
ENDBRANCH  28  31
ENDBRANCH   1  28
TORSDOF 17
ENDMDL
