MODEL 14
REMARK VINA RESULT: -10.558971215      1.242      4.020
REMARK  17 active torsions:
REMARK  status: ('A' for Active; 'I' for Inactive)
REMARK       I    between atoms: C1_2  and  N1_3 
REMARK    1  A    between atoms: C1_2  and  C11_16 
REMARK    2  A    between atoms: N1_3  and  C2_5 
REMARK    3  A    between atoms: C10_13  and  O2_14 
REMARK    4  A    between atoms: C11_16  and  O3_17 
REMARK    5  A    between atoms: C11_16  and  C19_25 
REMARK    6  A    between atoms: O3_17  and  C12_18 
REMARK    7  A    between atoms: C12_18  and  C13_19 
REMARK    8  A    between atoms: C19_25  and  O4_26 
REMARK    9  A    between atoms: C19_25  and  C20_28 
REMARK   10  A    between atoms: C20_28  and  O5_29 
REMARK   11  A    between atoms: C20_28  and  C21_31 
REMARK   12  A    between atoms: C21_31  and  O6_32 
REMARK   13  A    between atoms: C21_31  and  C29_40 
REMARK   14  A    between atoms: O6_32  and  C22_33 
REMARK   15  A    between atoms: C22_33  and  C23_34 
REMARK       I    between atoms: C29_40  and  N2_42 
REMARK   16  A    between atoms: N2_42  and  C30_44 
REMARK   17  A    between atoms: C38_52  and  O8_53 
ROOT
HETATM    1  C19 UNL     1      12.912  24.686   5.499  1.00  0.00     0.188 C 
ENDROOT
BRANCH   1   2
HETATM    2  C11 UNL     1      11.634  24.963   4.711  1.00  0.00     0.244 C 
BRANCH   2   3
HETATM    3  C1  UNL     1      10.514  25.003   5.690  1.00  0.00     0.250 C 
HETATM    4  O1  UNL     1      10.199  23.944   6.285  1.00  0.00    -0.271 OA
HETATM    5  N1  UNL     1       9.767  26.162   6.007  1.00  0.00    -0.348 N 
ATOM      6  H1  UNL     1      10.005  27.032   5.531  1.00  0.00     0.163 HD
BRANCH   5   7
HETATM    7  C2  UNL     1       8.681  26.184   6.970  1.00  0.00     0.147 C 
HETATM    8  C3  UNL     1       9.138  26.894   8.172  1.00  0.00    -0.027 A 
HETATM    9  C4  UNL     1      10.337  26.954   8.871  1.00  0.00     0.010 A 
HETATM   10  C8  UNL     1       8.099  27.649   8.665  1.00  0.00    -0.047 A 
HETATM   11  C5  UNL     1      10.514  27.713   9.991  1.00  0.00     0.001 A 
HETATM   12  C6  UNL     1       9.439  28.465  10.460  1.00  0.00     0.001 A 
HETATM   13  C7  UNL     1       8.254  28.422   9.793  1.00  0.00     0.008 A 
HETATM   14  C9  UNL     1       6.891  27.464   7.791  1.00  0.00     0.073 C 
HETATM   15  C10 UNL     1       7.526  27.035   6.487  1.00  0.00     0.149 C 
BRANCH  15  16
HETATM   16  O2  UNL     1       8.006  28.147   5.817  1.00  0.00    -0.393 OA
ATOM     17  H2  UNL     1       7.683  28.152   4.924  1.00  0.00     0.210 HD
ENDBRANCH  15  16
ENDBRANCH   5   7
ENDBRANCH   2   3
BRANCH   2  18
HETATM   18  O3  UNL     1      11.415  23.918   3.799  1.00  0.00    -0.369 OA
BRANCH  18  19
HETATM   19  C12 UNL     1      11.208  24.386   2.521  1.00  0.00     0.207 C 
BRANCH  19  20
HETATM   20  C13 UNL     1       9.737  24.507   2.269  1.00  0.00    -0.035 A 
HETATM   21  C14 UNL     1       8.909  23.436   2.547  1.00  0.00     0.009 A 
HETATM   22  C15 UNL     1       7.555  23.550   2.315  1.00  0.00     0.001 A 
HETATM   23  C16 UNL     1       7.014  24.693   1.817  1.00  0.00     0.000 A 
HETATM   24  C17 UNL     1       7.835  25.759   1.539  1.00  0.00     0.001 A 
HETATM   25  C18 UNL     1       9.184  25.664   1.764  1.00  0.00     0.009 A 
ENDBRANCH  19  20
ENDBRANCH  18  19
ENDBRANCH   2  18
ENDBRANCH   1   2
BRANCH   1  26
HETATM   26  O4  UNL     1      13.985  25.201   4.820  1.00  0.00    -0.390 OA
ATOM     27  H4  UNL     1      14.658  25.458   5.441  1.00  0.00     0.210 HD
ENDBRANCH   1  26
BRANCH   1  28
HETATM   28  C20 UNL     1      13.043  23.249   5.895  1.00  0.00     0.188 C 
BRANCH  28  29
HETATM   29  O5  UNL     1      12.616  22.461   4.832  1.00  0.00    -0.390 OA
ATOM     30  H5  UNL     1      13.304  21.838   4.627  1.00  0.00     0.210 HD
ENDBRANCH  28  29
BRANCH  28  31
HETATM   31  C21 UNL     1      14.422  22.897   6.380  1.00  0.00     0.244 C 
BRANCH  31  32
HETATM   32  O6  UNL     1      14.344  21.896   7.355  1.00  0.00    -0.369 OA
BRANCH  32  33
HETATM   33  C22 UNL     1      14.840  22.327   8.578  1.00  0.00     0.207 C 
BRANCH  33  34
HETATM   34  C23 UNL     1      15.933  21.408   8.970  1.00  0.00    -0.035 A 
HETATM   35  C24 UNL     1      15.784  20.426   9.946  1.00  0.00     0.009 A 
HETATM   36  C25 UNL     1      16.813  19.585  10.287  1.00  0.00     0.001 A 
HETATM   37  C26 UNL     1      18.036  19.680   9.673  1.00  0.00     0.000 A 
HETATM   38  C27 UNL     1      18.225  20.638   8.701  1.00  0.00     0.001 A 
HETATM   39  C28 UNL     1      17.180  21.473   8.374  1.00  0.00     0.009 A 
ENDBRANCH  33  34
ENDBRANCH  32  33
ENDBRANCH  31  32
BRANCH  31  40
HETATM   40  C29 UNL     1      15.251  22.351   5.280  1.00  0.00     0.250 C 
HETATM   41  O7  UNL     1      15.715  23.112   4.401  1.00  0.00    -0.271 OA
HETATM   42  N2  UNL     1      15.559  20.967   5.160  1.00  0.00    -0.348 N 
ATOM     43  H2  UNL     1      15.184  20.338   5.869  1.00  0.00     0.163 HD
BRANCH  42  44
HETATM   44  C30 UNL     1      16.357  20.389   4.112  1.00  0.00     0.147 C 
HETATM   45  C31 UNL     1      17.070  19.167   4.494  1.00  0.00    -0.027 A 
HETATM   46  C32 UNL     1      18.355  18.954   4.980  1.00  0.00     0.010 A 
HETATM   47  C36 UNL     1      16.220  18.104   4.300  1.00  0.00    -0.047 A 
HETATM   48  C33 UNL     1      18.831  17.697   5.283  1.00  0.00     0.001 A 
HETATM   49  C34 UNL     1      17.956  16.642   5.080  1.00  0.00     0.001 A 
HETATM   50  C35 UNL     1      16.687  16.843   4.601  1.00  0.00     0.008 A 
HETATM   51  C37 UNL     1      14.907  18.600   3.770  1.00  0.00     0.073 C 
HETATM   52  C38 UNL     1      15.350  19.890   3.065  1.00  0.00     0.149 C 
BRANCH  52  53
HETATM   53  O8  UNL     1      14.316  20.799   3.029  1.00  0.00    -0.393 OA
ATOM     54  H8  UNL     1      14.036  20.872   2.124  1.00  0.00     0.210 HD
ENDBRANCH  52  53
ENDBRANCH  42  44
ENDBRANCH  31  40
ENDBRANCH  28  31
ENDBRANCH   1  28
TORSDOF 17
ENDMDL
