MODEL 11
REMARK VINA RESULT: -10.610209036      1.283      9.828
REMARK  17 active torsions:
REMARK  status: ('A' for Active; 'I' for Inactive)
REMARK       I    between atoms: C1_2  and  N1_3 
REMARK    1  A    between atoms: C1_2  and  C11_16 
REMARK    2  A    between atoms: N1_3  and  C2_5 
REMARK    3  A    between atoms: C10_13  and  O2_14 
REMARK    4  A    between atoms: C11_16  and  O3_17 
REMARK    5  A    between atoms: C11_16  and  C19_25 
REMARK    6  A    between atoms: O3_17  and  C12_18 
REMARK    7  A    between atoms: C12_18  and  C13_19 
REMARK    8  A    between atoms: C19_25  and  O4_26 
REMARK    9  A    between atoms: C19_25  and  C20_28 
REMARK   10  A    between atoms: C20_28  and  O5_29 
REMARK   11  A    between atoms: C20_28  and  C21_31 
REMARK   12  A    between atoms: C21_31  and  O6_32 
REMARK   13  A    between atoms: C21_31  and  C29_40 
REMARK   14  A    between atoms: O6_32  and  C22_33 
REMARK   15  A    between atoms: C22_33  and  C23_34 
REMARK       I    between atoms: C29_40  and  N2_42 
REMARK   16  A    between atoms: N2_42  and  C30_44 
REMARK   17  A    between atoms: C38_52  and  O8_53 
ROOT
HETATM    1  C19 UNL     1      13.296  23.176   5.563  1.00  0.00     0.188 C 
ENDROOT
BRANCH   1   2
HETATM    2  C11 UNL     1      14.667  22.847   6.146  1.00  0.00     0.244 C 
BRANCH   2   3
HETATM    3  C1  UNL     1      15.393  22.034   5.132  1.00  0.00     0.250 C 
HETATM    4  O1  UNL     1      15.694  22.568   4.038  1.00  0.00    -0.271 OA
HETATM    5  N1  UNL     1      15.775  20.683   5.312  1.00  0.00    -0.348 N 
ATOM      6  H1  UNL     1      15.536  20.229   6.193  1.00  0.00     0.163 HD
BRANCH   5   7
HETATM    7  C2  UNL     1      16.488  19.907   4.315  1.00  0.00     0.147 C 
HETATM    8  C3  UNL     1      17.337  18.927   5.005  1.00  0.00    -0.027 A 
HETATM    9  C4  UNL     1      18.101  18.947   6.165  1.00  0.00     0.010 A 
HETATM   10  C8  UNL     1      17.330  17.750   4.292  1.00  0.00    -0.047 A 
HETATM   11  C5  UNL     1      18.819  17.873   6.608  1.00  0.00     0.001 A 
HETATM   12  C6  UNL     1      18.787  16.699   5.860  1.00  0.00     0.001 A 
HETATM   13  C7  UNL     1      18.046  16.656   4.719  1.00  0.00     0.008 A 
HETATM   14  C9  UNL     1      16.459  17.910   3.078  1.00  0.00     0.073 C 
HETATM   15  C10 UNL     1      15.547  19.038   3.509  1.00  0.00     0.149 C 
BRANCH  15  16
HETATM   16  O2  UNL     1      14.548  18.540   4.326  1.00  0.00    -0.393 OA
ATOM     17  H2  UNL     1      13.879  18.118   3.800  1.00  0.00     0.210 HD
ENDBRANCH  15  16
ENDBRANCH   5   7
ENDBRANCH   2   3
BRANCH   2  18
HETATM   18  O3  UNL     1      14.505  22.090   7.317  1.00  0.00    -0.369 OA
BRANCH  18  19
HETATM   19  C12 UNL     1      15.159  22.654   8.389  1.00  0.00     0.207 C 
BRANCH  19  20
HETATM   20  C13 UNL     1      16.232  21.723   8.862  1.00  0.00    -0.035 A 
HETATM   21  C14 UNL     1      17.554  22.006   8.576  1.00  0.00     0.009 A 
HETATM   22  C15 UNL     1      18.540  21.146   9.013  1.00  0.00     0.001 A 
HETATM   23  C16 UNL     1      18.241  20.025   9.719  1.00  0.00     0.000 A 
HETATM   24  C17 UNL     1      16.928  19.741  10.005  1.00  0.00     0.001 A 
HETATM   25  C18 UNL     1      15.934  20.584   9.579  1.00  0.00     0.009 A 
ENDBRANCH  19  20
ENDBRANCH  18  19
ENDBRANCH   2  18
ENDBRANCH   1   2
BRANCH   1  26
HETATM   26  O4  UNL     1      13.049  22.360   4.490  1.00  0.00    -0.390 OA
ATOM     27  H4  UNL     1      12.117  22.189   4.431  1.00  0.00     0.210 HD
ENDBRANCH   1  26
BRANCH   1  28
HETATM   28  C20 UNL     1      13.119  24.640   5.301  1.00  0.00     0.188 C 
BRANCH  28  29
HETATM   29  O5  UNL     1      14.167  25.070   4.495  1.00  0.00    -0.390 OA
ATOM     30  H5  UNL     1      13.902  25.874   4.064  1.00  0.00     0.210 HD
ENDBRANCH  28  29
BRANCH  28  31
HETATM   31  C21 UNL     1      11.763  24.976   4.744  1.00  0.00     0.244 C 
BRANCH  31  32
HETATM   32  O6  UNL     1      11.413  24.053   3.752  1.00  0.00    -0.369 OA
BRANCH  32  33
HETATM   33  C22 UNL     1      11.103  24.679   2.551  1.00  0.00     0.207 C 
BRANCH  33  34
HETATM   34  C23 UNL     1       9.636  24.594   2.366  1.00  0.00    -0.035 A 
HETATM   35  C24 UNL     1       8.874  23.527   2.835  1.00  0.00     0.009 A 
HETATM   36  C25 UNL     1       7.515  23.475   2.653  1.00  0.00     0.001 A 
HETATM   37  C26 UNL     1       6.851  24.481   1.998  1.00  0.00     0.000 A 
HETATM   38  C27 UNL     1       7.568  25.555   1.518  1.00  0.00     0.001 A 
HETATM   39  C28 UNL     1       8.931  25.588   1.711  1.00  0.00     0.009 A 
ENDBRANCH  33  34
ENDBRANCH  32  33
ENDBRANCH  31  32
BRANCH  31  40
HETATM   40  C29 UNL     1      10.720  24.886   5.791  1.00  0.00     0.250 C 
HETATM   41  O7  UNL     1      10.720  23.936   6.606  1.00  0.00    -0.271 OA
HETATM   42  N2  UNL     1       9.680  25.848   5.929  1.00  0.00    -0.348 N 
ATOM     43  H2  UNL     1       9.667  26.626   5.270  1.00  0.00     0.163 HD
BRANCH  42  44
HETATM   44  C30 UNL     1       8.645  25.806   6.926  1.00  0.00     0.147 C 
HETATM   45  C31 UNL     1       8.952  26.542   8.155  1.00  0.00    -0.027 A 
HETATM   46  C32 UNL     1       9.514  26.143   9.363  1.00  0.00     0.010 A 
HETATM   47  C36 UNL     1       8.581  27.852   7.966  1.00  0.00    -0.047 A 
HETATM   48  C33 UNL     1       9.722  27.019  10.406  1.00  0.00     0.001 A 
HETATM   49  C34 UNL     1       9.340  28.333  10.191  1.00  0.00     0.001 A 
HETATM   50  C35 UNL     1       8.786  28.736   9.004  1.00  0.00     0.008 A 
HETATM   51  C37 UNL     1       8.003  28.018   6.591  1.00  0.00     0.073 C 
HETATM   52  C38 UNL     1       7.474  26.600   6.329  1.00  0.00     0.149 C 
BRANCH  52  53
HETATM   53  O8  UNL     1       7.451  26.337   4.977  1.00  0.00    -0.393 OA
ATOM     54  H8  UNL     1       6.614  25.933   4.783  1.00  0.00     0.210 HD
ENDBRANCH  52  53
ENDBRANCH  42  44
ENDBRANCH  31  40
ENDBRANCH  28  31
ENDBRANCH   1  28
TORSDOF 17
ENDMDL
