MODEL 7
REMARK VINA RESULT: -10.990012221      1.264      4.497
REMARK  17 active torsions:
REMARK  status: ('A' for Active; 'I' for Inactive)
REMARK       I    between atoms: C1_2  and  N1_3 
REMARK    1  A    between atoms: C1_2  and  C11_16 
REMARK    2  A    between atoms: N1_3  and  C2_5 
REMARK    3  A    between atoms: C10_13  and  O2_14 
REMARK    4  A    between atoms: C11_16  and  O3_17 
REMARK    5  A    between atoms: C11_16  and  C19_25 
REMARK    6  A    between atoms: O3_17  and  C12_18 
REMARK    7  A    between atoms: C12_18  and  C13_19 
REMARK    8  A    between atoms: C19_25  and  O4_26 
REMARK    9  A    between atoms: C19_25  and  C20_28 
REMARK   10  A    between atoms: C20_28  and  O5_29 
REMARK   11  A    between atoms: C20_28  and  C21_31 
REMARK   12  A    between atoms: C21_31  and  O6_32 
REMARK   13  A    between atoms: C21_31  and  C29_40 
REMARK   14  A    between atoms: O6_32  and  C22_33 
REMARK   15  A    between atoms: C22_33  and  C23_34 
REMARK       I    between atoms: C29_40  and  N2_42 
REMARK   16  A    between atoms: N2_42  and  C30_44 
REMARK   17  A    between atoms: C38_52  and  O8_53 
ROOT
HETATM    1  C19 UNL     1      13.013  24.623   5.213  1.00  0.00     0.188 C 
ENDROOT
BRANCH   1   2
HETATM    2  C11 UNL     1      11.576  24.125   5.354  1.00  0.00     0.244 C 
BRANCH   2   3
HETATM    3  C1  UNL     1      10.973  24.130   3.994  1.00  0.00     0.250 C 
HETATM    4  O1  UNL     1      11.389  23.301   3.149  1.00  0.00    -0.271 OA
HETATM    5  N1  UNL     1       9.948  25.012   3.574  1.00  0.00    -0.348 N 
ATOM      6  H1  UNL     1       9.599  25.696   4.245  1.00  0.00     0.163 HD
BRANCH   5   7
HETATM    7  C2  UNL     1       9.367  24.999   2.246  1.00  0.00     0.147 C 
HETATM    8  C3  UNL     1       7.966  24.570   2.353  1.00  0.00    -0.027 A 
HETATM    9  C4  UNL     1       7.291  23.637   3.130  1.00  0.00     0.010 A 
HETATM   10  C8  UNL     1       7.208  25.291   1.459  1.00  0.00    -0.047 A 
HETATM   11  C5  UNL     1       5.946  23.421   3.042  1.00  0.00     0.001 A 
HETATM   12  C6  UNL     1       5.212  24.171   2.125  1.00  0.00     0.001 A 
HETATM   13  C7  UNL     1       5.852  25.090   1.352  1.00  0.00     0.008 A 
HETATM   14  C9  UNL     1       8.097  26.244   0.710  1.00  0.00     0.073 C 
HETATM   15  C10 UNL     1       9.254  26.396   1.673  1.00  0.00     0.149 C 
BRANCH  15  16
HETATM   16  O2  UNL     1       8.912  27.289   2.673  1.00  0.00    -0.393 OA
ATOM     17  H2  UNL     1       8.082  27.703   2.467  1.00  0.00     0.210 HD
ENDBRANCH  15  16
ENDBRANCH   5   7
ENDBRANCH   2   3
BRANCH   2  18
HETATM   18  O3  UNL     1      10.860  25.004   6.182  1.00  0.00    -0.369 OA
BRANCH  18  19
HETATM   19  C12 UNL     1      11.615  25.435   7.250  1.00  0.00     0.207 C 
BRANCH  19  20
HETATM   20  C13 UNL     1      10.818  26.412   8.058  1.00  0.00    -0.035 A 
HETATM   21  C14 UNL     1       9.746  27.061   7.478  1.00  0.00     0.009 A 
HETATM   22  C15 UNL     1       9.014  27.959   8.225  1.00  0.00     0.001 A 
HETATM   23  C16 UNL     1       9.323  28.223   9.521  1.00  0.00     0.000 A 
HETATM   24  C17 UNL     1      10.390  27.579  10.101  1.00  0.00     0.001 A 
HETATM   25  C18 UNL     1      11.129  26.682   9.374  1.00  0.00     0.009 A 
ENDBRANCH  19  20
ENDBRANCH  18  19
ENDBRANCH   2  18
ENDBRANCH   1   2
BRANCH   1  26
HETATM   26  O4  UNL     1      13.101  25.457   4.130  1.00  0.00    -0.390 OA
ATOM     27  H4  UNL     1      12.230  25.625   3.789  1.00  0.00     0.210 HD
ENDBRANCH   1  26
BRANCH   1  28
HETATM   28  C20 UNL     1      14.012  23.508   5.238  1.00  0.00     0.188 C 
BRANCH  28  29
HETATM   29  O5  UNL     1      15.267  24.050   5.485  1.00  0.00    -0.390 OA
ATOM     30  H5  UNL     1      15.721  24.144   4.656  1.00  0.00     0.210 HD
ENDBRANCH  28  29
BRANCH  28  31
HETATM   31  C21 UNL     1      13.640  22.408   6.194  1.00  0.00     0.244 C 
BRANCH  31  32
HETATM   32  O6  UNL     1      13.912  21.163   5.617  1.00  0.00    -0.369 OA
BRANCH  32  33
HETATM   33  C22 UNL     1      14.053  21.252   4.238  1.00  0.00     0.207 C 
BRANCH  33  34
HETATM   34  C23 UNL     1      14.734  20.022   3.775  1.00  0.00    -0.035 A 
HETATM   35  C24 UNL     1      15.073  18.976   4.631  1.00  0.00     0.009 A 
HETATM   36  C25 UNL     1      15.701  17.844   4.174  1.00  0.00     0.001 A 
HETATM   37  C26 UNL     1      16.021  17.700   2.848  1.00  0.00     0.000 A 
HETATM   38  C27 UNL     1      15.703  18.712   1.968  1.00  0.00     0.001 A 
HETATM   39  C28 UNL     1      15.073  19.839   2.446  1.00  0.00     0.009 A 
ENDBRANCH  33  34
ENDBRANCH  32  33
ENDBRANCH  31  32
BRANCH  31  40
HETATM   40  C29 UNL     1      14.446  22.485   7.434  1.00  0.00     0.250 C 
HETATM   41  O7  UNL     1      14.266  23.418   8.250  1.00  0.00    -0.271 OA
HETATM   42  N2  UNL     1      15.449  21.531   7.762  1.00  0.00    -0.348 N 
ATOM     43  H2  UNL     1      15.607  20.767   7.105  1.00  0.00     0.163 HD
BRANCH  42  44
HETATM   44  C30 UNL     1      16.258  21.561   8.951  1.00  0.00     0.147 C 
HETATM   45  C31 UNL     1      16.694  20.246   9.425  1.00  0.00    -0.027 A 
HETATM   46  C32 UNL     1      16.152  19.365  10.355  1.00  0.00     0.010 A 
HETATM   47  C36 UNL     1      17.854  19.921   8.763  1.00  0.00    -0.047 A 
HETATM   48  C33 UNL     1      16.736  18.153  10.653  1.00  0.00     0.001 A 
HETATM   49  C34 UNL     1      17.903  17.849   9.972  1.00  0.00     0.001 A 
HETATM   50  C35 UNL     1      18.445  18.710   9.054  1.00  0.00     0.008 A 
HETATM   51  C37 UNL     1      18.225  21.032   7.825  1.00  0.00     0.073 C 
HETATM   52  C38 UNL     1      17.574  22.231   8.529  1.00  0.00     0.149 C 
BRANCH  52  53
HETATM   53  O8  UNL     1      17.256  23.212   7.614  1.00  0.00    -0.393 OA
ATOM     54  H8  UNL     1      16.424  22.972   7.223  1.00  0.00     0.210 HD
ENDBRANCH  52  53
ENDBRANCH  42  44
ENDBRANCH  31  40
ENDBRANCH  28  31
ENDBRANCH   1  28
TORSDOF 17
ENDMDL
