MODEL 2
REMARK VINA RESULT: -10.907802971      1.317     10.480
REMARK  18 active torsions:
REMARK  status: ('A' for Active; 'I' for Inactive)
REMARK       I    between atoms: N1_2  and  C2_4 
REMARK    1  A    between atoms: C2_4  and  C3_6 
REMARK    2  A    between atoms: C3_6  and  N2_7 
REMARK    3  A    between atoms: C3_6  and  C33_50 
REMARK       I    between atoms: N2_7  and  C4_9 
REMARK    4  A    between atoms: C4_9  and  C5_11 
REMARK    5  A    between atoms: C5_11  and  O3_12 
REMARK    6  A    between atoms: C5_11  and  C13_20 
REMARK    7  A    between atoms: O3_12  and  C6_13 
REMARK    8  A    between atoms: C6_13  and  C7_14 
REMARK    9  A    between atoms: C13_20  and  O4_21 
REMARK   10  A    between atoms: C13_20  and  C14_23 
REMARK   11  A    between atoms: C14_23  and  O5_24 
REMARK   12  A    between atoms: C14_23  and  C15_26 
REMARK   13  A    between atoms: C15_26  and  O6_27 
REMARK   14  A    between atoms: C15_26  and  C23_35 
REMARK   15  A    between atoms: O6_27  and  C16_28 
REMARK   16  A    between atoms: C16_28  and  C17_29 
REMARK       I    between atoms: C23_35  and  N3_37 
REMARK   17  A    between atoms: N3_37  and  C24_39 
REMARK   18  A    between atoms: C32_47  and  O8_48 
ROOT
HETATM    1  C14 UNL     1      14.052  23.752   5.420  1.00  0.00     0.188 C 
ENDROOT
BRANCH   1   2
HETATM    2  C13 UNL     1      12.940  24.158   6.334  1.00  0.00     0.188 C 
BRANCH   2   3
HETATM    3  C5  UNL     1      11.663  24.288   5.573  1.00  0.00     0.244 C 
BRANCH   3   4
HETATM    4  C4  UNL     1      10.553  24.808   6.423  1.00  0.00     0.250 C 
HETATM    5  N2  UNL     1      10.280  26.200   6.501  1.00  0.00    -0.345 N 
ATOM      6  H2  UNL     1      10.842  26.870   5.975  1.00  0.00     0.163 HD
HETATM    7  O2  UNL     1       9.849  24.005   7.076  1.00  0.00    -0.271 OA
BRANCH   5   8
HETATM    8  C3  UNL     1       9.168  26.662   7.357  1.00  0.00     0.180 C 
BRANCH   8   9
HETATM    9  C2  UNL     1       8.111  27.228   6.492  1.00  0.00     0.240 C 
HETATM   10  N1  UNL     1       6.753  26.857   6.485  1.00  0.00    -0.364 N 
HETATM   11  C1  UNL     1       5.808  27.496   5.582  1.00  0.00     0.149 C 
ATOM     12  H1  UNL     1       6.426  26.130   7.123  1.00  0.00     0.161 HD
HETATM   13  O1  UNL     1       8.446  28.133   5.666  1.00  0.00    -0.271 OA
ENDBRANCH   8   9
BRANCH   8  14
HETATM   14  C33 UNL     1       9.699  27.614   8.384  1.00  0.00     0.009 C 
HETATM   15  C34 UNL     1      10.762  27.102   9.282  1.00  0.00     0.012 C 
HETATM   16  C35 UNL     1       8.515  28.092   9.210  1.00  0.00     0.012 C 
ENDBRANCH   8  14
ENDBRANCH   5   8
ENDBRANCH   3   4
BRANCH   3  17
HETATM   17  O3  UNL     1      11.280  23.032   5.111  1.00  0.00    -0.369 OA
BRANCH  17  18
HETATM   18  C6  UNL     1      11.366  22.957   3.714  1.00  0.00     0.207 C 
BRANCH  18  19
HETATM   19  C7  UNL     1      10.156  23.540   3.122  1.00  0.00    -0.035 A 
HETATM   20  C8  UNL     1       8.996  22.773   3.114  1.00  0.00     0.009 A 
HETATM   21  C9  UNL     1       7.842  23.276   2.567  1.00  0.00     0.001 A 
HETATM   22  C10 UNL     1       7.790  24.545   2.012  1.00  0.00     0.000 A 
HETATM   23  C11 UNL     1       8.940  25.300   2.024  1.00  0.00     0.001 A 
HETATM   24  C12 UNL     1      10.096  24.796   2.572  1.00  0.00     0.009 A 
ENDBRANCH  18  19
ENDBRANCH  17  18
ENDBRANCH   3  17
ENDBRANCH   2   3
BRANCH   2  25
HETATM   25  O4  UNL     1      13.268  25.303   7.043  1.00  0.00    -0.390 OA
ATOM     26  H4  UNL     1      13.792  25.915   6.540  1.00  0.00     0.210 HD
ENDBRANCH   2  25
ENDBRANCH   1   2
BRANCH   1  27
HETATM   27  O5  UNL     1      14.471  24.823   4.633  1.00  0.00    -0.390 OA
ATOM     28  H5  UNL     1      15.265  24.607   4.157  1.00  0.00     0.210 HD
ENDBRANCH   1  27
BRANCH   1  29
HETATM   29  C15 UNL     1      15.184  23.007   6.064  1.00  0.00     0.244 C 
BRANCH  29  30
HETATM   30  O6  UNL     1      15.053  23.267   7.450  1.00  0.00    -0.369 OA
BRANCH  30  31
HETATM   31  C16 UNL     1      16.282  23.478   8.018  1.00  0.00     0.207 C 
BRANCH  31  32
HETATM   32  C17 UNL     1      16.745  22.207   8.629  1.00  0.00    -0.035 A 
HETATM   33  C18 UNL     1      18.051  21.814   8.561  1.00  0.00     0.009 A 
HETATM   34  C19 UNL     1      18.433  20.612   9.147  1.00  0.00     0.001 A 
HETATM   35  C20 UNL     1      17.527  19.805   9.797  1.00  0.00     0.000 A 
HETATM   36  C21 UNL     1      16.218  20.185   9.872  1.00  0.00     0.001 A 
HETATM   37  C22 UNL     1      15.844  21.383   9.286  1.00  0.00     0.009 A 
ENDBRANCH  31  32
ENDBRANCH  30  31
ENDBRANCH  29  30
BRANCH  29  38
HETATM   38  C23 UNL     1      15.221  21.566   5.833  1.00  0.00     0.250 C 
HETATM   39  O7  UNL     1      14.214  20.865   6.037  1.00  0.00    -0.271 OA
HETATM   40  N3  UNL     1      16.402  20.930   5.372  1.00  0.00    -0.348 N 
ATOM     41  H3  UNL     1      17.221  21.515   5.210  1.00  0.00     0.163 HD
BRANCH  40  42
HETATM   42  C24 UNL     1      16.530  19.526   5.115  1.00  0.00     0.147 A 
HETATM   43  C25 UNL     1      16.185  19.176   3.712  1.00  0.00    -0.027 A 
HETATM   44  C26 UNL     1      15.016  19.393   3.016  1.00  0.00     0.010 A 
HETATM   45  C30 UNL     1      17.243  18.550   3.091  1.00  0.00    -0.047 A 
HETATM   46  C27 UNL     1      14.882  18.984   1.679  1.00  0.00     0.001 A 
HETATM   47  C28 UNL     1      15.949  18.358   1.069  1.00  0.00     0.001 A 
HETATM   48  C29 UNL     1      17.119  18.144   1.771  1.00  0.00     0.008 A 
HETATM   49  C31 UNL     1      18.387  18.422   4.014  1.00  0.00     0.073 A 
HETATM   50  C32 UNL     1      17.953  19.102   5.296  1.00  0.00     0.149 A 
BRANCH  50  51
HETATM   51  O8  UNL     1      18.800  20.201   5.481  1.00  0.00    -0.393 OA
ATOM     52  H8  UNL     1      19.261  20.427   4.681  1.00  0.00     0.210 HD
ENDBRANCH  50  51
ENDBRANCH  40  42
ENDBRANCH  29  38
ENDBRANCH   1  29
TORSDOF 18
ENDMDL
