MODEL 5
REMARK VINA RESULT: -10.445202555      1.531      4.525
REMARK  18 active torsions:
REMARK  status: ('A' for Active; 'I' for Inactive)
REMARK       I    between atoms: N1_2  and  C2_4 
REMARK    1  A    between atoms: C2_4  and  C3_6 
REMARK    2  A    between atoms: C3_6  and  N2_7 
REMARK    3  A    between atoms: C3_6  and  C33_50 
REMARK       I    between atoms: N2_7  and  C4_9 
REMARK    4  A    between atoms: C4_9  and  C5_11 
REMARK    5  A    between atoms: C5_11  and  O3_12 
REMARK    6  A    between atoms: C5_11  and  C13_20 
REMARK    7  A    between atoms: O3_12  and  C6_13 
REMARK    8  A    between atoms: C6_13  and  C7_14 
REMARK    9  A    between atoms: C13_20  and  O4_21 
REMARK   10  A    between atoms: C13_20  and  C14_23 
REMARK   11  A    between atoms: C14_23  and  O5_24 
REMARK   12  A    between atoms: C14_23  and  C15_26 
REMARK   13  A    between atoms: C15_26  and  O6_27 
REMARK   14  A    between atoms: C15_26  and  C23_35 
REMARK   15  A    between atoms: O6_27  and  C16_28 
REMARK   16  A    between atoms: C16_28  and  C17_29 
REMARK       I    between atoms: C23_35  and  N3_37 
REMARK   17  A    between atoms: N3_37  and  C24_39 
REMARK   18  A    between atoms: C32_47  and  O8_48 
ROOT
HETATM    1  C14 UNL     1      12.926  24.188   6.831  1.00  0.00     0.188 C 
ENDROOT
BRANCH   1   2
HETATM    2  C13 UNL     1      13.769  23.847   5.643  1.00  0.00     0.188 C 
BRANCH   2   3
HETATM    3  C5  UNL     1      15.013  23.145   6.074  1.00  0.00     0.244 C 
BRANCH   3   4
HETATM    4  C4  UNL     1      15.005  21.703   5.691  1.00  0.00     0.250 C 
HETATM    5  N2  UNL     1      15.974  21.176   4.795  1.00  0.00    -0.345 N 
ATOM      6  H2  UNL     1      16.695  21.779   4.397  1.00  0.00     0.163 HD
HETATM    7  O2  UNL     1      14.131  20.944   6.169  1.00  0.00    -0.271 OA
BRANCH   5   8
HETATM    8  C3  UNL     1      15.921  19.740   4.451  1.00  0.00     0.180 C 
BRANCH   8   9
HETATM    9  C2  UNL     1      17.199  19.113   4.850  1.00  0.00     0.240 C 
HETATM   10  N1  UNL     1      17.479  18.513   6.093  1.00  0.00    -0.364 N 
HETATM   11  C1  UNL     1      18.783  17.926   6.362  1.00  0.00     0.149 C 
ATOM     12  H1  UNL     1      16.758  18.491   6.815  1.00  0.00     0.161 HD
HETATM   13  O1  UNL     1      18.146  19.111   4.004  1.00  0.00    -0.271 OA
ENDBRANCH   8   9
BRANCH   8  14
HETATM   14  C33 UNL     1      15.590  19.594   2.998  1.00  0.00     0.009 C 
HETATM   15  C34 UNL     1      14.687  20.614   2.413  1.00  0.00     0.012 C 
HETATM   16  C35 UNL     1      14.992  18.209   2.809  1.00  0.00     0.012 C 
ENDBRANCH   8  14
ENDBRANCH   5   8
ENDBRANCH   3   4
BRANCH   3  17
HETATM   17  O3  UNL     1      15.114  23.206   7.461  1.00  0.00    -0.369 OA
BRANCH  17  18
HETATM   18  C6  UNL     1      16.451  23.309   7.868  1.00  0.00     0.207 C 
BRANCH  18  19
HETATM   19  C7  UNL     1      16.850  22.067   8.539  1.00  0.00    -0.035 A 
HETATM   20  C8  UNL     1      15.865  21.323   9.179  1.00  0.00     0.009 A 
HETATM   21  C9  UNL     1      16.193  20.156   9.824  1.00  0.00     0.001 A 
HETATM   22  C10 UNL     1      17.496  19.684   9.861  1.00  0.00     0.000 A 
HETATM   23  C11 UNL     1      18.466  20.422   9.224  1.00  0.00     0.001 A 
HETATM   24  C12 UNL     1      18.137  21.591   8.579  1.00  0.00     0.009 A 
ENDBRANCH  18  19
ENDBRANCH  17  18
ENDBRANCH   3  17
ENDBRANCH   2   3
BRANCH   2  25
HETATM   25  O4  UNL     1      14.019  24.969   4.869  1.00  0.00    -0.390 OA
ATOM     26  H4  UNL     1      13.656  24.905   3.994  1.00  0.00     0.210 HD
ENDBRANCH   2  25
ENDBRANCH   1   2
BRANCH   1  27
HETATM   27  O5  UNL     1      13.123  25.511   7.222  1.00  0.00    -0.390 OA
ATOM     28  H5  UNL     1      12.298  25.979   7.274  1.00  0.00     0.210 HD
ENDBRANCH   1  27
BRANCH   1  29
HETATM   29  C15 UNL     1      11.479  23.804   6.734  1.00  0.00     0.244 C 
BRANCH  29  30
HETATM   30  O6  UNL     1      10.764  24.990   7.034  1.00  0.00    -0.369 OA
BRANCH  30  31
HETATM   31  C16 UNL     1       9.695  24.714   7.846  1.00  0.00     0.207 C 
BRANCH  31  32
HETATM   32  C17 UNL     1       9.269  25.972   8.509  1.00  0.00    -0.035 A 
HETATM   33  C18 UNL     1       8.042  26.524   8.278  1.00  0.00     0.009 A 
HETATM   34  C19 UNL     1       7.692  27.704   8.923  1.00  0.00     0.001 A 
HETATM   35  C20 UNL     1       8.553  28.336   9.792  1.00  0.00     0.000 A 
HETATM   36  C21 UNL     1       9.783  27.796  10.033  1.00  0.00     0.001 A 
HETATM   37  C22 UNL     1      10.125  26.619   9.387  1.00  0.00     0.009 A 
ENDBRANCH  31  32
ENDBRANCH  30  31
ENDBRANCH  29  30
BRANCH  29  38
HETATM   38  C23 UNL     1      11.038  23.274   5.448  1.00  0.00     0.250 C 
HETATM   39  O7  UNL     1      11.240  22.083   5.150  1.00  0.00    -0.271 OA
HETATM   40  N3  UNL     1      10.368  24.098   4.508  1.00  0.00    -0.348 N 
ATOM     41  H3  UNL     1      10.209  25.072   4.763  1.00  0.00     0.163 HD
BRANCH  40  42
HETATM   42  C24 UNL     1       9.896  23.664   3.226  1.00  0.00     0.147 A 
HETATM   43  C25 UNL     1       8.547  24.204   2.911  1.00  0.00    -0.027 A 
HETATM   44  C26 UNL     1       7.365  24.072   3.605  1.00  0.00     0.010 A 
HETATM   45  C30 UNL     1       8.574  24.928   1.739  1.00  0.00    -0.047 A 
HETATM   46  C27 UNL     1       6.180  24.664   3.139  1.00  0.00     0.001 A 
HETATM   47  C28 UNL     1       6.220  25.387   1.964  1.00  0.00     0.001 A 
HETATM   48  C29 UNL     1       7.409  25.517   1.273  1.00  0.00     0.008 A 
HETATM   49  C31 UNL     1       9.933  24.940   1.165  1.00  0.00     0.073 A 
HETATM   50  C32 UNL     1      10.797  24.180   2.150  1.00  0.00     0.149 A 
BRANCH  50  51
HETATM   51  O8  UNL     1      11.736  25.088   2.653  1.00  0.00    -0.393 OA
ATOM     52  H8  UNL     1      12.425  24.648   3.138  1.00  0.00     0.210 HD
ENDBRANCH  50  51
ENDBRANCH  40  42
ENDBRANCH  29  38
ENDBRANCH   1  29
TORSDOF 18
ENDMDL
