MODEL 13
REMARK VINA RESULT: -10.084349604      1.412     10.390
REMARK  18 active torsions:
REMARK  status: ('A' for Active; 'I' for Inactive)
REMARK       I    between atoms: N1_2  and  C2_4 
REMARK    1  A    between atoms: C2_4  and  C3_6 
REMARK    2  A    between atoms: C3_6  and  N2_7 
REMARK    3  A    between atoms: C3_6  and  C33_50 
REMARK       I    between atoms: N2_7  and  C4_9 
REMARK    4  A    between atoms: C4_9  and  C5_11 
REMARK    5  A    between atoms: C5_11  and  O3_12 
REMARK    6  A    between atoms: C5_11  and  C13_20 
REMARK    7  A    between atoms: O3_12  and  C6_13 
REMARK    8  A    between atoms: C6_13  and  C7_14 
REMARK    9  A    between atoms: C13_20  and  O4_21 
REMARK   10  A    between atoms: C13_20  and  C14_23 
REMARK   11  A    between atoms: C14_23  and  O5_24 
REMARK   12  A    between atoms: C14_23  and  C15_26 
REMARK   13  A    between atoms: C15_26  and  O6_27 
REMARK   14  A    between atoms: C15_26  and  C23_35 
REMARK   15  A    between atoms: O6_27  and  C16_28 
REMARK   16  A    between atoms: C16_28  and  C17_29 
REMARK       I    between atoms: C23_35  and  N3_37 
REMARK   17  A    between atoms: N3_37  and  C24_39 
REMARK   18  A    between atoms: C32_47  and  O8_48 
ROOT
HETATM    1  C14 UNL     1      14.096  23.566   4.893  1.00  0.00     0.188 C 
ENDROOT
BRANCH   1   2
HETATM    2  C13 UNL     1      12.686  23.259   5.287  1.00  0.00     0.188 C 
BRANCH   2   3
HETATM    3  C5  UNL     1      11.740  24.181   4.594  1.00  0.00     0.244 C 
BRANCH   3   4
HETATM    4  C4  UNL     1      11.235  25.252   5.501  1.00  0.00     0.250 C 
HETATM    5  N2  UNL     1       9.851  25.569   5.564  1.00  0.00    -0.345 N 
ATOM      6  H2  UNL     1       9.177  25.066   4.985  1.00  0.00     0.163 HD
HETATM    7  O2  UNL     1      12.043  25.881   6.221  1.00  0.00    -0.271 OA
BRANCH   5   8
HETATM    8  C3  UNL     1       9.404  26.638   6.480  1.00  0.00     0.180 C 
BRANCH   8   9
HETATM    9  C2  UNL     1       9.542  26.154   7.870  1.00  0.00     0.240 C 
HETATM   10  N1  UNL     1      10.343  26.730   8.876  1.00  0.00    -0.364 N 
HETATM   11  C1  UNL     1      10.390  26.156  10.212  1.00  0.00     0.149 C 
ATOM     12  H1  UNL     1      10.898  27.560   8.664  1.00  0.00     0.161 HD
HETATM   13  O1  UNL     1       8.886  25.120   8.204  1.00  0.00    -0.271 OA
ENDBRANCH   8   9
BRANCH   8  14
HETATM   14  C33 UNL     1       8.015  27.057   6.108  1.00  0.00     0.009 C 
HETATM   15  C34 UNL     1       7.794  27.459   4.698  1.00  0.00     0.012 C 
HETATM   16  C35 UNL     1       7.626  28.198   7.034  1.00  0.00     0.012 C 
ENDBRANCH   8  14
ENDBRANCH   5   8
ENDBRANCH   3   4
BRANCH   3  17
HETATM   17  O3  UNL     1      10.637  23.455   4.153  1.00  0.00    -0.369 OA
BRANCH  17  18
HETATM   18  C6  UNL     1      10.540  23.478   2.755  1.00  0.00     0.207 C 
BRANCH  18  19
HETATM   19  C7  UNL     1       9.272  24.107   2.368  1.00  0.00    -0.035 A 
HETATM   20  C8  UNL     1       9.315  25.379   1.807  1.00  0.00     0.009 A 
HETATM   21  C9  UNL     1       8.154  26.007   1.434  1.00  0.00     0.001 A 
HETATM   22  C10 UNL     1       6.915  25.408   1.599  1.00  0.00     0.000 A 
HETATM   23  C11 UNL     1       6.877  24.149   2.152  1.00  0.00     0.001 A 
HETATM   24  C12 UNL     1       8.041  23.520   2.526  1.00  0.00     0.009 A 
ENDBRANCH  18  19
ENDBRANCH  17  18
ENDBRANCH   3  17
ENDBRANCH   2   3
BRANCH   2  25
HETATM   25  O4  UNL     1      12.539  23.264   6.665  1.00  0.00    -0.390 OA
ATOM     26  H4  UNL     1      11.665  23.025   6.947  1.00  0.00     0.210 HD
ENDBRANCH   2  25
ENDBRANCH   1   2
BRANCH   1  27
HETATM   27  O5  UNL     1      14.275  24.934   4.696  1.00  0.00    -0.390 OA
ATOM     28  H5  UNL     1      15.194  25.170   4.748  1.00  0.00     0.210 HD
ENDBRANCH   1  27
BRANCH   1  29
HETATM   29  C15 UNL     1      15.161  22.943   5.746  1.00  0.00     0.244 C 
BRANCH  29  30
HETATM   30  O6  UNL     1      14.851  23.343   7.070  1.00  0.00    -0.369 OA
BRANCH  30  31
HETATM   31  C16 UNL     1      15.997  23.530   7.796  1.00  0.00     0.207 C 
BRANCH  31  32
HETATM   32  C17 UNL     1      16.292  22.283   8.546  1.00  0.00    -0.035 A 
HETATM   33  C18 UNL     1      15.327  21.628   9.254  1.00  0.00     0.009 A 
HETATM   34  C19 UNL     1      15.656  20.465   9.941  1.00  0.00     0.001 A 
HETATM   35  C20 UNL     1      16.934  19.953   9.926  1.00  0.00     0.000 A 
HETATM   36  C21 UNL     1      17.910  20.599   9.222  1.00  0.00     0.001 A 
HETATM   37  C22 UNL     1      17.575  21.757   8.540  1.00  0.00     0.009 A 
ENDBRANCH  31  32
ENDBRANCH  30  31
ENDBRANCH  29  30
BRANCH  29  38
HETATM   38  C23 UNL     1      15.270  21.489   5.682  1.00  0.00     0.250 C 
HETATM   39  O7  UNL     1      14.298  20.767   5.969  1.00  0.00    -0.271 OA
HETATM   40  N3  UNL     1      16.481  20.863   5.293  1.00  0.00    -0.348 N 
ATOM     41  H3  UNL     1      17.271  21.465   5.062  1.00  0.00     0.163 HD
BRANCH  40  42
HETATM   42  C24 UNL     1      16.679  19.447   5.198  1.00  0.00     0.147 A 
HETATM   43  C25 UNL     1      16.435  18.935   3.824  1.00  0.00    -0.027 A 
HETATM   44  C26 UNL     1      15.305  19.023   3.042  1.00  0.00     0.010 A 
HETATM   45  C30 UNL     1      17.554  18.294   3.337  1.00  0.00    -0.047 A 
HETATM   46  C27 UNL     1      15.270  18.469   1.753  1.00  0.00     0.001 A 
HETATM   47  C28 UNL     1      16.396  17.830   1.276  1.00  0.00     0.001 A 
HETATM   48  C29 UNL     1      17.528  17.745   2.065  1.00  0.00     0.008 A 
HETATM   49  C31 UNL     1      18.641  18.317   4.333  1.00  0.00     0.073 A 
HETATM   50  C32 UNL     1      18.103  19.110   5.506  1.00  0.00     0.149 A 
BRANCH  50  51
HETATM   51  O8  UNL     1      18.894  20.259   5.619  1.00  0.00    -0.393 OA
ATOM     52  H8  UNL     1      19.052  20.661   4.772  1.00  0.00     0.210 HD
ENDBRANCH  50  51
ENDBRANCH  40  42
ENDBRANCH  29  38
ENDBRANCH   1  29
TORSDOF 18
ENDMDL
