MODEL 1
REMARK VINA RESULT: -11.038808405      0.000      0.000
REMARK  18 active torsions:
REMARK  status: ('A' for Active; 'I' for Inactive)
REMARK       I    between atoms: N1_2  and  C2_4 
REMARK    1  A    between atoms: C2_4  and  C3_6 
REMARK    2  A    between atoms: C3_6  and  N2_7 
REMARK    3  A    between atoms: C3_6  and  C33_50 
REMARK       I    between atoms: N2_7  and  C4_9 
REMARK    4  A    between atoms: C4_9  and  C5_11 
REMARK    5  A    between atoms: C5_11  and  O3_12 
REMARK    6  A    between atoms: C5_11  and  C13_20 
REMARK    7  A    between atoms: O3_12  and  C6_13 
REMARK    8  A    between atoms: C6_13  and  C7_14 
REMARK    9  A    between atoms: C13_20  and  O4_21 
REMARK   10  A    between atoms: C13_20  and  C14_23 
REMARK   11  A    between atoms: C14_23  and  O5_24 
REMARK   12  A    between atoms: C14_23  and  C15_26 
REMARK   13  A    between atoms: C15_26  and  O6_27 
REMARK   14  A    between atoms: C15_26  and  C23_35 
REMARK   15  A    between atoms: O6_27  and  C16_28 
REMARK   16  A    between atoms: C16_28  and  C17_29 
REMARK       I    between atoms: C23_35  and  N3_37 
REMARK   17  A    between atoms: N3_37  and  C24_39 
REMARK   18  A    between atoms: C32_47  and  O8_48 
ROOT
HETATM    1  C14 UNL     1      13.548  23.898   4.842  1.00  0.00     0.188 C 
ENDROOT
BRANCH   1   2
HETATM    2  C13 UNL     1      13.849  22.491   4.435  1.00  0.00     0.188 C 
BRANCH   2   3
HETATM    3  C5  UNL     1      14.745  21.841   5.434  1.00  0.00     0.244 C 
BRANCH   3   4
HETATM    4  C4  UNL     1      15.114  20.450   5.038  1.00  0.00     0.250 C 
HETATM    5  N2  UNL     1      16.242  20.197   4.212  1.00  0.00    -0.345 N 
ATOM      6  H2  UNL     1      16.820  20.967   3.874  1.00  0.00     0.163 HD
HETATM    7  O2  UNL     1      14.419  19.491   5.442  1.00  0.00    -0.271 OA
BRANCH   5   8
HETATM    8  C3  UNL     1      16.562  18.801   3.850  1.00  0.00     0.180 C 
BRANCH   8   9
HETATM    9  C2  UNL     1      17.705  18.353   4.674  1.00  0.00     0.240 C 
HETATM   10  N1  UNL     1      17.750  17.194   5.474  1.00  0.00    -0.364 N 
HETATM   11  C1  UNL     1      18.942  16.861   6.239  1.00  0.00     0.149 C 
ATOM     12  H1  UNL     1      16.936  16.580   5.517  1.00  0.00     0.161 HD
HETATM   13  O1  UNL     1      18.751  19.072   4.676  1.00  0.00    -0.271 OA
ENDBRANCH   8   9
BRANCH   8  14
HETATM   14  C33 UNL     1      16.796  18.716   2.374  1.00  0.00     0.009 C 
HETATM   15  C34 UNL     1      15.664  19.098   1.495  1.00  0.00     0.012 C 
HETATM   16  C35 UNL     1      17.225  17.290   2.067  1.00  0.00     0.012 C 
ENDBRANCH   8  14
ENDBRANCH   5   8
ENDBRANCH   3   4
BRANCH   3  17
HETATM   17  O3  UNL     1      14.084  21.763   6.657  1.00  0.00    -0.369 OA
BRANCH  17  18
HETATM   18  C6  UNL     1      14.708  22.564   7.623  1.00  0.00     0.207 C 
BRANCH  18  19
HETATM   19  C7  UNL     1      15.798  21.807   8.249  1.00  0.00    -0.035 A 
HETATM   20  C8  UNL     1      15.471  20.671   8.981  1.00  0.00     0.009 A 
HETATM   21  C9  UNL     1      16.457  19.934   9.587  1.00  0.00     0.001 A 
HETATM   22  C10 UNL     1      17.794  20.289   9.495  1.00  0.00     0.000 A 
HETATM   23  C11 UNL     1      18.113  21.412   8.768  1.00  0.00     0.001 A 
HETATM   24  C12 UNL     1      17.124  22.150   8.161  1.00  0.00     0.009 A 
ENDBRANCH  18  19
ENDBRANCH  17  18
ENDBRANCH   3  17
ENDBRANCH   2   3
BRANCH   2  25
HETATM   25  O4  UNL     1      14.349  22.440   3.143  1.00  0.00    -0.390 OA
ATOM     26  H4  UNL     1      13.736  22.765   2.494  1.00  0.00     0.210 HD
ENDBRANCH   2  25
ENDBRANCH   1   2
BRANCH   1  27
HETATM   27  O5  UNL     1      14.663  24.717   4.680  1.00  0.00    -0.390 OA
ATOM     28  H5  UNL     1      14.408  25.627   4.580  1.00  0.00     0.210 HD
ENDBRANCH   1  27
BRANCH   1  29
HETATM   29  C15 UNL     1      12.290  24.485   4.274  1.00  0.00     0.244 C 
BRANCH  29  30
HETATM   30  O6  UNL     1      11.961  23.654   3.175  1.00  0.00    -0.369 OA
BRANCH  30  31
HETATM   31  C16 UNL     1      11.481  24.403   2.133  1.00  0.00     0.207 C 
BRANCH  31  32
HETATM   32  C17 UNL     1       9.999  24.313   2.128  1.00  0.00    -0.035 A 
HETATM   33  C18 UNL     1       9.353  23.135   2.367  1.00  0.00     0.009 A 
HETATM   34  C19 UNL     1       7.963  23.103   2.349  1.00  0.00     0.001 A 
HETATM   35  C20 UNL     1       7.218  24.232   2.096  1.00  0.00     0.000 A 
HETATM   36  C21 UNL     1       7.851  25.417   1.854  1.00  0.00     0.001 A 
HETATM   37  C22 UNL     1       9.236  25.442   1.874  1.00  0.00     0.009 A 
ENDBRANCH  31  32
ENDBRANCH  30  31
ENDBRANCH  29  30
BRANCH  29  38
HETATM   38  C23 UNL     1      11.152  24.574   5.183  1.00  0.00     0.250 C 
HETATM   39  O7  UNL     1      10.802  23.590   5.859  1.00  0.00    -0.271 OA
HETATM   40  N3  UNL     1      10.417  25.779   5.321  1.00  0.00    -0.348 N 
ATOM     41  H3  UNL     1      10.712  26.578   4.760  1.00  0.00     0.163 HD
BRANCH  40  42
HETATM   42  C24 UNL     1       9.291  25.960   6.188  1.00  0.00     0.147 A 
HETATM   43  C25 UNL     1       9.691  26.437   7.538  1.00  0.00    -0.027 A 
HETATM   44  C26 UNL     1      10.548  25.866   8.452  1.00  0.00     0.010 A 
HETATM   45  C30 UNL     1       9.070  27.630   7.837  1.00  0.00    -0.047 A 
HETATM   46  C27 UNL     1      10.802  26.478   9.690  1.00  0.00     0.001 A 
HETATM   47  C28 UNL     1      10.174  27.672   9.978  1.00  0.00     0.001 A 
HETATM   48  C29 UNL     1       9.315  28.241   9.057  1.00  0.00     0.008 A 
HETATM   49  C31 UNL     1       8.202  28.058   6.724  1.00  0.00     0.073 A 
HETATM   50  C32 UNL     1       8.389  27.018   5.639  1.00  0.00     0.149 A 
BRANCH  50  51
HETATM   51  O8  UNL     1       8.965  27.672   4.544  1.00  0.00    -0.393 OA
ATOM     52  H8  UNL     1       8.374  28.315   4.168  1.00  0.00     0.210 HD
ENDBRANCH  50  51
ENDBRANCH  40  42
ENDBRANCH  29  38
ENDBRANCH   1  29
TORSDOF 18
ENDMDL
