MODEL 4
REMARK VINA RESULT: -10.507517768      1.117      3.589
REMARK  18 active torsions:
REMARK  status: ('A' for Active; 'I' for Inactive)
REMARK       I    between atoms: N1_2  and  C2_4 
REMARK    1  A    between atoms: C2_4  and  C3_6 
REMARK    2  A    between atoms: C3_6  and  N2_7 
REMARK    3  A    between atoms: C3_6  and  C33_50 
REMARK       I    between atoms: N2_7  and  C4_9 
REMARK    4  A    between atoms: C4_9  and  C5_11 
REMARK    5  A    between atoms: C5_11  and  O3_12 
REMARK    6  A    between atoms: C5_11  and  C13_20 
REMARK    7  A    between atoms: O3_12  and  C6_13 
REMARK    8  A    between atoms: C6_13  and  C7_14 
REMARK    9  A    between atoms: C13_20  and  O4_21 
REMARK   10  A    between atoms: C13_20  and  C14_23 
REMARK   11  A    between atoms: C14_23  and  O5_24 
REMARK   12  A    between atoms: C14_23  and  C15_26 
REMARK   13  A    between atoms: C15_26  and  O6_27 
REMARK   14  A    between atoms: C15_26  and  C23_35 
REMARK   15  A    between atoms: O6_27  and  C16_28 
REMARK   16  A    between atoms: C16_28  and  C17_29 
REMARK       I    between atoms: C23_35  and  N3_37 
REMARK   17  A    between atoms: N3_37  and  C24_39 
REMARK   18  A    between atoms: C32_47  and  O8_48 
ROOT
HETATM    1  C14 UNL     1      13.424  24.390   4.820  1.00  0.00     0.188 C 
ENDROOT
BRANCH   1   2
HETATM    2  C13 UNL     1      14.067  23.082   4.484  1.00  0.00     0.188 C 
BRANCH   2   3
HETATM    3  C5  UNL     1      13.830  22.092   5.574  1.00  0.00     0.244 C 
BRANCH   3   4
HETATM    4  C4  UNL     1      14.978  22.016   6.523  1.00  0.00     0.250 C 
HETATM    5  N2  UNL     1      15.529  20.764   6.910  1.00  0.00    -0.345 N 
ATOM      6  H2  UNL     1      15.146  19.893   6.543  1.00  0.00     0.163 HD
HETATM    7  O2  UNL     1      15.465  23.072   6.985  1.00  0.00    -0.271 OA
BRANCH   5   8
HETATM    8  C3  UNL     1      16.667  20.747   7.852  1.00  0.00     0.180 C 
BRANCH   8   9
HETATM    9  C2  UNL     1      17.771  19.974   7.243  1.00  0.00     0.240 C 
HETATM   10  N1  UNL     1      17.677  18.681   6.693  1.00  0.00    -0.364 N 
HETATM   11  C1  UNL     1      18.844  18.028   6.119  1.00  0.00     0.149 C 
ATOM     12  H1  UNL     1      16.780  18.196   6.698  1.00  0.00     0.161 HD
HETATM   13  O1  UNL     1      18.920  20.512   7.209  1.00  0.00    -0.271 OA
ENDBRANCH   8   9
BRANCH   8  14
HETATM   14  C33 UNL     1      16.203  20.219   9.175  1.00  0.00     0.009 C 
HETATM   15  C34 UNL     1      15.259  21.070   9.939  1.00  0.00     0.012 C 
HETATM   16  C35 UNL     1      17.443  19.948  10.012  1.00  0.00     0.012 C 
ENDBRANCH   8  14
ENDBRANCH   5   8
ENDBRANCH   3   4
BRANCH   3  17
HETATM   17  O3  UNL     1      13.670  20.827   5.013  1.00  0.00    -0.369 OA
BRANCH  17  18
HETATM   18  C6  UNL     1      13.969  20.838   3.644  1.00  0.00     0.207 C 
BRANCH  18  19
HETATM   19  C7  UNL     1      14.826  19.690   3.327  1.00  0.00    -0.035 A 
HETATM   20  C8  UNL     1      15.439  19.655   2.079  1.00  0.00     0.009 A 
HETATM   21  C9  UNL     1      16.246  18.599   1.738  1.00  0.00     0.001 A 
HETATM   22  C10 UNL     1      16.477  17.545   2.608  1.00  0.00     0.000 A 
HETATM   23  C11 UNL     1      15.870  17.585   3.842  1.00  0.00     0.001 A 
HETATM   24  C12 UNL     1      15.061  18.643   4.184  1.00  0.00     0.009 A 
ENDBRANCH  18  19
ENDBRANCH  17  18
ENDBRANCH   3  17
ENDBRANCH   2   3
BRANCH   2  25
HETATM   25  O4  UNL     1      15.409  23.247   4.183  1.00  0.00    -0.390 OA
ATOM     26  H4  UNL     1      15.673  22.789   3.394  1.00  0.00     0.210 HD
ENDBRANCH   2  25
ENDBRANCH   1   2
BRANCH   1  27
HETATM   27  O5  UNL     1      14.318  25.445   4.654  1.00  0.00    -0.390 OA
ATOM     28  H5  UNL     1      14.669  25.732   5.489  1.00  0.00     0.210 HD
ENDBRANCH   1  27
BRANCH   1  29
HETATM   29  C15 UNL     1      12.085  24.638   4.190  1.00  0.00     0.244 C 
BRANCH  29  30
HETATM   30  O6  UNL     1      11.912  23.577   3.267  1.00  0.00    -0.369 OA
BRANCH  30  31
HETATM   31  C16 UNL     1      11.462  24.055   2.065  1.00  0.00     0.207 C 
BRANCH  31  32
HETATM   32  C17 UNL     1       9.982  24.159   2.121  1.00  0.00    -0.035 A 
HETATM   33  C18 UNL     1       9.334  25.329   1.848  1.00  0.00     0.009 A 
HETATM   34  C19 UNL     1       7.947  25.373   1.917  1.00  0.00     0.001 A 
HETATM   35  C20 UNL     1       7.204  24.265   2.255  1.00  0.00     0.000 A 
HETATM   36  C21 UNL     1       7.838  23.088   2.532  1.00  0.00     0.001 A 
HETATM   37  C22 UNL     1       9.221  23.050   2.461  1.00  0.00     0.009 A 
ENDBRANCH  31  32
ENDBRANCH  30  31
ENDBRANCH  29  30
BRANCH  29  38
HETATM   38  C23 UNL     1      10.945  24.694   5.099  1.00  0.00     0.250 C 
HETATM   39  O7  UNL     1      10.572  23.677   5.710  1.00  0.00    -0.271 OA
HETATM   40  N3  UNL     1      10.236  25.904   5.310  1.00  0.00    -0.348 N 
ATOM     41  H3  UNL     1      10.551  26.730   4.802  1.00  0.00     0.163 HD
BRANCH  40  42
HETATM   42  C24 UNL     1       9.110  26.054   6.183  1.00  0.00     0.147 A 
HETATM   43  C25 UNL     1       9.510  26.486   7.548  1.00  0.00    -0.027 A 
HETATM   44  C26 UNL     1      10.368  25.887   8.443  1.00  0.00     0.010 A 
HETATM   45  C30 UNL     1       8.887  27.667   7.887  1.00  0.00    -0.047 A 
HETATM   46  C27 UNL     1      10.621  26.458   9.700  1.00  0.00     0.001 A 
HETATM   47  C28 UNL     1       9.991  27.640  10.028  1.00  0.00     0.001 A 
HETATM   48  C29 UNL     1       9.131  28.238   9.126  1.00  0.00     0.008 A 
HETATM   49  C31 UNL     1       8.017  28.131   6.789  1.00  0.00     0.073 A 
HETATM   50  C32 UNL     1       8.206  27.128   5.670  1.00  0.00     0.149 A 
BRANCH  50  51
HETATM   51  O8  UNL     1       8.780  27.819   4.597  1.00  0.00    -0.393 OA
ATOM     52  H8  UNL     1       9.023  28.705   4.840  1.00  0.00     0.210 HD
ENDBRANCH  50  51
ENDBRANCH  40  42
ENDBRANCH  29  38
ENDBRANCH   1  29
TORSDOF 18
ENDMDL
