MODEL 7
REMARK VINA RESULT: -7.287308767      1.203      1.417
REMARK  3 active torsions:
REMARK  status: ('A' for Active; 'I' for Inactive)
REMARK    1  A    between atoms: C1_2  and  C2_4 
REMARK    2  A    between atoms: C4_6  and  C5_7 
REMARK    3  A    between atoms: C8_12  and  O5_13 
ROOT
HETATM    1  C2  UNL     1      28.888  32.763  23.736  1.00  0.00     0.224 C 
HETATM    2  C3  UNL     1      28.161  31.562  24.178  1.00  0.00     0.067 C 
HETATM    3  C4  UNL     1      26.745  31.766  24.619  1.00  0.00     0.071 C 
HETATM    4  C6  UNL     1      25.767  31.098  23.707  1.00  0.00    -0.007 C 
HETATM    5  C7  UNL     1      25.404  31.765  22.617  1.00  0.00     0.004 C 
HETATM    6  C8  UNL     1      26.385  32.744  22.071  1.00  0.00     0.169 C 
HETATM    7  C9  UNL     1      26.833  33.671  23.149  1.00  0.00     0.156 C 
HETATM    8  C10 UNL     1      26.395  33.259  24.538  1.00  0.00     0.059 C 
HETATM    9  O6  UNL     1      28.195  33.763  23.151  1.00  0.00    -0.367 OA
ENDROOT
BRANCH   1  10
HETATM   10  C1  UNL     1      29.996  32.359  22.810  1.00  0.00     0.203 C 
HETATM   11  O1  UNL     1      30.627  33.208  22.128  1.00  0.00    -0.646 OA
HETATM   12  O2  UNL     1      30.377  31.029  22.664  1.00  0.00    -0.646 OA
ENDBRANCH   1  10
BRANCH   3  13
HETATM   13  C5  UNL     1      26.497  31.277  25.988  1.00  0.00     0.186 C 
HETATM   14  O3  UNL     1      25.709  31.866  26.750  1.00  0.00    -0.647 OA
HETATM   15  O4  UNL     1      27.151  30.148  26.424  1.00  0.00    -0.647 OA
ENDBRANCH   3  13
BRANCH   6  16
HETATM   16  O5  UNL     1      25.859  33.458  20.997  1.00  0.00    -0.389 OA
ATOM     17  H5  UNL     1      26.523  33.659  20.350  1.00  0.00     0.210 HD
ENDBRANCH   6  16
TORSDOF 3
ENDMDL
