MODEL 17
REMARK VINA RESULT: -6.349689353      1.462      1.794
REMARK  3 active torsions:
REMARK  status: ('A' for Active; 'I' for Inactive)
REMARK    1  A    between atoms: C1_2  and  C2_4 
REMARK    2  A    between atoms: C4_6  and  C5_7 
REMARK    3  A    between atoms: C8_12  and  O5_13 
ROOT
HETATM    1  C2  UNL     1      27.563  33.269  24.780  1.00  0.00     0.224 C 
HETATM    2  C3  UNL     1      27.664  31.837  24.453  1.00  0.00     0.067 C 
HETATM    3  C4  UNL     1      26.373  31.086  24.346  1.00  0.00     0.071 C 
HETATM    4  C6  UNL     1      26.110  30.610  22.953  1.00  0.00    -0.007 C 
HETATM    5  C7  UNL     1      25.547  31.474  22.115  1.00  0.00     0.004 C 
HETATM    6  C8  UNL     1      25.791  32.920  22.377  1.00  0.00     0.169 C 
HETATM    7  C9  UNL     1      25.461  33.246  23.793  1.00  0.00     0.156 C 
HETATM    8  C10 UNL     1      25.205  32.032  24.661  1.00  0.00     0.059 C 
HETATM    9  O6  UNL     1      26.479  33.956  24.360  1.00  0.00    -0.367 OA
ENDROOT
BRANCH   1  10
HETATM   10  C1  UNL     1      28.787  33.979  24.284  1.00  0.00     0.203 C 
HETATM   11  O1  UNL     1      29.271  34.965  24.900  1.00  0.00    -0.646 OA
HETATM   12  O2  UNL     1      29.442  33.580  23.124  1.00  0.00    -0.646 OA
ENDBRANCH   1  10
BRANCH   3  13
HETATM   13  C5  UNL     1      26.316  29.918  25.243  1.00  0.00     0.186 C 
HETATM   14  O3  UNL     1      25.622  28.924  24.964  1.00  0.00    -0.647 OA
HETATM   15  O4  UNL     1      27.047  29.933  26.409  1.00  0.00    -0.647 OA
ENDBRANCH   3  13
BRANCH   6  16
HETATM   16  O5  UNL     1      25.069  33.731  21.505  1.00  0.00    -0.389 OA
ATOM     17  H5  UNL     1      25.502  33.818  20.665  1.00  0.00     0.210 HD
ENDBRANCH   6  16
TORSDOF 3
ENDMDL
