MODEL 1
REMARK VINA RESULT: -7.848441872      0.000      0.000
REMARK  3 active torsions:
REMARK  status: ('A' for Active; 'I' for Inactive)
REMARK    1  A    between atoms: C1_2  and  C2_4 
REMARK    2  A    between atoms: C4_6  and  C5_7 
REMARK    3  A    between atoms: C8_12  and  O5_13 
ROOT
HETATM    1  C2  UNL     1      28.353  33.588  23.392  1.00  0.00     0.224 C 
HETATM    2  C3  UNL     1      28.250  32.150  23.690  1.00  0.00     0.067 C 
HETATM    3  C4  UNL     1      27.124  31.734  24.586  1.00  0.00     0.071 C 
HETATM    4  C6  UNL     1      26.119  30.887  23.874  1.00  0.00    -0.007 C 
HETATM    5  C7  UNL     1      25.181  31.519  23.177  1.00  0.00     0.004 C 
HETATM    6  C8  UNL     1      25.531  32.866  22.647  1.00  0.00     0.169 C 
HETATM    7  C9  UNL     1      26.061  33.725  23.743  1.00  0.00     0.156 C 
HETATM    8  C10 UNL     1      26.341  32.977  25.031  1.00  0.00     0.059 C 
HETATM    9  O6  UNL     1      27.222  34.324  23.349  1.00  0.00    -0.367 OA
ENDROOT
BRANCH   1  10
HETATM   10  C1  UNL     1      29.082  33.775  22.095  1.00  0.00     0.203 C 
HETATM   11  O1  UNL     1      28.508  34.248  21.080  1.00  0.00    -0.646 OA
HETATM   12  O2  UNL     1      30.423  33.435  21.957  1.00  0.00    -0.646 OA
ENDBRANCH   1  10
BRANCH   3  13
HETATM   13  C5  UNL     1      27.585  30.992  25.773  1.00  0.00     0.186 C 
HETATM   14  O3  UNL     1      26.934  31.006  26.834  1.00  0.00    -0.647 OA
HETATM   15  O4  UNL     1      28.755  30.273  25.702  1.00  0.00    -0.647 OA
ENDBRANCH   3  13
BRANCH   6  16
HETATM   16  O5  UNL     1      24.443  33.476  22.028  1.00  0.00    -0.389 OA
ATOM     17  H5  UNL     1      24.440  33.322  21.091  1.00  0.00     0.210 HD
ENDBRANCH   6  16
TORSDOF 3
ENDMDL
