MODEL 1
REMARK VINA RESULT: -7.731335616      0.000      0.000
REMARK  3 active torsions:
REMARK  status: ('A' for Active; 'I' for Inactive)
REMARK    1  A    between atoms: C1_2  and  C2_4 
REMARK       I    between atoms: C2_4  and  N1_6 
REMARK    2  A    between atoms: N1_6  and  C3_8 
REMARK    3  A    between atoms: C8_14  and  C9_15 
ROOT
HETATM    1  C3  UNL     1      10.354  45.798  19.590  1.00  0.00     0.052 A 
HETATM    2  C4  UNL     1      11.670  45.793  19.936  1.00  0.00     0.032 A 
HETATM    3  C5  UNL     1      12.684  45.142  19.232  1.00  0.00     0.020 A 
HETATM    4  C6  UNL     1      12.367  44.447  18.103  1.00  0.00     0.007 A 
HETATM    5  I1  UNL     1      13.855  43.433  16.980  1.00  0.00    -0.045 I 
HETATM    6  C7  UNL     1      11.051  44.423  17.713  1.00  0.00     0.039 A 
HETATM    7  C8  UNL     1      10.034  45.080  18.426  1.00  0.00     0.068 A 
ENDROOT
BRANCH   1   8
HETATM    8  N1  UNL     1       9.334  46.443  20.285  1.00  0.00    -0.317 N 
HETATM    9  C2  UNL     1       9.374  46.881  21.628  1.00  0.00     0.322 C 
HETATM   10  O3  UNL     1      10.398  46.690  22.288  1.00  0.00    -0.261 OA
ATOM     11  H1  UNL     1       8.470  46.619  19.771  1.00  0.00     0.169 HD
BRANCH   9  12
HETATM   12  C1  UNL     1       8.196  47.555  22.219  1.00  0.00     0.270 C 
HETATM   13  O1  UNL     1       7.113  46.949  22.257  1.00  0.00    -0.640 OA
HETATM   14  O2  UNL     1       8.286  48.829  22.722  1.00  0.00    -0.640 OA
ENDBRANCH   9  12
ENDBRANCH   1   8
BRANCH   7  15
HETATM   15  C9  UNL     1       8.711  44.950  17.875  1.00  0.00     0.211 C 
HETATM   16  O4  UNL     1       7.736  44.786  18.697  1.00  0.00    -0.644 OA
HETATM   17  O5  UNL     1       8.302  44.971  16.564  1.00  0.00    -0.644 OA
ENDBRANCH   7  15
TORSDOF 3
ENDMDL
