MODEL 2
REMARK VINA RESULT: -7.059793127      0.910      1.224
REMARK  3 active torsions:
REMARK  status: ('A' for Active; 'I' for Inactive)
REMARK    1  A    between atoms: C1_2  and  C2_4 
REMARK       I    between atoms: C2_4  and  N1_6 
REMARK    2  A    between atoms: N1_6  and  C3_8 
REMARK    3  A    between atoms: C8_14  and  C9_15 
ROOT
HETATM    1  C3  UNL     1      10.546  45.172  19.047  1.00  0.00     0.052 A 
HETATM    2  C4  UNL     1      11.863  44.971  19.322  1.00  0.00     0.032 A 
HETATM    3  C5  UNL     1      12.812  44.502  18.412  1.00  0.00     0.020 A 
HETATM    4  C6  UNL     1      12.423  44.213  17.138  1.00  0.00     0.007 A 
HETATM    5  I1  UNL     1      13.809  43.497  15.699  1.00  0.00    -0.045 I 
HETATM    6  C7  UNL     1      11.103  44.401  16.812  1.00  0.00     0.039 A 
HETATM    7  C8  UNL     1      10.151  44.874  17.732  1.00  0.00     0.068 A 
ENDROOT
BRANCH   1   8
HETATM    8  N1  UNL     1       9.591  45.640  19.946  1.00  0.00    -0.317 N 
HETATM    9  C2  UNL     1       9.765  46.660  20.908  1.00  0.00     0.322 C 
HETATM   10  O3  UNL     1      10.862  47.219  20.993  1.00  0.00    -0.261 OA
ATOM     11  H1  UNL     1       8.670  45.201  19.906  1.00  0.00     0.169 HD
BRANCH   9  12
HETATM   12  C1  UNL     1       8.641  47.040  21.793  1.00  0.00     0.270 C 
HETATM   13  O1  UNL     1       7.627  46.326  21.815  1.00  0.00    -0.640 OA
HETATM   14  O2  UNL     1       8.708  48.161  22.582  1.00  0.00    -0.640 OA
ENDBRANCH   9  12
ENDBRANCH   1   8
BRANCH   7  15
HETATM   15  C9  UNL     1       8.813  45.011  17.221  1.00  0.00     0.211 C 
HETATM   16  O4  UNL     1       8.670  45.122  15.948  1.00  0.00    -0.644 OA
HETATM   17  O5  UNL     1       7.617  45.046  17.894  1.00  0.00    -0.644 OA
ENDBRANCH   7  15
TORSDOF 3
ENDMDL
