MODEL 8
REMARK VINA RESULT: -5.398514555      4.969      6.702
REMARK  3 active torsions:
REMARK  status: ('A' for Active; 'I' for Inactive)
REMARK    1  A    between atoms: C1_2  and  C2_4 
REMARK       I    between atoms: C2_4  and  N1_6 
REMARK    2  A    between atoms: N1_6  and  C3_8 
REMARK    3  A    between atoms: C8_14  and  C9_15 
ROOT
HETATM    1  C3  UNL     1      13.468  44.576  18.032  1.00  0.00     0.052 A 
HETATM    2  C4  UNL     1      13.114  45.224  19.174  1.00  0.00     0.032 A 
HETATM    3  C5  UNL     1      11.803  45.465  19.589  1.00  0.00     0.020 A 
HETATM    4  C6  UNL     1      10.771  45.031  18.812  1.00  0.00     0.007 A 
HETATM    5  I1  UNL     1       8.753  45.360  19.378  1.00  0.00    -0.045 I 
HETATM    6  C7  UNL     1      11.078  44.370  17.648  1.00  0.00     0.039 A 
HETATM    7  C8  UNL     1      12.401  44.130  17.236  1.00  0.00     0.068 A 
ENDROOT
BRANCH   1   8
HETATM    8  N1  UNL     1      14.772  44.330  17.608  1.00  0.00    -0.317 N 
HETATM    9  C2  UNL     1      15.635  45.242  16.961  1.00  0.00     0.322 C 
HETATM   10  O3  UNL     1      15.231  46.384  16.728  1.00  0.00    -0.261 OA
ATOM     11  H1  UNL     1      15.141  43.395  17.783  1.00  0.00     0.169 HD
BRANCH   9  12
HETATM   12  C1  UNL     1      17.000  44.818  16.573  1.00  0.00     0.270 C 
HETATM   13  O1  UNL     1      17.226  44.534  15.387  1.00  0.00    -0.640 OA
HETATM   14  O2  UNL     1      18.008  44.738  17.502  1.00  0.00    -0.640 OA
ENDBRANCH   9  12
ENDBRANCH   1   8
BRANCH   7  15
HETATM   15  C9  UNL     1      12.539  43.424  15.989  1.00  0.00     0.211 C 
HETATM   16  O4  UNL     1      11.694  43.689  15.057  1.00  0.00    -0.644 OA
HETATM   17  O5  UNL     1      13.460  42.476  15.617  1.00  0.00    -0.644 OA
ENDBRANCH   7  15
TORSDOF 3
ENDMDL
