MODEL 6
REMARK VINA RESULT: -5.599012928      4.832      7.195
REMARK  3 active torsions:
REMARK  status: ('A' for Active; 'I' for Inactive)
REMARK    1  A    between atoms: C1_2  and  C2_4 
REMARK       I    between atoms: C2_4  and  N1_6 
REMARK    2  A    between atoms: N1_6  and  C3_8 
REMARK    3  A    between atoms: C8_14  and  C9_15 
ROOT
HETATM    1  C3  UNL     1      12.582  44.016  17.913  1.00  0.00     0.052 A 
HETATM    2  C4  UNL     1      11.234  44.006  18.096  1.00  0.00     0.032 A 
HETATM    3  C5  UNL     1      10.534  44.846  18.963  1.00  0.00     0.020 A 
HETATM    4  C6  UNL     1      11.224  45.761  19.702  1.00  0.00     0.007 A 
HETATM    5  I1  UNL     1      10.228  47.071  21.041  1.00  0.00    -0.045 I 
HETATM    6  C7  UNL     1      12.588  45.809  19.552  1.00  0.00     0.039 A 
HETATM    7  C8  UNL     1      13.288  44.960  18.677  1.00  0.00     0.068 A 
ENDROOT
BRANCH   1   8
HETATM    8  N1  UNL     1      13.291  43.183  17.051  1.00  0.00    -0.317 N 
HETATM    9  C2  UNL     1      13.338  43.272  15.641  1.00  0.00     0.322 C 
HETATM   10  O3  UNL     1      12.698  44.164  15.078  1.00  0.00    -0.261 OA
ATOM     11  H1  UNL     1      13.833  42.433  17.481  1.00  0.00     0.169 HD
BRANCH   9  12
HETATM   12  C1  UNL     1      14.144  42.302  14.867  1.00  0.00     0.270 C 
HETATM   13  O1  UNL     1      14.496  42.598  13.714  1.00  0.00    -0.640 OA
HETATM   14  O2  UNL     1      14.504  41.090  15.404  1.00  0.00    -0.640 OA
ENDBRANCH   9  12
ENDBRANCH   1   8
BRANCH   7  15
HETATM   15  C9  UNL     1      14.714  45.147  18.646  1.00  0.00     0.211 C 
HETATM   16  O4  UNL     1      15.243  45.523  17.536  1.00  0.00    -0.644 OA
HETATM   17  O5  UNL     1      15.642  44.983  19.645  1.00  0.00    -0.644 OA
ENDBRANCH   7  15
TORSDOF 3
ENDMDL
