MODEL 7
REMARK VINA RESULT: -5.448798949      5.111      7.328
REMARK  3 active torsions:
REMARK  status: ('A' for Active; 'I' for Inactive)
REMARK    1  A    between atoms: C1_2  and  C2_4 
REMARK       I    between atoms: C2_4  and  N1_6 
REMARK    2  A    between atoms: N1_6  and  C3_8 
REMARK    3  A    between atoms: C8_14  and  C9_15 
ROOT
HETATM    1  C3  UNL     1      12.631  44.150  17.263  1.00  0.00     0.052 A 
HETATM    2  C4  UNL     1      11.304  44.095  17.559  1.00  0.00     0.032 A 
HETATM    3  C5  UNL     1      10.685  44.774  18.609  1.00  0.00     0.020 A 
HETATM    4  C6  UNL     1      11.440  45.565  19.423  1.00  0.00     0.007 A 
HETATM    5  I1  UNL     1      10.570  46.629  21.040  1.00  0.00    -0.045 I 
HETATM    6  C7  UNL     1      12.786  45.653  19.164  1.00  0.00     0.039 A 
HETATM    7  C8  UNL     1      13.404  44.967  18.105  1.00  0.00     0.068 A 
ENDROOT
BRANCH   1   8
HETATM    8  N1  UNL     1      13.259  43.477  16.218  1.00  0.00    -0.317 N 
HETATM    9  C2  UNL     1      13.998  42.275  16.311  1.00  0.00     0.322 C 
HETATM   10  O3  UNL     1      14.124  41.736  17.414  1.00  0.00    -0.261 OA
ATOM     11  H1  UNL     1      13.177  43.893  15.290  1.00  0.00     0.169 HD
BRANCH   9  12
HETATM   12  C1  UNL     1      14.607  41.687  15.097  1.00  0.00     0.270 C 
HETATM   13  O1  UNL     1      14.991  42.443  14.191  1.00  0.00    -0.640 OA
HETATM   14  O2  UNL     1      14.749  40.328  14.962  1.00  0.00    -0.640 OA
ENDBRANCH   9  12
ENDBRANCH   1   8
BRANCH   7  15
HETATM   15  C9  UNL     1      14.822  45.173  17.980  1.00  0.00     0.211 C 
HETATM   16  O4  UNL     1      15.519  45.199  19.060  1.00  0.00    -0.644 OA
HETATM   17  O5  UNL     1      15.585  45.357  16.853  1.00  0.00    -0.644 OA
ENDBRANCH   7  15
TORSDOF 3
ENDMDL
