MODEL 7
REMARK VINA RESULT: -8.595104018      2.272      2.759
REMARK  3 active torsions:
REMARK  status: ('A' for Active; 'I' for Inactive)
REMARK    1  A    between atoms: O1_2  and  C2_3 
REMARK    2  A    between atoms: C6_7  and  C7_8 
REMARK    3  A    between atoms: C9_12  and  C10_13 
ROOT
HETATM    1  C7  UNL     1      39.117  23.130  20.384  1.00  0.00     0.116 A 
HETATM    2  N1  UNL     1      40.405  23.496  20.630  1.00  0.00    -0.339 N 
ATOM      3  H1  UNL     1      40.961  24.129  20.057  1.00  0.00     0.167 HD
HETATM    4  C8  UNL     1      40.822  22.886  21.753  1.00  0.00     0.076 A 
HETATM    5  C9  UNL     1      41.997  22.881  22.462  1.00  0.00     0.058 A 
HETATM    6  C11 UNL     1      42.122  22.132  23.611  1.00  0.00     0.019 A 
HETATM    7  C12 UNL     1      41.047  21.362  24.070  1.00  0.00     0.003 A 
HETATM    8  C13 UNL     1      39.860  21.361  23.362  1.00  0.00     0.032 A 
HETATM    9  C14 UNL     1      39.778  22.120  22.227  1.00  0.00     0.061 A 
HETATM   10  N3  UNL     1      38.750  22.284  21.376  1.00  0.00    -0.340 N 
ATOM     11  H3  UNL     1      37.836  21.841  21.465  1.00  0.00     0.167 HD
ENDROOT
BRANCH   1  12
HETATM   12  C6  UNL     1      38.266  23.543  19.286  1.00  0.00     0.011 A 
HETATM   13  C5  UNL     1      37.054  24.140  19.515  1.00  0.00     0.015 A 
HETATM   14  C4  UNL     1      36.221  24.544  18.464  1.00  0.00     0.004 A 
HETATM   15  C3  UNL     1      36.664  24.317  17.154  1.00  0.00     0.037 A 
HETATM   16  C2  UNL     1      37.878  23.718  16.909  1.00  0.00     0.069 A 
HETATM   17  C15 UNL     1      38.680  23.330  17.988  1.00  0.00     0.052 A 
BRANCH  16  18
HETATM   18  O1  UNL     1      38.280  23.512  15.605  1.00  0.00    -0.356 OA
HETATM   19  C1  UNL     1      37.862  24.320  14.550  1.00  0.00     0.210 C 
ENDBRANCH  16  18
ENDBRANCH   1  12
BRANCH   5  20
HETATM   20  C10 UNL     1      43.141  23.665  22.023  1.00  0.00     0.267 C 
HETATM   21  N2  UNL     1      43.291  24.097  20.695  1.00  0.00    -0.057 NA
HETATM   22  O2  UNL     1      44.053  23.986  22.845  1.00  0.00    -0.271 OA
ENDBRANCH   5  20
TORSDOF 3
ENDMDL
