MODEL 4
REMARK VINA RESULT: -8.743959842      2.710      3.552
REMARK  3 active torsions:
REMARK  status: ('A' for Active; 'I' for Inactive)
REMARK    1  A    between atoms: O1_2  and  C2_3 
REMARK    2  A    between atoms: C6_7  and  C7_8 
REMARK    3  A    between atoms: C9_12  and  C10_13 
ROOT
HETATM    1  C7  UNL     1      39.031  22.643  20.949  1.00  0.00     0.116 A 
HETATM    2  N1  UNL     1      40.295  23.148  20.894  1.00  0.00    -0.339 N 
ATOM      3  H1  UNL     1      40.657  23.761  20.164  1.00  0.00     0.167 HD
HETATM    4  C8  UNL     1      40.986  22.705  21.958  1.00  0.00     0.076 A 
HETATM    5  C9  UNL     1      42.269  22.883  22.410  1.00  0.00     0.058 A 
HETATM    6  C11 UNL     1      42.696  22.279  23.571  1.00  0.00     0.019 A 
HETATM    7  C12 UNL     1      41.822  21.471  24.307  1.00  0.00     0.003 A 
HETATM    8  C13 UNL     1      40.528  21.286  23.859  1.00  0.00     0.032 A 
HETATM    9  C14 UNL     1      40.144  21.905  22.701  1.00  0.00     0.061 A 
HETATM   10  N3  UNL     1      38.959  21.882  22.067  1.00  0.00    -0.340 N 
ATOM     11  H3  UNL     1      38.134  21.371  22.379  1.00  0.00     0.167 HD
ENDROOT
BRANCH   1  12
HETATM   12  C6  UNL     1      37.944  22.855  20.015  1.00  0.00     0.011 A 
HETATM   13  C5  UNL     1      36.688  23.185  20.453  1.00  0.00     0.015 A 
HETATM   14  C4  UNL     1      35.628  23.392  19.562  1.00  0.00     0.004 A 
HETATM   15  C3  UNL     1      35.887  23.250  18.193  1.00  0.00     0.037 A 
HETATM   16  C2  UNL     1      37.142  22.919  17.738  1.00  0.00     0.069 A 
HETATM   17  C15 UNL     1      38.174  22.721  18.662  1.00  0.00     0.052 A 
BRANCH  16  18
HETATM   18  O1  UNL     1      37.358  22.788  16.382  1.00  0.00    -0.356 OA
HETATM   19  C1  UNL     1      38.555  22.311  15.852  1.00  0.00     0.210 C 
ENDBRANCH  16  18
ENDBRANCH   1  12
BRANCH   5  20
HETATM   20  C10 UNL     1      43.213  23.713  21.678  1.00  0.00     0.267 C 
HETATM   21  N2  UNL     1      43.012  24.077  20.337  1.00  0.00    -0.057 NA
HETATM   22  O2  UNL     1      44.266  24.140  22.244  1.00  0.00    -0.271 OA
ENDBRANCH   5  20
TORSDOF 3
ENDMDL
