MODEL 3
REMARK VINA RESULT: -8.874389378      3.753      6.239
REMARK  3 active torsions:
REMARK  status: ('A' for Active; 'I' for Inactive)
REMARK    1  A    between atoms: O1_2  and  C2_3 
REMARK    2  A    between atoms: C6_7  and  C7_8 
REMARK    3  A    between atoms: C9_12  and  C10_13 
ROOT
HETATM    1  C7  UNL     1      39.026  22.859  20.881  1.00  0.00     0.116 A 
HETATM    2  N1  UNL     1      38.351  21.787  21.381  1.00  0.00    -0.339 N 
ATOM      3  H1  UNL     1      38.774  20.984  21.845  1.00  0.00     0.167 HD
HETATM    4  C8  UNL     1      37.036  21.962  21.164  1.00  0.00     0.076 A 
HETATM    5  C9  UNL     1      35.912  21.227  21.444  1.00  0.00     0.058 A 
HETATM    6  C11 UNL     1      34.664  21.686  21.084  1.00  0.00     0.019 A 
HETATM    7  C12 UNL     1      34.529  22.913  20.424  1.00  0.00     0.003 A 
HETATM    8  C13 UNL     1      35.656  23.659  20.138  1.00  0.00     0.032 A 
HETATM    9  C14 UNL     1      36.876  23.168  20.514  1.00  0.00     0.061 A 
HETATM   10  N3  UNL     1      38.101  23.695  20.352  1.00  0.00    -0.340 N 
ATOM     11  H3  UNL     1      38.303  24.587  19.901  1.00  0.00     0.167 HD
ENDROOT
BRANCH   1  12
HETATM   12  C6  UNL     1      40.455  23.098  20.892  1.00  0.00     0.011 A 
HETATM   13  C5  UNL     1      41.087  23.663  19.815  1.00  0.00     0.015 A 
HETATM   14  C4  UNL     1      42.468  23.899  19.812  1.00  0.00     0.004 A 
HETATM   15  C3  UNL     1      43.196  23.538  20.953  1.00  0.00     0.037 A 
HETATM   16  C2  UNL     1      42.575  22.971  22.042  1.00  0.00     0.069 A 
HETATM   17  C15 UNL     1      41.193  22.751  22.004  1.00  0.00     0.052 A 
BRANCH  16  18
HETATM   18  O1  UNL     1      43.326  22.629  23.147  1.00  0.00    -0.356 OA
HETATM   19  C1  UNL     1      42.955  21.613  24.026  1.00  0.00     0.210 C 
ENDBRANCH  16  18
ENDBRANCH   1  12
BRANCH   5  20
HETATM   20  C10 UNL     1      36.004  19.946  22.127  1.00  0.00     0.267 C 
HETATM   21  N2  UNL     1      37.160  19.543  22.815  1.00  0.00    -0.057 NA
HETATM   22  O2  UNL     1      35.022  19.142  22.118  1.00  0.00    -0.271 OA
ENDBRANCH   5  20
TORSDOF 3
ENDMDL
