MODEL 12
REMARK VINA RESULT: -8.386113906      1.974      6.919
REMARK  3 active torsions:
REMARK  status: ('A' for Active; 'I' for Inactive)
REMARK    1  A    between atoms: O1_2  and  C2_3 
REMARK    2  A    between atoms: C6_7  and  C7_8 
REMARK    3  A    between atoms: C9_12  and  C10_13 
ROOT
HETATM    1  C7  UNL     1      40.923  24.330  18.415  1.00  0.00     0.116 A 
HETATM    2  N1  UNL     1      41.345  23.892  17.197  1.00  0.00    -0.339 N 
ATOM      3  H1  UNL     1      41.982  23.113  17.035  1.00  0.00     0.167 HD
HETATM    4  C8  UNL     1      40.784  24.656  16.243  1.00  0.00     0.076 A 
HETATM    5  C9  UNL     1      40.845  24.677  14.872  1.00  0.00     0.058 A 
HETATM    6  C11 UNL     1      40.134  25.610  14.151  1.00  0.00     0.019 A 
HETATM    7  C12 UNL     1      39.338  26.552  14.812  1.00  0.00     0.003 A 
HETATM    8  C13 UNL     1      39.270  26.538  16.192  1.00  0.00     0.032 A 
HETATM    9  C14 UNL     1      39.991  25.595  16.870  1.00  0.00     0.061 A 
HETATM   10  N3  UNL     1      40.092  25.376  18.192  1.00  0.00    -0.340 N 
ATOM     11  H3  UNL     1      39.616  25.915  18.915  1.00  0.00     0.167 HD
ENDROOT
BRANCH   1  12
HETATM   12  C6  UNL     1      41.269  23.806  19.721  1.00  0.00     0.011 A 
HETATM   13  C5  UNL     1      42.534  23.946  20.228  1.00  0.00     0.015 A 
HETATM   14  C4  UNL     1      42.883  23.444  21.488  1.00  0.00     0.004 A 
HETATM   15  C3  UNL     1      41.891  22.785  22.227  1.00  0.00     0.037 A 
HETATM   16  C2  UNL     1      40.617  22.636  21.731  1.00  0.00     0.069 A 
HETATM   17  C15 UNL     1      40.310  23.153  20.467  1.00  0.00     0.052 A 
BRANCH  16  18
HETATM   18  O1  UNL     1      39.668  21.981  22.488  1.00  0.00    -0.356 OA
HETATM   19  C1  UNL     1      39.999  21.133  23.543  1.00  0.00     0.210 C 
ENDBRANCH  16  18
ENDBRANCH   1  12
BRANCH   5  20
HETATM   20  C10 UNL     1      41.660  23.718  14.143  1.00  0.00     0.267 C 
HETATM   21  N2  UNL     1      41.528  22.331  14.319  1.00  0.00    -0.057 NA
HETATM   22  O2  UNL     1      42.532  24.118  13.312  1.00  0.00    -0.271 OA
ENDBRANCH   5  20
TORSDOF 3
ENDMDL
