MODEL 8
REMARK VINA RESULT: -8.547783228      3.752      6.395
REMARK  3 active torsions:
REMARK  status: ('A' for Active; 'I' for Inactive)
REMARK    1  A    between atoms: O1_2  and  C2_3 
REMARK    2  A    between atoms: C6_7  and  C7_8 
REMARK    3  A    between atoms: C9_12  and  C10_13 
ROOT
HETATM    1  C7  UNL     1      39.330  23.207  20.806  1.00  0.00     0.116 A 
HETATM    2  N1  UNL     1      38.561  24.122  20.155  1.00  0.00    -0.339 N 
ATOM      3  H1  UNL     1      38.903  24.971  19.705  1.00  0.00     0.167 HD
HETATM    4  C8  UNL     1      37.278  23.724  20.201  1.00  0.00     0.076 A 
HETATM    5  C9  UNL     1      36.097  24.236  19.727  1.00  0.00     0.058 A 
HETATM    6  C11 UNL     1      34.908  23.575  19.940  1.00  0.00     0.019 A 
HETATM    7  C12 UNL     1      34.891  22.368  20.648  1.00  0.00     0.003 A 
HETATM    8  C13 UNL     1      36.076  21.845  21.130  1.00  0.00     0.032 A 
HETATM    9  C14 UNL     1      37.234  22.532  20.895  1.00  0.00     0.061 A 
HETATM   10  N3  UNL     1      38.496  22.238  21.253  1.00  0.00    -0.340 N 
ATOM     11  H3  UNL     1      38.781  21.413  21.780  1.00  0.00     0.167 HD
ENDROOT
BRANCH   1  12
HETATM   12  C6  UNL     1      40.765  23.225  21.004  1.00  0.00     0.011 A 
HETATM   13  C5  UNL     1      41.603  23.768  20.065  1.00  0.00     0.015 A 
HETATM   14  C4  UNL     1      42.992  23.792  20.243  1.00  0.00     0.004 A 
HETATM   15  C3  UNL     1      43.510  23.239  21.421  1.00  0.00     0.037 A 
HETATM   16  C2  UNL     1      42.682  22.690  22.373  1.00  0.00     0.069 A 
HETATM   17  C15 UNL     1      41.299  22.686  22.156  1.00  0.00     0.052 A 
BRANCH  16  18
HETATM   18  O1  UNL     1      43.230  22.155  23.520  1.00  0.00    -0.356 OA
HETATM   19  C1  UNL     1      42.457  21.579  24.526  1.00  0.00     0.210 C 
ENDBRANCH  16  18
ENDBRANCH   1  12
BRANCH   5  20
HETATM   20  C10 UNL     1      36.066  25.488  18.987  1.00  0.00     0.267 C 
HETATM   21  N2  UNL     1      36.293  25.549  17.602  1.00  0.00    -0.057 NA
HETATM   22  O2  UNL     1      35.828  26.581  19.585  1.00  0.00    -0.271 OA
ENDBRANCH   5  20
TORSDOF 3
ENDMDL
