MODEL 1
REMARK VINA RESULT: -6.615303953      0.000      0.000
REMARK  3 active torsions:
REMARK  status: ('A' for Active; 'I' for Inactive)
REMARK    1  A    between atoms: C1_2  and  C2_4 
REMARK    2  A    between atoms: C2_4  and  O3_5 
REMARK    3  A    between atoms: O3_5  and  P1_6 
ROOT
HETATM    1  O3  UNL     1      85.769 -13.321  66.202  1.00  0.00    -0.272 OA
ENDROOT
BRANCH   1   2
HETATM    2  C2  UNL     1      85.609 -14.638  66.497  1.00  0.00     0.295 C 
BRANCH   2   3
HETATM    3  C1  UNL     1      85.771 -15.402  65.231  1.00  0.00     0.198 C 
HETATM    4  O1  UNL     1      86.861 -15.972  64.917  1.00  0.00    -0.646 OA
HETATM    5  O2  UNL     1      84.738 -15.536  64.317  1.00  0.00    -0.646 OA
ENDBRANCH   2   3
ENDBRANCH   1   2
BRANCH   1   6
HETATM    6  P1  UNL     1      84.304 -12.562  66.439  1.00  0.00     0.422 P 
HETATM    7  O4  UNL     1      85.001 -11.212  66.510  1.00  0.00    -0.617 OA
HETATM    8  O5  UNL     1      83.348 -12.151  65.197  1.00  0.00    -0.617 OA
HETATM    9  O6  UNL     1      83.715 -12.402  67.992  1.00  0.00    -0.617 OA
ENDBRANCH   1   6
TORSDOF 3
ENDMDL
