MODEL 2
REMARK VINA RESULT: -6.594222381      0.119      1.062
REMARK  3 active torsions:
REMARK  status: ('A' for Active; 'I' for Inactive)
REMARK    1  A    between atoms: C1_2  and  C2_4 
REMARK    2  A    between atoms: C2_4  and  O3_5 
REMARK    3  A    between atoms: O3_5  and  P1_6 
ROOT
HETATM    1  O3  UNL     1      85.787 -13.287  66.108  1.00  0.00    -0.272 OA
ENDROOT
BRANCH   1   2
HETATM    2  C2  UNL     1      85.694 -14.591  66.478  1.00  0.00     0.295 C 
BRANCH   2   3
HETATM    3  C1  UNL     1      85.814 -15.415  65.245  1.00  0.00     0.198 C 
HETATM    4  O1  UNL     1      84.896 -15.463  64.369  1.00  0.00    -0.646 OA
HETATM    5  O2  UNL     1      86.939 -16.181  64.980  1.00  0.00    -0.646 OA
ENDBRANCH   2   3
ENDBRANCH   1   2
BRANCH   1   6
HETATM    6  P1  UNL     1      84.320 -12.560  66.423  1.00  0.00     0.422 P 
HETATM    7  O4  UNL     1      85.004 -11.207  66.548  1.00  0.00    -0.617 OA
HETATM    8  O5  UNL     1      83.327 -12.096  65.231  1.00  0.00    -0.617 OA
HETATM    9  O6  UNL     1      83.772 -12.489  67.997  1.00  0.00    -0.617 OA
ENDBRANCH   1   6
TORSDOF 3
ENDMDL
