MODEL 11
REMARK VINA RESULT: -5.977876222      0.421      1.485
REMARK  3 active torsions:
REMARK  status: ('A' for Active; 'I' for Inactive)
REMARK    1  A    between atoms: C1_2  and  C2_4 
REMARK    2  A    between atoms: C2_4  and  O3_5 
REMARK    3  A    between atoms: O3_5  and  P1_6 
ROOT
HETATM    1  O3  UNL     1      85.685 -13.305  65.950  1.00  0.00    -0.272 OA
ENDROOT
BRANCH   1   2
HETATM    2  C2  UNL     1      85.335 -14.552  66.360  1.00  0.00     0.295 C 
BRANCH   2   3
HETATM    3  C1  UNL     1      85.539 -15.473  65.210  1.00  0.00     0.198 C 
HETATM    4  O1  UNL     1      86.664 -16.005  64.958  1.00  0.00    -0.646 OA
HETATM    5  O2  UNL     1      84.510 -15.807  64.343  1.00  0.00    -0.646 OA
ENDBRANCH   2   3
ENDBRANCH   1   2
BRANCH   1   6
HETATM    6  P1  UNL     1      84.603 -12.225  66.617  1.00  0.00     0.422 P 
HETATM    7  O4  UNL     1      83.607 -12.518  65.505  1.00  0.00    -0.617 OA
HETATM    8  O5  UNL     1      83.598 -12.657  67.811  1.00  0.00    -0.617 OA
HETATM    9  O6  UNL     1      84.694 -10.615  66.187  1.00  0.00    -0.617 OA
ENDBRANCH   1   6
TORSDOF 3
ENDMDL
