MODEL 14
REMARK VINA RESULT: -5.772224912      1.193      1.984
REMARK  3 active torsions:
REMARK  status: ('A' for Active; 'I' for Inactive)
REMARK    1  A    between atoms: C1_2  and  C2_4 
REMARK    2  A    between atoms: C2_4  and  O3_5 
REMARK    3  A    between atoms: O3_5  and  P1_6 
ROOT
HETATM    1  O3  UNL     1      84.618 -13.479  65.053  1.00  0.00    -0.272 OA
ENDROOT
BRANCH   1   2
HETATM    2  C2  UNL     1      84.337 -14.764  65.395  1.00  0.00     0.295 C 
BRANCH   2   3
HETATM    3  C1  UNL     1      85.633 -15.479  65.546  1.00  0.00     0.198 C 
HETATM    4  O1  UNL     1      86.436 -15.641  64.576  1.00  0.00    -0.646 OA
HETATM    5  O2  UNL     1      86.041 -16.013  66.758  1.00  0.00    -0.646 OA
ENDBRANCH   2   3
ENDBRANCH   1   2
BRANCH   1   6
HETATM    6  P1  UNL     1      84.545 -12.554  66.438  1.00  0.00     0.422 P 
HETATM    7  O4  UNL     1      83.032 -12.466  66.314  1.00  0.00    -0.617 OA
HETATM    8  O5  UNL     1      84.519 -13.227  67.910  1.00  0.00    -0.617 OA
HETATM    9  O6  UNL     1      84.706 -10.897  66.316  1.00  0.00    -0.617 OA
ENDBRANCH   1   6
TORSDOF 3
ENDMDL
