MODEL 3
REMARK VINA RESULT: -8.837016138      1.178      2.052
REMARK  6 active torsions:
REMARK  status: ('A' for Active; 'I' for Inactive)
REMARK    1  A    between atoms: N1_6  and  C4_7 
REMARK    2  A    between atoms: C5_9  and  C6_10 
REMARK    3  A    between atoms: C6_10  and  O4_11 
REMARK    4  A    between atoms: O4_11  and  P1_12 
REMARK    5  A    between atoms: C7_16  and  O8_17 
REMARK    6  A    between atoms: C8_19  and  O9_20 
ROOT
HETATM    1  C4  UNL     1      18.597  23.919 109.354  1.00  0.00     0.267 C 
HETATM    2  O3  UNL     1      17.203  24.067 109.150  1.00  0.00    -0.353 OA
HETATM    3  C5  UNL     1      16.765  23.065 108.348  1.00  0.00     0.180 C 
HETATM    4  C7  UNL     1      17.968  22.313 107.833  1.00  0.00     0.182 C 
HETATM    5  C8  UNL     1      18.936  22.533 109.012  1.00  0.00     0.199 C 
ENDROOT
BRANCH   1   6
HETATM    6  N1  UNL     1      18.943  24.447 110.602  1.00  0.00    -0.239 N 
HETATM    7  C3  UNL     1      18.484  23.814 111.801  1.00  0.00     0.238 C 
HETATM    8  C2  UNL     1      18.455  24.552 113.103  1.00  0.00     0.206 C 
HETATM    9  O2  UNL     1      18.094  22.618 111.784  1.00  0.00    -0.272 OA
HETATM   10  C1  UNL     1      19.613  25.474 113.240  1.00  0.00     0.234 C 
HETATM   11  O1  UNL     1      20.166  25.676 114.375  1.00  0.00    -0.273 OA
HETATM   12  N2  UNL     1      20.079  26.121 112.068  1.00  0.00    -0.278 N 
HETATM   13  C9  UNL     1      19.737  25.598 110.797  1.00  0.00     0.333 C 
ATOM     14  H2  UNL     1      20.657  26.958 112.139  1.00  0.00     0.173 HD
HETATM   15  O10 UNL     1      20.149  26.170 109.763  1.00  0.00    -0.246 OA
ENDBRANCH   1   6
BRANCH   5  16
HETATM   16  O9  UNL     1      20.220  22.343 108.505  1.00  0.00    -0.388 OA
ATOM     17  H9  UNL     1      20.795  21.815 109.047  1.00  0.00     0.210 HD
ENDBRANCH   5  16
BRANCH   3  18
HETATM   18  C6  UNL     1      15.798  22.097 109.046  1.00  0.00     0.217 C 
BRANCH  18  19
HETATM   19  O4  UNL     1      15.097  21.466 108.021  1.00  0.00    -0.280 OA
BRANCH  19  20
HETATM   20  P1  UNL     1      13.440  21.533 108.213  1.00  0.00     0.422 P 
HETATM   21  O5  UNL     1      12.753  20.697 107.132  1.00  0.00    -0.617 OA
HETATM   22  O6  UNL     1      12.818  23.092 108.096  1.00  0.00    -0.617 OA
HETATM   23  O7  UNL     1      13.082  20.886 109.756  1.00  0.00    -0.617 OA
ENDBRANCH  19  20
ENDBRANCH  18  19
ENDBRANCH   3  18
BRANCH   4  24
HETATM   24  O8  UNL     1      18.475  22.876 106.672  1.00  0.00    -0.390 OA
ATOM     25  H8  UNL     1      17.880  22.774 105.938  1.00  0.00     0.210 HD
ENDBRANCH   4  24
TORSDOF 6
ENDMDL
