MODEL 8
REMARK VINA RESULT: -7.108817907      2.782      6.006
REMARK  6 active torsions:
REMARK  status: ('A' for Active; 'I' for Inactive)
REMARK    1  A    between atoms: N1_6  and  C4_7 
REMARK    2  A    between atoms: C5_9  and  C6_10 
REMARK    3  A    between atoms: C6_10  and  O4_11 
REMARK    4  A    between atoms: O4_11  and  P1_12 
REMARK    5  A    between atoms: C7_16  and  O8_17 
REMARK    6  A    between atoms: C8_19  and  O9_20 
ROOT
HETATM    1  C4  UNL     1      17.713  22.049 108.382  1.00  0.00     0.267 C 
HETATM    2  O3  UNL     1      17.936  22.451 109.722  1.00  0.00    -0.353 OA
HETATM    3  C5  UNL     1      19.043  23.232 109.771  1.00  0.00     0.180 C 
HETATM    4  C7  UNL     1      19.708  23.195 108.417  1.00  0.00     0.182 C 
HETATM    5  C8  UNL     1      18.469  22.972 107.527  1.00  0.00     0.199 C 
ENDROOT
BRANCH   1   6
HETATM    6  N1  UNL     1      16.344  21.851 108.176  1.00  0.00    -0.239 N 
HETATM    7  C3  UNL     1      15.407  22.863 108.562  1.00  0.00     0.238 C 
HETATM    8  C2  UNL     1      13.960  22.540 108.764  1.00  0.00     0.206 C 
HETATM    9  O2  UNL     1      15.785  24.050 108.740  1.00  0.00    -0.272 OA
HETATM   10  C1  UNL     1      13.480  21.528 107.787  1.00  0.00     0.234 C 
HETATM   11  O1  UNL     1      12.291  21.575 107.318  1.00  0.00    -0.273 OA
HETATM   12  N2  UNL     1      14.386  20.510 107.398  1.00  0.00    -0.278 N 
HETATM   13  C9  UNL     1      15.775  20.696 107.599  1.00  0.00     0.333 C 
ATOM     14  H2  UNL     1      14.040  19.649 106.974  1.00  0.00     0.173 HD
HETATM   15  O10 UNL     1      16.575  19.797 107.254  1.00  0.00    -0.246 OA
ENDBRANCH   1   6
BRANCH   5  16
HETATM   16  O9  UNL     1      18.938  22.426 106.333  1.00  0.00    -0.388 OA
ATOM     17  H9  UNL     1      19.868  22.537 106.174  1.00  0.00     0.210 HD
ENDBRANCH   5  16
BRANCH   3  18
HETATM   18  C6  UNL     1      18.755  24.685 110.176  1.00  0.00     0.217 C 
BRANCH  18  19
HETATM   19  O4  UNL     1      19.580  24.940 111.268  1.00  0.00    -0.280 OA
BRANCH  19  20
HETATM   20  P1  UNL     1      18.985  24.332 112.705  1.00  0.00     0.422 P 
HETATM   21  O5  UNL     1      19.811  23.123 113.145  1.00  0.00    -0.617 OA
HETATM   22  O6  UNL     1      17.385  23.822 112.601  1.00  0.00    -0.617 OA
HETATM   23  O7  UNL     1      19.116  25.576 113.874  1.00  0.00    -0.617 OA
ENDBRANCH  19  20
ENDBRANCH  18  19
ENDBRANCH   3  18
BRANCH   4  24
HETATM   24  O8  UNL     1      20.591  22.133 108.301  1.00  0.00    -0.390 OA
ATOM     25  H8  UNL     1      20.649  21.813 107.408  1.00  0.00     0.210 HD
ENDBRANCH   4  24
TORSDOF 6
ENDMDL
