MODEL 6
REMARK VINA RESULT: -7.621509596      3.061      6.574
REMARK  6 active torsions:
REMARK  status: ('A' for Active; 'I' for Inactive)
REMARK    1  A    between atoms: N1_6  and  C4_7 
REMARK    2  A    between atoms: C5_9  and  C6_10 
REMARK    3  A    between atoms: C6_10  and  O4_11 
REMARK    4  A    between atoms: O4_11  and  P1_12 
REMARK    5  A    between atoms: C7_16  and  O8_17 
REMARK    6  A    between atoms: C8_19  and  O9_20 
ROOT
HETATM    1  C4  UNL     1      17.712  21.993 108.363  1.00  0.00     0.267 C 
HETATM    2  O3  UNL     1      17.802  22.588 109.646  1.00  0.00    -0.353 OA
HETATM    3  C5  UNL     1      18.900  23.383 109.687  1.00  0.00     0.180 C 
HETATM    4  C7  UNL     1      19.693  23.159 108.424  1.00  0.00     0.182 C 
HETATM    5  C8  UNL     1      18.547  22.792 107.460  1.00  0.00     0.199 C 
ENDROOT
BRANCH   1   6
HETATM    6  N1  UNL     1      16.369  21.748 108.058  1.00  0.00    -0.239 N 
HETATM    7  C3  UNL     1      15.990  20.524 107.420  1.00  0.00     0.238 C 
HETATM    8  C2  UNL     1      14.683  20.399 106.701  1.00  0.00     0.206 C 
HETATM    9  O2  UNL     1      16.752  19.524 107.451  1.00  0.00    -0.272 OA
HETATM   10  C1  UNL     1      13.602  21.153 107.387  1.00  0.00     0.234 C 
HETATM   11  O1  UNL     1      12.401  20.715 107.406  1.00  0.00    -0.273 OA
HETATM   12  N2  UNL     1      13.951  22.373 108.018  1.00  0.00    -0.278 N 
HETATM   13  C9  UNL     1      15.306  22.635 108.333  1.00  0.00     0.333 C 
ATOM     14  H2  UNL     1      13.229  23.058 108.244  1.00  0.00     0.173 HD
HETATM   15  O10 UNL     1      15.613  23.713 108.891  1.00  0.00    -0.246 OA
ENDBRANCH   1   6
BRANCH   5  16
HETATM   16  O9  UNL     1      19.130  22.086 106.409  1.00  0.00    -0.388 OA
ATOM     17  H9  UNL     1      20.072  22.181 106.331  1.00  0.00     0.210 HD
ENDBRANCH   5  16
BRANCH   3  18
HETATM   18  C6  UNL     1      18.573  24.875 109.847  1.00  0.00     0.217 C 
BRANCH  18  19
HETATM   19  O4  UNL     1      19.751  25.551 109.535  1.00  0.00    -0.280 OA
BRANCH  19  20
HETATM   20  P1  UNL     1      20.080  26.820 110.568  1.00  0.00     0.422 P 
HETATM   21  O5  UNL     1      19.166  28.004 110.252  1.00  0.00    -0.617 OA
HETATM   22  O6  UNL     1      21.663  27.379 110.453  1.00  0.00    -0.617 OA
HETATM   23  O7  UNL     1      19.781  26.269 112.160  1.00  0.00    -0.617 OA
ENDBRANCH  19  20
ENDBRANCH  18  19
ENDBRANCH   3  18
BRANCH   4  24
HETATM   24  O8  UNL     1      20.584  22.104 108.549  1.00  0.00    -0.390 OA
ATOM     25  H8  UNL     1      21.415  22.288 108.128  1.00  0.00     0.210 HD
ENDBRANCH   4  24
TORSDOF 6
ENDMDL
