MODEL 1
REMARK VINA RESULT: -10.240050754      0.000      0.000
REMARK  6 active torsions:
REMARK  status: ('A' for Active; 'I' for Inactive)
REMARK    1  A    between atoms: N1_6  and  C4_7 
REMARK    2  A    between atoms: C5_9  and  C6_10 
REMARK    3  A    between atoms: C6_10  and  O4_11 
REMARK    4  A    between atoms: O4_11  and  P1_12 
REMARK    5  A    between atoms: C7_16  and  O8_17 
REMARK    6  A    between atoms: C8_19  and  O9_20 
ROOT
HETATM    1  C4  UNL     1      18.347  23.834 109.553  1.00  0.00     0.267 C 
HETATM    2  O3  UNL     1      17.286  24.575 108.977  1.00  0.00    -0.353 OA
HETATM    3  C5  UNL     1      16.717  23.838 107.991  1.00  0.00     0.180 C 
HETATM    4  C7  UNL     1      17.566  22.612 107.767  1.00  0.00     0.182 C 
HETATM    5  C8  UNL     1      18.135  22.428 109.188  1.00  0.00     0.199 C 
ENDROOT
BRANCH   1   6
HETATM    6  N1  UNL     1      18.500  24.205 110.892  1.00  0.00    -0.239 N 
HETATM    7  C3  UNL     1      19.484  25.177 111.260  1.00  0.00     0.238 C 
HETATM    8  C2  UNL     1      19.974  25.287 112.670  1.00  0.00     0.206 C 
HETATM    9  O2  UNL     1      19.959  25.963 110.400  1.00  0.00    -0.272 OA
HETATM   10  C1  UNL     1      18.888  25.038 113.652  1.00  0.00     0.234 C 
HETATM   11  O1  UNL     1      18.841  25.673 114.761  1.00  0.00    -0.273 OA
HETATM   12  N2  UNL     1      17.907  24.072 113.315  1.00  0.00    -0.278 N 
HETATM   13  C9  UNL     1      17.740  23.686 111.963  1.00  0.00     0.333 C 
ATOM     14  H2  UNL     1      17.324  23.657 114.043  1.00  0.00     0.173 HD
HETATM   15  O10 UNL     1      16.874  22.833 111.667  1.00  0.00    -0.246 OA
ENDBRANCH   1   6
BRANCH   5  16
HETATM   16  O9  UNL     1      19.297  21.670 109.050  1.00  0.00    -0.388 OA
ATOM     17  H9  UNL     1      19.319  21.097 108.292  1.00  0.00     0.210 HD
ENDBRANCH   5  16
BRANCH   3  18
HETATM   18  C6  UNL     1      15.267  23.427 108.288  1.00  0.00     0.217 C 
BRANCH  18  19
HETATM   19  O4  UNL     1      14.889  22.601 107.233  1.00  0.00    -0.280 OA
BRANCH  19  20
HETATM   20  P1  UNL     1      14.232  21.149 107.730  1.00  0.00     0.422 P 
HETATM   21  O5  UNL     1      14.983  19.984 107.082  1.00  0.00    -0.617 OA
HETATM   22  O6  UNL     1      12.610  20.975 107.319  1.00  0.00    -0.617 OA
HETATM   23  O7  UNL     1      14.405  21.070 109.431  1.00  0.00    -0.617 OA
ENDBRANCH  19  20
ENDBRANCH  18  19
ENDBRANCH   3  18
BRANCH   4  24
HETATM   24  O8  UNL     1      18.587  22.845 106.858  1.00  0.00    -0.390 OA
ATOM     25  H8  UNL     1      18.635  23.760 106.604  1.00  0.00     0.210 HD
ENDBRANCH   4  24
TORSDOF 6
ENDMDL
