MODEL 2
REMARK VINA RESULT: -10.079208216      0.640      1.167
REMARK  6 active torsions:
REMARK  status: ('A' for Active; 'I' for Inactive)
REMARK    1  A    between atoms: N1_6  and  C4_7 
REMARK    2  A    between atoms: C5_9  and  C6_10 
REMARK    3  A    between atoms: C6_10  and  O4_11 
REMARK    4  A    between atoms: O4_11  and  P1_12 
REMARK    5  A    between atoms: C7_16  and  O8_17 
REMARK    6  A    between atoms: C8_19  and  O9_20 
ROOT
HETATM    1  C4  UNL     1      18.529  23.904 109.766  1.00  0.00     0.267 C 
HETATM    2  O3  UNL     1      17.508  24.660 109.138  1.00  0.00    -0.353 OA
HETATM    3  C5  UNL     1      16.954  23.917 108.149  1.00  0.00     0.180 C 
HETATM    4  C7  UNL     1      17.778  22.665 107.980  1.00  0.00     0.182 C 
HETATM    5  C8  UNL     1      18.293  22.497 109.422  1.00  0.00     0.199 C 
ENDROOT
BRANCH   1   6
HETATM    6  N1  UNL     1      18.646  24.299 111.102  1.00  0.00    -0.239 N 
HETATM    7  C3  UNL     1      19.620  25.278 111.479  1.00  0.00     0.238 C 
HETATM    8  C2  UNL     1      20.072  25.413 112.899  1.00  0.00     0.206 C 
HETATM    9  O2  UNL     1      20.119  26.048 110.618  1.00  0.00    -0.272 OA
HETATM   10  C1  UNL     1      18.959  25.182 113.856  1.00  0.00     0.234 C 
HETATM   11  O1  UNL     1      18.883  25.837 114.952  1.00  0.00    -0.273 OA
HETATM   12  N2  UNL     1      17.987  24.211 113.510  1.00  0.00    -0.278 N 
HETATM   13  C9  UNL     1      17.857  23.800 112.161  1.00  0.00     0.333 C 
ATOM     14  H2  UNL     1      17.384  23.809 114.229  1.00  0.00     0.173 HD
HETATM   15  O10 UNL     1      16.998  22.943 111.857  1.00  0.00    -0.246 OA
ENDBRANCH   1   6
BRANCH   5  16
HETATM   16  O9  UNL     1      19.438  21.706 109.340  1.00  0.00    -0.388 OA
ATOM     17  H9  UNL     1      19.953  21.656 110.137  1.00  0.00     0.210 HD
ENDBRANCH   5  16
BRANCH   3  18
HETATM   18  C6  UNL     1      15.484  23.549 108.404  1.00  0.00     0.217 C 
BRANCH  18  19
HETATM   19  O4  UNL     1      15.344  22.238 107.957  1.00  0.00    -0.280 OA
BRANCH  19  20
HETATM   20  P1  UNL     1      13.776  21.672 108.042  1.00  0.00     0.422 P 
HETATM   21  O5  UNL     1      12.791  22.832 107.899  1.00  0.00    -0.617 OA
HETATM   22  O6  UNL     1      13.422  20.906 109.498  1.00  0.00    -0.617 OA
HETATM   23  O7  UNL     1      13.563  20.572 106.749  1.00  0.00    -0.617 OA
ENDBRANCH  19  20
ENDBRANCH  18  19
ENDBRANCH   3  18
BRANCH   4  24
HETATM   24  O8  UNL     1      18.834  22.853 107.101  1.00  0.00    -0.390 OA
ATOM     25  H8  UNL     1      18.557  22.803 106.194  1.00  0.00     0.210 HD
ENDBRANCH   4  24
TORSDOF 6
ENDMDL
