MODEL 5
REMARK VINA RESULT: -7.841277389      2.815      6.193
REMARK  6 active torsions:
REMARK  status: ('A' for Active; 'I' for Inactive)
REMARK    1  A    between atoms: N1_6  and  C4_7 
REMARK    2  A    between atoms: C5_9  and  C6_10 
REMARK    3  A    between atoms: C6_10  and  O4_11 
REMARK    4  A    between atoms: O4_11  and  P1_12 
REMARK    5  A    between atoms: C7_16  and  O8_17 
REMARK    6  A    between atoms: C8_19  and  O9_20 
ROOT
HETATM    1  C4  UNL     1      17.697  21.965 108.288  1.00  0.00     0.267 C 
HETATM    2  O3  UNL     1      17.821  22.366 109.641  1.00  0.00    -0.353 OA
HETATM    3  C5  UNL     1      18.899  23.179 109.763  1.00  0.00     0.180 C 
HETATM    4  C7  UNL     1      19.649  23.169 108.454  1.00  0.00     0.182 C 
HETATM    5  C8  UNL     1      18.478  22.914 107.486  1.00  0.00     0.199 C 
ENDROOT
BRANCH   1   6
HETATM    6  N1  UNL     1      16.350  21.727 107.996  1.00  0.00    -0.239 N 
HETATM    7  C3  UNL     1      15.957  20.499 107.373  1.00  0.00     0.238 C 
HETATM    8  C2  UNL     1      14.644  20.377 106.665  1.00  0.00     0.206 C 
HETATM    9  O2  UNL     1      16.712  19.494 107.409  1.00  0.00    -0.272 OA
HETATM   10  C1  UNL     1      13.574  21.146 107.351  1.00  0.00     0.234 C 
HETATM   11  O1  UNL     1      12.370  20.717 107.384  1.00  0.00    -0.273 OA
HETATM   12  N2  UNL     1      13.937  22.370 107.967  1.00  0.00    -0.278 N 
HETATM   13  C9  UNL     1      15.296  22.625 108.269  1.00  0.00     0.333 C 
ATOM     14  H2  UNL     1      13.222  23.063 108.191  1.00  0.00     0.173 HD
HETATM   15  O10 UNL     1      15.615  23.706 108.813  1.00  0.00    -0.246 OA
ENDBRANCH   1   6
BRANCH   5  16
HETATM   16  O9  UNL     1      19.037  22.389 106.323  1.00  0.00    -0.388 OA
ATOM     17  H9  UNL     1      19.934  22.651 106.151  1.00  0.00     0.210 HD
ENDBRANCH   5  16
BRANCH   3  18
HETATM   18  C6  UNL     1      18.542  24.621 110.154  1.00  0.00     0.217 C 
BRANCH  18  19
HETATM   19  O4  UNL     1      19.380  24.938 111.220  1.00  0.00    -0.280 OA
BRANCH  19  20
HETATM   20  P1  UNL     1      18.868  24.304 112.677  1.00  0.00     0.422 P 
HETATM   21  O5  UNL     1      19.770  23.139 113.088  1.00  0.00    -0.617 OA
HETATM   22  O6  UNL     1      17.294  23.712 112.630  1.00  0.00    -0.617 OA
HETATM   23  O7  UNL     1      18.977  25.555 113.841  1.00  0.00    -0.617 OA
ENDBRANCH  19  20
ENDBRANCH  18  19
ENDBRANCH   3  18
BRANCH   4  24
HETATM   24  O8  UNL     1      20.570  22.135 108.391  1.00  0.00    -0.390 OA
ATOM     25  H8  UNL     1      21.450  22.450 108.221  1.00  0.00     0.210 HD
ENDBRANCH   4  24
TORSDOF 6
ENDMDL
