MODEL 5
REMARK VINA RESULT: -7.736486267      2.096      3.448
REMARK  4 active torsions:
REMARK  status: ('A' for Active; 'I' for Inactive)
REMARK    1  A    between atoms: N3_4  and  C2_6 
REMARK    2  A    between atoms: C5_9  and  C6_10 
REMARK    3  A    between atoms: C6_10  and  N4_11 
REMARK       I    between atoms: N4_11  and  C7_13 
REMARK       I    between atoms: C7_13  and  N5_15 
REMARK    4  A    between atoms: N5_15  and  C8_17 
ROOT
HETATM    1  N4  UNL     1      24.454  11.147  28.908  1.00  0.00    -0.339 N 
ATOM      2  H4  UNL     1      24.092  10.194  28.927  1.00  0.00     0.164 HD
HETATM    3  C7  UNL     1      23.551  12.204  29.176  1.00  0.00     0.317 C 
HETATM    4  O1  UNL     1      23.955  13.371  29.166  1.00  0.00    -0.247 OA
HETATM    5  N5  UNL     1      22.169  11.991  29.466  1.00  0.00    -0.334 N 
ATOM      6  H5  UNL     1      21.824  11.032  29.484  1.00  0.00     0.165 HD
ENDROOT
BRANCH   1   7
HETATM    7  C6  UNL     1      25.857  11.333  28.608  1.00  0.00     0.162 C 
BRANCH   7   8
HETATM    8  C5  UNL     1      26.607  10.072  28.752  1.00  0.00    -0.040 A 
HETATM    9  C4  UNL     1      27.837  10.141  29.417  1.00  0.00     0.011 A 
HETATM   10  C3  UNL     1      28.568   8.983  29.568  1.00  0.00     0.030 A 
HETATM   11  C2  UNL     1      28.123   7.757  29.083  1.00  0.00     0.034 A 
HETATM   12  C19 UNL     1      26.912   7.705  28.431  1.00  0.00     0.030 A 
HETATM   13  C18 UNL     1      26.171   8.865  28.274  1.00  0.00     0.011 A 
BRANCH  11  14
HETATM   14  N3  UNL     1      28.921   6.602  29.260  1.00  0.00    -0.333 N 
HETATM   15  C1  UNL     1      29.890   6.346  28.457  1.00  0.00     0.201 C 
HETATM   16  N1  UNL     1      30.722   5.208  28.587  1.00  0.00    -0.066 NA
HETATM   17  N2  UNL     1      30.126   7.270  27.381  1.00  0.00    -0.066 NA
ATOM     18  H3  UNL     1      28.724   5.966  30.033  1.00  0.00     0.168 HD
ENDBRANCH  11  14
ENDBRANCH   7   8
ENDBRANCH   1   7
BRANCH   5  19
HETATM   19  C8  UNL     1      21.233  13.057  29.735  1.00  0.00     0.035 C 
HETATM   20  C9  UNL     1      21.511  13.777  31.033  1.00  0.00     0.035 C 
HETATM   21  C10 UNL     1      20.398  14.735  31.325  1.00  0.00    -0.012 C 
HETATM   22  C11 UNL     1      20.408  15.804  30.254  1.00  0.00     0.009 C 
HETATM   23  C15 UNL     1      19.046  14.113  31.396  1.00  0.00     0.009 C 
HETATM   24  C12 UNL     1      20.164  15.105  28.934  1.00  0.00    -0.012 C 
HETATM   25  C13 UNL     1      18.814  14.456  28.965  1.00  0.00     0.009 C 
HETATM   26  C17 UNL     1      21.224  14.088  28.625  1.00  0.00     0.035 C 
HETATM   27  C14 UNL     1      18.778  13.413  30.063  1.00  0.00    -0.012 C 
HETATM   28  C16 UNL     1      19.868  12.414  29.866  1.00  0.00     0.035 C 
ENDBRANCH   5  19
TORSDOF 4
ENDMDL
