MODEL 15
REMARK VINA RESULT: -7.380095367      2.415      3.999
REMARK  4 active torsions:
REMARK  status: ('A' for Active; 'I' for Inactive)
REMARK    1  A    between atoms: N3_4  and  C2_6 
REMARK    2  A    between atoms: C5_9  and  C6_10 
REMARK    3  A    between atoms: C6_10  and  N4_11 
REMARK       I    between atoms: N4_11  and  C7_13 
REMARK       I    between atoms: C7_13  and  N5_15 
REMARK    4  A    between atoms: N5_15  and  C8_17 
ROOT
HETATM    1  N4  UNL     1      23.857  12.016  28.538  1.00  0.00    -0.339 N 
ATOM      2  H4  UNL     1      23.911  11.794  29.532  1.00  0.00     0.164 HD
HETATM    3  C7  UNL     1      22.613  12.456  28.025  1.00  0.00     0.317 C 
HETATM    4  O1  UNL     1      22.511  12.737  26.827  1.00  0.00    -0.247 OA
HETATM    5  N5  UNL     1      21.444  12.596  28.833  1.00  0.00    -0.334 N 
ATOM      6  H5  UNL     1      21.516  12.372  29.826  1.00  0.00     0.165 HD
ENDROOT
BRANCH   1   7
HETATM    7  C6  UNL     1      25.056  11.861  27.743  1.00  0.00     0.162 C 
BRANCH   7   8
HETATM    8  C5  UNL     1      25.884  10.746  28.235  1.00  0.00    -0.040 A 
HETATM    9  C4  UNL     1      25.386   9.454  28.037  1.00  0.00     0.011 A 
HETATM   10  C3  UNL     1      26.131   8.385  28.487  1.00  0.00     0.030 A 
HETATM   11  C2  UNL     1      27.354   8.553  29.128  1.00  0.00     0.034 A 
HETATM   12  C19 UNL     1      27.831   9.830  29.317  1.00  0.00     0.030 A 
HETATM   13  C18 UNL     1      27.088  10.910  28.868  1.00  0.00     0.011 A 
BRANCH  11  14
HETATM   14  N3  UNL     1      28.072   7.419  29.577  1.00  0.00    -0.333 N 
HETATM   15  C1  UNL     1      29.045   6.945  28.885  1.00  0.00     0.201 C 
HETATM   16  N1  UNL     1      29.799   5.815  29.285  1.00  0.00    -0.066 NA
HETATM   17  N2  UNL     1      29.368   7.604  27.649  1.00  0.00    -0.066 NA
ATOM     18  H3  UNL     1      27.813   6.973  30.458  1.00  0.00     0.168 HD
ENDBRANCH  11  14
ENDBRANCH   7   8
ENDBRANCH   1   7
BRANCH   5  19
HETATM   19  C8  UNL     1      20.166  13.037  28.326  1.00  0.00     0.035 C 
HETATM   20  C9  UNL     1      20.281  14.165  27.329  1.00  0.00     0.035 C 
HETATM   21  C10 UNL     1      18.916  14.680  26.995  1.00  0.00    -0.012 C 
HETATM   22  C11 UNL     1      18.161  13.580  26.281  1.00  0.00     0.009 C 
HETATM   23  C15 UNL     1      18.125  15.149  28.166  1.00  0.00     0.009 C 
HETATM   24  C12 UNL     1      18.059  12.419  27.248  1.00  0.00    -0.012 C 
HETATM   25  C13 UNL     1      17.276  12.851  28.451  1.00  0.00     0.009 C 
HETATM   26  C17 UNL     1      19.407  11.905  27.662  1.00  0.00     0.035 C 
HETATM   27  C14 UNL     1      18.002  13.983  29.149  1.00  0.00    -0.012 C 
HETATM   28  C16 UNL     1      19.387  13.566  29.511  1.00  0.00     0.035 C 
ENDBRANCH   5  19
TORSDOF 4
ENDMDL
