MODEL 3
REMARK VINA RESULT: -7.940746349      0.402      1.025
REMARK  4 active torsions:
REMARK  status: ('A' for Active; 'I' for Inactive)
REMARK    1  A    between atoms: N3_4  and  C2_6 
REMARK    2  A    between atoms: C5_9  and  C6_10 
REMARK    3  A    between atoms: C6_10  and  N4_11 
REMARK       I    between atoms: N4_11  and  C7_13 
REMARK       I    between atoms: C7_13  and  N5_15 
REMARK    4  A    between atoms: N5_15  and  C8_17 
ROOT
HETATM    1  N4  UNL     1      26.427   9.050  28.656  1.00  0.00    -0.339 N 
ATOM      2  H4  UNL     1      26.838   9.090  27.724  1.00  0.00     0.164 HD
HETATM    3  C7  UNL     1      25.174   9.677  28.855  1.00  0.00     0.317 C 
HETATM    4  O1  UNL     1      24.644   9.646  29.970  1.00  0.00    -0.247 OA
HETATM    5  N5  UNL     1      24.472  10.359  27.815  1.00  0.00    -0.334 N 
ATOM      6  H5  UNL     1      24.896  10.388  26.887  1.00  0.00     0.165 HD
ENDROOT
BRANCH   1   7
HETATM    7  C6  UNL     1      27.162   8.356  29.691  1.00  0.00     0.162 C 
BRANCH   7   8
HETATM    8  C5  UNL     1      28.423   7.798  29.170  1.00  0.00    -0.040 A 
HETATM    9  C4  UNL     1      29.595   8.504  29.465  1.00  0.00     0.011 A 
HETATM   10  C3  UNL     1      30.794   8.015  28.992  1.00  0.00     0.030 A 
HETATM   11  C2  UNL     1      30.872   6.850  28.235  1.00  0.00     0.034 A 
HETATM   12  C19 UNL     1      29.711   6.167  27.953  1.00  0.00     0.030 A 
HETATM   13  C18 UNL     1      28.501   6.652  28.425  1.00  0.00     0.011 A 
BRANCH  11  14
HETATM   14  N3  UNL     1      32.130   6.401  27.769  1.00  0.00    -0.333 N 
HETATM   15  C1  UNL     1      32.559   5.229  28.073  1.00  0.00     0.201 C 
HETATM   16  N1  UNL     1      33.808   4.726  27.634  1.00  0.00    -0.066 NA
HETATM   17  N2  UNL     1      31.721   4.405  28.901  1.00  0.00    -0.066 NA
ATOM     18  H3  UNL     1      32.701   7.013  27.186  1.00  0.00     0.168 HD
ENDBRANCH  11  14
ENDBRANCH   7   8
ENDBRANCH   1   7
BRANCH   5  19
HETATM   19  C8  UNL     1      23.197  11.010  28.001  1.00  0.00     0.035 C 
HETATM   20  C9  UNL     1      22.119  10.075  28.494  1.00  0.00     0.035 C 
HETATM   21  C10 UNL     1      20.799  10.779  28.484  1.00  0.00    -0.012 C 
HETATM   22  C11 UNL     1      20.859  11.903  29.496  1.00  0.00     0.009 C 
HETATM   23  C15 UNL     1      20.396  11.326  27.158  1.00  0.00     0.009 C 
HETATM   24  C12 UNL     1      21.957  12.842  29.044  1.00  0.00    -0.012 C 
HETATM   25  C13 UNL     1      21.596  13.409  27.705  1.00  0.00     0.009 C 
HETATM   26  C17 UNL     1      23.294  12.163  28.979  1.00  0.00     0.035 C 
HETATM   27  C14 UNL     1      21.490  12.288  26.692  1.00  0.00    -0.012 C 
HETATM   28  C16 UNL     1      22.763  11.512  26.640  1.00  0.00     0.035 C 
ENDBRANCH   5  19
TORSDOF 4
ENDMDL
