MODEL 4
REMARK VINA RESULT: -7.886944580      0.467      1.758
REMARK  4 active torsions:
REMARK  status: ('A' for Active; 'I' for Inactive)
REMARK    1  A    between atoms: N3_4  and  C2_6 
REMARK    2  A    between atoms: C5_9  and  C6_10 
REMARK    3  A    between atoms: C6_10  and  N4_11 
REMARK       I    between atoms: N4_11  and  C7_13 
REMARK       I    between atoms: C7_13  and  N5_15 
REMARK    4  A    between atoms: N5_15  and  C8_17 
ROOT
HETATM    1  N4  UNL     1      26.446   9.071  28.759  1.00  0.00    -0.339 N 
ATOM      2  H4  UNL     1      26.857   9.125  27.827  1.00  0.00     0.164 HD
HETATM    3  C7  UNL     1      25.217   9.736  28.980  1.00  0.00     0.317 C 
HETATM    4  O1  UNL     1      24.688   9.690  30.095  1.00  0.00    -0.247 OA
HETATM    5  N5  UNL     1      24.537  10.473  27.962  1.00  0.00    -0.334 N 
ATOM      6  H5  UNL     1      24.960  10.515  27.035  1.00  0.00     0.165 HD
ENDROOT
BRANCH   1   7
HETATM    7  C6  UNL     1      27.158   8.321  29.771  1.00  0.00     0.162 C 
BRANCH   7   8
HETATM    8  C5  UNL     1      28.414   7.763  29.239  1.00  0.00    -0.040 A 
HETATM    9  C4  UNL     1      29.589   8.470  29.520  1.00  0.00     0.011 A 
HETATM   10  C3  UNL     1      30.783   7.981  29.035  1.00  0.00     0.030 A 
HETATM   11  C2  UNL     1      30.854   6.814  28.282  1.00  0.00     0.034 A 
HETATM   12  C19 UNL     1      29.690   6.129  28.014  1.00  0.00     0.030 A 
HETATM   13  C18 UNL     1      28.486   6.615  28.496  1.00  0.00     0.011 A 
BRANCH  11  14
HETATM   14  N3  UNL     1      32.107   6.363  27.804  1.00  0.00    -0.333 N 
HETATM   15  C1  UNL     1      32.540   5.193  28.107  1.00  0.00     0.201 C 
HETATM   16  N1  UNL     1      33.785   4.689  27.656  1.00  0.00    -0.066 NA
HETATM   17  N2  UNL     1      31.711   4.371  28.945  1.00  0.00    -0.066 NA
ATOM     18  H3  UNL     1      32.672   6.975  27.213  1.00  0.00     0.168 HD
ENDBRANCH  11  14
ENDBRANCH   7   8
ENDBRANCH   1   7
BRANCH   5  19
HETATM   19  C8  UNL     1      23.286  11.163  28.171  1.00  0.00     0.035 C 
HETATM   20  C9  UNL     1      23.324  12.121  29.338  1.00  0.00     0.035 C 
HETATM   21  C10 UNL     1      21.949  12.651  29.597  1.00  0.00    -0.012 C 
HETATM   22  C11 UNL     1      21.532  13.480  28.401  1.00  0.00     0.009 C 
HETATM   23  C15 UNL     1      20.920  11.607  29.863  1.00  0.00     0.009 C 
HETATM   24  C12 UNL     1      21.517  12.549  27.207  1.00  0.00    -0.012 C 
HETATM   25  C13 UNL     1      20.499  11.474  27.437  1.00  0.00     0.009 C 
HETATM   26  C17 UNL     1      22.864  11.943  26.943  1.00  0.00     0.035 C 
HETATM   27  C14 UNL     1      20.883  10.665  28.659  1.00  0.00    -0.012 C 
HETATM   28  C16 UNL     1      22.255  10.103  28.499  1.00  0.00     0.035 C 
ENDBRANCH   5  19
TORSDOF 4
ENDMDL
