MODEL 13
REMARK VINA RESULT: -7.531213335      1.329      2.012
REMARK  4 active torsions:
REMARK  status: ('A' for Active; 'I' for Inactive)
REMARK    1  A    between atoms: N3_4  and  C2_6 
REMARK    2  A    between atoms: C5_9  and  C6_10 
REMARK    3  A    between atoms: C6_10  and  N4_11 
REMARK       I    between atoms: N4_11  and  C7_13 
REMARK       I    between atoms: C7_13  and  N5_15 
REMARK    4  A    between atoms: N5_15  and  C8_17 
ROOT
HETATM    1  N4  UNL     1      26.955   8.420  29.106  1.00  0.00    -0.339 N 
ATOM      2  H4  UNL     1      27.586   9.033  29.623  1.00  0.00     0.164 HD
HETATM    3  C7  UNL     1      25.785   8.991  28.551  1.00  0.00     0.317 C 
HETATM    4  O1  UNL     1      25.001   8.281  27.915  1.00  0.00    -0.247 OA
HETATM    5  N5  UNL     1      25.454  10.374  28.687  1.00  0.00    -0.334 N 
ATOM      6  H5  UNL     1      26.097  10.973  29.205  1.00  0.00     0.165 HD
ENDROOT
BRANCH   1   7
HETATM    7  C6  UNL     1      27.314   7.023  28.987  1.00  0.00     0.162 C 
BRANCH   7   8
HETATM    8  C5  UNL     1      28.746   6.863  28.679  1.00  0.00    -0.040 A 
HETATM    9  C4  UNL     1      29.151   5.617  28.187  1.00  0.00     0.011 A 
HETATM   10  C3  UNL     1      30.484   5.428  27.891  1.00  0.00     0.030 A 
HETATM   11  C2  UNL     1      31.431   6.431  28.067  1.00  0.00     0.034 A 
HETATM   12  C19 UNL     1      31.018   7.651  28.553  1.00  0.00     0.030 A 
HETATM   13  C18 UNL     1      29.681   7.850  28.853  1.00  0.00     0.011 A 
BRANCH  11  14
HETATM   14  N3  UNL     1      32.787   6.177  27.754  1.00  0.00    -0.333 N 
HETATM   15  C1  UNL     1      33.327   5.051  28.052  1.00  0.00     0.201 C 
HETATM   16  N1  UNL     1      34.678   4.741  27.762  1.00  0.00    -0.066 NA
HETATM   17  N2  UNL     1      32.508   4.072  28.712  1.00  0.00    -0.066 NA
ATOM     18  H3  UNL     1      33.341   6.896  27.288  1.00  0.00     0.168 HD
ENDBRANCH  11  14
ENDBRANCH   7   8
ENDBRANCH   1   7
BRANCH   5  19
HETATM   19  C8  UNL     1      24.263  10.972  28.134  1.00  0.00     0.035 C 
HETATM   20  C9  UNL     1      24.201  10.887  26.627  1.00  0.00     0.035 C 
HETATM   21  C10 UNL     1      23.038  11.684  26.127  1.00  0.00    -0.012 C 
HETATM   22  C11 UNL     1      21.769  11.026  26.625  1.00  0.00     0.009 C 
HETATM   23  C15 UNL     1      23.047  13.118  26.531  1.00  0.00     0.009 C 
HETATM   24  C12 UNL     1      21.819  11.068  28.138  1.00  0.00    -0.012 C 
HETATM   25  C13 UNL     1      21.839  12.496  28.589  1.00  0.00     0.009 C 
HETATM   26  C17 UNL     1      23.006  10.331  28.687  1.00  0.00     0.035 C 
HETATM   27  C14 UNL     1      23.084  13.178  28.058  1.00  0.00    -0.012 C 
HETATM   28  C16 UNL     1      24.305  12.441  28.496  1.00  0.00     0.035 C 
ENDBRANCH   5  19
TORSDOF 4
ENDMDL
