MODEL 14
REMARK VINA RESULT: -7.494186491      2.355      3.888
REMARK  4 active torsions:
REMARK  status: ('A' for Active; 'I' for Inactive)
REMARK    1  A    between atoms: N3_4  and  C2_6 
REMARK    2  A    between atoms: C5_9  and  C6_10 
REMARK    3  A    between atoms: C6_10  and  N4_11 
REMARK       I    between atoms: N4_11  and  C7_13 
REMARK       I    between atoms: C7_13  and  N5_15 
REMARK    4  A    between atoms: N5_15  and  C8_17 
ROOT
HETATM    1  N4  UNL     1      23.570  11.592  27.250  1.00  0.00    -0.339 N 
ATOM      2  H4  UNL     1      23.366  10.796  26.646  1.00  0.00     0.164 HD
HETATM    3  C7  UNL     1      22.477  12.299  27.805  1.00  0.00     0.317 C 
HETATM    4  O1  UNL     1      22.686  13.266  28.544  1.00  0.00    -0.247 OA
HETATM    5  N5  UNL     1      21.115  11.949  27.553  1.00  0.00    -0.334 N 
ATOM      6  H5  UNL     1      20.929  11.149  26.949  1.00  0.00     0.165 HD
ENDROOT
BRANCH   1   7
HETATM    7  C6  UNL     1      24.958  11.927  27.485  1.00  0.00     0.162 C 
BRANCH   7   8
HETATM    8  C5  UNL     1      25.700  10.778  28.036  1.00  0.00    -0.040 A 
HETATM    9  C4  UNL     1      26.909  11.058  28.682  1.00  0.00     0.011 A 
HETATM   10  C3  UNL     1      27.633  10.009  29.206  1.00  0.00     0.030 A 
HETATM   11  C2  UNL     1      27.199   8.690  29.114  1.00  0.00     0.034 A 
HETATM   12  C19 UNL     1      26.007   8.430  28.475  1.00  0.00     0.030 A 
HETATM   13  C18 UNL     1      25.274   9.479  27.944  1.00  0.00     0.011 A 
BRANCH  11  14
HETATM   14  N3  UNL     1      27.988   7.653  29.664  1.00  0.00    -0.333 N 
HETATM   15  C1  UNL     1      28.967   7.153  29.001  1.00  0.00     0.201 C 
HETATM   16  N1  UNL     1      29.791   6.116  29.503  1.00  0.00    -0.066 NA
HETATM   17  N2  UNL     1      29.224   7.683  27.690  1.00  0.00    -0.066 NA
ATOM     18  H3  UNL     1      27.776   7.298  30.597  1.00  0.00     0.168 HD
ENDBRANCH  11  14
ENDBRANCH   7   8
ENDBRANCH   1   7
BRANCH   5  19
HETATM   19  C8  UNL     1      19.988  12.663  28.105  1.00  0.00     0.035 C 
HETATM   20  C9  UNL     1      18.660  12.174  27.579  1.00  0.00     0.035 C 
HETATM   21  C10 UNL     1      17.567  13.078  28.054  1.00  0.00    -0.012 C 
HETATM   22  C11 UNL     1      17.479  12.956  29.560  1.00  0.00     0.009 C 
HETATM   23  C15 UNL     1      17.738  14.510  27.680  1.00  0.00     0.009 C 
HETATM   24  C12 UNL     1      18.813  13.411  30.115  1.00  0.00    -0.012 C 
HETATM   25  C13 UNL     1      19.031  14.848  29.752  1.00  0.00     0.009 C 
HETATM   26  C17 UNL     1      19.951  12.569  29.617  1.00  0.00     0.035 C 
HETATM   27  C14 UNL     1      19.076  14.989  28.244  1.00  0.00    -0.012 C 
HETATM   28  C16 UNL     1      20.135  14.107  27.672  1.00  0.00     0.035 C 
ENDBRANCH   5  19
TORSDOF 4
ENDMDL
