MODEL 2
REMARK VINA RESULT: -7.945202388      0.369      1.819
REMARK  4 active torsions:
REMARK  status: ('A' for Active; 'I' for Inactive)
REMARK    1  A    between atoms: N3_4  and  C2_6 
REMARK    2  A    between atoms: C5_9  and  C6_10 
REMARK    3  A    between atoms: C6_10  and  N4_11 
REMARK       I    between atoms: N4_11  and  C7_13 
REMARK       I    between atoms: C7_13  and  N5_15 
REMARK    4  A    between atoms: N5_15  and  C8_17 
ROOT
HETATM    1  N4  UNL     1      26.435   9.308  28.813  1.00  0.00    -0.339 N 
ATOM      2  H4  UNL     1      26.883   9.457  27.909  1.00  0.00     0.164 HD
HETATM    3  C7  UNL     1      25.138   9.843  29.005  1.00  0.00     0.317 C 
HETATM    4  O1  UNL     1      24.563   9.679  30.085  1.00  0.00    -0.247 OA
HETATM    5  N5  UNL     1      24.442  10.576  27.996  1.00  0.00    -0.334 N 
ATOM      6  H5  UNL     1      24.903  10.714  27.097  1.00  0.00     0.165 HD
ENDROOT
BRANCH   1   7
HETATM    7  C6  UNL     1      27.165   8.565  29.817  1.00  0.00     0.162 C 
BRANCH   7   8
HETATM    8  C5  UNL     1      28.398   7.981  29.259  1.00  0.00    -0.040 A 
HETATM    9  C4  UNL     1      29.604   8.596  29.611  1.00  0.00     0.011 A 
HETATM   10  C3  UNL     1      30.778   8.080  29.106  1.00  0.00     0.030 A 
HETATM   11  C2  UNL     1      30.799   6.974  28.263  1.00  0.00     0.034 A 
HETATM   12  C19 UNL     1      29.604   6.380  27.924  1.00  0.00     0.030 A 
HETATM   13  C18 UNL     1      28.419   6.893  28.427  1.00  0.00     0.011 A 
BRANCH  11  14
HETATM   14  N3  UNL     1      32.034   6.493  27.768  1.00  0.00    -0.333 N 
HETATM   15  C1  UNL     1      32.450   5.319  28.079  1.00  0.00     0.201 C 
HETATM   16  N1  UNL     1      33.676   4.785  27.612  1.00  0.00    -0.066 NA
HETATM   17  N2  UNL     1      31.621   4.524  28.944  1.00  0.00    -0.066 NA
ATOM     18  H3  UNL     1      32.598   7.085  27.158  1.00  0.00     0.168 HD
ENDBRANCH  11  14
ENDBRANCH   7   8
ENDBRANCH   1   7
BRANCH   5  19
HETATM   19  C8  UNL     1      23.122  11.133  28.177  1.00  0.00     0.035 C 
HETATM   20  C9  UNL     1      22.630  11.895  26.970  1.00  0.00     0.035 C 
HETATM   21  C10 UNL     1      21.346  12.589  27.303  1.00  0.00    -0.012 C 
HETATM   22  C11 UNL     1      20.298  11.532  27.575  1.00  0.00     0.009 C 
HETATM   23  C15 UNL     1      21.427  13.520  28.463  1.00  0.00     0.009 C 
HETATM   24  C12 UNL     1      20.783  10.729  28.763  1.00  0.00    -0.012 C 
HETATM   25  C13 UNL     1      20.888  11.631  29.955  1.00  0.00     0.009 C 
HETATM   26  C17 UNL     1      22.101  10.061  28.498  1.00  0.00     0.035 C 
HETATM   27  C14 UNL     1      21.903  12.721  29.677  1.00  0.00    -0.012 C 
HETATM   28  C16 UNL     1      23.222  12.123  29.319  1.00  0.00     0.035 C 
ENDBRANCH   5  19
TORSDOF 4
ENDMDL
