MODEL 4
REMARK VINA RESULT: -7.244622070      2.252      2.852
REMARK  11 active torsions:
REMARK  status: ('A' for Active; 'I' for Inactive)
REMARK    1  A    between atoms: C2_2  and  C4_4 
REMARK    2  A    between atoms: C7_7  and  N1_8 
REMARK       I    between atoms: N1_8  and  C8_10 
REMARK    3  A    between atoms: C8_10  and  C9_12 
REMARK       I    between atoms: N2_16  and  C13_17 
REMARK    4  A    between atoms: C13_17  and  C14_19 
REMARK    5  A    between atoms: C14_19  and  C15_20 
REMARK    6  A    between atoms: C14_19  and  N4_28 
REMARK    7  A    between atoms: C15_20  and  C16_21 
REMARK    8  A    between atoms: C16_21  and  C17_22 
REMARK    9  A    between atoms: C17_22  and  C18_23 
REMARK   10  A    between atoms: C18_23  and  N3_24 
REMARK       I    between atoms: N4_28  and  C19_30 
REMARK   11  A    between atoms: C19_30  and  C20_32 
ROOT
HETATM    1  C9  UNL     1      37.927  19.322  35.741  1.00  0.00     0.179 C 
HETATM    2  C10 UNL     1      38.745  18.144  35.228  1.00  0.00     0.037 C 
HETATM    3  C11 UNL     1      39.736  18.885  34.313  1.00  0.00     0.022 C 
HETATM    4  C12 UNL     1      39.609  20.338  34.702  1.00  0.00     0.127 C 
HETATM    5  N2  UNL     1      38.943  20.249  36.049  1.00  0.00    -0.337 N 
HETATM    6  C13 UNL     1      39.412  20.978  37.154  1.00  0.00     0.243 C 
HETATM    7  O2  UNL     1      38.855  20.973  38.267  1.00  0.00    -0.271 OA
ENDROOT
BRANCH   6   8
HETATM    8  C14 UNL     1      40.650  21.830  37.047  1.00  0.00     0.177 C 
BRANCH   8   9
HETATM    9  C15 UNL     1      41.820  21.092  37.721  1.00  0.00     0.035 C 
BRANCH   9  10
HETATM   10  C16 UNL     1      42.041  19.809  37.002  1.00  0.00     0.004 C 
BRANCH  10  11
HETATM   11  C17 UNL     1      42.017  18.549  37.763  1.00  0.00     0.027 C 
BRANCH  11  12
HETATM   12  C18 UNL     1      41.663  18.584  39.204  1.00  0.00     0.229 C 
BRANCH  12  13
HETATM   13  N3  UNL     1      40.286  18.396  39.489  1.00  0.00    -0.079 N 
ATOM     14  H33 UNL     1      39.801  19.293  39.489  1.00  0.00     0.274 HD
ATOM     15  H32 UNL     1      39.822  17.943  38.701  1.00  0.00     0.274 HD
ATOM     16  H31 UNL     1      40.088  17.888  40.352  1.00  0.00     0.274 HD
ENDBRANCH  12  13
ENDBRANCH  11  12
ENDBRANCH  10  11
ENDBRANCH   9  10
ENDBRANCH   8   9
BRANCH   8  17
HETATM   17  N4  UNL     1      40.447  23.004  37.867  1.00  0.00    -0.340 N 
HETATM   18  C19 UNL     1      41.208  24.169  37.662  1.00  0.00     0.326 C 
HETATM   19  O3  UNL     1      42.096  24.270  36.774  1.00  0.00    -0.263 OA
ATOM     20  H4  UNL     1      39.742  22.987  38.604  1.00  0.00     0.163 HD
BRANCH  18  21
HETATM   21  C20 UNL     1      40.955  25.355  38.541  1.00  0.00     0.472 C 
HETATM   22  F1  UNL     1      42.058  26.196  38.557  1.00  0.00    -0.162 F 
HETATM   23  F2  UNL     1      40.634  24.978  39.828  1.00  0.00    -0.162 F 
HETATM   24  F3  UNL     1      39.860  26.073  38.051  1.00  0.00    -0.162 F 
ENDBRANCH  18  21
ENDBRANCH   8  17
ENDBRANCH   6   8
BRANCH   1  25
HETATM   25  C8  UNL     1      36.936  18.951  36.729  1.00  0.00     0.245 C 
HETATM   26  N1  UNL     1      37.188  18.026  37.777  1.00  0.00    -0.325 N 
ATOM     27  H1  UNL     1      38.126  17.625  37.798  1.00  0.00     0.169 HD
HETATM   28  O1  UNL     1      35.795  19.448  36.691  1.00  0.00    -0.271 OA
BRANCH  26  29
HETATM   29  C7  UNL     1      36.317  17.592  38.784  1.00  0.00     0.034 A 
HETATM   30  C6  UNL     1      35.391  16.610  38.695  1.00  0.00     0.030 A 
HETATM   31  C5  UNL     1      34.560  16.264  39.775  1.00  0.00     0.010 A 
HETATM   32  C4  UNL     1      34.641  16.906  40.987  1.00  0.00    -0.055 A 
HETATM   33  C22 UNL     1      35.583  17.906  41.082  1.00  0.00     0.010 A 
HETATM   34  C21 UNL     1      36.393  18.242  40.025  1.00  0.00     0.030 A 
BRANCH  32  35
HETATM   35  C2  UNL     1      33.756  16.533  42.121  1.00  0.00     0.010 C 
HETATM   36  C1  UNL     1      33.906  15.099  42.540  1.00  0.00     0.015 C 
HETATM   37  C3  UNL     1      32.330  16.862  41.776  1.00  0.00     0.015 C 
ENDBRANCH  32  35
ENDBRANCH  26  29
ENDBRANCH   1  25
TORSDOF 11
ENDMDL
