MODEL 7
REMARK VINA RESULT: -6.831931956      3.048      4.228
REMARK  11 active torsions:
REMARK  status: ('A' for Active; 'I' for Inactive)
REMARK    1  A    between atoms: C2_2  and  C4_4 
REMARK    2  A    between atoms: C7_7  and  N1_8 
REMARK       I    between atoms: N1_8  and  C8_10 
REMARK    3  A    between atoms: C8_10  and  C9_12 
REMARK       I    between atoms: N2_16  and  C13_17 
REMARK    4  A    between atoms: C13_17  and  C14_19 
REMARK    5  A    between atoms: C14_19  and  C15_20 
REMARK    6  A    between atoms: C14_19  and  N4_28 
REMARK    7  A    between atoms: C15_20  and  C16_21 
REMARK    8  A    between atoms: C16_21  and  C17_22 
REMARK    9  A    between atoms: C17_22  and  C18_23 
REMARK   10  A    between atoms: C18_23  and  N3_24 
REMARK       I    between atoms: N4_28  and  C19_30 
REMARK   11  A    between atoms: C19_30  and  C20_32 
ROOT
HETATM    1  C9  UNL     1      40.131  17.531  38.089  1.00  0.00     0.179 C 
HETATM    2  C10 UNL     1      41.011  17.242  39.299  1.00  0.00     0.037 C 
HETATM    3  C11 UNL     1      42.382  17.660  38.738  1.00  0.00     0.022 C 
HETATM    4  C12 UNL     1      42.065  18.450  37.491  1.00  0.00     0.127 C 
HETATM    5  N2  UNL     1      40.614  18.795  37.694  1.00  0.00    -0.337 N 
HETATM    6  C13 UNL     1      40.131  20.099  37.496  1.00  0.00     0.243 C 
HETATM    7  O2  UNL     1      38.929  20.410  37.600  1.00  0.00    -0.271 OA
ENDROOT
BRANCH   6   8
HETATM    8  C14 UNL     1      41.067  21.223  37.136  1.00  0.00     0.177 C 
BRANCH   8   9
HETATM    9  C15 UNL     1      40.252  22.520  36.990  1.00  0.00     0.035 C 
BRANCH   9  10
HETATM   10  C16 UNL     1      41.042  23.638  37.571  1.00  0.00     0.004 C 
BRANCH  10  11
HETATM   11  C17 UNL     1      40.499  24.374  38.725  1.00  0.00     0.027 C 
BRANCH  11  12
HETATM   12  C18 UNL     1      40.684  25.845  38.793  1.00  0.00     0.229 C 
BRANCH  12  13
HETATM   13  N3  UNL     1      41.981  26.304  38.447  1.00  0.00    -0.079 N 
ATOM     14  H33 UNL     1      42.402  26.796  39.236  1.00  0.00     0.274 HD
ATOM     15  H32 UNL     1      42.623  25.516  38.366  1.00  0.00     0.274 HD
ATOM     16  H31 UNL     1      42.026  26.882  37.608  1.00  0.00     0.274 HD
ENDBRANCH  12  13
ENDBRANCH  11  12
ENDBRANCH  10  11
ENDBRANCH   9  10
ENDBRANCH   8   9
BRANCH   8  17
HETATM   17  N4  UNL     1      41.572  20.965  35.806  1.00  0.00    -0.340 N 
HETATM   18  C19 UNL     1      42.891  21.305  35.456  1.00  0.00     0.326 C 
HETATM   19  O3  UNL     1      43.704  21.843  36.254  1.00  0.00    -0.263 OA
ATOM     20  H4  UNL     1      40.964  20.530  35.112  1.00  0.00     0.163 HD
BRANCH  18  21
HETATM   21  C20 UNL     1      43.361  21.015  34.064  1.00  0.00     0.472 C 
HETATM   22  F1  UNL     1      44.286  19.981  34.065  1.00  0.00    -0.162 F 
HETATM   23  F2  UNL     1      43.907  22.131  33.465  1.00  0.00    -0.162 F 
HETATM   24  F3  UNL     1      42.272  20.631  33.274  1.00  0.00    -0.162 F 
ENDBRANCH  18  21
ENDBRANCH   8  17
ENDBRANCH   6   8
BRANCH   1  25
HETATM   25  C8  UNL     1      38.720  17.319  38.337  1.00  0.00     0.245 C 
HETATM   26  N1  UNL     1      37.961  18.107  39.242  1.00  0.00    -0.325 N 
ATOM     27  H1  UNL     1      38.472  18.847  39.722  1.00  0.00     0.169 HD
HETATM   28  O1  UNL     1      38.109  16.411  37.743  1.00  0.00    -0.271 OA
BRANCH  26  29
HETATM   29  C7  UNL     1      36.602  17.999  39.562  1.00  0.00     0.034 A 
HETATM   30  C6  UNL     1      36.064  17.835  40.792  1.00  0.00     0.030 A 
HETATM   31  C5  UNL     1      34.676  17.729  40.995  1.00  0.00     0.010 A 
HETATM   32  C4  UNL     1      33.784  17.786  39.950  1.00  0.00    -0.055 A 
HETATM   33  C22 UNL     1      34.328  17.953  38.697  1.00  0.00     0.010 A 
HETATM   34  C21 UNL     1      35.684  18.056  38.503  1.00  0.00     0.030 A 
BRANCH  32  35
HETATM   35  C2  UNL     1      32.320  17.670  40.177  1.00  0.00     0.010 C 
HETATM   36  C1  UNL     1      31.564  18.910  39.797  1.00  0.00     0.015 C 
HETATM   37  C3  UNL     1      32.061  17.280  41.605  1.00  0.00     0.015 C 
ENDBRANCH  32  35
ENDBRANCH  26  29
ENDBRANCH   1  25
TORSDOF 11
ENDMDL
