MODEL 13
REMARK VINA RESULT: -6.621200969      4.084      5.550
REMARK  11 active torsions:
REMARK  status: ('A' for Active; 'I' for Inactive)
REMARK    1  A    between atoms: C2_2  and  C4_4 
REMARK    2  A    between atoms: C7_7  and  N1_8 
REMARK       I    between atoms: N1_8  and  C8_10 
REMARK    3  A    between atoms: C8_10  and  C9_12 
REMARK       I    between atoms: N2_16  and  C13_17 
REMARK    4  A    between atoms: C13_17  and  C14_19 
REMARK    5  A    between atoms: C14_19  and  C15_20 
REMARK    6  A    between atoms: C14_19  and  N4_28 
REMARK    7  A    between atoms: C15_20  and  C16_21 
REMARK    8  A    between atoms: C16_21  and  C17_22 
REMARK    9  A    between atoms: C17_22  and  C18_23 
REMARK   10  A    between atoms: C18_23  and  N3_24 
REMARK       I    between atoms: N4_28  and  C19_30 
REMARK   11  A    between atoms: C19_30  and  C20_32 
ROOT
HETATM    1  C9  UNL     1      36.901  16.491  38.211  1.00  0.00     0.179 C 
HETATM    2  C10 UNL     1      37.962  16.398  39.299  1.00  0.00     0.037 C 
HETATM    3  C11 UNL     1      39.233  16.571  38.449  1.00  0.00     0.022 C 
HETATM    4  C12 UNL     1      38.742  17.097  37.122  1.00  0.00     0.127 C 
HETATM    5  N2  UNL     1      37.365  17.596  37.469  1.00  0.00    -0.337 N 
HETATM    6  C13 UNL     1      36.914  18.862  37.060  1.00  0.00     0.243 C 
HETATM    7  O2  UNL     1      35.764  19.286  37.279  1.00  0.00    -0.271 OA
ENDROOT
BRANCH   6   8
HETATM    8  C14 UNL     1      37.824  19.801  36.312  1.00  0.00     0.177 C 
BRANCH   8   9
HETATM    9  C15 UNL     1      38.364  20.856  37.294  1.00  0.00     0.035 C 
BRANCH   9  10
HETATM   10  C16 UNL     1      39.755  21.198  36.897  1.00  0.00     0.004 C 
BRANCH  10  11
HETATM   11  C17 UNL     1      40.618  21.910  37.854  1.00  0.00     0.027 C 
BRANCH  11  12
HETATM   12  C18 UNL     1      40.587  23.394  37.886  1.00  0.00     0.229 C 
BRANCH  12  13
HETATM   13  N3  UNL     1      41.335  23.988  38.935  1.00  0.00    -0.079 N 
ATOM     14  H33 UNL     1      42.107  23.378  39.206  1.00  0.00     0.274 HD
ATOM     15  H32 UNL     1      41.858  24.791  38.584  1.00  0.00     0.274 HD
ATOM     16  H31 UNL     1      40.792  24.254  39.757  1.00  0.00     0.274 HD
ENDBRANCH  12  13
ENDBRANCH  11  12
ENDBRANCH  10  11
ENDBRANCH   9  10
ENDBRANCH   8   9
BRANCH   8  17
HETATM   17  N4  UNL     1      37.010  20.557  35.386  1.00  0.00    -0.340 N 
HETATM   18  C19 UNL     1      37.000  20.246  34.014  1.00  0.00     0.326 C 
HETATM   19  O3  UNL     1      37.680  19.314  33.508  1.00  0.00    -0.263 OA
ATOM     20  H4  UNL     1      36.435  21.325  35.732  1.00  0.00     0.163 HD
BRANCH  18  21
HETATM   21  C20 UNL     1      36.138  21.062  33.101  1.00  0.00     0.472 C 
HETATM   22  F1  UNL     1      35.256  20.249  32.405  1.00  0.00    -0.162 F 
HETATM   23  F2  UNL     1      36.890  21.804  32.214  1.00  0.00    -0.162 F 
HETATM   24  F3  UNL     1      35.394  21.976  33.854  1.00  0.00    -0.162 F 
ENDBRANCH  18  21
ENDBRANCH   8  17
ENDBRANCH   6   8
BRANCH   1  25
HETATM   25  C8  UNL     1      35.545  16.455  38.719  1.00  0.00     0.245 C 
HETATM   26  N1  UNL     1      35.059  17.352  39.706  1.00  0.00    -0.325 N 
ATOM     27  H1  UNL     1      35.729  18.041  40.048  1.00  0.00     0.169 HD
HETATM   28  O1  UNL     1      34.738  15.608  38.292  1.00  0.00    -0.271 OA
BRANCH  26  29
HETATM   29  C7  UNL     1      33.779  17.415  40.271  1.00  0.00     0.034 A 
HETATM   30  C6  UNL     1      33.362  16.822  41.414  1.00  0.00     0.030 A 
HETATM   31  C5  UNL     1      32.042  16.947  41.883  1.00  0.00     0.010 A 
HETATM   32  C4  UNL     1      31.097  17.681  41.206  1.00  0.00    -0.055 A 
HETATM   33  C22 UNL     1      31.519  18.286  40.043  1.00  0.00     0.010 A 
HETATM   34  C21 UNL     1      32.808  18.161  39.587  1.00  0.00     0.030 A 
BRANCH  32  35
HETATM   35  C2  UNL     1      29.706  17.804  41.711  1.00  0.00     0.010 C 
HETATM   36  C1  UNL     1      29.003  19.034  41.214  1.00  0.00     0.015 C 
HETATM   37  C3  UNL     1      29.707  17.736  43.213  1.00  0.00     0.015 C 
ENDBRANCH  32  35
ENDBRANCH  26  29
ENDBRANCH   1  25
TORSDOF 11
ENDMDL
