MODEL 12
REMARK VINA RESULT: -6.638890413      3.711      4.857
REMARK  11 active torsions:
REMARK  status: ('A' for Active; 'I' for Inactive)
REMARK    1  A    between atoms: C2_2  and  C4_4 
REMARK    2  A    between atoms: C7_7  and  N1_8 
REMARK       I    between atoms: N1_8  and  C8_10 
REMARK    3  A    between atoms: C8_10  and  C9_12 
REMARK       I    between atoms: N2_16  and  C13_17 
REMARK    4  A    between atoms: C13_17  and  C14_19 
REMARK    5  A    between atoms: C14_19  and  C15_20 
REMARK    6  A    between atoms: C14_19  and  N4_28 
REMARK    7  A    between atoms: C15_20  and  C16_21 
REMARK    8  A    between atoms: C16_21  and  C17_22 
REMARK    9  A    between atoms: C17_22  and  C18_23 
REMARK   10  A    between atoms: C18_23  and  N3_24 
REMARK       I    between atoms: N4_28  and  C19_30 
REMARK   11  A    between atoms: C19_30  and  C20_32 
ROOT
HETATM    1  C9  UNL     1      39.865  17.442  38.505  1.00  0.00     0.179 C 
HETATM    2  C10 UNL     1      40.684  18.250  39.503  1.00  0.00     0.037 C 
HETATM    3  C11 UNL     1      41.982  18.433  38.697  1.00  0.00     0.022 C 
HETATM    4  C12 UNL     1      41.614  18.061  37.281  1.00  0.00     0.127 C 
HETATM    5  N2  UNL     1      40.111  18.149  37.310  1.00  0.00    -0.337 N 
HETATM    6  C13 UNL     1      39.391  18.823  36.311  1.00  0.00     0.243 C 
HETATM    7  O2  UNL     1      38.147  18.869  36.272  1.00  0.00    -0.271 OA
ENDROOT
BRANCH   6   8
HETATM    8  C14 UNL     1      40.106  19.548  35.201  1.00  0.00     0.177 C 
BRANCH   8   9
HETATM    9  C15 UNL     1      40.844  20.761  35.794  1.00  0.00     0.035 C 
BRANCH   9  10
HETATM   10  C16 UNL     1      39.890  21.518  36.649  1.00  0.00     0.004 C 
BRANCH  10  11
HETATM   11  C17 UNL     1      40.383  22.152  37.883  1.00  0.00     0.027 C 
BRANCH  11  12
HETATM   12  C18 UNL     1      40.816  23.571  37.840  1.00  0.00     0.229 C 
BRANCH  12  13
HETATM   13  N3  UNL     1      41.373  24.066  39.048  1.00  0.00    -0.079 N 
ATOM     14  H33 UNL     1      41.443  23.316  39.735  1.00  0.00     0.274 HD
ATOM     15  H32 UNL     1      42.362  24.280  38.917  1.00  0.00     0.274 HD
ATOM     16  H31 UNL     1      40.890  24.869  39.450  1.00  0.00     0.274 HD
ENDBRANCH  12  13
ENDBRANCH  11  12
ENDBRANCH  10  11
ENDBRANCH   9  10
ENDBRANCH   8   9
BRANCH   8  17
HETATM   17  N4  UNL     1      39.101  20.127  34.337  1.00  0.00    -0.340 N 
HETATM   18  C19 UNL     1      39.133  19.913  32.947  1.00  0.00     0.326 C 
HETATM   19  O3  UNL     1      40.015  19.220  32.372  1.00  0.00    -0.263 OA
ATOM     20  H4  UNL     1      38.359  20.698  34.740  1.00  0.00     0.163 HD
BRANCH  18  21
HETATM   21  C20 UNL     1      38.067  20.536  32.100  1.00  0.00     0.472 C 
HETATM   22  F1  UNL     1      37.472  19.586  31.284  1.00  0.00    -0.162 F 
HETATM   23  F2  UNL     1      38.563  21.569  31.333  1.00  0.00    -0.162 F 
HETATM   24  F3  UNL     1      37.081  21.089  32.924  1.00  0.00    -0.162 F 
ENDBRANCH  18  21
ENDBRANCH   8  17
ENDBRANCH   6   8
BRANCH   1  25
HETATM   25  C8  UNL     1      38.510  17.180  38.947  1.00  0.00     0.245 C 
HETATM   26  N1  UNL     1      37.618  18.199  39.372  1.00  0.00    -0.325 N 
ATOM     27  H1  UNL     1      37.988  19.149  39.351  1.00  0.00     0.169 HD
HETATM   28  O1  UNL     1      38.072  16.014  38.967  1.00  0.00    -0.271 OA
BRANCH  26  29
HETATM   29  C7  UNL     1      36.297  18.070  39.817  1.00  0.00     0.034 A 
HETATM   30  C6  UNL     1      35.878  17.889  41.090  1.00  0.00     0.030 A 
HETATM   31  C5  UNL     1      34.517  17.762  41.421  1.00  0.00     0.010 A 
HETATM   32  C4  UNL     1      33.531  17.814  40.465  1.00  0.00    -0.055 A 
HETATM   33  C22 UNL     1      33.953  17.999  39.168  1.00  0.00     0.010 A 
HETATM   34  C21 UNL     1      35.283  18.122  38.848  1.00  0.00     0.030 A 
BRANCH  32  35
HETATM   35  C2  UNL     1      32.096  17.676  40.826  1.00  0.00     0.010 C 
HETATM   36  C1  UNL     1      31.865  16.749  41.984  1.00  0.00     0.015 C 
HETATM   37  C3  UNL     1      31.310  17.256  39.616  1.00  0.00     0.015 C 
ENDBRANCH  32  35
ENDBRANCH  26  29
ENDBRANCH   1  25
TORSDOF 11
ENDMDL
