MODEL 9
REMARK VINA RESULT: -6.791382021      2.616      3.544
REMARK  11 active torsions:
REMARK  status: ('A' for Active; 'I' for Inactive)
REMARK    1  A    between atoms: C2_2  and  C4_4 
REMARK    2  A    between atoms: C7_7  and  N1_8 
REMARK       I    between atoms: N1_8  and  C8_10 
REMARK    3  A    between atoms: C8_10  and  C9_12 
REMARK       I    between atoms: N2_16  and  C13_17 
REMARK    4  A    between atoms: C13_17  and  C14_19 
REMARK    5  A    between atoms: C14_19  and  C15_20 
REMARK    6  A    between atoms: C14_19  and  N4_28 
REMARK    7  A    between atoms: C15_20  and  C16_21 
REMARK    8  A    between atoms: C16_21  and  C17_22 
REMARK    9  A    between atoms: C17_22  and  C18_23 
REMARK   10  A    between atoms: C18_23  and  N3_24 
REMARK       I    between atoms: N4_28  and  C19_30 
REMARK   11  A    between atoms: C19_30  and  C20_32 
ROOT
HETATM    1  C9  UNL     1      36.715  19.024  36.598  1.00  0.00     0.179 C 
HETATM    2  C10 UNL     1      36.993  18.020  35.487  1.00  0.00     0.037 C 
HETATM    3  C11 UNL     1      37.749  18.921  34.495  1.00  0.00     0.022 C 
HETATM    4  C12 UNL     1      38.120  20.148  35.292  1.00  0.00     0.127 C 
HETATM    5  N2  UNL     1      37.966  19.664  36.709  1.00  0.00    -0.337 N 
HETATM    6  C13 UNL     1      38.952  19.899  37.681  1.00  0.00     0.243 C 
HETATM    7  O2  UNL     1      38.836  19.563  38.875  1.00  0.00    -0.271 OA
ENDROOT
BRANCH   6   8
HETATM    8  C14 UNL     1      40.242  20.590  37.321  1.00  0.00     0.177 C 
BRANCH   8   9
HETATM    9  C15 UNL     1      41.372  20.021  38.197  1.00  0.00     0.035 C 
BRANCH   9  10
HETATM   10  C16 UNL     1      42.038  18.923  37.447  1.00  0.00     0.004 C 
BRANCH  10  11
HETATM   11  C17 UNL     1      42.314  17.651  38.135  1.00  0.00     0.027 C 
BRANCH  11  12
HETATM   12  C18 UNL     1      41.443  17.239  39.264  1.00  0.00     0.229 C 
BRANCH  12  13
HETATM   13  N3  UNL     1      40.200  16.669  38.886  1.00  0.00    -0.079 N 
ATOM     14  H33 UNL     1      39.560  16.663  39.680  1.00  0.00     0.274 HD
ATOM     15  H32 UNL     1      39.700  17.299  38.259  1.00  0.00     0.274 HD
ATOM     16  H31 UNL     1      40.259  15.737  38.474  1.00  0.00     0.274 HD
ENDBRANCH  12  13
ENDBRANCH  11  12
ENDBRANCH  10  11
ENDBRANCH   9  10
ENDBRANCH   8   9
BRANCH   8  17
HETATM   17  N4  UNL     1      40.129  21.972  37.734  1.00  0.00    -0.340 N 
HETATM   18  C19 UNL     1      41.052  22.936  37.288  1.00  0.00     0.326 C 
HETATM   19  O3  UNL     1      42.014  22.672  36.519  1.00  0.00    -0.263 OA
ATOM     20  H4  UNL     1      39.371  22.250  38.357  1.00  0.00     0.163 HD
BRANCH  18  21
HETATM   21  C20 UNL     1      40.887  24.351  37.748  1.00  0.00     0.472 C 
HETATM   22  F1  UNL     1      42.059  25.068  37.555  1.00  0.00    -0.162 F 
HETATM   23  F2  UNL     1      40.509  24.418  39.073  1.00  0.00    -0.162 F 
HETATM   24  F3  UNL     1      39.868  24.965  37.012  1.00  0.00    -0.162 F 
ENDBRANCH  18  21
ENDBRANCH   8  17
ENDBRANCH   6   8
BRANCH   1  25
HETATM   25  C8  UNL     1      36.073  18.441  37.758  1.00  0.00     0.245 C 
HETATM   26  N1  UNL     1      36.682  17.445  38.566  1.00  0.00    -0.325 N 
ATOM     27  H1  UNL     1      37.616  17.153  38.282  1.00  0.00     0.169 HD
HETATM   28  O1  UNL     1      34.931  18.807  38.093  1.00  0.00    -0.271 OA
BRANCH  26  29
HETATM   29  C7  UNL     1      36.165  16.811  39.703  1.00  0.00     0.034 A 
HETATM   30  C6  UNL     1      36.094  17.315  40.956  1.00  0.00     0.030 A 
HETATM   31  C5  UNL     1      35.561  16.579  42.030  1.00  0.00     0.010 A 
HETATM   32  C4  UNL     1      35.079  15.302  41.866  1.00  0.00    -0.055 A 
HETATM   33  C22 UNL     1      35.149  14.786  40.592  1.00  0.00     0.010 A 
HETATM   34  C21 UNL     1      35.671  15.507  39.546  1.00  0.00     0.030 A 
BRANCH  32  35
HETATM   35  C2  UNL     1      34.520  14.535  43.009  1.00  0.00     0.010 C 
HETATM   36  C1  UNL     1      35.001  13.113  43.059  1.00  0.00     0.015 C 
HETATM   37  C3  UNL     1      33.019  14.609  42.979  1.00  0.00     0.015 C 
ENDBRANCH  32  35
ENDBRANCH  26  29
ENDBRANCH   1  25
TORSDOF 11
ENDMDL
