MODEL 3
REMARK VINA RESULT: -7.025267200      3.343      5.973
REMARK  14 active torsions:
REMARK  status: ('A' for Active; 'I' for Inactive)
REMARK    1  A    between atoms: C2_2  and  C4_4 
REMARK    2  A    between atoms: C4_4  and  C5_5 
REMARK    3  A    between atoms: C5_5  and  N1_6 
REMARK    4  A    between atoms: C5_5  and  C14_27 
REMARK       I    between atoms: N1_6  and  C6_8 
REMARK    5  A    between atoms: C6_8  and  C7_10 
REMARK    6  A    between atoms: C7_10  and  C8_11 
REMARK    7  A    between atoms: C7_10  and  N3_19 
REMARK    8  A    between atoms: C8_11  and  C9_12 
REMARK    9  A    between atoms: C9_12  and  C10_13 
REMARK   10  A    between atoms: C10_13  and  C11_14 
REMARK   11  A    between atoms: C11_14  and  N2_15 
REMARK       I    between atoms: N3_19  and  C12_21 
REMARK   12  A    between atoms: C12_21  and  C13_23 
REMARK       I    between atoms: C14_27  and  N4_29 
REMARK   13  A    between atoms: N4_29  and  C15_31 
REMARK   14  A    between atoms: C18_34  and  C19_35 
ROOT
HETATM    1  N1  UNL     1      39.928  20.443  37.522  1.00  0.00    -0.346 N 
ATOM      2  H1  UNL     1      39.160  20.771  36.936  1.00  0.00     0.163 HD
HETATM    3  C6  UNL     1      41.185  21.066  37.403  1.00  0.00     0.241 C 
HETATM    4  O1  UNL     1      42.116  20.649  38.138  1.00  0.00    -0.271 OA
ENDROOT
BRANCH   1   5
HETATM    5  C5  UNL     1      39.677  19.324  38.471  1.00  0.00     0.177 C 
BRANCH   5   6
HETATM    6  C4  UNL     1      38.228  19.017  38.495  1.00  0.00     0.038 C 
BRANCH   6   7
HETATM    7  C2  UNL     1      37.872  17.864  39.373  1.00  0.00    -0.020 C 
HETATM    8  C1  UNL     1      36.831  18.329  40.417  1.00  0.00     0.009 C 
HETATM    9  C3  UNL     1      37.240  16.692  38.676  1.00  0.00     0.009 C 
ENDBRANCH   6   7
ENDBRANCH   5   6
BRANCH   5  10
HETATM   10  C14 UNL     1      40.536  18.242  37.952  1.00  0.00     0.245 C 
HETATM   11  O3  UNL     1      40.188  17.630  36.929  1.00  0.00    -0.271 OA
HETATM   12  N4  UNL     1      41.739  17.914  38.605  1.00  0.00    -0.325 N 
ATOM     13  H4  UNL     1      41.968  18.459  39.436  1.00  0.00     0.169 HD
BRANCH  12  14
HETATM   14  C15 UNL     1      42.661  16.915  38.235  1.00  0.00     0.034 A 
HETATM   15  C16 UNL     1      43.460  17.079  37.099  1.00  0.00     0.030 A 
HETATM   16  C17 UNL     1      44.383  16.139  36.709  1.00  0.00     0.010 A 
HETATM   17  C18 UNL     1      44.560  14.979  37.432  1.00  0.00    -0.055 A 
HETATM   18  C22 UNL     1      43.793  14.801  38.540  1.00  0.00     0.010 A 
HETATM   19  C23 UNL     1      42.854  15.764  38.931  1.00  0.00     0.030 A 
BRANCH  17  20
HETATM   20  C19 UNL     1      45.567  14.010  36.955  1.00  0.00     0.010 C 
HETATM   21  C20 UNL     1      46.619  14.812  36.181  1.00  0.00     0.015 C 
HETATM   22  C21 UNL     1      44.982  12.982  36.016  1.00  0.00     0.015 C 
ENDBRANCH  17  20
ENDBRANCH  12  14
ENDBRANCH   5  10
ENDBRANCH   1   5
BRANCH   3  23
HETATM   23  C7  UNL     1      41.445  22.183  36.449  1.00  0.00     0.176 C 
BRANCH  23  24
HETATM   24  C8  UNL     1      42.640  21.808  35.576  1.00  0.00     0.035 C 
BRANCH  24  25
HETATM   25  C9  UNL     1      43.700  22.883  35.630  1.00  0.00     0.004 C 
BRANCH  25  26
HETATM   26  C10 UNL     1      45.091  22.353  35.482  1.00  0.00     0.027 C 
BRANCH  26  27
HETATM   27  C11 UNL     1      45.627  22.459  34.089  1.00  0.00     0.229 C 
BRANCH  27  28
HETATM   28  N2  UNL     1      47.011  22.022  34.032  1.00  0.00    -0.079 N 
ATOM     29  H23 UNL     1      47.634  22.779  33.748  1.00  0.00     0.274 HD
ATOM     30  H22 UNL     1      47.391  21.851  34.963  1.00  0.00     0.274 HD
ATOM     31  H21 UNL     1      47.111  21.206  33.428  1.00  0.00     0.274 HD
ENDBRANCH  27  28
ENDBRANCH  26  27
ENDBRANCH  25  26
ENDBRANCH  24  25
ENDBRANCH  23  24
BRANCH  23  32
HETATM   32  N3  UNL     1      41.705  23.425  37.159  1.00  0.00    -0.340 N 
HETATM   33  C12 UNL     1      40.698  24.072  37.934  1.00  0.00     0.326 C 
HETATM   34  O2  UNL     1      39.557  23.539  37.990  1.00  0.00    -0.263 OA
ATOM     35  H3  UNL     1      42.633  23.845  37.100  1.00  0.00     0.163 HD
BRANCH  33  36
HETATM   36  C13 UNL     1      40.974  25.339  38.660  1.00  0.00     0.472 C 
HETATM   37  F1  UNL     1      41.084  25.143  40.022  1.00  0.00    -0.162 F 
HETATM   38  F2  UNL     1      42.217  25.791  38.211  1.00  0.00    -0.162 F 
HETATM   39  F3  UNL     1      40.037  26.295  38.348  1.00  0.00    -0.162 F 
ENDBRANCH  33  36
ENDBRANCH  23  32
ENDBRANCH   3  23
TORSDOF 14
ENDMDL
