MODEL 1
REMARK VINA RESULT: -7.335889593      0.000      0.000
REMARK  14 active torsions:
REMARK  status: ('A' for Active; 'I' for Inactive)
REMARK    1  A    between atoms: C2_2  and  C4_4 
REMARK    2  A    between atoms: C4_4  and  C5_5 
REMARK    3  A    between atoms: C5_5  and  N1_6 
REMARK    4  A    between atoms: C5_5  and  C14_27 
REMARK       I    between atoms: N1_6  and  C6_8 
REMARK    5  A    between atoms: C6_8  and  C7_10 
REMARK    6  A    between atoms: C7_10  and  C8_11 
REMARK    7  A    between atoms: C7_10  and  N3_19 
REMARK    8  A    between atoms: C8_11  and  C9_12 
REMARK    9  A    between atoms: C9_12  and  C10_13 
REMARK   10  A    between atoms: C10_13  and  C11_14 
REMARK   11  A    between atoms: C11_14  and  N2_15 
REMARK       I    between atoms: N3_19  and  C12_21 
REMARK   12  A    between atoms: C12_21  and  C13_23 
REMARK       I    between atoms: C14_27  and  N4_29 
REMARK   13  A    between atoms: N4_29  and  C15_31 
REMARK   14  A    between atoms: C18_34  and  C19_35 
ROOT
HETATM    1  N1  UNL     1      38.798  20.303  36.261  1.00  0.00    -0.346 N 
ATOM      2  H1  UNL     1      39.496  19.914  35.627  1.00  0.00     0.163 HD
HETATM    3  C6  UNL     1      39.212  21.231  37.237  1.00  0.00     0.241 C 
HETATM    4  O1  UNL     1      38.334  21.700  38.005  1.00  0.00    -0.271 OA
ENDROOT
BRANCH   1   5
HETATM    5  C5  UNL     1      37.382  19.868  36.120  1.00  0.00     0.177 C 
BRANCH   5   6
HETATM    6  C4  UNL     1      37.156  19.374  34.743  1.00  0.00     0.038 C 
BRANCH   6   7
HETATM    7  C2  UNL     1      35.812  19.719  34.192  1.00  0.00    -0.020 C 
HETATM    8  C1  UNL     1      35.876  21.127  33.556  1.00  0.00     0.009 C 
HETATM    9  C3  UNL     1      35.307  18.813  33.105  1.00  0.00     0.009 C 
ENDBRANCH   6   7
ENDBRANCH   5   6
BRANCH   5  10
HETATM   10  C14 UNL     1      37.232  18.854  37.181  1.00  0.00     0.245 C 
HETATM   11  O3  UNL     1      37.899  17.808  37.117  1.00  0.00    -0.271 OA
HETATM   12  N4  UNL     1      36.351  19.073  38.257  1.00  0.00    -0.325 N 
ATOM     13  H4  UNL     1      35.839  19.955  38.251  1.00  0.00     0.169 HD
BRANCH  12  14
HETATM   14  C15 UNL     1      36.101  18.208  39.339  1.00  0.00     0.034 A 
HETATM   15  C16 UNL     1      35.358  17.038  39.149  1.00  0.00     0.030 A 
HETATM   16  C17 UNL     1      35.102  16.157  40.171  1.00  0.00     0.010 A 
HETATM   17  C18 UNL     1      35.574  16.393  41.444  1.00  0.00    -0.055 A 
HETATM   18  C22 UNL     1      36.300  17.525  41.649  1.00  0.00     0.010 A 
HETATM   19  C23 UNL     1      36.556  18.419  40.602  1.00  0.00     0.030 A 
BRANCH  17  20
HETATM   20  C19 UNL     1      35.261  15.406  42.497  1.00  0.00     0.010 C 
HETATM   21  C20 UNL     1      36.149  14.186  42.236  1.00  0.00     0.015 C 
HETATM   22  C21 UNL     1      33.822  14.952  42.454  1.00  0.00     0.015 C 
ENDBRANCH  17  20
ENDBRANCH  12  14
ENDBRANCH   5  10
ENDBRANCH   1   5
BRANCH   3  23
HETATM   23  C7  UNL     1      40.631  21.665  37.389  1.00  0.00     0.176 C 
BRANCH  23  24
HETATM   24  C8  UNL     1      41.437  20.499  37.953  1.00  0.00     0.035 C 
BRANCH  24  25
HETATM   25  C9  UNL     1      42.390  19.955  36.915  1.00  0.00     0.004 C 
BRANCH  25  26
HETATM   26  C10 UNL     1      42.502  20.821  35.700  1.00  0.00     0.027 C 
BRANCH  26  27
HETATM   27  C11 UNL     1      43.821  21.517  35.580  1.00  0.00     0.229 C 
BRANCH  27  28
HETATM   28  N2  UNL     1      43.687  22.934  35.864  1.00  0.00    -0.079 N 
ATOM     29  H23 UNL     1      43.624  23.486  35.009  1.00  0.00     0.274 HD
ATOM     30  H22 UNL     1      42.772  23.155  36.258  1.00  0.00     0.274 HD
ATOM     31  H21 UNL     1      44.444  23.258  36.466  1.00  0.00     0.274 HD
ENDBRANCH  27  28
ENDBRANCH  26  27
ENDBRANCH  25  26
ENDBRANCH  24  25
ENDBRANCH  23  24
BRANCH  23  32
HETATM   32  N3  UNL     1      40.731  22.822  38.262  1.00  0.00    -0.340 N 
HETATM   33  C12 UNL     1      40.841  24.147  37.745  1.00  0.00     0.326 C 
HETATM   34  O2  UNL     1      40.852  24.296  36.494  1.00  0.00    -0.263 OA
ATOM     35  H3  UNL     1      40.724  22.683  39.273  1.00  0.00     0.163 HD
BRANCH  33  36
HETATM   36  C13 UNL     1      40.938  25.325  38.646  1.00  0.00     0.472 C 
HETATM   37  F1  UNL     1      40.927  24.963  39.977  1.00  0.00    -0.162 F 
HETATM   38  F2  UNL     1      42.179  25.915  38.393  1.00  0.00    -0.162 F 
HETATM   39  F3  UNL     1      39.963  26.248  38.351  1.00  0.00    -0.162 F 
ENDBRANCH  33  36
ENDBRANCH  23  32
ENDBRANCH   3  23
TORSDOF 14
ENDMDL
