MODEL 2
REMARK VINA RESULT: -7.208329366      1.259      1.745
REMARK  14 active torsions:
REMARK  status: ('A' for Active; 'I' for Inactive)
REMARK    1  A    between atoms: C2_2  and  C4_4 
REMARK    2  A    between atoms: C4_4  and  C5_5 
REMARK    3  A    between atoms: C5_5  and  N1_6 
REMARK    4  A    between atoms: C5_5  and  C14_27 
REMARK       I    between atoms: N1_6  and  C6_8 
REMARK    5  A    between atoms: C6_8  and  C7_10 
REMARK    6  A    between atoms: C7_10  and  C8_11 
REMARK    7  A    between atoms: C7_10  and  N3_19 
REMARK    8  A    between atoms: C8_11  and  C9_12 
REMARK    9  A    between atoms: C9_12  and  C10_13 
REMARK   10  A    between atoms: C10_13  and  C11_14 
REMARK   11  A    between atoms: C11_14  and  N2_15 
REMARK       I    between atoms: N3_19  and  C12_21 
REMARK   12  A    between atoms: C12_21  and  C13_23 
REMARK       I    between atoms: C14_27  and  N4_29 
REMARK   13  A    between atoms: N4_29  and  C15_31 
REMARK   14  A    between atoms: C18_34  and  C19_35 
ROOT
HETATM    1  N1  UNL     1      39.001  20.329  36.232  1.00  0.00    -0.346 N 
ATOM      2  H1  UNL     1      39.695  19.904  35.616  1.00  0.00     0.163 HD
HETATM    3  C6  UNL     1      39.429  21.278  37.181  1.00  0.00     0.241 C 
HETATM    4  O1  UNL     1      38.557  21.791  37.927  1.00  0.00    -0.271 OA
ENDROOT
BRANCH   1   5
HETATM    5  C5  UNL     1      37.577  19.921  36.095  1.00  0.00     0.177 C 
BRANCH   5   6
HETATM    6  C4  UNL     1      37.337  19.432  34.718  1.00  0.00     0.038 C 
BRANCH   6   7
HETATM    7  C2  UNL     1      35.946  19.664  34.231  1.00  0.00    -0.020 C 
HETATM    8  C1  UNL     1      35.881  21.040  33.529  1.00  0.00     0.009 C 
HETATM    9  C3  UNL     1      35.443  18.676  33.216  1.00  0.00     0.009 C 
ENDBRANCH   6   7
ENDBRANCH   5   6
BRANCH   5  10
HETATM   10  C14 UNL     1      37.412  18.907  37.156  1.00  0.00     0.245 C 
HETATM   11  O3  UNL     1      38.084  17.864  37.106  1.00  0.00    -0.271 OA
HETATM   12  N4  UNL     1      36.510  19.126  38.214  1.00  0.00    -0.325 N 
ATOM     13  H4  UNL     1      35.994  20.005  38.196  1.00  0.00     0.169 HD
BRANCH  12  14
HETATM   14  C15 UNL     1      36.242  18.261  39.293  1.00  0.00     0.034 A 
HETATM   15  C16 UNL     1      35.484  17.103  39.097  1.00  0.00     0.030 A 
HETATM   16  C17 UNL     1      35.211  16.223  40.117  1.00  0.00     0.010 A 
HETATM   17  C18 UNL     1      35.682  16.449  41.392  1.00  0.00    -0.055 A 
HETATM   18  C22 UNL     1      36.423  17.570  41.603  1.00  0.00     0.010 A 
HETATM   19  C23 UNL     1      36.696  18.462  40.558  1.00  0.00     0.030 A 
BRANCH  17  20
HETATM   20  C19 UNL     1      35.350  15.465  42.441  1.00  0.00     0.010 C 
HETATM   21  C20 UNL     1      36.135  14.190  42.113  1.00  0.00     0.015 C 
HETATM   22  C21 UNL     1      33.882  15.114  42.461  1.00  0.00     0.015 C 
ENDBRANCH  17  20
ENDBRANCH  12  14
ENDBRANCH   5  10
ENDBRANCH   1   5
BRANCH   3  23
HETATM   23  C7  UNL     1      40.856  21.686  37.329  1.00  0.00     0.176 C 
BRANCH  23  24
HETATM   24  C8  UNL     1      41.647  20.497  37.868  1.00  0.00     0.035 C 
BRANCH  24  25
HETATM   25  C9  UNL     1      40.876  19.792  38.959  1.00  0.00     0.004 C 
BRANCH  25  26
HETATM   26  C10 UNL     1      41.073  18.309  38.962  1.00  0.00     0.027 C 
BRANCH  26  27
HETATM   27  C11 UNL     1      42.405  17.880  38.432  1.00  0.00     0.229 C 
BRANCH  27  28
HETATM   28  N2  UNL     1      42.788  16.589  38.976  1.00  0.00    -0.079 N 
ATOM     29  H23 UNL     1      43.720  16.616  39.390  1.00  0.00     0.274 HD
ATOM     30  H22 UNL     1      42.253  16.360  39.814  1.00  0.00     0.274 HD
ATOM     31  H21 UNL     1      42.710  15.858  38.269  1.00  0.00     0.274 HD
ENDBRANCH  27  28
ENDBRANCH  26  27
ENDBRANCH  25  26
ENDBRANCH  24  25
ENDBRANCH  23  24
BRANCH  23  32
HETATM   32  N3  UNL     1      40.983  22.826  38.220  1.00  0.00    -0.340 N 
HETATM   33  C12 UNL     1      40.831  24.166  37.755  1.00  0.00     0.326 C 
HETATM   34  O2  UNL     1      40.584  24.343  36.531  1.00  0.00    -0.263 OA
ATOM     35  H3  UNL     1      41.186  22.664  39.207  1.00  0.00     0.163 HD
BRANCH  33  36
HETATM   36  C13 UNL     1      40.958  25.326  38.674  1.00  0.00     0.472 C 
HETATM   37  F1  UNL     1      40.957  24.940  39.999  1.00  0.00    -0.162 F 
HETATM   38  F2  UNL     1      42.204  25.901  38.417  1.00  0.00    -0.162 F 
HETATM   39  F3  UNL     1      39.993  26.268  38.408  1.00  0.00    -0.162 F 
ENDBRANCH  33  36
ENDBRANCH  23  32
ENDBRANCH   3  23
TORSDOF 14
ENDMDL
