MODEL 1
REMARK VINA RESULT: -7.785280039      0.000      0.000
REMARK  14 active torsions:
REMARK  status: ('A' for Active; 'I' for Inactive)
REMARK    1  A    between atoms: C2_2  and  C4_4 
REMARK    2  A    between atoms: C7_7  and  N1_8 
REMARK       I    between atoms: N1_8  and  C8_10 
REMARK    3  A    between atoms: C8_10  and  C9_12 
REMARK    4  A    between atoms: C9_12  and  C10_13 
REMARK    5  A    between atoms: C9_12  and  N2_20 
REMARK    6  A    between atoms: C10_13  and  C11_14 
REMARK       I    between atoms: N2_20  and  C17_22 
REMARK    7  A    between atoms: C17_22  and  C18_24 
REMARK    8  A    between atoms: C18_24  and  C19_25 
REMARK    9  A    between atoms: C18_24  and  N4_33 
REMARK   10  A    between atoms: C19_25  and  C20_26 
REMARK   11  A    between atoms: C20_26  and  C21_27 
REMARK   12  A    between atoms: C21_27  and  C22_28 
REMARK   13  A    between atoms: C22_28  and  N3_29 
REMARK       I    between atoms: N4_33  and  C23_35 
REMARK   14  A    between atoms: C23_35  and  C24_37 
ROOT
HETATM    1  C9  UNL     1      38.643  18.628  37.984  1.00  0.00     0.181 C 
ENDROOT
BRANCH   1   2
HETATM    2  C8  UNL     1      39.678  17.518  38.063  1.00  0.00     0.245 C 
HETATM    3  N1  UNL     1      40.915  17.815  38.684  1.00  0.00    -0.325 N 
ATOM      4  H1  UNL     1      41.024  18.631  39.286  1.00  0.00     0.169 HD
HETATM    5  O1  UNL     1      39.448  16.389  37.623  1.00  0.00    -0.271 OA
BRANCH   3   6
HETATM    6  C7  UNL     1      42.007  16.923  38.434  1.00  0.00     0.034 A 
HETATM    7  C6  UNL     1      42.236  15.714  38.952  1.00  0.00     0.030 A 
HETATM    8  C5  UNL     1      43.194  14.889  38.411  1.00  0.00     0.010 A 
HETATM    9  C4  UNL     1      43.907  15.285  37.317  1.00  0.00    -0.055 A 
HETATM   10  C26 UNL     1      43.658  16.499  36.733  1.00  0.00     0.010 A 
HETATM   11  C25 UNL     1      42.725  17.349  37.268  1.00  0.00     0.030 A 
BRANCH   9  12
HETATM   12  C2  UNL     1      44.875  14.333  36.734  1.00  0.00     0.010 C 
HETATM   13  C1  UNL     1      45.924  15.110  35.936  1.00  0.00     0.015 C 
HETATM   14  C3  UNL     1      44.228  13.342  35.784  1.00  0.00     0.015 C 
ENDBRANCH   9  12
ENDBRANCH   3   6
ENDBRANCH   1   2
BRANCH   1  15
HETATM   15  C10 UNL     1      37.398  18.076  37.373  1.00  0.00     0.073 C 
BRANCH  15  16
HETATM   16  C11 UNL     1      36.241  18.091  38.269  1.00  0.00    -0.056 A 
HETATM   17  C12 UNL     1      36.545  18.106  39.650  1.00  0.00     0.007 A 
HETATM   18  C13 UNL     1      35.569  18.320  40.594  1.00  0.00     0.001 A 
HETATM   19  C14 UNL     1      34.285  18.547  40.193  1.00  0.00     0.000 A 
HETATM   20  C15 UNL     1      33.947  18.510  38.868  1.00  0.00     0.001 A 
HETATM   21  C16 UNL     1      34.939  18.286  37.954  1.00  0.00     0.007 A 
ENDBRANCH  15  16
ENDBRANCH   1  15
BRANCH   1  22
HETATM   22  N2  UNL     1      39.216  19.743  37.226  1.00  0.00    -0.346 N 
HETATM   23  C17 UNL     1      38.730  21.073  37.507  1.00  0.00     0.241 C 
HETATM   24  O2  UNL     1      37.879  21.207  38.339  1.00  0.00    -0.271 OA
ATOM     25  H2  UNL     1      39.937  19.584  36.522  1.00  0.00     0.163 HD
BRANCH  23  26
HETATM   26  C18 UNL     1      39.434  22.132  36.871  1.00  0.00     0.176 C 
BRANCH  26  27
HETATM   27  C19 UNL     1      40.515  21.774  35.858  1.00  0.00     0.035 C 
BRANCH  27  28
HETATM   28  C20 UNL     1      41.906  21.931  36.387  1.00  0.00     0.004 C 
BRANCH  28  29
HETATM   29  C21 UNL     1      42.815  22.603  35.416  1.00  0.00     0.027 C 
BRANCH  29  30
HETATM   30  C22 UNL     1      44.246  22.170  35.442  1.00  0.00     0.229 C 
BRANCH  30  31
HETATM   31  N3  UNL     1      45.127  22.897  34.570  1.00  0.00    -0.079 N 
ATOM     32  H33 UNL     1      45.601  22.253  33.937  1.00  0.00     0.274 HD
ATOM     33  H32 UNL     1      44.584  23.441  33.900  1.00  0.00     0.274 HD
ATOM     34  H31 UNL     1      45.809  23.495  35.036  1.00  0.00     0.274 HD
ENDBRANCH  30  31
ENDBRANCH  29  30
ENDBRANCH  28  29
ENDBRANCH  27  28
ENDBRANCH  26  27
BRANCH  26  35
HETATM   35  N4  UNL     1      40.108  23.087  37.721  1.00  0.00    -0.340 N 
HETATM   36  C23 UNL     1      39.693  24.453  37.663  1.00  0.00     0.326 C 
HETATM   37  O3  UNL     1      38.966  24.808  36.704  1.00  0.00    -0.263 OA
ATOM     38  H4  UNL     1      40.859  22.793  38.346  1.00  0.00     0.163 HD
BRANCH  36  39
HETATM   39  C24 UNL     1      40.039  25.404  38.742  1.00  0.00     0.472 C 
HETATM   40  F1  UNL     1      40.152  24.919  39.974  1.00  0.00    -0.162 F 
HETATM   41  F2  UNL     1      39.211  26.528  38.643  1.00  0.00    -0.162 F 
HETATM   42  F3  UNL     1      41.319  25.900  38.325  1.00  0.00    -0.162 F 
ENDBRANCH  36  39
ENDBRANCH  26  35
ENDBRANCH  23  26
ENDBRANCH   1  22
TORSDOF 14
ENDMDL
