MODEL 2
REMARK VINA RESULT: -7.709521225      2.800      7.400
REMARK  14 active torsions:
REMARK  status: ('A' for Active; 'I' for Inactive)
REMARK    1  A    between atoms: C2_2  and  C4_4 
REMARK    2  A    between atoms: C7_7  and  N1_8 
REMARK       I    between atoms: N1_8  and  C8_10 
REMARK    3  A    between atoms: C8_10  and  C9_12 
REMARK    4  A    between atoms: C9_12  and  C10_13 
REMARK    5  A    between atoms: C9_12  and  N2_20 
REMARK    6  A    between atoms: C10_13  and  C11_14 
REMARK       I    between atoms: N2_20  and  C17_22 
REMARK    7  A    between atoms: C17_22  and  C18_24 
REMARK    8  A    between atoms: C18_24  and  C19_25 
REMARK    9  A    between atoms: C18_24  and  N4_33 
REMARK   10  A    between atoms: C19_25  and  C20_26 
REMARK   11  A    between atoms: C20_26  and  C21_27 
REMARK   12  A    between atoms: C21_27  and  C22_28 
REMARK   13  A    between atoms: C22_28  and  N3_29 
REMARK       I    between atoms: N4_33  and  C23_35 
REMARK   14  A    between atoms: C23_35  and  C24_37 
ROOT
HETATM    1  C9  UNL     1      39.622  17.889  38.148  1.00  0.00     0.181 C 
ENDROOT
BRANCH   1   2
HETATM    2  C8  UNL     1      38.156  17.591  38.413  1.00  0.00     0.245 C 
HETATM    3  N1  UNL     1      37.337  18.657  38.858  1.00  0.00    -0.325 N 
ATOM      4  H1  UNL     1      37.630  19.629  38.755  1.00  0.00     0.169 HD
HETATM    5  O1  UNL     1      37.682  16.467  38.228  1.00  0.00    -0.271 OA
BRANCH   3   6
HETATM    6  C7  UNL     1      36.082  18.316  39.458  1.00  0.00     0.034 A 
HETATM    7  C6  UNL     1      35.803  18.095  40.744  1.00  0.00     0.030 A 
HETATM    8  C5  UNL     1      34.500  18.031  41.179  1.00  0.00     0.010 A 
HETATM    9  C4  UNL     1      33.471  18.221  40.302  1.00  0.00    -0.055 A 
HETATM   10  C26 UNL     1      33.728  18.501  38.986  1.00  0.00     0.010 A 
HETATM   11  C25 UNL     1      35.019  18.546  38.525  1.00  0.00     0.030 A 
BRANCH   9  12
HETATM   12  C2  UNL     1      32.092  18.212  40.832  1.00  0.00     0.010 C 
HETATM   13  C1  UNL     1      31.914  16.999  41.747  1.00  0.00     0.015 C 
HETATM   14  C3  UNL     1      31.042  18.115  39.742  1.00  0.00     0.015 C 
ENDBRANCH   9  12
ENDBRANCH   3   6
ENDBRANCH   1   2
BRANCH   1  15
HETATM   15  C10 UNL     1      40.427  17.380  39.297  1.00  0.00     0.073 C 
BRANCH  15  16
HETATM   16  C11 UNL     1      41.313  16.268  38.953  1.00  0.00    -0.056 A 
HETATM   17  C12 UNL     1      41.222  15.812  37.618  1.00  0.00     0.007 A 
HETATM   18  C13 UNL     1      42.129  14.914  37.106  1.00  0.00     0.001 A 
HETATM   19  C14 UNL     1      43.152  14.470  37.892  1.00  0.00     0.000 A 
HETATM   20  C15 UNL     1      43.255  14.865  39.197  1.00  0.00     0.001 A 
HETATM   21  C16 UNL     1      42.333  15.753  39.679  1.00  0.00     0.007 A 
ENDBRANCH  15  16
ENDBRANCH   1  15
BRANCH   1  22
HETATM   22  N2  UNL     1      39.769  19.330  37.930  1.00  0.00    -0.346 N 
HETATM   23  C17 UNL     1      40.900  19.785  37.156  1.00  0.00     0.241 C 
HETATM   24  O2  UNL     1      41.669  18.970  36.734  1.00  0.00    -0.271 OA
ATOM     25  H2  UNL     1      39.093  19.992  38.313  1.00  0.00     0.163 HD
BRANCH  23  26
HETATM   26  C18 UNL     1      40.905  21.170  36.831  1.00  0.00     0.176 C 
BRANCH  26  27
HETATM   27  C19 UNL     1      39.609  21.954  36.993  1.00  0.00     0.035 C 
BRANCH  27  28
HETATM   28  C20 UNL     1      39.682  23.022  38.040  1.00  0.00     0.004 C 
BRANCH  28  29
HETATM   29  C21 UNL     1      39.417  24.381  37.491  1.00  0.00     0.027 C 
BRANCH  29  30
HETATM   30  C22 UNL     1      39.646  25.527  38.422  1.00  0.00     0.229 C 
BRANCH  30  31
HETATM   31  N3  UNL     1      40.998  26.009  38.488  1.00  0.00    -0.079 N 
ATOM     32  H33 UNL     1      41.646  25.223  38.534  1.00  0.00     0.274 HD
ATOM     33  H32 UNL     1      41.268  26.414  37.592  1.00  0.00     0.274 HD
ATOM     34  H31 UNL     1      41.192  26.667  39.242  1.00  0.00     0.274 HD
ENDBRANCH  30  31
ENDBRANCH  29  30
ENDBRANCH  28  29
ENDBRANCH  27  28
ENDBRANCH  26  27
BRANCH  26  35
HETATM   35  N4  UNL     1      41.327  21.537  35.498  1.00  0.00    -0.340 N 
HETATM   36  C23 UNL     1      42.705  21.852  35.289  1.00  0.00     0.326 C 
HETATM   37  O3  UNL     1      43.422  22.058  36.298  1.00  0.00    -0.263 OA
ATOM     38  H4  UNL     1      40.659  21.570  34.728  1.00  0.00     0.163 HD
BRANCH  36  39
HETATM   39  C24 UNL     1      43.291  21.856  33.931  1.00  0.00     0.472 C 
HETATM   40  F1  UNL     1      44.403  21.153  33.741  1.00  0.00    -0.162 F 
HETATM   41  F2  UNL     1      43.362  23.174  33.468  1.00  0.00    -0.162 F 
HETATM   42  F3  UNL     1      42.244  21.283  33.135  1.00  0.00    -0.162 F 
ENDBRANCH  36  39
ENDBRANCH  26  35
ENDBRANCH  23  26
ENDBRANCH   1  22
TORSDOF 14
ENDMDL
