MODEL 3
REMARK VINA RESULT: -7.530139066      2.160      6.578
REMARK  14 active torsions:
REMARK  status: ('A' for Active; 'I' for Inactive)
REMARK    1  A    between atoms: C2_2  and  C4_4 
REMARK    2  A    between atoms: C7_7  and  N1_8 
REMARK       I    between atoms: N1_8  and  C8_10 
REMARK    3  A    between atoms: C8_10  and  C9_12 
REMARK    4  A    between atoms: C9_12  and  C10_13 
REMARK    5  A    between atoms: C9_12  and  N2_20 
REMARK    6  A    between atoms: C10_13  and  C11_14 
REMARK       I    between atoms: N2_20  and  C17_22 
REMARK    7  A    between atoms: C17_22  and  C18_24 
REMARK    8  A    between atoms: C18_24  and  C19_25 
REMARK    9  A    between atoms: C18_24  and  N4_33 
REMARK   10  A    between atoms: C19_25  and  C20_26 
REMARK   11  A    between atoms: C20_26  and  C21_27 
REMARK   12  A    between atoms: C21_27  and  C22_28 
REMARK   13  A    between atoms: C22_28  and  N3_29 
REMARK       I    between atoms: N4_33  and  C23_35 
REMARK   14  A    between atoms: C23_35  and  C24_37 
ROOT
HETATM    1  C9  UNL     1      38.591  19.304  38.055  1.00  0.00     0.181 C 
ENDROOT
BRANCH   1   2
HETATM    2  C8  UNL     1      37.100  19.344  38.341  1.00  0.00     0.245 C 
HETATM    3  N1  UNL     1      36.613  18.550  39.408  1.00  0.00    -0.325 N 
ATOM      4  H1  UNL     1      37.241  18.178  40.121  1.00  0.00     0.169 HD
HETATM    5  O1  UNL     1      36.335  20.057  37.687  1.00  0.00    -0.271 OA
BRANCH   3   6
HETATM    6  C7  UNL     1      35.205  18.290  39.445  1.00  0.00     0.034 A 
HETATM    7  C6  UNL     1      34.471  17.536  38.624  1.00  0.00     0.030 A 
HETATM    8  C5  UNL     1      33.182  17.189  38.953  1.00  0.00     0.010 A 
HETATM    9  C4  UNL     1      32.643  17.590  40.141  1.00  0.00    -0.055 A 
HETATM   10  C26 UNL     1      33.389  18.321  41.027  1.00  0.00     0.010 A 
HETATM   11  C25 UNL     1      34.669  18.699  40.711  1.00  0.00     0.030 A 
BRANCH   9  12
HETATM   12  C2  UNL     1      31.279  17.132  40.477  1.00  0.00     0.010 C 
HETATM   13  C1  UNL     1      31.206  16.830  41.976  1.00  0.00     0.015 C 
HETATM   14  C3  UNL     1      30.883  15.866  39.741  1.00  0.00     0.015 C 
ENDBRANCH   9  12
ENDBRANCH   3   6
ENDBRANCH   1   2
BRANCH   1  15
HETATM   15  C10 UNL     1      39.302  18.860  39.290  1.00  0.00     0.073 C 
BRANCH  15  16
HETATM   16  C11 UNL     1      39.986  17.574  39.150  1.00  0.00    -0.056 A 
HETATM   17  C12 UNL     1      41.335  17.557  39.572  1.00  0.00     0.007 A 
HETATM   18  C13 UNL     1      42.034  16.378  39.683  1.00  0.00     0.001 A 
HETATM   19  C14 UNL     1      41.410  15.198  39.404  1.00  0.00     0.000 A 
HETATM   20  C15 UNL     1      40.115  15.177  38.964  1.00  0.00     0.001 A 
HETATM   21  C16 UNL     1      39.449  16.367  38.856  1.00  0.00     0.007 A 
ENDBRANCH  15  16
ENDBRANCH   1  15
BRANCH   1  22
HETATM   22  N2  UNL     1      39.008  20.629  37.590  1.00  0.00    -0.346 N 
HETATM   23  C17 UNL     1      40.264  20.734  36.886  1.00  0.00     0.241 C 
HETATM   24  O2  UNL     1      40.911  19.739  36.718  1.00  0.00    -0.271 OA
ATOM     25  H2  UNL     1      38.430  21.452  37.759  1.00  0.00     0.163 HD
BRANCH  23  26
HETATM   26  C18 UNL     1      40.543  22.004  36.310  1.00  0.00     0.176 C 
BRANCH  26  27
HETATM   27  C19 UNL     1      41.593  22.082  35.209  1.00  0.00     0.035 C 
BRANCH  27  28
HETATM   28  C20 UNL     1      42.996  22.146  35.724  1.00  0.00     0.004 C 
BRANCH  28  29
HETATM   29  C21 UNL     1      43.927  22.815  34.772  1.00  0.00     0.027 C 
BRANCH  29  30
HETATM   30  C22 UNL     1      44.727  21.915  33.886  1.00  0.00     0.229 C 
BRANCH  30  31
HETATM   31  N3  UNL     1      46.133  22.204  33.821  1.00  0.00    -0.079 N 
ATOM     32  H33 UNL     1      46.670  21.340  33.895  1.00  0.00     0.274 HD
ATOM     33  H32 UNL     1      46.387  22.494  32.877  1.00  0.00     0.274 HD
ATOM     34  H31 UNL     1      46.472  22.886  34.499  1.00  0.00     0.274 HD
ENDBRANCH  30  31
ENDBRANCH  29  30
ENDBRANCH  28  29
ENDBRANCH  27  28
ENDBRANCH  26  27
BRANCH  26  35
HETATM   35  N4  UNL     1      40.950  23.064  37.205  1.00  0.00    -0.340 N 
HETATM   36  C23 UNL     1      40.089  24.196  37.345  1.00  0.00     0.326 C 
HETATM   37  O3  UNL     1      39.172  24.347  36.502  1.00  0.00    -0.263 OA
ATOM     38  H4  UNL     1      41.827  23.005  37.721  1.00  0.00     0.163 HD
BRANCH  36  39
HETATM   39  C24 UNL     1      40.220  25.118  38.494  1.00  0.00     0.472 C 
HETATM   40  F1  UNL     1      41.203  26.012  38.454  1.00  0.00    -0.162 F 
HETATM   41  F2  UNL     1      40.168  24.380  39.681  1.00  0.00    -0.162 F 
HETATM   42  F3  UNL     1      38.965  25.814  38.483  1.00  0.00    -0.162 F 
ENDBRANCH  36  39
ENDBRANCH  26  35
ENDBRANCH  23  26
ENDBRANCH   1  22
TORSDOF 14
ENDMDL
