MODEL 8
REMARK VINA RESULT: -7.510108537      4.294      9.863
REMARK  9 active torsions:
REMARK  status: ('A' for Active; 'I' for Inactive)
REMARK    1  A    between atoms: C2_2  and  N1_3 
REMARK    2  A    between atoms: C2_2  and  C14_23 
REMARK       I    between atoms: N1_3  and  C3_5 
REMARK    3  A    between atoms: C3_5  and  C4_7 
REMARK    4  A    between atoms: C4_7  and  C5_8 
REMARK    5  A    between atoms: C4_7  and  N2_15 
REMARK    6  A    between atoms: C5_8  and  C6_9 
REMARK       I    between atoms: N2_15  and  C12_17 
REMARK    7  A    between atoms: C12_17  and  C13_19 
REMARK       I    between atoms: C14_23  and  N3_25 
REMARK    8  A    between atoms: N3_25  and  C15_27 
REMARK    9  A    between atoms: C18_30  and  C19_31 
ROOT
HETATM    1  N1  UNL     1      39.375  19.172  38.232  1.00  0.00    -0.346 N 
ATOM      2  H1  UNL     1      39.187  18.171  38.189  1.00  0.00     0.163 HD
HETATM    3  C3  UNL     1      38.272  20.031  37.991  1.00  0.00     0.241 C 
HETATM    4  O1  UNL     1      38.425  21.250  37.991  1.00  0.00    -0.271 OA
ENDROOT
BRANCH   1   5
HETATM    5  C2  UNL     1      40.691  19.544  38.522  1.00  0.00     0.172 C 
HETATM    6  C1  UNL     1      41.464  18.691  39.502  1.00  0.00     0.042 C 
BRANCH   5   7
HETATM    7  C14 UNL     1      41.618  19.802  37.380  1.00  0.00     0.244 C 
HETATM    8  O3  UNL     1      42.548  19.012  37.086  1.00  0.00    -0.271 OA
HETATM    9  N3  UNL     1      41.497  20.955  36.556  1.00  0.00    -0.325 N 
ATOM     10  H3  UNL     1      40.730  21.596  36.761  1.00  0.00     0.169 HD
BRANCH   9  11
HETATM   11  C15 UNL     1      42.343  21.291  35.480  1.00  0.00     0.034 A 
HETATM   12  C16 UNL     1      42.303  20.735  34.221  1.00  0.00     0.030 A 
HETATM   13  C17 UNL     1      43.169  21.153  33.196  1.00  0.00     0.018 A 
HETATM   14  C18 UNL     1      44.106  22.145  33.396  1.00  0.00     0.048 A 
HETATM   15  C20 UNL     1      44.154  22.718  34.679  1.00  0.00     0.018 A 
HETATM   16  C21 UNL     1      43.302  22.287  35.644  1.00  0.00     0.030 A 
BRANCH  14  17
HETATM   17  C19 UNL     1      45.014  22.597  32.335  1.00  0.00     0.417 C 
HETATM   18  F4  UNL     1      44.819  21.901  31.164  1.00  0.00    -0.166 F 
HETATM   19  F5  UNL     1      46.326  22.416  32.796  1.00  0.00    -0.166 F 
HETATM   20  F6  UNL     1      44.819  23.955  32.058  1.00  0.00    -0.166 F 
ENDBRANCH  14  17
ENDBRANCH   9  11
ENDBRANCH   5   7
ENDBRANCH   1   5
BRANCH   3  21
HETATM   21  C4  UNL     1      36.894  19.421  37.744  1.00  0.00     0.181 C 
BRANCH  21  22
HETATM   22  C5  UNL     1      36.921  18.052  38.470  1.00  0.00     0.073 C 
BRANCH  22  23
HETATM   23  C6  UNL     1      35.857  17.978  39.509  1.00  0.00    -0.056 A 
HETATM   24  C7  UNL     1      36.174  17.611  40.814  1.00  0.00     0.007 A 
HETATM   25  C8  UNL     1      35.239  17.533  41.838  1.00  0.00     0.001 A 
HETATM   26  C9  UNL     1      33.911  17.838  41.575  1.00  0.00     0.000 A 
HETATM   27  C10 UNL     1      33.582  18.209  40.266  1.00  0.00     0.001 A 
HETATM   28  C11 UNL     1      34.530  18.279  39.257  1.00  0.00     0.007 A 
ENDBRANCH  22  23
ENDBRANCH  21  22
BRANCH  21  29
HETATM   29  N2  UNL     1      36.770  19.211  36.322  1.00  0.00    -0.340 N 
HETATM   30  C12 UNL     1      36.344  20.170  35.387  1.00  0.00     0.326 C 
HETATM   31  O2  UNL     1      36.022  21.316  35.739  1.00  0.00    -0.263 OA
ATOM     32  H2  UNL     1      37.010  18.286  35.965  1.00  0.00     0.163 HD
BRANCH  30  33
HETATM   33  C13 UNL     1      36.286  19.779  33.923  1.00  0.00     0.472 C 
HETATM   34  F1  UNL     1      37.129  20.586  33.197  1.00  0.00    -0.162 F 
HETATM   35  F2  UNL     1      36.745  18.484  33.754  1.00  0.00    -0.162 F 
HETATM   36  F3  UNL     1      35.026  19.834  33.428  1.00  0.00    -0.162 F 
ENDBRANCH  30  33
ENDBRANCH  21  29
ENDBRANCH   3  21
TORSDOF 9
ENDMDL
