MODEL 5
REMARK VINA RESULT: -7.649355884      4.247      9.803
REMARK  9 active torsions:
REMARK  status: ('A' for Active; 'I' for Inactive)
REMARK    1  A    between atoms: C2_2  and  N1_3 
REMARK    2  A    between atoms: C2_2  and  C14_23 
REMARK       I    between atoms: N1_3  and  C3_5 
REMARK    3  A    between atoms: C3_5  and  C4_7 
REMARK    4  A    between atoms: C4_7  and  C5_8 
REMARK    5  A    between atoms: C4_7  and  N2_15 
REMARK    6  A    between atoms: C5_8  and  C6_9 
REMARK       I    between atoms: N2_15  and  C12_17 
REMARK    7  A    between atoms: C12_17  and  C13_19 
REMARK       I    between atoms: C14_23  and  N3_25 
REMARK    8  A    between atoms: N3_25  and  C15_27 
REMARK    9  A    between atoms: C18_30  and  C19_31 
ROOT
HETATM    1  N1  UNL     1      41.747  19.823  36.646  1.00  0.00    -0.346 N 
ATOM      2  H1  UNL     1      40.927  19.231  36.773  1.00  0.00     0.163 HD
HETATM    3  C3  UNL     1      41.661  21.139  37.171  1.00  0.00     0.241 C 
HETATM    4  O1  UNL     1      42.595  21.924  37.028  1.00  0.00    -0.271 OA
ENDROOT
BRANCH   1   5
HETATM    5  C2  UNL     1      42.829  19.248  35.973  1.00  0.00     0.172 C 
HETATM    6  C1  UNL     1      42.711  17.798  35.562  1.00  0.00     0.042 C 
BRANCH   5   7
HETATM    7  C14 UNL     1      43.387  19.968  34.792  1.00  0.00     0.244 C 
HETATM    8  O3  UNL     1      42.804  19.975  33.680  1.00  0.00    -0.271 OA
HETATM    9  N3  UNL     1      44.609  20.694  34.857  1.00  0.00    -0.325 N 
ATOM     10  H3  UNL     1      45.084  20.724  35.760  1.00  0.00     0.169 HD
BRANCH   9  11
HETATM   11  C15 UNL     1      45.222  21.376  33.787  1.00  0.00     0.034 A 
HETATM   12  C16 UNL     1      46.101  20.826  32.881  1.00  0.00     0.030 A 
HETATM   13  C17 UNL     1      46.644  21.576  31.824  1.00  0.00     0.018 A 
HETATM   14  C18 UNL     1      46.325  22.905  31.637  1.00  0.00     0.048 A 
HETATM   15  C20 UNL     1      45.428  23.474  32.558  1.00  0.00     0.018 A 
HETATM   16  C21 UNL     1      44.925  22.718  33.567  1.00  0.00     0.030 A 
BRANCH  14  17
HETATM   17  C19 UNL     1      46.879  23.700  30.534  1.00  0.00     0.417 C 
HETATM   18  F4  UNL     1      46.061  23.682  29.429  1.00  0.00    -0.166 F 
HETATM   19  F5  UNL     1      48.137  23.167  30.219  1.00  0.00    -0.166 F 
HETATM   20  F6  UNL     1      47.043  25.037  30.919  1.00  0.00    -0.166 F 
ENDBRANCH  14  17
ENDBRANCH   9  11
ENDBRANCH   5   7
ENDBRANCH   1   5
BRANCH   3  21
HETATM   21  C4  UNL     1      40.401  21.559  37.924  1.00  0.00     0.181 C 
BRANCH  21  22
HETATM   22  C5  UNL     1      39.314  21.724  36.832  1.00  0.00     0.073 C 
BRANCH  22  23
HETATM   23  C6  UNL     1      38.203  20.752  37.032  1.00  0.00    -0.056 A 
HETATM   24  C7  UNL     1      37.143  20.701  36.131  1.00  0.00     0.007 A 
HETATM   25  C8  UNL     1      36.081  19.813  36.245  1.00  0.00     0.001 A 
HETATM   26  C9  UNL     1      36.052  18.915  37.303  1.00  0.00     0.000 A 
HETATM   27  C10 UNL     1      37.113  18.958  38.214  1.00  0.00     0.001 A 
HETATM   28  C11 UNL     1      38.164  19.853  38.083  1.00  0.00     0.007 A 
ENDBRANCH  22  23
ENDBRANCH  21  22
BRANCH  21  29
HETATM   29  N2  UNL     1      40.673  22.838  38.532  1.00  0.00    -0.340 N 
HETATM   30  C12 UNL     1      40.454  24.091  37.933  1.00  0.00     0.326 C 
HETATM   31  O2  UNL     1      39.999  24.186  36.783  1.00  0.00    -0.263 OA
ATOM     32  H2  UNL     1      41.057  22.833  39.476  1.00  0.00     0.163 HD
BRANCH  30  33
HETATM   33  C13 UNL     1      40.785  25.340  38.728  1.00  0.00     0.472 C 
HETATM   34  F1  UNL     1      40.763  25.050  40.071  1.00  0.00    -0.162 F 
HETATM   35  F2  UNL     1      42.072  25.764  38.442  1.00  0.00    -0.162 F 
HETATM   36  F3  UNL     1      39.945  26.365  38.445  1.00  0.00    -0.162 F 
ENDBRANCH  30  33
ENDBRANCH  21  29
ENDBRANCH   3  21
TORSDOF 9
ENDMDL
