MODEL 9
REMARK VINA RESULT: -7.495882571      3.662      9.216
REMARK  9 active torsions:
REMARK  status: ('A' for Active; 'I' for Inactive)
REMARK    1  A    between atoms: C2_2  and  N1_3 
REMARK    2  A    between atoms: C2_2  and  C14_23 
REMARK       I    between atoms: N1_3  and  C3_5 
REMARK    3  A    between atoms: C3_5  and  C4_7 
REMARK    4  A    between atoms: C4_7  and  C5_8 
REMARK    5  A    between atoms: C4_7  and  N2_15 
REMARK    6  A    between atoms: C5_8  and  C6_9 
REMARK       I    between atoms: N2_15  and  C12_17 
REMARK    7  A    between atoms: C12_17  and  C13_19 
REMARK       I    between atoms: C14_23  and  N3_25 
REMARK    8  A    between atoms: N3_25  and  C15_27 
REMARK    9  A    between atoms: C18_30  and  C19_31 
ROOT
HETATM    1  N1  UNL     1      38.901  21.811  37.046  1.00  0.00    -0.346 N 
ATOM      2  H1  UNL     1      38.203  21.953  37.775  1.00  0.00     0.163 HD
HETATM    3  C3  UNL     1      38.662  20.739  36.147  1.00  0.00     0.241 C 
HETATM    4  O1  UNL     1      39.474  20.482  35.262  1.00  0.00    -0.271 OA
ENDROOT
BRANCH   1   5
HETATM    5  C2  UNL     1      39.985  22.693  37.044  1.00  0.00     0.172 C 
HETATM    6  C1  UNL     1      40.084  23.688  38.178  1.00  0.00     0.042 C 
BRANCH   5   7
HETATM    7  C14 UNL     1      41.354  22.126  36.873  1.00  0.00     0.244 C 
HETATM    8  O3  UNL     1      42.007  21.660  37.839  1.00  0.00    -0.271 OA
HETATM    9  N3  UNL     1      41.998  22.074  35.605  1.00  0.00    -0.325 N 
ATOM     10  H3  UNL     1      41.472  22.422  34.803  1.00  0.00     0.169 HD
BRANCH   9  11
HETATM   11  C15 UNL     1      43.295  21.584  35.358  1.00  0.00     0.034 A 
HETATM   12  C16 UNL     1      44.452  22.329  35.373  1.00  0.00     0.030 A 
HETATM   13  C17 UNL     1      45.713  21.751  35.142  1.00  0.00     0.018 A 
HETATM   14  C18 UNL     1      45.857  20.403  34.889  1.00  0.00     0.048 A 
HETATM   15  C20 UNL     1      44.680  19.634  34.872  1.00  0.00     0.018 A 
HETATM   16  C21 UNL     1      43.481  20.229  35.097  1.00  0.00     0.030 A 
BRANCH  14  17
HETATM   17  C19 UNL     1      47.167  19.782  34.652  1.00  0.00     0.417 C 
HETATM   18  F4  UNL     1      48.189  20.517  35.206  1.00  0.00    -0.166 F 
HETATM   19  F5  UNL     1      47.339  19.676  33.264  1.00  0.00    -0.166 F 
HETATM   20  F6  UNL     1      47.217  18.499  35.209  1.00  0.00    -0.166 F 
ENDBRANCH  14  17
ENDBRANCH   9  11
ENDBRANCH   5   7
ENDBRANCH   1   5
BRANCH   3  21
HETATM   21  C4  UNL     1      37.381  19.920  36.288  1.00  0.00     0.181 C 
BRANCH  21  22
HETATM   22  C5  UNL     1      36.240  20.875  35.854  1.00  0.00     0.073 C 
BRANCH  22  23
HETATM   23  C6  UNL     1      35.747  20.533  34.491  1.00  0.00    -0.056 A 
HETATM   24  C7  UNL     1      35.440  21.541  33.581  1.00  0.00     0.007 A 
HETATM   25  C8  UNL     1      34.988  21.299  32.291  1.00  0.00     0.001 A 
HETATM   26  C9  UNL     1      34.831  19.991  31.857  1.00  0.00     0.000 A 
HETATM   27  C10 UNL     1      35.137  18.969  32.763  1.00  0.00     0.001 A 
HETATM   28  C11 UNL     1      35.585  19.233  34.049  1.00  0.00     0.007 A 
ENDBRANCH  22  23
ENDBRANCH  21  22
BRANCH  21  29
HETATM   29  N2  UNL     1      37.233  19.596  37.685  1.00  0.00    -0.340 N 
HETATM   30  C12 UNL     1      36.689  18.405  38.196  1.00  0.00     0.326 C 
HETATM   31  O2  UNL     1      36.269  17.512  37.443  1.00  0.00    -0.263 OA
ATOM     32  H2  UNL     1      37.551  20.291  38.361  1.00  0.00     0.163 HD
BRANCH  30  33
HETATM   33  C13 UNL     1      36.623  18.226  39.701  1.00  0.00     0.472 C 
HETATM   34  F1  UNL     1      35.685  19.082  40.226  1.00  0.00    -0.162 F 
HETATM   35  F2  UNL     1      36.200  16.945  40.014  1.00  0.00    -0.162 F 
HETATM   36  F3  UNL     1      37.828  18.414  40.292  1.00  0.00    -0.162 F 
ENDBRANCH  30  33
ENDBRANCH  21  29
ENDBRANCH   3  21
TORSDOF 9
ENDMDL
