MODEL 9
REMARK VINA RESULT: -7.116997939      3.463      8.984
REMARK  8 active torsions:
REMARK  status: ('A' for Active; 'I' for Inactive)
REMARK    1  A    between atoms: C2_2  and  C4_4 
REMARK    2  A    between atoms: C4_4  and  N1_5 
REMARK    3  A    between atoms: C4_4  and  C7_13 
REMARK       I    between atoms: N1_5  and  C5_7 
REMARK    4  A    between atoms: C5_7  and  C6_9 
REMARK       I    between atoms: C7_13  and  N2_15 
REMARK    5  A    between atoms: N2_15  and  C8_17 
REMARK    6  A    between atoms: C8_17  and  C10_19 
REMARK       I    between atoms: C10_19  and  N3_21 
REMARK    7  A    between atoms: N3_21  and  C11_23 
REMARK    8  A    between atoms: C14_26  and  C15_27 
ROOT
HETATM    1  C7  UNL     1      38.262  17.842  38.569  1.00  0.00     0.241 C 
HETATM    2  O2  UNL     1      38.416  18.436  39.690  1.00  0.00    -0.271 OA
HETATM    3  N2  UNL     1      39.388  17.231  38.026  1.00  0.00    -0.346 N 
ATOM      4  H2  UNL     1      39.283  16.764  37.125  1.00  0.00     0.163 HD
ENDROOT
BRANCH   3   5
HETATM    5  C8  UNL     1      40.693  17.208  38.643  1.00  0.00     0.172 C 
HETATM    6  C9  UNL     1      41.373  15.913  38.356  1.00  0.00     0.042 C 
BRANCH   5   7
HETATM    7  C10 UNL     1      41.576  18.316  38.156  1.00  0.00     0.244 C 
HETATM    8  O3  UNL     1      42.134  19.049  38.970  1.00  0.00    -0.271 OA
HETATM    9  N3  UNL     1      41.726  18.456  36.771  1.00  0.00    -0.325 N 
ATOM     10  H3  UNL     1      41.211  17.813  36.169  1.00  0.00     0.169 HD
BRANCH   9  11
HETATM   11  C11 UNL     1      42.544  19.428  36.149  1.00  0.00     0.034 A 
HETATM   12  C12 UNL     1      43.743  19.046  35.526  1.00  0.00     0.030 A 
HETATM   13  C13 UNL     1      44.604  19.953  34.947  1.00  0.00     0.018 A 
HETATM   14  C14 UNL     1      44.317  21.297  34.957  1.00  0.00     0.048 A 
HETATM   15  C16 UNL     1      43.152  21.707  35.557  1.00  0.00     0.018 A 
HETATM   16  C17 UNL     1      42.280  20.771  36.145  1.00  0.00     0.030 A 
BRANCH  14  17
HETATM   17  C15 UNL     1      45.232  22.314  34.350  1.00  0.00     0.417 C 
HETATM   18  F4  UNL     1      45.654  23.198  35.337  1.00  0.00    -0.166 F 
HETATM   19  F5  UNL     1      46.388  21.645  33.909  1.00  0.00    -0.166 F 
HETATM   20  F6  UNL     1      44.644  22.954  33.301  1.00  0.00    -0.166 F 
ENDBRANCH  14  17
ENDBRANCH   9  11
ENDBRANCH   5   7
ENDBRANCH   3   5
BRANCH   1  21
HETATM   21  C4  UNL     1      36.940  17.815  37.896  1.00  0.00     0.180 C 
BRANCH  21  22
HETATM   22  C2  UNL     1      37.022  18.470  36.571  1.00  0.00     0.009 C 
HETATM   23  C1  UNL     1      36.542  17.495  35.477  1.00  0.00     0.012 C 
HETATM   24  C3  UNL     1      36.238  19.722  36.387  1.00  0.00     0.012 C 
ENDBRANCH  21  22
BRANCH  21  25
HETATM   25  N1  UNL     1      35.897  18.275  38.768  1.00  0.00    -0.340 N 
HETATM   26  C5  UNL     1      35.068  17.489  39.599  1.00  0.00     0.326 C 
HETATM   27  O1  UNL     1      35.235  16.242  39.592  1.00  0.00    -0.263 OA
ATOM     28  H1  UNL     1      35.737  19.282  38.791  1.00  0.00     0.163 HD
BRANCH  26  29
HETATM   29  C6  UNL     1      34.020  18.084  40.465  1.00  0.00     0.472 C 
HETATM   30  F1  UNL     1      33.540  19.264  39.925  1.00  0.00    -0.162 F 
HETATM   31  F2  UNL     1      34.494  18.318  41.747  1.00  0.00    -0.162 F 
HETATM   32  F3  UNL     1      32.964  17.198  40.530  1.00  0.00    -0.162 F 
ENDBRANCH  26  29
ENDBRANCH  21  25
ENDBRANCH   1  21
TORSDOF 8
ENDMDL
