MODEL 1
REMARK VINA RESULT: -7.929245159      0.000      0.000
REMARK  8 active torsions:
REMARK  status: ('A' for Active; 'I' for Inactive)
REMARK    1  A    between atoms: C2_2  and  C4_4 
REMARK    2  A    between atoms: C4_4  and  N1_5 
REMARK    3  A    between atoms: C4_4  and  C7_13 
REMARK       I    between atoms: N1_5  and  C5_7 
REMARK    4  A    between atoms: C5_7  and  C6_9 
REMARK       I    between atoms: C7_13  and  N2_15 
REMARK    5  A    between atoms: N2_15  and  C8_17 
REMARK    6  A    between atoms: C8_17  and  C10_19 
REMARK       I    between atoms: C10_19  and  N3_21 
REMARK    7  A    between atoms: N3_21  and  C11_23 
REMARK    8  A    between atoms: C14_26  and  C15_27 
ROOT
HETATM    1  C7  UNL     1      39.523  20.991  37.128  1.00  0.00     0.241 C 
HETATM    2  O2  UNL     1      38.593  21.400  37.904  1.00  0.00    -0.271 OA
HETATM    3  N2  UNL     1      39.127  20.299  35.988  1.00  0.00    -0.346 N 
ATOM      4  H2  UNL     1      39.858  19.956  35.367  1.00  0.00     0.163 HD
ENDROOT
BRANCH   3   5
HETATM    5  C8  UNL     1      37.757  20.033  35.619  1.00  0.00     0.172 C 
HETATM    6  C9  UNL     1      37.711  19.143  34.424  1.00  0.00     0.042 C 
BRANCH   5   7
HETATM    7  C10 UNL     1      36.985  19.373  36.721  1.00  0.00     0.244 C 
HETATM    8  O3  UNL     1      35.802  19.662  36.889  1.00  0.00    -0.271 OA
HETATM    9  N3  UNL     1      37.665  18.440  37.512  1.00  0.00    -0.325 N 
ATOM     10  H3  UNL     1      38.652  18.276  37.312  1.00  0.00     0.169 HD
BRANCH   9  11
HETATM   11  C11 UNL     1      37.077  17.708  38.571  1.00  0.00     0.034 A 
HETATM   12  C12 UNL     1      36.858  18.323  39.814  1.00  0.00     0.030 A 
HETATM   13  C13 UNL     1      36.334  17.648  40.896  1.00  0.00     0.018 A 
HETATM   14  C14 UNL     1      36.000  16.318  40.799  1.00  0.00     0.048 A 
HETATM   15  C16 UNL     1      36.200  15.686  39.597  1.00  0.00     0.018 A 
HETATM   16  C17 UNL     1      36.735  16.385  38.498  1.00  0.00     0.030 A 
BRANCH  14  17
HETATM   17  C15 UNL     1      35.441  15.549  41.954  1.00  0.00     0.417 C 
HETATM   18  F4  UNL     1      36.267  14.464  42.226  1.00  0.00    -0.166 F 
HETATM   19  F5  UNL     1      35.498  16.375  43.091  1.00  0.00    -0.166 F 
HETATM   20  F6  UNL     1      34.151  15.171  41.726  1.00  0.00    -0.166 F 
ENDBRANCH  14  17
ENDBRANCH   9  11
ENDBRANCH   5   7
ENDBRANCH   3   5
BRANCH   1  21
HETATM   21  C4  UNL     1      40.949  21.252  37.445  1.00  0.00     0.180 C 
BRANCH  21  22
HETATM   22  C2  UNL     1      41.614  20.007  37.894  1.00  0.00     0.009 C 
HETATM   23  C1  UNL     1      40.713  19.271  38.906  1.00  0.00     0.012 C 
HETATM   24  C3  UNL     1      41.961  19.011  36.844  1.00  0.00     0.012 C 
ENDBRANCH  21  22
BRANCH  21  25
HETATM   25  N1  UNL     1      41.096  22.394  38.301  1.00  0.00    -0.340 N 
HETATM   26  C5  UNL     1      40.955  23.754  37.945  1.00  0.00     0.326 C 
HETATM   27  O1  UNL     1      40.673  24.026  36.749  1.00  0.00    -0.263 OA
ATOM     28  H1  UNL     1      41.329  22.202  39.276  1.00  0.00     0.163 HD
BRANCH  26  29
HETATM   29  C6  UNL     1      41.130  24.853  38.926  1.00  0.00     0.472 C 
HETATM   30  F1  UNL     1      39.917  25.224  39.478  1.00  0.00    -0.162 F 
HETATM   31  F2  UNL     1      41.735  25.959  38.346  1.00  0.00    -0.162 F 
HETATM   32  F3  UNL     1      41.928  24.389  39.952  1.00  0.00    -0.162 F 
ENDBRANCH  26  29
ENDBRANCH  21  25
ENDBRANCH   1  21
TORSDOF 8
ENDMDL
