MODEL 8
REMARK VINA RESULT: -7.154135049      4.949      8.165
REMARK  8 active torsions:
REMARK  status: ('A' for Active; 'I' for Inactive)
REMARK    1  A    between atoms: C2_2  and  C4_4 
REMARK    2  A    between atoms: C4_4  and  N1_5 
REMARK    3  A    between atoms: C4_4  and  C7_13 
REMARK       I    between atoms: N1_5  and  C5_7 
REMARK    4  A    between atoms: C5_7  and  C6_9 
REMARK       I    between atoms: C7_13  and  N2_15 
REMARK    5  A    between atoms: N2_15  and  C8_17 
REMARK    6  A    between atoms: C8_17  and  C10_19 
REMARK       I    between atoms: C10_19  and  N3_21 
REMARK    7  A    between atoms: N3_21  and  C11_23 
REMARK    8  A    between atoms: C14_26  and  C15_27 
ROOT
HETATM    1  C7  UNL     1      35.512  17.019  39.524  1.00  0.00     0.241 C 
HETATM    2  O2  UNL     1      35.566  15.877  38.952  1.00  0.00    -0.271 OA
HETATM    3  N2  UNL     1      36.022  18.100  38.811  1.00  0.00    -0.346 N 
ATOM      4  H2  UNL     1      35.998  19.015  39.261  1.00  0.00     0.163 HD
ENDROOT
BRANCH   3   5
HETATM    5  C8  UNL     1      36.582  18.022  37.483  1.00  0.00     0.172 C 
HETATM    6  C9  UNL     1      36.306  19.282  36.735  1.00  0.00     0.042 C 
BRANCH   5   7
HETATM    7  C10 UNL     1      38.065  17.805  37.498  1.00  0.00     0.244 C 
HETATM    8  O3  UNL     1      38.817  18.744  37.245  1.00  0.00    -0.271 OA
HETATM    9  N3  UNL     1      38.523  16.520  37.812  1.00  0.00    -0.325 N 
ATOM     10  H3  UNL     1      37.826  15.797  37.991  1.00  0.00     0.169 HD
BRANCH   9  11
HETATM   11  C11 UNL     1      39.887  16.155  37.898  1.00  0.00     0.034 A 
HETATM   12  C12 UNL     1      40.439  15.268  36.961  1.00  0.00     0.030 A 
HETATM   13  C13 UNL     1      41.748  14.838  37.022  1.00  0.00     0.018 A 
HETATM   14  C14 UNL     1      42.582  15.272  38.026  1.00  0.00     0.048 A 
HETATM   15  C16 UNL     1      42.075  16.142  38.959  1.00  0.00     0.018 A 
HETATM   16  C17 UNL     1      40.737  16.574  38.886  1.00  0.00     0.030 A 
BRANCH  14  17
HETATM   17  C15 UNL     1      44.004  14.820  38.133  1.00  0.00     0.417 C 
HETATM   18  F4  UNL     1      44.183  13.678  37.360  1.00  0.00    -0.166 F 
HETATM   19  F5  UNL     1      44.817  15.811  37.554  1.00  0.00    -0.166 F 
HETATM   20  F6  UNL     1      44.371  14.627  39.432  1.00  0.00    -0.166 F 
ENDBRANCH  14  17
ENDBRANCH   9  11
ENDBRANCH   5   7
ENDBRANCH   3   5
BRANCH   1  21
HETATM   21  C4  UNL     1      34.930  17.164  40.881  1.00  0.00     0.180 C 
BRANCH  21  22
HETATM   22  C2  UNL     1      35.528  16.177  41.807  1.00  0.00     0.009 C 
HETATM   23  C1  UNL     1      36.110  16.902  43.037  1.00  0.00     0.012 C 
HETATM   24  C3  UNL     1      34.628  15.116  42.336  1.00  0.00     0.012 C 
ENDBRANCH  21  22
BRANCH  21  25
HETATM   25  N1  UNL     1      33.496  17.205  40.835  1.00  0.00    -0.340 N 
HETATM   26  C5  UNL     1      32.686  18.217  40.273  1.00  0.00     0.326 C 
HETATM   27  O1  UNL     1      33.256  19.209  39.750  1.00  0.00    -0.263 OA
ATOM     28  H1  UNL     1      33.007  16.414  41.256  1.00  0.00     0.163 HD
BRANCH  26  29
HETATM   29  C6  UNL     1      31.204  18.145  40.284  1.00  0.00     0.472 C 
HETATM   30  F1  UNL     1      30.684  18.783  41.395  1.00  0.00    -0.162 F 
HETATM   31  F2  UNL     1      30.760  16.831  40.252  1.00  0.00    -0.162 F 
HETATM   32  F3  UNL     1      30.734  18.806  39.168  1.00  0.00    -0.162 F 
ENDBRANCH  26  29
ENDBRANCH  21  25
ENDBRANCH   1  21
TORSDOF 8
ENDMDL
