MODEL 4
REMARK VINA RESULT: -7.415485727      4.861      8.912
REMARK  8 active torsions:
REMARK  status: ('A' for Active; 'I' for Inactive)
REMARK    1  A    between atoms: C2_2  and  C4_4 
REMARK    2  A    between atoms: C4_4  and  N1_5 
REMARK    3  A    between atoms: C4_4  and  C7_13 
REMARK       I    between atoms: N1_5  and  C5_7 
REMARK    4  A    between atoms: C5_7  and  C6_9 
REMARK       I    between atoms: C7_13  and  N2_15 
REMARK    5  A    between atoms: N2_15  and  C8_17 
REMARK    6  A    between atoms: C8_17  and  C10_19 
REMARK       I    between atoms: C10_19  and  N3_21 
REMARK    7  A    between atoms: N3_21  and  C11_23 
REMARK    8  A    between atoms: C14_26  and  C15_27 
ROOT
HETATM    1  C7  UNL     1      35.946  16.117  39.355  1.00  0.00     0.241 C 
HETATM    2  O2  UNL     1      35.884  15.181  38.486  1.00  0.00    -0.271 OA
HETATM    3  N2  UNL     1      36.439  17.343  38.920  1.00  0.00    -0.346 N 
ATOM      4  H2  UNL     1      36.507  18.094  39.605  1.00  0.00     0.163 HD
ENDROOT
BRANCH   3   5
HETATM    5  C8  UNL     1      36.860  17.630  37.569  1.00  0.00     0.172 C 
HETATM    6  C9  UNL     1      36.625  19.067  37.253  1.00  0.00     0.042 C 
BRANCH   5   7
HETATM    7  C10 UNL     1      38.312  17.335  37.347  1.00  0.00     0.244 C 
HETATM    8  O3  UNL     1      38.904  17.877  36.415  1.00  0.00    -0.271 OA
HETATM    9  N3  UNL     1      38.930  16.446  38.234  1.00  0.00    -0.325 N 
ATOM     10  H3  UNL     1      38.356  16.030  38.967  1.00  0.00     0.169 HD
BRANCH   9  11
HETATM   11  C11 UNL     1      40.297  16.085  38.182  1.00  0.00     0.034 A 
HETATM   12  C12 UNL     1      40.697  14.944  37.469  1.00  0.00     0.030 A 
HETATM   13  C13 UNL     1      42.007  14.514  37.424  1.00  0.00     0.018 A 
HETATM   14  C14 UNL     1      42.994  15.203  38.089  1.00  0.00     0.048 A 
HETATM   15  C16 UNL     1      42.638  16.325  38.795  1.00  0.00     0.018 A 
HETATM   16  C17 UNL     1      41.298  16.754  38.835  1.00  0.00     0.030 A 
BRANCH  14  17
HETATM   17  C15 UNL     1      44.423  14.763  38.073  1.00  0.00     0.417 C 
HETATM   18  F4  UNL     1      44.780  14.314  39.340  1.00  0.00    -0.166 F 
HETATM   19  F5  UNL     1      44.522  13.645  37.225  1.00  0.00    -0.166 F 
HETATM   20  F6  UNL     1      45.247  15.752  37.625  1.00  0.00    -0.166 F 
ENDBRANCH  14  17
ENDBRANCH   9  11
ENDBRANCH   5   7
ENDBRANCH   3   5
BRANCH   1  21
HETATM   21  C4  UNL     1      35.509  15.887  40.755  1.00  0.00     0.180 C 
BRANCH  21  22
HETATM   22  C2  UNL     1      35.607  17.139  41.538  1.00  0.00     0.009 C 
HETATM   23  C1  UNL     1      34.212  17.781  41.670  1.00  0.00     0.012 C 
HETATM   24  C3  UNL     1      36.148  17.030  42.920  1.00  0.00     0.012 C 
ENDBRANCH  21  22
BRANCH  21  25
HETATM   25  N1  UNL     1      36.147  14.733  41.321  1.00  0.00    -0.340 N 
HETATM   26  C5  UNL     1      35.520  13.610  41.908  1.00  0.00     0.326 C 
HETATM   27  O1  UNL     1      34.263  13.594  41.958  1.00  0.00    -0.263 OA
ATOM     28  H1  UNL     1      37.167  14.721  41.297  1.00  0.00     0.163 HD
BRANCH  26  29
HETATM   29  C6  UNL     1      36.291  12.469  42.459  1.00  0.00     0.472 C 
HETATM   30  F1  UNL     1      36.633  11.572  41.464  1.00  0.00    -0.162 F 
HETATM   31  F2  UNL     1      35.582  11.812  43.454  1.00  0.00    -0.162 F 
HETATM   32  F3  UNL     1      37.464  12.963  42.993  1.00  0.00    -0.162 F 
ENDBRANCH  26  29
ENDBRANCH  21  25
ENDBRANCH   1  21
TORSDOF 8
ENDMDL
