MODEL 13
REMARK VINA RESULT: -4.835497744      3.533      4.207
REMARK  1 active torsions:
REMARK  status: ('A' for Active; 'I' for Inactive)
REMARK    1  A    between atoms: C1_2  and  C2_4 
ROOT
HETATM    1  C2  UNL     1       9.903  31.251  25.256  1.00  0.00     0.109 A 
HETATM    2  C3  UNL     1      11.079  31.768  25.764  1.00  0.00     0.038 A 
HETATM    3  C4  UNL     1      10.904  33.128  25.938  1.00  0.00     0.019 A 
HETATM    4  C5  UNL     1       9.616  33.430  25.533  1.00  0.00     0.088 A 
HETATM    5  N1  UNL     1       9.038  32.280  25.129  1.00  0.00    -0.360 N 
ATOM      6  H1  UNL     1       8.085  32.200  24.776  1.00  0.00     0.165 HD
ENDROOT
BRANCH   1   7
HETATM    7  C1  UNL     1       9.651  29.841  24.923  1.00  0.00     0.226 C 
HETATM    8  O1  UNL     1       9.018  29.125  25.734  1.00  0.00    -0.643 OA
HETATM    9  O2  UNL     1      10.123  29.344  23.718  1.00  0.00    -0.643 OA
ENDBRANCH   1   7
TORSDOF 1
ENDMDL
