MODEL 11
REMARK VINA RESULT: -4.880414193      3.341      3.892
REMARK  1 active torsions:
REMARK  status: ('A' for Active; 'I' for Inactive)
REMARK    1  A    between atoms: C1_2  and  C2_4 
ROOT
HETATM    1  C2  UNL     1       9.988  31.300  25.490  1.00  0.00     0.109 A 
HETATM    2  C3  UNL     1       9.151  32.274  24.983  1.00  0.00     0.038 A 
HETATM    3  C4  UNL     1       9.580  33.496  25.469  1.00  0.00     0.019 A 
HETATM    4  C5  UNL     1      10.681  33.253  26.271  1.00  0.00     0.088 A 
HETATM    5  N1  UNL     1      10.902  31.922  26.264  1.00  0.00    -0.360 N 
ATOM      6  H1  UNL     1      11.653  31.454  26.771  1.00  0.00     0.165 HD
ENDROOT
BRANCH   1   7
HETATM    7  C1  UNL     1       9.893  29.856  25.227  1.00  0.00     0.226 C 
HETATM    8  O1  UNL     1       8.988  29.191  25.786  1.00  0.00    -0.643 OA
HETATM    9  O2  UNL     1      10.809  29.270  24.368  1.00  0.00    -0.643 OA
ENDBRANCH   1   7
TORSDOF 1
ENDMDL
