MODEL 17
REMARK VINA RESULT: -4.766889111      4.076      4.561
REMARK  1 active torsions:
REMARK  status: ('A' for Active; 'I' for Inactive)
REMARK    1  A    between atoms: C1_2  and  C2_4 
ROOT
HETATM    1  C2  UNL     1       8.981  35.012  26.069  1.00  0.00     0.109 A 
HETATM    2  C3  UNL     1       8.662  33.898  25.318  1.00  0.00     0.038 A 
HETATM    3  C4  UNL     1       9.698  32.991  25.442  1.00  0.00     0.019 A 
HETATM    4  C5  UNL     1      10.644  33.564  26.274  1.00  0.00     0.088 A 
HETATM    5  N1  UNL     1      10.184  34.779  26.635  1.00  0.00    -0.360 N 
ATOM      6  H1  UNL     1      10.676  35.429  27.249  1.00  0.00     0.165 HD
ENDROOT
BRANCH   1   7
HETATM    7  C1  UNL     1       8.156  36.220  26.220  1.00  0.00     0.226 C 
HETATM    8  O1  UNL     1       8.155  36.827  27.317  1.00  0.00    -0.643 OA
HETATM    9  O2  UNL     1       7.400  36.651  25.141  1.00  0.00    -0.643 OA
ENDBRANCH   1   7
TORSDOF 1
ENDMDL
