MODEL 7
REMARK VINA RESULT: -5.045645149      3.557      4.049
REMARK  1 active torsions:
REMARK  status: ('A' for Active; 'I' for Inactive)
REMARK    1  A    between atoms: C1_2  and  C2_4 
ROOT
HETATM    1  C2  UNL     1       9.837  34.401  26.486  1.00  0.00     0.109 A 
HETATM    2  C3  UNL     1       9.151  33.686  25.524  1.00  0.00     0.038 A 
HETATM    3  C4  UNL     1       9.933  32.605  25.161  1.00  0.00     0.019 A 
HETATM    4  C5  UNL     1      11.094  32.671  25.911  1.00  0.00     0.088 A 
HETATM    5  N1  UNL     1      11.007  33.762  26.698  1.00  0.00    -0.360 N 
ATOM      6  H1  UNL     1      11.723  34.062  27.360  1.00  0.00     0.165 HD
ENDROOT
BRANCH   1   7
HETATM    7  C1  UNL     1       9.369  35.627  27.150  1.00  0.00     0.226 C 
HETATM    8  O1  UNL     1       8.426  35.554  27.973  1.00  0.00    -0.643 OA
HETATM    9  O2  UNL     1       9.985  36.830  26.844  1.00  0.00    -0.643 OA
ENDBRANCH   1   7
TORSDOF 1
ENDMDL
