MODEL 10
REMARK VINA RESULT: -4.894304428      1.821      2.394
REMARK  1 active torsions:
REMARK  status: ('A' for Active; 'I' for Inactive)
REMARK    1  A    between atoms: C1_2  and  C2_4 
ROOT
HETATM    1  C2  UNL     1       7.896  32.668  29.120  1.00  0.00     0.109 A 
HETATM    2  C3  UNL     1       7.042  31.637  28.781  1.00  0.00     0.038 A 
HETATM    3  C4  UNL     1       7.503  31.075  27.604  1.00  0.00     0.019 A 
HETATM    4  C5  UNL     1       8.641  31.772  27.237  1.00  0.00     0.088 A 
HETATM    5  N1  UNL     1       8.852  32.724  28.168  1.00  0.00    -0.360 N 
ATOM      6  H1  UNL     1       9.623  33.391  28.155  1.00  0.00     0.165 HD
ENDROOT
BRANCH   1   7
HETATM    7  C1  UNL     1       7.777  33.535  30.302  1.00  0.00     0.226 C 
HETATM    8  O1  UNL     1       7.854  33.024  31.445  1.00  0.00    -0.643 OA
HETATM    9  O2  UNL     1       7.582  34.895  30.117  1.00  0.00    -0.643 OA
ENDBRANCH   1   7
TORSDOF 1
ENDMDL
