MODEL 4
REMARK VINA RESULT: -9.493041780      5.382     11.798
REMARK  11 active torsions:
REMARK  status: ('A' for Active; 'I' for Inactive)
REMARK       I    between atoms: C1_2  and  N1_3 
REMARK    1  A    between atoms: C1_2  and  C17_28 
REMARK    2  A    between atoms: N1_3  and  C2_5 
REMARK    3  A    between atoms: C2_5  and  C3_6 
REMARK    4  A    between atoms: C3_6  and  O2_7 
REMARK    5  A    between atoms: O2_7  and  C4_8 
REMARK    6  A    between atoms: C4_8  and  C5_9 
REMARK    7  A    between atoms: C5_9  and  O3_10 
REMARK    8  A    between atoms: O3_10  and  C6_11 
REMARK    9  A    between atoms: C6_11  and  C7_12 
REMARK   10  A    between atoms: C7_12  and  N2_13 
REMARK       I    between atoms: N2_13  and  C8_15 
REMARK   11  A    between atoms: C8_15  and  C9_17 
ROOT
HETATM    1  C4  UNL     1      -0.880  32.275  65.104  1.00  0.00     0.193 C 
ENDROOT
BRANCH   1   2
HETATM    2  O2  UNL     1      -1.489  33.532  65.017  1.00  0.00    -0.387 OA
BRANCH   2   3
HETATM    3  C3  UNL     1      -2.753  33.510  64.477  1.00  0.00     0.187 C 
BRANCH   3   4
HETATM    4  C2  UNL     1      -3.044  32.277  63.651  1.00  0.00     0.149 C 
BRANCH   4   5
HETATM    5  N1  UNL     1      -3.256  32.622  62.288  1.00  0.00    -0.354 N 
HETATM    6  C1  UNL     1      -2.243  32.793  61.326  1.00  0.00     0.268 C 
HETATM    7  O1  UNL     1      -1.050  32.636  61.652  1.00  0.00    -0.266 OA
ATOM      8  H1  UNL     1      -4.220  32.757  61.983  1.00  0.00     0.162 HD
BRANCH   6   9
HETATM    9  C17 UNL     1      -2.610  33.157  59.939  1.00  0.00     0.102 A 
HETATM   10  C18 UNL     1      -3.757  32.801  59.262  1.00  0.00     0.049 A 
HETATM   11  C19 UNL     1      -3.743  33.331  57.986  1.00  0.00    -0.005 A 
HETATM   12  C20 UNL     1      -4.605  33.295  56.909  1.00  0.00     0.037 A 
HETATM   13  C24 UNL     1      -2.551  34.022  57.899  1.00  0.00     0.043 A 
HETATM   14  C21 UNL     1      -4.298  33.946  55.729  1.00  0.00     0.035 A 
HETATM   15 CL2  UNL     1      -5.361  33.926  54.344  1.00  0.00    -0.084 Cl
HETATM   16  C22 UNL     1      -3.110  34.640  55.634  1.00  0.00     0.026 A 
HETATM   17  C23 UNL     1      -2.247  34.677  56.709  1.00  0.00     0.032 A 
HETATM   18  N4  UNL     1      -1.893  33.902  59.082  1.00  0.00    -0.351 N 
ATOM     19  H4  UNL     1      -0.984  34.318  59.288  1.00  0.00     0.166 HD
ENDBRANCH   6   9
ENDBRANCH   4   5
ENDBRANCH   3   4
ENDBRANCH   2   3
ENDBRANCH   1   2
BRANCH   1  20
HETATM   20  C5  UNL     1       0.601  32.368  65.136  1.00  0.00     0.193 C 
BRANCH  20  21
HETATM   21  O3  UNL     1       1.145  32.520  63.889  1.00  0.00    -0.387 OA
BRANCH  21  22
HETATM   22  C6  UNL     1       1.980  33.601  63.770  1.00  0.00     0.187 C 
BRANCH  22  23
HETATM   23  C7  UNL     1       1.284  34.702  62.964  1.00  0.00     0.149 C 
BRANCH  23  24
HETATM   24  N2  UNL     1       0.668  35.665  63.825  1.00  0.00    -0.354 N 
HETATM   25  C8  UNL     1      -0.548  36.325  63.558  1.00  0.00     0.268 C 
HETATM   26  O4  UNL     1      -1.156  36.065  62.493  1.00  0.00    -0.266 OA
ATOM     27  H2  UNL     1       1.146  35.891  64.697  1.00  0.00     0.162 HD
BRANCH  25  28
HETATM   28  C9  UNL     1      -1.091  37.303  64.518  1.00  0.00     0.102 A 
HETATM   29  C10 UNL     1      -0.469  38.433  64.998  1.00  0.00     0.049 A 
HETATM   30  C11 UNL     1      -1.320  39.078  65.881  1.00  0.00    -0.005 A 
HETATM   31  C12 UNL     1      -1.220  40.227  66.638  1.00  0.00     0.037 A 
HETATM   32  C16 UNL     1      -2.469  38.316  65.929  1.00  0.00     0.043 A 
HETATM   33  C13 UNL     1      -2.249  40.637  67.446  1.00  0.00     0.035 A 
HETATM   34 CL1  UNL     1      -2.039  42.109  68.373  1.00  0.00    -0.084 Cl
HETATM   35  C14 UNL     1      -3.404  39.887  67.504  1.00  0.00     0.026 A 
HETATM   36  C15 UNL     1      -3.512  38.737  66.751  1.00  0.00     0.032 A 
HETATM   37  N3  UNL     1      -2.299  37.266  65.105  1.00  0.00    -0.351 N 
ATOM     38  H3  UNL     1      -2.996  36.538  64.947  1.00  0.00     0.166 HD
ENDBRANCH  25  28
ENDBRANCH  23  24
ENDBRANCH  22  23
ENDBRANCH  21  22
ENDBRANCH  20  21
ENDBRANCH   1  20
TORSDOF 11
ENDMDL
