MODEL 2
REMARK VINA RESULT: -9.912727922      0.325     13.899
REMARK  11 active torsions:
REMARK  status: ('A' for Active; 'I' for Inactive)
REMARK       I    between atoms: C1_2  and  N1_3 
REMARK    1  A    between atoms: C1_2  and  C17_28 
REMARK    2  A    between atoms: N1_3  and  C2_5 
REMARK    3  A    between atoms: C2_5  and  C3_6 
REMARK    4  A    between atoms: C3_6  and  O2_7 
REMARK    5  A    between atoms: O2_7  and  C4_8 
REMARK    6  A    between atoms: C4_8  and  C5_9 
REMARK    7  A    between atoms: C5_9  and  O3_10 
REMARK    8  A    between atoms: O3_10  and  C6_11 
REMARK    9  A    between atoms: C6_11  and  C7_12 
REMARK   10  A    between atoms: C7_12  and  N2_13 
REMARK       I    between atoms: N2_13  and  C8_15 
REMARK   11  A    between atoms: C8_15  and  C9_17 
ROOT
HETATM    1  C4  UNL     1      -3.052  35.610  64.729  1.00  0.00     0.193 C 
ENDROOT
BRANCH   1   2
HETATM    2  O2  UNL     1      -2.693  34.474  63.996  1.00  0.00    -0.387 OA
BRANCH   2   3
HETATM    3  C3  UNL     1      -3.204  33.298  64.491  1.00  0.00     0.187 C 
BRANCH   3   4
HETATM    4  C2  UNL     1      -3.000  32.110  63.578  1.00  0.00     0.149 C 
BRANCH   4   5
HETATM    5  N1  UNL     1      -3.221  32.474  62.221  1.00  0.00    -0.354 N 
HETATM    6  C1  UNL     1      -2.215  32.818  61.298  1.00  0.00     0.268 C 
HETATM    7  O1  UNL     1      -1.021  32.813  61.656  1.00  0.00    -0.266 OA
ATOM      8  H1  UNL     1      -4.185  32.488  61.889  1.00  0.00     0.162 HD
BRANCH   6   9
HETATM    9  C17 UNL     1      -2.592  33.181  59.913  1.00  0.00     0.102 A 
HETATM   10  C18 UNL     1      -3.726  32.794  59.231  1.00  0.00     0.049 A 
HETATM   11  C19 UNL     1      -3.726  33.334  57.959  1.00  0.00    -0.005 A 
HETATM   12  C20 UNL     1      -4.585  33.279  56.880  1.00  0.00     0.037 A 
HETATM   13  C24 UNL     1      -2.556  34.062  57.879  1.00  0.00     0.043 A 
HETATM   14  C21 UNL     1      -4.297  33.948  55.706  1.00  0.00     0.035 A 
HETATM   15 CL2  UNL     1      -5.357  33.905  54.319  1.00  0.00    -0.084 Cl
HETATM   16  C22 UNL     1      -3.130  34.679  55.618  1.00  0.00     0.026 A 
HETATM   17  C23 UNL     1      -2.270  34.734  56.694  1.00  0.00     0.032 A 
HETATM   18  N4  UNL     1      -1.896  33.954  59.062  1.00  0.00    -0.351 N 
ATOM     19  H4  UNL     1      -1.001  34.396  59.273  1.00  0.00     0.166 HD
ENDBRANCH   6   9
ENDBRANCH   4   5
ENDBRANCH   3   4
ENDBRANCH   2   3
ENDBRANCH   1   2
BRANCH   1  20
HETATM   20  C5  UNL     1      -1.945  36.100  65.589  1.00  0.00     0.193 C 
BRANCH  20  21
HETATM   21  O3  UNL     1      -2.243  36.024  66.923  1.00  0.00    -0.387 OA
BRANCH  21  22
HETATM   22  C6  UNL     1      -3.582  35.895  67.191  1.00  0.00     0.187 C 
BRANCH  22  23
HETATM   23  C7  UNL     1      -4.036  37.036  68.104  1.00  0.00     0.149 C 
BRANCH  23  24
HETATM   24  N2  UNL     1      -4.611  36.535  69.315  1.00  0.00    -0.354 N 
HETATM   25  C8  UNL     1      -3.884  36.188  70.471  1.00  0.00     0.268 C 
HETATM   26  O4  UNL     1      -2.637  36.321  70.463  1.00  0.00    -0.266 OA
ATOM     27  H2  UNL     1      -5.625  36.420  69.343  1.00  0.00     0.162 HD
BRANCH  25  28
HETATM   28  C9  UNL     1      -4.582  35.680  71.665  1.00  0.00     0.102 A 
HETATM   29  C10 UNL     1      -5.928  35.757  71.939  1.00  0.00     0.049 A 
HETATM   30  C11 UNL     1      -6.177  35.159  73.165  1.00  0.00    -0.005 A 
HETATM   31  C12 UNL     1      -7.317  34.955  73.914  1.00  0.00     0.037 A 
HETATM   32  C16 UNL     1      -4.956  34.718  73.628  1.00  0.00     0.043 A 
HETATM   33  C13 UNL     1      -7.265  34.315  75.126  1.00  0.00     0.035 A 
HETATM   34 CL1  UNL     1      -8.759  34.096  76.013  1.00  0.00    -0.084 Cl
HETATM   35  C14 UNL     1      -6.051  33.867  75.602  1.00  0.00     0.026 A 
HETATM   36  C15 UNL     1      -4.907  34.068  74.859  1.00  0.00     0.032 A 
HETATM   37  N3  UNL     1      -4.026  35.044  72.711  1.00  0.00    -0.351 N 
ATOM     38  H3  UNL     1      -3.032  34.837  72.798  1.00  0.00     0.166 HD
ENDBRANCH  25  28
ENDBRANCH  23  24
ENDBRANCH  22  23
ENDBRANCH  21  22
ENDBRANCH  20  21
ENDBRANCH   1  20
TORSDOF 11
ENDMDL
