MODEL 1
REMARK VINA RESULT: -10.057043349      0.000      0.000
REMARK  11 active torsions:
REMARK  status: ('A' for Active; 'I' for Inactive)
REMARK       I    between atoms: C1_2  and  N1_3 
REMARK    1  A    between atoms: C1_2  and  C17_28 
REMARK    2  A    between atoms: N1_3  and  C2_5 
REMARK    3  A    between atoms: C2_5  and  C3_6 
REMARK    4  A    between atoms: C3_6  and  O2_7 
REMARK    5  A    between atoms: O2_7  and  C4_8 
REMARK    6  A    between atoms: C4_8  and  C5_9 
REMARK    7  A    between atoms: C5_9  and  O3_10 
REMARK    8  A    between atoms: O3_10  and  C6_11 
REMARK    9  A    between atoms: C6_11  and  C7_12 
REMARK   10  A    between atoms: C7_12  and  N2_13 
REMARK       I    between atoms: N2_13  and  C8_15 
REMARK   11  A    between atoms: C8_15  and  C9_17 
ROOT
HETATM    1  C4  UNL     1      -2.702  36.224  65.376  1.00  0.00     0.193 C 
ENDROOT
BRANCH   1   2
HETATM    2  O2  UNL     1      -2.384  35.850  66.687  1.00  0.00    -0.387 OA
BRANCH   2   3
HETATM    3  C3  UNL     1      -3.468  35.476  67.445  1.00  0.00     0.187 C 
BRANCH   3   4
HETATM    4  C2  UNL     1      -4.129  36.625  68.174  1.00  0.00     0.149 C 
BRANCH   4   5
HETATM    5  N1  UNL     1      -4.687  36.185  69.406  1.00  0.00    -0.354 N 
HETATM    6  C1  UNL     1      -3.973  36.016  70.608  1.00  0.00     0.268 C 
HETATM    7  O1  UNL     1      -2.751  36.263  70.639  1.00  0.00    -0.266 OA
ATOM      8  H1  UNL     1      -5.685  35.974  69.421  1.00  0.00     0.162 HD
BRANCH   6   9
HETATM    9  C17 UNL     1      -4.685  35.546  71.817  1.00  0.00     0.102 A 
HETATM   10  C18 UNL     1      -6.034  35.647  72.080  1.00  0.00     0.049 A 
HETATM   11  C19 UNL     1      -6.324  35.094  73.313  1.00  0.00    -0.005 A 
HETATM   12  C20 UNL     1      -7.475  34.927  74.057  1.00  0.00     0.037 A 
HETATM   13  C24 UNL     1      -5.111  34.650  73.799  1.00  0.00     0.043 A 
HETATM   14  C21 UNL     1      -7.439  34.316  75.296  1.00  0.00     0.035 A 
HETATM   15 CL2  UNL     1      -8.871  34.084  76.267  1.00  0.00    -0.084 Cl
HETATM   16  C22 UNL     1      -6.231  33.869  75.790  1.00  0.00     0.026 A 
HETATM   17  C23 UNL     1      -5.080  34.035  75.048  1.00  0.00     0.032 A 
HETATM   18  N4  UNL     1      -4.147  34.933  72.885  1.00  0.00    -0.351 N 
ATOM     19  H4  UNL     1      -3.157  34.712  72.994  1.00  0.00     0.166 HD
ENDBRANCH   6   9
ENDBRANCH   4   5
ENDBRANCH   3   4
ENDBRANCH   2   3
ENDBRANCH   1   2
BRANCH   1  20
HETATM   20  C5  UNL     1      -2.384  35.158  64.393  1.00  0.00     0.193 C 
BRANCH  20  21
HETATM   21  O3  UNL     1      -3.491  34.449  64.012  1.00  0.00    -0.387 OA
BRANCH  21  22
HETATM   22  C6  UNL     1      -3.583  33.205  64.583  1.00  0.00     0.187 C 
BRANCH  22  23
HETATM   23  C7  UNL     1      -3.010  32.156  63.625  1.00  0.00     0.149 C 
BRANCH  23  24
HETATM   24  N2  UNL     1      -3.249  32.514  62.260  1.00  0.00    -0.354 N 
HETATM   25  C8  UNL     1      -2.247  32.827  61.320  1.00  0.00     0.268 C 
HETATM   26  O4  UNL     1      -1.047  32.796  61.682  1.00  0.00    -0.266 OA
ATOM     27  H2  UNL     1      -4.218  32.544  61.944  1.00  0.00     0.162 HD
BRANCH  25  28
HETATM   28  C9  UNL     1      -2.609  33.182  59.937  1.00  0.00     0.102 A 
HETATM   29  C10 UNL     1      -3.740  32.806  59.249  1.00  0.00     0.049 A 
HETATM   30  C11 UNL     1      -3.699  33.352  57.975  1.00  0.00    -0.005 A 
HETATM   31  C12 UNL     1      -4.546  33.304  56.887  1.00  0.00     0.037 A 
HETATM   32  C16 UNL     1      -2.520  34.065  57.904  1.00  0.00     0.043 A 
HETATM   33  C13 UNL     1      -4.242  33.958  55.721  1.00  0.00     0.035 A 
HETATM   34 CL1  UNL     1      -5.373  33.847  54.389  1.00  0.00    -0.084 Cl
HETATM   35  C14 UNL     1      -3.067  34.677  55.635  1.00  0.00     0.026 A 
HETATM   36  C15 UNL     1      -2.215  34.728  56.718  1.00  0.00     0.032 A 
HETATM   37  N3  UNL     1      -1.895  33.943  59.090  1.00  0.00    -0.351 N 
ATOM     38  H3  UNL     1      -0.998  34.372  59.315  1.00  0.00     0.166 HD
ENDBRANCH  25  28
ENDBRANCH  23  24
ENDBRANCH  22  23
ENDBRANCH  21  22
ENDBRANCH  20  21
ENDBRANCH   1  20
TORSDOF 11
ENDMDL
