MODEL 3
REMARK VINA RESULT: -9.532563822      4.581     11.918
REMARK  11 active torsions:
REMARK  status: ('A' for Active; 'I' for Inactive)
REMARK       I    between atoms: C1_2  and  N1_3 
REMARK    1  A    between atoms: C1_2  and  C17_28 
REMARK    2  A    between atoms: N1_3  and  C2_5 
REMARK    3  A    between atoms: C2_5  and  C3_6 
REMARK    4  A    between atoms: C3_6  and  O2_7 
REMARK    5  A    between atoms: O2_7  and  C4_8 
REMARK    6  A    between atoms: C4_8  and  C5_9 
REMARK    7  A    between atoms: C5_9  and  O3_10 
REMARK    8  A    between atoms: O3_10  and  C6_11 
REMARK    9  A    between atoms: C6_11  and  C7_12 
REMARK   10  A    between atoms: C7_12  and  N2_13 
REMARK       I    between atoms: N2_13  and  C8_15 
REMARK   11  A    between atoms: C8_15  and  C9_17 
ROOT
HETATM    1  C4  UNL     1      -2.295  36.684  65.885  1.00  0.00     0.193 C 
ENDROOT
BRANCH   1   2
HETATM    2  O2  UNL     1      -3.537  36.059  65.724  1.00  0.00    -0.387 OA
BRANCH   2   3
HETATM    3  C3  UNL     1      -3.572  35.124  64.718  1.00  0.00     0.187 C 
BRANCH   3   4
HETATM    4  C2  UNL     1      -4.177  33.801  65.134  1.00  0.00     0.149 C 
BRANCH   4   5
HETATM    5  N1  UNL     1      -5.545  33.731  64.752  1.00  0.00    -0.354 N 
HETATM    6  C1  UNL     1      -6.638  34.010  65.594  1.00  0.00     0.268 C 
HETATM    7  O1  UNL     1      -6.436  34.350  66.776  1.00  0.00    -0.266 OA
ATOM      8  H1  UNL     1      -5.751  33.458  63.791  1.00  0.00     0.162 HD
BRANCH   6   9
HETATM    9  C17 UNL     1      -8.015  33.892  65.062  1.00  0.00     0.102 A 
HETATM   10  C18 UNL     1      -8.387  33.752  63.742  1.00  0.00     0.049 A 
HETATM   11  C19 UNL     1      -9.762  33.675  63.639  1.00  0.00    -0.005 A 
HETATM   12  C20 UNL     1     -10.652  33.534  62.593  1.00  0.00     0.037 A 
HETATM   13  C24 UNL     1     -10.224  33.773  64.935  1.00  0.00     0.043 A 
HETATM   14  C21 UNL     1     -12.015  33.488  62.818  1.00  0.00     0.035 A 
HETATM   15 CL2  UNL     1     -13.173  33.311  61.524  1.00  0.00    -0.084 Cl
HETATM   16  C22 UNL     1     -12.485  33.586  64.111  1.00  0.00     0.026 A 
HETATM   17  C23 UNL     1     -11.598  33.727  65.158  1.00  0.00     0.032 A 
HETATM   18  N4  UNL     1      -9.158  33.903  65.767  1.00  0.00    -0.351 N 
ATOM     19  H4  UNL     1      -9.217  33.995  66.782  1.00  0.00     0.166 HD
ENDBRANCH   6   9
ENDBRANCH   4   5
ENDBRANCH   3   4
ENDBRANCH   2   3
ENDBRANCH   1   2
BRANCH   1  20
HETATM   20  C5  UNL     1      -1.834  36.666  67.296  1.00  0.00     0.193 C 
BRANCH  20  21
HETATM   21  O3  UNL     1      -1.555  35.401  67.740  1.00  0.00    -0.387 OA
BRANCH  21  22
HETATM   22  C6  UNL     1      -1.065  35.352  69.019  1.00  0.00     0.187 C 
BRANCH  22  23
HETATM   23  C7  UNL     1      -1.600  36.542  69.821  1.00  0.00     0.149 C 
BRANCH  23  24
HETATM   24  N2  UNL     1      -2.438  36.108  70.897  1.00  0.00    -0.354 N 
HETATM   25  C8  UNL     1      -3.816  35.832  70.787  1.00  0.00     0.268 C 
HETATM   26  O4  UNL     1      -4.372  35.968  69.671  1.00  0.00    -0.266 OA
ATOM     27  H2  UNL     1      -2.006  35.990  71.814  1.00  0.00     0.162 HD
BRANCH  25  28
HETATM   28  C9  UNL     1      -4.583  35.390  71.964  1.00  0.00     0.102 A 
HETATM   29  C10 UNL     1      -5.919  35.603  72.217  1.00  0.00     0.049 A 
HETATM   30  C11 UNL     1      -6.249  35.026  73.433  1.00  0.00    -0.005 A 
HETATM   31  C12 UNL     1      -7.416  34.935  74.162  1.00  0.00     0.037 A 
HETATM   32  C16 UNL     1      -5.087  34.460  73.914  1.00  0.00     0.043 A 
HETATM   33  C13 UNL     1      -7.451  34.286  75.370  1.00  0.00     0.035 A 
HETATM   34 CL1  UNL     1      -8.975  34.216  76.230  1.00  0.00    -0.084 Cl
HETATM   35  C14 UNL     1      -6.297  33.714  75.863  1.00  0.00     0.026 A 
HETATM   36  C15 UNL     1      -5.126  33.802  75.141  1.00  0.00     0.032 A 
HETATM   37  N3  UNL     1      -4.113  34.696  73.015  1.00  0.00    -0.351 N 
ATOM     38  H3  UNL     1      -3.146  34.387  73.117  1.00  0.00     0.166 HD
ENDBRANCH  25  28
ENDBRANCH  23  24
ENDBRANCH  22  23
ENDBRANCH  21  22
ENDBRANCH  20  21
ENDBRANCH   1  20
TORSDOF 11
ENDMDL
