MODEL 5
REMARK VINA RESULT: -9.326357055      4.896     11.315
REMARK  11 active torsions:
REMARK  status: ('A' for Active; 'I' for Inactive)
REMARK       I    between atoms: C1_2  and  N1_3 
REMARK    1  A    between atoms: C1_2  and  C17_28 
REMARK    2  A    between atoms: N1_3  and  C2_5 
REMARK    3  A    between atoms: C2_5  and  C3_6 
REMARK    4  A    between atoms: C3_6  and  O2_7 
REMARK    5  A    between atoms: O2_7  and  C4_8 
REMARK    6  A    between atoms: C4_8  and  C5_9 
REMARK    7  A    between atoms: C5_9  and  O3_10 
REMARK    8  A    between atoms: O3_10  and  C6_11 
REMARK    9  A    between atoms: C6_11  and  C7_12 
REMARK   10  A    between atoms: C7_12  and  N2_13 
REMARK       I    between atoms: N2_13  and  C8_15 
REMARK   11  A    between atoms: C8_15  and  C9_17 
ROOT
HETATM    1  C4  UNL     1      -1.731  30.953  65.892  1.00  0.00     0.193 C 
ENDROOT
BRANCH   1   2
HETATM    2  O2  UNL     1      -1.313  30.197  64.790  1.00  0.00    -0.387 OA
BRANCH   2   3
HETATM    3  C3  UNL     1      -2.070  30.384  63.659  1.00  0.00     0.187 C 
BRANCH   3   4
HETATM    4  C2  UNL     1      -2.786  31.716  63.614  1.00  0.00     0.149 C 
BRANCH   4   5
HETATM    5  N1  UNL     1      -3.036  32.107  62.270  1.00  0.00    -0.354 N 
HETATM    6  C1  UNL     1      -2.136  32.809  61.446  1.00  0.00     0.268 C 
HETATM    7  O1  UNL     1      -1.017  33.132  61.891  1.00  0.00    -0.266 OA
ATOM      8  H1  UNL     1      -3.941  31.859  61.869  1.00  0.00     0.162 HD
BRANCH   6   9
HETATM    9  C17 UNL     1      -2.533  33.155  60.063  1.00  0.00     0.102 A 
HETATM   10  C18 UNL     1      -3.667  32.744  59.396  1.00  0.00     0.049 A 
HETATM   11  C19 UNL     1      -3.689  33.273  58.120  1.00  0.00    -0.005 A 
HETATM   12  C20 UNL     1      -4.559  33.196  57.050  1.00  0.00     0.037 A 
HETATM   13  C24 UNL     1      -2.534  34.022  58.023  1.00  0.00     0.043 A 
HETATM   14  C21 UNL     1      -4.294  33.861  55.868  1.00  0.00     0.035 A 
HETATM   15 CL2  UNL     1      -5.367  33.789  54.493  1.00  0.00    -0.084 Cl
HETATM   16  C22 UNL     1      -3.142  34.611  55.763  1.00  0.00     0.026 A 
HETATM   17  C23 UNL     1      -2.272  34.690  56.830  1.00  0.00     0.032 A 
HETATM   18  N4  UNL     1      -1.860  33.934  59.199  1.00  0.00    -0.351 N 
ATOM     19  H4  UNL     1      -0.971  34.393  59.398  1.00  0.00     0.166 HD
ENDBRANCH   6   9
ENDBRANCH   4   5
ENDBRANCH   3   4
ENDBRANCH   2   3
ENDBRANCH   1   2
BRANCH   1  20
HETATM   20  C5  UNL     1      -0.696  31.919  66.338  1.00  0.00     0.193 C 
BRANCH  20  21
HETATM   21  O3  UNL     1      -1.234  33.016  66.955  1.00  0.00    -0.387 OA
BRANCH  21  22
HETATM   22  C6  UNL     1      -2.604  33.009  67.017  1.00  0.00     0.187 C 
BRANCH  22  23
HETATM   23  C7  UNL     1      -3.151  34.333  66.477  1.00  0.00     0.149 C 
BRANCH  23  24
HETATM   24  N2  UNL     1      -4.393  34.142  65.792  1.00  0.00    -0.354 N 
HETATM   25  C8  UNL     1      -5.666  34.386  66.346  1.00  0.00     0.268 C 
HETATM   26  O4  UNL     1      -5.742  34.803  67.526  1.00  0.00    -0.266 OA
ATOM     27  H2  UNL     1      -4.354  33.804  64.830  1.00  0.00     0.162 HD
BRANCH  25  28
HETATM   28  C9  UNL     1      -6.882  34.153  65.547  1.00  0.00     0.102 A 
HETATM   29  C10 UNL     1      -8.143  33.862  66.014  1.00  0.00     0.049 A 
HETATM   30  C11 UNL     1      -9.004  33.716  64.937  1.00  0.00    -0.005 A 
HETATM   31  C12 UNL     1     -10.348  33.429  64.820  1.00  0.00     0.037 A 
HETATM   32  C16 UNL     1      -8.239  33.924  63.808  1.00  0.00     0.043 A 
HETATM   33  C13 UNL     1     -10.951  33.345  63.592  1.00  0.00     0.035 A 
HETATM   34 CL1  UNL     1     -12.662  32.977  63.533  1.00  0.00    -0.084 Cl
HETATM   35  C14 UNL     1     -10.200  33.551  62.454  1.00  0.00     0.026 A 
HETATM   36  C15 UNL     1      -8.856  33.837  62.562  1.00  0.00     0.032 A 
HETATM   37  N3  UNL     1      -6.980  34.182  64.207  1.00  0.00    -0.351 N 
ATOM     38  H3  UNL     1      -6.202  34.373  63.575  1.00  0.00     0.166 HD
ENDBRANCH  25  28
ENDBRANCH  23  24
ENDBRANCH  22  23
ENDBRANCH  21  22
ENDBRANCH  20  21
ENDBRANCH   1  20
TORSDOF 11
ENDMDL
