MODEL 12
REMARK VINA RESULT: -7.080416878      2.350      4.694
REMARK  0 active torsions:
REMARK  status: ('A' for Active; 'I' for Inactive)
ROOT
HETATM    1  N1  UNL     1      13.566  16.323  21.570  1.00  0.00    -0.102 NA
HETATM    2  C1  UNL     1      14.914  16.641  21.234  1.00  0.00     0.047 A 
HETATM    3  C2  UNL     1      15.877  16.883  22.199  1.00  0.00     0.027 A 
HETATM    4  C3  UNL     1      17.187  17.193  21.890  1.00  0.00     0.020 A 
HETATM    5  C4  UNL     1      17.574  17.270  20.580  1.00  0.00     0.049 A 
HETATM    6  C5  UNL     1      18.858  17.572  20.183  1.00  0.00     0.271 A 
HETATM    7  O1  UNL     1      19.697  17.784  21.098  1.00  0.00    -0.266 OA
HETATM    8  N2  UNL     1      19.219  17.643  18.891  1.00  0.00    -0.263 N 
ATOM      9  H2  UNL     1      20.181  17.872  18.640  1.00  0.00     0.190 HD
HETATM   10  N3  UNL     1      18.322  17.417  17.947  1.00  0.00    -0.263 N 
ATOM     11  H3  UNL     1      18.589  17.469  16.964  1.00  0.00     0.190 HD
HETATM   12  C6  UNL     1      17.054  17.118  18.287  1.00  0.00     0.271 A 
HETATM   13  O2  UNL     1      16.229  16.910  17.353  1.00  0.00    -0.266 OA
HETATM   14  C7  UNL     1      16.635  17.033  19.595  1.00  0.00     0.051 A 
HETATM   15  C8  UNL     1      15.328  16.724  19.921  1.00  0.00     0.044 A 
ENDROOT
TORSDOF 0
ENDMDL
