MODEL 4
REMARK VINA RESULT: -7.559505969      1.208      1.418
REMARK  0 active torsions:
REMARK  status: ('A' for Active; 'I' for Inactive)
ROOT
HETATM    1  N1  UNL     1      16.289  16.860  17.719  1.00  0.00    -0.102 NA
HETATM    2  C1  UNL     1      16.163  16.873  19.139  1.00  0.00     0.047 A 
HETATM    3  C2  UNL     1      14.963  16.607  19.775  1.00  0.00     0.027 A 
HETATM    4  C3  UNL     1      14.825  16.615  21.150  1.00  0.00     0.020 A 
HETATM    5  C4  UNL     1      15.909  16.898  21.937  1.00  0.00     0.049 A 
HETATM    6  C5  UNL     1      15.861  16.927  23.313  1.00  0.00     0.271 A 
HETATM    7  O1  UNL     1      14.746  16.678  23.845  1.00  0.00    -0.266 OA
HETATM    8  N2  UNL     1      16.934  17.206  24.070  1.00  0.00    -0.263 N 
ATOM      9  H2  UNL     1      16.855  17.219  25.087  1.00  0.00     0.190 HD
HETATM   10  N3  UNL     1      18.095  17.464  23.491  1.00  0.00    -0.263 N 
ATOM     11  H3  UNL     1      18.915  17.676  24.059  1.00  0.00     0.190 HD
HETATM   12  C6  UNL     1      18.190  17.446  22.149  1.00  0.00     0.271 A 
HETATM   13  O2  UNL     1      19.317  17.700  21.636  1.00  0.00    -0.266 OA
HETATM   14  C7  UNL     1      17.119  17.167  21.330  1.00  0.00     0.051 A 
HETATM   15  C8  UNL     1      17.241  17.154  19.953  1.00  0.00     0.044 A 
ENDROOT
TORSDOF 0
ENDMDL
