MODEL 7
REMARK VINA RESULT: -7.400055832      1.694      4.681
REMARK  0 active torsions:
REMARK  status: ('A' for Active; 'I' for Inactive)
ROOT
HETATM    1  N1  UNL     1      14.521  16.864  23.627  1.00  0.00    -0.102 NA
HETATM    2  C1  UNL     1      15.678  17.018  22.808  1.00  0.00     0.047 A 
HETATM    3  C2  UNL     1      16.918  17.335  23.336  1.00  0.00     0.027 A 
HETATM    4  C3  UNL     1      18.048  17.487  22.556  1.00  0.00     0.020 A 
HETATM    5  C4  UNL     1      17.963  17.323  21.200  1.00  0.00     0.049 A 
HETATM    6  C5  UNL     1      19.037  17.455  20.349  1.00  0.00     0.271 A 
HETATM    7  O1  UNL     1      20.144  17.744  20.877  1.00  0.00    -0.266 OA
HETATM    8  N2  UNL     1      18.935  17.289  19.020  1.00  0.00    -0.263 N 
ATOM      9  H2  UNL     1      19.756  17.398  18.425  1.00  0.00     0.190 HD
HETATM   10  N3  UNL     1      17.764  16.986  18.487  1.00  0.00    -0.263 N 
ATOM     11  H3  UNL     1      17.678  16.858  17.479  1.00  0.00     0.190 HD
HETATM   12  C6  UNL     1      16.685  16.845  19.280  1.00  0.00     0.271 A 
HETATM   13  O2  UNL     1      15.585  16.555  18.728  1.00  0.00    -0.266 OA
HETATM   14  C7  UNL     1      16.739  17.005  20.645  1.00  0.00     0.051 A 
HETATM   15  C8  UNL     1      15.617  16.856  21.439  1.00  0.00     0.044 A 
ENDROOT
TORSDOF 0
ENDMDL
