MODEL 1
REMARK VINA RESULT: -7.988155019      0.000      0.000
REMARK  0 active torsions:
REMARK  status: ('A' for Active; 'I' for Inactive)
ROOT
HETATM    1  N1  UNL     1      18.602  17.589  18.344  1.00  0.00    -0.102 NA
HETATM    2  C1  UNL     1      17.719  17.373  19.442  1.00  0.00     0.047 A 
HETATM    3  C2  UNL     1      16.399  16.994  19.264  1.00  0.00     0.027 A 
HETATM    4  C3  UNL     1      15.531  16.781  20.317  1.00  0.00     0.020 A 
HETATM    5  C4  UNL     1      15.971  16.947  21.602  1.00  0.00     0.049 A 
HETATM    6  C5  UNL     1      15.175  16.755  22.709  1.00  0.00     0.271 A 
HETATM    7  O1  UNL     1      13.982  16.411  22.494  1.00  0.00    -0.266 OA
HETATM    8  N2  UNL     1      15.625  16.922  23.963  1.00  0.00    -0.263 N 
ATOM      9  H2  UNL     1      15.001  16.772  24.756  1.00  0.00     0.190 HD
HETATM   10  N3  UNL     1      16.880  17.284  24.166  1.00  0.00    -0.263 N 
ATOM     11  H3  UNL     1      17.229  17.413  25.115  1.00  0.00     0.190 HD
HETATM   12  C6  UNL     1      17.696  17.482  23.114  1.00  0.00     0.271 A 
HETATM   13  O2  UNL     1      18.889  17.828  23.353  1.00  0.00    -0.266 OA
HETATM   14  C7  UNL     1      17.283  17.324  21.811  1.00  0.00     0.051 A 
HETATM   15  C8  UNL     1      18.140  17.533  20.746  1.00  0.00     0.044 A 
ENDROOT
TORSDOF 0
ENDMDL
