MODEL 17
REMARK VINA RESULT: -6.987357790      2.238      4.944
REMARK  0 active torsions:
REMARK  status: ('A' for Active; 'I' for Inactive)
ROOT
HETATM    1  N1  UNL     1      12.638  16.167  23.773  1.00  0.00    -0.102 NA
HETATM    2  C1  UNL     1      13.751  16.415  22.917  1.00  0.00     0.047 A 
HETATM    3  C2  UNL     1      14.976  16.837  23.403  1.00  0.00     0.027 A 
HETATM    4  C3  UNL     1      16.063  17.081  22.586  1.00  0.00     0.020 A 
HETATM    5  C4  UNL     1      15.947  16.906  21.234  1.00  0.00     0.049 A 
HETATM    6  C5  UNL     1      16.979  17.125  20.348  1.00  0.00     0.271 A 
HETATM    7  O1  UNL     1      18.073  17.508  20.839  1.00  0.00    -0.266 OA
HETATM    8  N2  UNL     1      16.846  16.948  19.024  1.00  0.00    -0.263 N 
ATOM      9  H2  UNL     1      17.636  17.124  18.402  1.00  0.00     0.190 HD
HETATM   10  N3  UNL     1      15.688  16.546  18.529  1.00  0.00    -0.263 N 
ATOM     11  H3  UNL     1      15.580  16.408  17.524  1.00  0.00     0.190 HD
HETATM   12  C6  UNL     1      14.652  16.317  19.357  1.00  0.00     0.271 A 
HETATM   13  O2  UNL     1      13.562  15.935  18.842  1.00  0.00    -0.266 OA
HETATM   14  C7  UNL     1      14.737  16.485  20.720  1.00  0.00     0.051 A 
HETATM   15  C8  UNL     1      13.658  16.244  21.551  1.00  0.00     0.044 A 
ENDROOT
TORSDOF 0
ENDMDL
