MODEL 1
REMARK VINA RESULT: -6.508427237      0.000      0.000
REMARK  3 active torsions:
REMARK  status: ('A' for Active; 'I' for Inactive)
REMARK    1  A    between atoms: N1_2  and  C1_4 
REMARK    2  A    between atoms: C4_7  and  O3_8 
REMARK    3  A    between atoms: C5_10  and  O4_11 
ROOT
HETATM    1  C1  UNL     1      12.352 -14.341  40.555  1.00  0.00     0.105 A 
HETATM    2  C2  UNL     1      12.518 -13.208  41.324  1.00  0.00     0.039 A 
HETATM    3  C3  UNL     1      11.451 -12.434  41.732  1.00  0.00     0.042 A 
HETATM    4  C4  UNL     1      10.158 -12.770  41.384  1.00  0.00     0.098 A 
HETATM    5  C5  UNL     1       9.989 -13.903  40.615  1.00  0.00     0.101 A 
HETATM    6  C6  UNL     1      11.059 -14.674  40.208  1.00  0.00     0.075 A 
ENDROOT
BRANCH   1   7
HETATM    7  N1  UNL     1      13.448 -15.143  40.130  1.00  0.00    -0.116 N 
HETATM    8  O1  UNL     1      13.350 -15.867  39.120  1.00  0.00    -0.532 OA
HETATM    9  O2  UNL     1      14.648 -15.165  40.792  1.00  0.00    -0.532 OA
ENDBRANCH   1   7
BRANCH   5  10
HETATM   10  O4  UNL     1       8.666 -14.225  40.272  1.00  0.00    -0.358 OA
ATOM     11  H4  UNL     1       8.261 -14.920  40.776  1.00  0.00     0.217 HD
ENDBRANCH   5  10
BRANCH   4  12
HETATM   12  O3  UNL     1       9.092 -11.975  41.807  1.00  0.00    -0.358 OA
ATOM     13  H3  UNL     1       8.587 -11.479  41.173  1.00  0.00     0.217 HD
ENDBRANCH   4  12
TORSDOF 3
ENDMDL
