MODEL 15
REMARK VINA RESULT: -5.102734965      3.433      5.173
REMARK  3 active torsions:
REMARK  status: ('A' for Active; 'I' for Inactive)
REMARK    1  A    between atoms: N1_2  and  C1_4 
REMARK    2  A    between atoms: C4_7  and  O3_8 
REMARK    3  A    between atoms: C5_10  and  O4_11 
ROOT
HETATM    1  C1  UNL     1      13.715 -13.484  42.029  1.00  0.00     0.105 A 
HETATM    2  C2  UNL     1      14.792 -14.337  41.902  1.00  0.00     0.039 A 
HETATM    3  C3  UNL     1      15.787 -14.409  42.855  1.00  0.00     0.042 A 
HETATM    4  C4  UNL     1      15.744 -13.622  43.987  1.00  0.00     0.098 A 
HETATM    5  C5  UNL     1      14.668 -12.768  44.117  1.00  0.00     0.101 A 
HETATM    6  C6  UNL     1      13.674 -12.698  43.162  1.00  0.00     0.075 A 
ENDROOT
BRANCH   1   7
HETATM    7  N1  UNL     1      12.684 -13.403  41.051  1.00  0.00    -0.116 N 
HETATM    8  O1  UNL     1      11.900 -12.435  41.034  1.00  0.00    -0.532 OA
HETATM    9  O2  UNL     1      12.501 -14.365  40.091  1.00  0.00    -0.532 OA
ENDBRANCH   1   7
BRANCH   5  10
HETATM   10  O4  UNL     1      14.644 -11.975  45.276  1.00  0.00    -0.358 OA
ATOM     11  H4  UNL     1      15.222 -11.222  45.278  1.00  0.00     0.217 HD
ENDBRANCH   5  10
BRANCH   4  12
HETATM   12  O3  UNL     1      16.760 -13.709  44.940  1.00  0.00    -0.358 OA
ATOM     13  H3  UNL     1      16.746 -13.145  45.704  1.00  0.00     0.217 HD
ENDBRANCH   4  12
TORSDOF 3
ENDMDL
