MODEL 17
REMARK VINA RESULT: -4.860684870      2.724      4.599
REMARK  3 active torsions:
REMARK  status: ('A' for Active; 'I' for Inactive)
REMARK    1  A    between atoms: N1_2  and  C1_4 
REMARK    2  A    between atoms: C4_7  and  O3_8 
REMARK    3  A    between atoms: C5_10  and  O4_11 
ROOT
HETATM    1  C1  UNL     1      13.620 -14.058  41.372  1.00  0.00     0.105 A 
HETATM    2  C2  UNL     1      13.119 -13.107  42.237  1.00  0.00     0.039 A 
HETATM    3  C3  UNL     1      13.803 -12.711  43.368  1.00  0.00     0.042 A 
HETATM    4  C4  UNL     1      15.031 -13.257  43.681  1.00  0.00     0.098 A 
HETATM    5  C5  UNL     1      15.535 -14.208  42.817  1.00  0.00     0.101 A 
HETATM    6  C6  UNL     1      14.848 -14.602  41.687  1.00  0.00     0.075 A 
ENDROOT
BRANCH   1   7
HETATM    7  N1  UNL     1      12.921 -14.472  40.203  1.00  0.00    -0.116 N 
HETATM    8  O1  UNL     1      11.958 -13.810  39.771  1.00  0.00    -0.532 OA
HETATM    9  O2  UNL     1      13.260 -15.600  39.501  1.00  0.00    -0.532 OA
ENDBRANCH   1   7
BRANCH   5  10
HETATM   10  O4  UNL     1      16.785 -14.750  43.156  1.00  0.00    -0.358 OA
ATOM     11  H4  UNL     1      17.225 -14.352  43.897  1.00  0.00     0.217 HD
ENDBRANCH   5  10
BRANCH   4  12
HETATM   12  O3  UNL     1      15.708 -12.842  44.830  1.00  0.00    -0.358 OA
ATOM     13  H3  UNL     1      16.642 -12.993  44.911  1.00  0.00     0.217 HD
ENDBRANCH   4  12
TORSDOF 3
ENDMDL
