MODEL 2
REMARK VINA RESULT: -6.342913999      0.957      1.036
REMARK  3 active torsions:
REMARK  status: ('A' for Active; 'I' for Inactive)
REMARK    1  A    between atoms: N1_2  and  C1_4 
REMARK    2  A    between atoms: C4_7  and  O3_8 
REMARK    3  A    between atoms: C5_10  and  O4_11 
ROOT
HETATM    1  C1  UNL     1      12.932 -14.592  40.580  1.00  0.00     0.105 A 
HETATM    2  C2  UNL     1      12.670 -13.428  41.272  1.00  0.00     0.039 A 
HETATM    3  C3  UNL     1      11.405 -12.880  41.336  1.00  0.00     0.042 A 
HETATM    4  C4  UNL     1      10.339 -13.485  40.702  1.00  0.00     0.098 A 
HETATM    5  C5  UNL     1      10.598 -14.650  40.010  1.00  0.00     0.101 A 
HETATM    6  C6  UNL     1      11.864 -15.194  39.948  1.00  0.00     0.075 A 
ENDROOT
BRANCH   1   7
HETATM    7  N1  UNL     1      14.234 -15.163  40.510  1.00  0.00    -0.116 N 
HETATM    8  O1  UNL     1      14.515 -15.995  39.626  1.00  0.00    -0.532 OA
HETATM    9  O2  UNL     1      15.233 -14.835  41.390  1.00  0.00    -0.532 OA
ENDBRANCH   1   7
BRANCH   5  10
HETATM   10  O4  UNL     1       9.499 -15.248  39.373  1.00  0.00    -0.358 OA
ATOM     11  H4  UNL     1       9.308 -14.942  38.494  1.00  0.00     0.217 HD
ENDBRANCH   5  10
BRANCH   4  12
HETATM   12  O3  UNL     1       9.066 -12.916  40.779  1.00  0.00    -0.358 OA
ATOM     13  H3  UNL     1       8.968 -11.997  40.996  1.00  0.00     0.217 HD
ENDBRANCH   4  12
TORSDOF 3
ENDMDL
