MODEL 8
REMARK VINA RESULT: -5.490120947      1.729      4.556
REMARK  3 active torsions:
REMARK  status: ('A' for Active; 'I' for Inactive)
REMARK    1  A    between atoms: N1_2  and  C1_4 
REMARK    2  A    between atoms: C4_7  and  O3_8 
REMARK    3  A    between atoms: C5_10  and  O4_11 
ROOT
HETATM    1  C1  UNL     1      11.159 -13.838  40.960  1.00  0.00     0.105 A 
HETATM    2  C2  UNL     1      11.127 -14.822  39.995  1.00  0.00     0.039 A 
HETATM    3  C3  UNL     1      12.265 -15.490  39.589  1.00  0.00     0.042 A 
HETATM    4  C4  UNL     1      13.494 -15.196  40.142  1.00  0.00     0.098 A 
HETATM    5  C5  UNL     1      13.529 -14.212  41.109  1.00  0.00     0.101 A 
HETATM    6  C6  UNL     1      12.389 -13.546  41.511  1.00  0.00     0.075 A 
ENDROOT
BRANCH   1   7
HETATM    7  N1  UNL     1       9.990 -13.145  41.384  1.00  0.00    -0.116 N 
HETATM    8  O1  UNL     1       9.056 -12.931  40.588  1.00  0.00    -0.532 OA
HETATM    9  O2  UNL     1       9.829 -12.683  42.665  1.00  0.00    -0.532 OA
ENDBRANCH   1   7
BRANCH   5  10
HETATM   10  O4  UNL     1      14.790 -13.928  41.657  1.00  0.00    -0.358 OA
ATOM     11  H4  UNL     1      14.888 -13.073  42.057  1.00  0.00     0.217 HD
ENDBRANCH   5  10
BRANCH   4  12
HETATM   12  O3  UNL     1      14.634 -15.882  39.719  1.00  0.00    -0.358 OA
ATOM     13  H3  UNL     1      15.384 -15.401  39.391  1.00  0.00     0.217 HD
ENDBRANCH   4  12
TORSDOF 3
ENDMDL
