MODEL 16
REMARK VINA RESULT: -9.012741343      1.446      4.317
REMARK  17 active torsions:
REMARK  status: ('A' for Active; 'I' for Inactive)
REMARK    1  A    between atoms: C2_2  and  C3_3 
REMARK    2  A    between atoms: C3_3  and  C4_4 
REMARK    3  A    between atoms: C4_4  and  C5_5 
REMARK    4  A    between atoms: C5_5  and  N1_6 
REMARK    5  A    between atoms: C5_5  and  C20_28 
REMARK       I    between atoms: N1_6  and  C6_8 
REMARK    6  A    between atoms: C6_8  and  C7_10 
REMARK    7  A    between atoms: C7_10  and  C8_11 
REMARK    8  A    between atoms: C7_10  and  N2_18 
REMARK    9  A    between atoms: C8_11  and  C9_12 
REMARK       I    between atoms: N2_18  and  C15_20 
REMARK       I    between atoms: C15_20  and  N3_22 
REMARK       I    between atoms: C20_28  and  N4_30 
REMARK   10  A    between atoms: N4_30  and  C21_32 
REMARK   11  A    between atoms: C21_32  and  C22_33 
REMARK   12  A    between atoms: C21_32  and  C29_40 
REMARK   13  A    between atoms: C22_33  and  C23_34 
REMARK   14  A    between atoms: C29_40  and  O5_41 
REMARK   15  A    between atoms: C29_40  and  O6_43 
REMARK   16  A    between atoms: C29_40  and  C30_45 
REMARK   17  A    between atoms: C30_45  and  C31_48 
REMARK       I    between atoms: C31_48  and  N5_50 
ROOT
HETATM    1  C5  UNL     1      34.539 -10.232   0.044  1.00  0.00     0.176 C 
ENDROOT
BRANCH   1   2
HETATM    2  C4  UNL     1      34.343 -11.710  -0.201  1.00  0.00     0.035 C 
BRANCH   2   3
HETATM    3  C3  UNL     1      34.255 -11.948  -1.679  1.00  0.00     0.002 C 
BRANCH   3   4
HETATM    4  C2  UNL     1      33.309 -13.097  -2.010  1.00  0.00    -0.004 C 
HETATM    5  C1  UNL     1      32.584 -13.466  -0.741  1.00  0.00     0.005 C 
ENDBRANCH   3   4
ENDBRANCH   2   3
ENDBRANCH   1   2
BRANCH   1   6
HETATM    6  N1  UNL     1      34.881  -9.552  -1.163  1.00  0.00    -0.346 N 
HETATM    7  C6  UNL     1      34.263  -8.321  -1.526  1.00  0.00     0.241 C 
HETATM    8  O1  UNL     1      33.397  -7.800  -0.790  1.00  0.00    -0.271 OA
ATOM      9  H1  UNL     1      35.584  -9.957  -1.781  1.00  0.00     0.163 HD
BRANCH   7  10
HETATM   10  C7  UNL     1      34.619  -7.610  -2.784  1.00  0.00     0.182 C 
BRANCH  10  11
HETATM   11  C8  UNL     1      34.095  -6.225  -2.869  1.00  0.00     0.073 C 
BRANCH  11  12
HETATM   12  C9  UNL     1      35.137  -5.291  -2.378  1.00  0.00    -0.056 A 
HETATM   13  C10 UNL     1      36.477  -5.593  -2.503  1.00  0.00     0.007 A 
HETATM   14  C11 UNL     1      37.468  -4.729  -2.049  1.00  0.00     0.001 A 
HETATM   15  C12 UNL     1      37.136  -3.529  -1.452  1.00  0.00     0.000 A 
HETATM   16  C13 UNL     1      35.805  -3.222  -1.325  1.00  0.00     0.001 A 
HETATM   17  C14 UNL     1      34.828  -4.081  -1.776  1.00  0.00     0.007 A 
ENDBRANCH  11  12
ENDBRANCH  10  11
BRANCH  10  18
HETATM   18  N2  UNL     1      34.397  -8.423  -3.948  1.00  0.00    -0.329 N 
HETATM   19  C15 UNL     1      33.102  -8.498  -4.510  1.00  0.00     0.319 C 
HETATM   20  O2  UNL     1      32.146  -7.843  -3.986  1.00  0.00    -0.247 OA
HETATM   21  N3  UNL     1      32.903  -9.313  -5.660  1.00  0.00    -0.330 N 
HETATM   22  C16 UNL     1      34.002 -10.035  -6.229  1.00  0.00     0.153 C 
HETATM   23  C19 UNL     1      31.552  -9.358  -6.194  1.00  0.00     0.153 C 
HETATM   24  C17 UNL     1      33.623 -10.634  -7.542  1.00  0.00     0.187 C 
HETATM   25  O3  UNL     1      32.388 -11.251  -7.440  1.00  0.00    -0.388 OA
HETATM   26  C18 UNL     1      31.387 -10.282  -7.353  1.00  0.00     0.187 C 
ATOM     27  H2  UNL     1      35.169  -8.942  -4.367  1.00  0.00     0.165 HD
ENDBRANCH  10  18
ENDBRANCH   7  10
ENDBRANCH   1   6
BRANCH   1  28
HETATM   28  C20 UNL     1      35.452  -9.932   1.169  1.00  0.00     0.240 C 
HETATM   29  O4  UNL     1      36.645 -10.381   1.086  1.00  0.00    -0.271 OA
HETATM   30  N4  UNL     1      35.126  -9.207   2.301  1.00  0.00    -0.349 N 
ATOM     31  H4  UNL     1      34.176  -8.846   2.383  1.00  0.00     0.163 HD
BRANCH  30  32
HETATM   32  C21 UNL     1      36.092  -8.918   3.419  1.00  0.00     0.154 C 
BRANCH  32  33
HETATM   33  C22 UNL     1      36.165  -7.463   3.534  1.00  0.00     0.035 C 
BRANCH  33  34
HETATM   34  C23 UNL     1      37.212  -6.653   2.932  1.00  0.00    -0.012 C 
HETATM   35  C24 UNL     1      36.734  -5.147   2.965  1.00  0.00     0.005 C 
HETATM   36  C25 UNL     1      37.554  -4.368   1.960  1.00  0.00     0.000 C 
HETATM   37  C26 UNL     1      38.963  -4.964   1.870  1.00  0.00     0.000 C 
HETATM   38  C27 UNL     1      38.834  -6.269   1.119  1.00  0.00     0.000 C 
HETATM   39  C28 UNL     1      37.519  -6.902   1.479  1.00  0.00     0.005 C 
ENDBRANCH  33  34
ENDBRANCH  32  33
BRANCH  32  40
HETATM   40  C29 UNL     1      35.552  -9.757   4.523  1.00  0.00     0.258 C 
BRANCH  40  41
HETATM   41  O5  UNL     1      34.471 -10.569   3.937  1.00  0.00    -0.359 OA
ATOM     42  H5  UNL     1      34.875 -11.112   3.270  1.00  0.00     0.213 HD
ENDBRANCH  40  41
BRANCH  40  43
HETATM   43  O6  UNL     1      34.931  -9.090   5.549  1.00  0.00    -0.359 OA
ATOM     44  H6  UNL     1      34.847  -9.560   6.370  1.00  0.00     0.213 HD
ENDBRANCH  40  43
BRANCH  40  45
HETATM   45  C30 UNL     1      36.454 -10.902   4.992  1.00  0.00     0.379 C 
HETATM   46  F1  UNL     1      37.272 -10.655   6.019  1.00  0.00    -0.189 F 
HETATM   47  F2  UNL     1      37.294 -11.274   3.916  1.00  0.00    -0.189 F 
BRANCH  45  48
HETATM   48  C31 UNL     1      35.593 -12.120   5.226  1.00  0.00     0.295 C 
HETATM   49  O7  UNL     1      34.755 -12.125   6.129  1.00  0.00    -0.267 OA
HETATM   50  N5  UNL     1      35.711 -13.295   4.428  1.00  0.00    -0.360 N 
HETATM   51  C32 UNL     1      34.856 -14.459   4.690  1.00  0.00     0.149 C 
ATOM     52  H5  UNL     1      36.394 -13.327   3.671  1.00  0.00     0.162 HD
ENDBRANCH  45  48
ENDBRANCH  40  45
ENDBRANCH  32  40
ENDBRANCH  30  32
ENDBRANCH   1  28
TORSDOF 17
ENDMDL
