MODEL 10
REMARK VINA RESULT: -9.403859032      3.173      9.966
REMARK  17 active torsions:
REMARK  status: ('A' for Active; 'I' for Inactive)
REMARK    1  A    between atoms: C2_2  and  C3_3 
REMARK    2  A    between atoms: C3_3  and  C4_4 
REMARK    3  A    between atoms: C4_4  and  C5_5 
REMARK    4  A    between atoms: C5_5  and  N1_6 
REMARK    5  A    between atoms: C5_5  and  C20_28 
REMARK       I    between atoms: N1_6  and  C6_8 
REMARK    6  A    between atoms: C6_8  and  C7_10 
REMARK    7  A    between atoms: C7_10  and  C8_11 
REMARK    8  A    between atoms: C7_10  and  N2_18 
REMARK    9  A    between atoms: C8_11  and  C9_12 
REMARK       I    between atoms: N2_18  and  C15_20 
REMARK       I    between atoms: C15_20  and  N3_22 
REMARK       I    between atoms: C20_28  and  N4_30 
REMARK   10  A    between atoms: N4_30  and  C21_32 
REMARK   11  A    between atoms: C21_32  and  C22_33 
REMARK   12  A    between atoms: C21_32  and  C29_40 
REMARK   13  A    between atoms: C22_33  and  C23_34 
REMARK   14  A    between atoms: C29_40  and  O5_41 
REMARK   15  A    between atoms: C29_40  and  O6_43 
REMARK   16  A    between atoms: C29_40  and  C30_45 
REMARK   17  A    between atoms: C30_45  and  C31_48 
REMARK       I    between atoms: C31_48  and  N5_50 
ROOT
HETATM    1  C5  UNL     1      35.948  -9.468   2.550  1.00  0.00     0.176 C 
ENDROOT
BRANCH   1   2
HETATM    2  C4  UNL     1      37.080  -8.482   2.725  1.00  0.00     0.035 C 
BRANCH   2   3
HETATM    3  C3  UNL     1      36.549  -7.249   3.392  1.00  0.00     0.002 C 
BRANCH   3   4
HETATM    4  C2  UNL     1      37.154  -5.981   2.799  1.00  0.00    -0.004 C 
HETATM    5  C1  UNL     1      38.530  -6.331   2.292  1.00  0.00     0.005 C 
ENDBRANCH   3   4
ENDBRANCH   2   3
ENDBRANCH   1   2
BRANCH   1   6
HETATM    6  N1  UNL     1      36.243 -10.708   3.193  1.00  0.00    -0.346 N 
HETATM    7  C6  UNL     1      35.985 -10.909   4.578  1.00  0.00     0.241 C 
HETATM    8  O1  UNL     1      35.491  -9.996   5.275  1.00  0.00    -0.271 OA
ATOM      9  H1  UNL     1      36.647 -11.468   2.646  1.00  0.00     0.163 HD
BRANCH   7  10
HETATM   10  C7  UNL     1      36.290 -12.202   5.250  1.00  0.00     0.182 C 
BRANCH  10  11
HETATM   11  C8  UNL     1      35.099 -13.043   5.522  1.00  0.00     0.073 C 
BRANCH  11  12
HETATM   12  C9  UNL     1      35.127 -14.215   4.614  1.00  0.00    -0.056 A 
HETATM   13  C10 UNL     1      35.726 -15.396   4.997  1.00  0.00     0.007 A 
HETATM   14  C11 UNL     1      35.762 -16.506   4.159  1.00  0.00     0.001 A 
HETATM   15  C12 UNL     1      35.191 -16.458   2.904  1.00  0.00     0.000 A 
HETATM   16  C13 UNL     1      34.592 -15.285   2.515  1.00  0.00     0.001 A 
HETATM   17  C14 UNL     1      34.560 -14.190   3.348  1.00  0.00     0.007 A 
ENDBRANCH  11  12
ENDBRANCH  10  11
BRANCH  10  18
HETATM   18  N2  UNL     1      37.192 -12.039   6.357  1.00  0.00    -0.329 N 
HETATM   19  C15 UNL     1      38.397 -12.776   6.390  1.00  0.00     0.319 C 
HETATM   20  O2  UNL     1      38.679 -13.572   5.440  1.00  0.00    -0.247 OA
HETATM   21  N3  UNL     1      39.273 -12.602   7.500  1.00  0.00    -0.330 N 
HETATM   22  C16 UNL     1      38.928 -11.694   8.553  1.00  0.00     0.153 C 
HETATM   23  C19 UNL     1      40.496 -13.386   7.486  1.00  0.00     0.153 C 
HETATM   24  C17 UNL     1      40.077 -11.501   9.486  1.00  0.00     0.187 C 
HETATM   25  O3  UNL     1      40.637 -12.727   9.805  1.00  0.00    -0.388 OA
HETATM   26  C18 UNL     1      41.339 -13.219   8.704  1.00  0.00     0.187 C 
ATOM     27  H2  UNL     1      36.963 -11.395   7.115  1.00  0.00     0.165 HD
ENDBRANCH  10  18
ENDBRANCH   7  10
ENDBRANCH   1   6
BRANCH   1  28
HETATM   28  C20 UNL     1      35.504  -9.621   1.148  1.00  0.00     0.240 C 
HETATM   29  O4  UNL     1      35.988 -10.602   0.487  1.00  0.00    -0.271 OA
HETATM   30  N4  UNL     1      34.611  -8.795   0.490  1.00  0.00    -0.349 N 
ATOM     31  H4  UNL     1      34.220  -8.004   1.003  1.00  0.00     0.163 HD
BRANCH  30  32
HETATM   32  C21 UNL     1      34.180  -8.994  -0.939  1.00  0.00     0.154 C 
BRANCH  32  33
HETATM   33  C22 UNL     1      33.006  -9.865  -0.897  1.00  0.00     0.035 C 
BRANCH  33  34
HETATM   34  C23 UNL     1      32.978 -11.215  -1.434  1.00  0.00    -0.012 C 
HETATM   35  C24 UNL     1      32.931 -12.217  -0.213  1.00  0.00     0.005 C 
HETATM   36  C25 UNL     1      33.363 -13.582  -0.704  1.00  0.00     0.000 C 
HETATM   37  C26 UNL     1      32.931 -13.768  -2.162  1.00  0.00     0.000 C 
HETATM   38  C27 UNL     1      33.848 -12.906  -2.999  1.00  0.00     0.000 C 
HETATM   39  C28 UNL     1      34.181 -11.663  -2.221  1.00  0.00     0.005 C 
ENDBRANCH  33  34
ENDBRANCH  32  33
BRANCH  32  40
HETATM   40  C29 UNL     1      34.090  -7.594  -1.436  1.00  0.00     0.258 C 
BRANCH  40  41
HETATM   41  O5  UNL     1      35.390  -6.964  -1.142  1.00  0.00    -0.359 OA
ATOM     42  H5  UNL     1      35.652  -6.510  -1.934  1.00  0.00     0.213 HD
ENDBRANCH  40  41
BRANCH  40  43
HETATM   43  O6  UNL     1      33.187  -6.778  -0.801  1.00  0.00    -0.359 OA
ATOM     44  H6  UNL     1      33.024  -5.933  -1.205  1.00  0.00     0.213 HD
ENDBRANCH  40  43
BRANCH  40  45
HETATM   45  C30 UNL     1      34.106  -7.426  -2.958  1.00  0.00     0.379 C 
HETATM   46  F1  UNL     1      32.969  -7.680  -3.613  1.00  0.00    -0.189 F 
HETATM   47  F2  UNL     1      35.063  -8.319  -3.493  1.00  0.00    -0.189 F 
BRANCH  45  48
HETATM   48  C31 UNL     1      34.658  -6.058  -3.279  1.00  0.00     0.295 C 
HETATM   49  O7  UNL     1      35.740  -5.943  -3.857  1.00  0.00    -0.267 OA
HETATM   50  N5  UNL     1      33.965  -4.861  -2.932  1.00  0.00    -0.360 N 
HETATM   51  C32 UNL     1      34.537  -3.550  -3.260  1.00  0.00     0.149 C 
ATOM     52  H5  UNL     1      33.066  -4.917  -2.452  1.00  0.00     0.162 HD
ENDBRANCH  45  48
ENDBRANCH  40  45
ENDBRANCH  32  40
ENDBRANCH  30  32
ENDBRANCH   1  28
TORSDOF 17
ENDMDL
