MODEL 3
REMARK VINA RESULT: -9.857413780      1.449      2.035
REMARK  17 active torsions:
REMARK  status: ('A' for Active; 'I' for Inactive)
REMARK    1  A    between atoms: C2_2  and  C3_3 
REMARK    2  A    between atoms: C3_3  and  C4_4 
REMARK    3  A    between atoms: C4_4  and  C5_5 
REMARK    4  A    between atoms: C5_5  and  N1_6 
REMARK    5  A    between atoms: C5_5  and  C20_28 
REMARK       I    between atoms: N1_6  and  C6_8 
REMARK    6  A    between atoms: C6_8  and  C7_10 
REMARK    7  A    between atoms: C7_10  and  C8_11 
REMARK    8  A    between atoms: C7_10  and  N2_18 
REMARK    9  A    between atoms: C8_11  and  C9_12 
REMARK       I    between atoms: N2_18  and  C15_20 
REMARK       I    between atoms: C15_20  and  N3_22 
REMARK       I    between atoms: C20_28  and  N4_30 
REMARK   10  A    between atoms: N4_30  and  C21_32 
REMARK   11  A    between atoms: C21_32  and  C22_33 
REMARK   12  A    between atoms: C21_32  and  C29_40 
REMARK   13  A    between atoms: C22_33  and  C23_34 
REMARK   14  A    between atoms: C29_40  and  O5_41 
REMARK   15  A    between atoms: C29_40  and  O6_43 
REMARK   16  A    between atoms: C29_40  and  C30_45 
REMARK   17  A    between atoms: C30_45  and  C31_48 
REMARK       I    between atoms: C31_48  and  N5_50 
ROOT
HETATM    1  C5  UNL     1      33.920  -9.847  -0.962  1.00  0.00     0.176 C 
ENDROOT
BRANCH   1   2
HETATM    2  C4  UNL     1      33.080 -10.989  -1.487  1.00  0.00     0.035 C 
BRANCH   2   3
HETATM    3  C3  UNL     1      33.648 -11.444  -2.798  1.00  0.00     0.002 C 
BRANCH   3   4
HETATM    4  C2  UNL     1      33.699 -12.964  -2.895  1.00  0.00    -0.004 C 
HETATM    5  C1  UNL     1      32.938 -13.518  -1.717  1.00  0.00     0.005 C 
ENDBRANCH   3   4
ENDBRANCH   2   3
ENDBRANCH   1   2
BRANCH   1   6
HETATM    6  N1  UNL     1      34.524  -9.120  -2.031  1.00  0.00    -0.346 N 
HETATM    7  C6  UNL     1      34.044  -7.840  -2.428  1.00  0.00     0.241 C 
HETATM    8  O1  UNL     1      33.070  -7.315  -1.846  1.00  0.00    -0.271 OA
ATOM      9  H1  UNL     1      35.320  -9.528  -2.523  1.00  0.00     0.163 HD
BRANCH   7  10
HETATM   10  C7  UNL     1      34.674  -7.080  -3.542  1.00  0.00     0.182 C 
BRANCH  10  11
HETATM   11  C8  UNL     1      34.592  -7.754  -4.861  1.00  0.00     0.073 C 
BRANCH  11  12
HETATM   12  C9  UNL     1      33.210  -7.617  -5.380  1.00  0.00    -0.056 A 
HETATM   13  C10 UNL     1      32.681  -6.378  -5.674  1.00  0.00     0.007 A 
HETATM   14  C11 UNL     1      31.387  -6.231  -6.162  1.00  0.00     0.001 A 
HETATM   15  C12 UNL     1      30.583  -7.334  -6.369  1.00  0.00     0.000 A 
HETATM   16  C13 UNL     1      31.103  -8.571  -6.078  1.00  0.00     0.001 A 
HETATM   17  C14 UNL     1      32.385  -8.711  -5.595  1.00  0.00     0.007 A 
ENDBRANCH  11  12
ENDBRANCH  10  11
BRANCH  10  18
HETATM   18  N2  UNL     1      35.974  -6.579  -3.189  1.00  0.00    -0.329 N 
HETATM   19  C15 UNL     1      36.085  -5.345  -2.508  1.00  0.00     0.319 C 
HETATM   20  O2  UNL     1      35.036  -4.691  -2.209  1.00  0.00    -0.247 OA
HETATM   21  N3  UNL     1      37.382  -4.864  -2.173  1.00  0.00    -0.330 N 
HETATM   22  C16 UNL     1      38.544  -5.627  -2.521  1.00  0.00     0.153 C 
HETATM   23  C19 UNL     1      37.439  -3.589  -1.478  1.00  0.00     0.153 C 
HETATM   24  C17 UNL     1      39.766  -5.057  -1.882  1.00  0.00     0.187 C 
HETATM   25  O3  UNL     1      39.785  -3.682  -2.044  1.00  0.00    -0.388 OA
HETATM   26  C18 UNL     1      38.823  -3.101  -1.216  1.00  0.00     0.187 C 
ATOM     27  H2  UNL     1      36.812  -7.110  -3.427  1.00  0.00     0.165 HD
ENDBRANCH  10  18
ENDBRANCH   7  10
ENDBRANCH   1   6
BRANCH   1  28
HETATM   28  C20 UNL     1      34.875 -10.247   0.094  1.00  0.00     0.240 C 
HETATM   29  O4  UNL     1      35.282 -11.459   0.082  1.00  0.00    -0.271 OA
HETATM   30  N4  UNL     1      35.366  -9.425   1.091  1.00  0.00    -0.349 N 
ATOM     31  H4  UNL     1      35.046  -8.457   1.117  1.00  0.00     0.163 HD
BRANCH  30  32
HETATM   32  C21 UNL     1      36.346  -9.874   2.142  1.00  0.00     0.154 C 
BRANCH  32  33
HETATM   33  C22 UNL     1      37.447  -8.913   2.115  1.00  0.00     0.035 C 
BRANCH  33  34
HETATM   34  C23 UNL     1      37.266  -7.471   2.081  1.00  0.00    -0.012 C 
HETATM   35  C24 UNL     1      38.519  -6.846   1.349  1.00  0.00     0.005 C 
HETATM   36  C25 UNL     1      38.587  -5.376   1.703  1.00  0.00     0.000 C 
HETATM   37  C26 UNL     1      37.171  -4.824   1.900  1.00  0.00     0.000 C 
HETATM   38  C27 UNL     1      36.674  -5.369   3.219  1.00  0.00     0.000 C 
HETATM   39  C28 UNL     1      37.226  -6.755   3.405  1.00  0.00     0.005 C 
ENDBRANCH  33  34
ENDBRANCH  32  33
BRANCH  32  40
HETATM   40  C29 UNL     1      35.474 -10.021   3.340  1.00  0.00     0.258 C 
BRANCH  40  41
HETATM   41  O5  UNL     1      34.622 -11.198   3.092  1.00  0.00    -0.359 OA
ATOM     42  H5  UNL     1      33.797 -10.865   2.759  1.00  0.00     0.213 HD
ENDBRANCH  40  41
BRANCH  40  43
HETATM   43  O6  UNL     1      34.571  -9.013   3.565  1.00  0.00    -0.359 OA
ATOM     44  H6  UNL     1      34.882  -8.272   4.072  1.00  0.00     0.213 HD
ENDBRANCH  40  43
BRANCH  40  45
HETATM   45  C30 UNL     1      36.168 -10.520   4.611  1.00  0.00     0.379 C 
HETATM   46  F1  UNL     1      36.544  -9.599   5.504  1.00  0.00    -0.189 F 
HETATM   47  F2  UNL     1      37.354 -11.193   4.234  1.00  0.00    -0.189 F 
BRANCH  45  48
HETATM   48  C31 UNL     1      35.311 -11.599   5.228  1.00  0.00     0.295 C 
HETATM   49  O7  UNL     1      34.304 -11.301   5.872  1.00  0.00    -0.267 OA
HETATM   50  N5  UNL     1      35.625 -12.983   5.095  1.00  0.00    -0.360 N 
HETATM   51  C32 UNL     1      34.766 -14.001   5.712  1.00  0.00     0.149 C 
ATOM     52  H5  UNL     1      36.451 -13.267   4.568  1.00  0.00     0.162 HD
ENDBRANCH  45  48
ENDBRANCH  40  45
ENDBRANCH  32  40
ENDBRANCH  30  32
ENDBRANCH   1  28
TORSDOF 17
ENDMDL
