MODEL 17
REMARK VINA RESULT: -8.896256718      1.711      4.249
REMARK  17 active torsions:
REMARK  status: ('A' for Active; 'I' for Inactive)
REMARK    1  A    between atoms: C2_2  and  C3_3 
REMARK    2  A    between atoms: C3_3  and  C4_4 
REMARK    3  A    between atoms: C4_4  and  C5_5 
REMARK    4  A    between atoms: C5_5  and  N1_6 
REMARK    5  A    between atoms: C5_5  and  C20_28 
REMARK       I    between atoms: N1_6  and  C6_8 
REMARK    6  A    between atoms: C6_8  and  C7_10 
REMARK    7  A    between atoms: C7_10  and  C8_11 
REMARK    8  A    between atoms: C7_10  and  N2_18 
REMARK    9  A    between atoms: C8_11  and  C9_12 
REMARK       I    between atoms: N2_18  and  C15_20 
REMARK       I    between atoms: C15_20  and  N3_22 
REMARK       I    between atoms: C20_28  and  N4_30 
REMARK   10  A    between atoms: N4_30  and  C21_32 
REMARK   11  A    between atoms: C21_32  and  C22_33 
REMARK   12  A    between atoms: C21_32  and  C29_40 
REMARK   13  A    between atoms: C22_33  and  C23_34 
REMARK   14  A    between atoms: C29_40  and  O5_41 
REMARK   15  A    between atoms: C29_40  and  O6_43 
REMARK   16  A    between atoms: C29_40  and  C30_45 
REMARK   17  A    between atoms: C30_45  and  C31_48 
REMARK       I    between atoms: C31_48  and  N5_50 
ROOT
HETATM    1  C5  UNL     1      34.632 -10.115  -0.165  1.00  0.00     0.176 C 
ENDROOT
BRANCH   1   2
HETATM    2  C4  UNL     1      34.716 -11.509  -0.741  1.00  0.00     0.035 C 
BRANCH   2   3
HETATM    3  C3  UNL     1      33.840 -11.584  -1.956  1.00  0.00     0.002 C 
BRANCH   3   4
HETATM    4  C2  UNL     1      34.431 -12.501  -3.022  1.00  0.00    -0.004 C 
HETATM    5  C1  UNL     1      34.360 -11.769  -4.338  1.00  0.00     0.005 C 
ENDBRANCH   3   4
ENDBRANCH   2   3
ENDBRANCH   1   2
BRANCH   1   6
HETATM    6  N1  UNL     1      34.748  -9.128  -1.189  1.00  0.00    -0.346 N 
HETATM    7  C6  UNL     1      34.059  -7.885  -1.108  1.00  0.00     0.241 C 
HETATM    8  O1  UNL     1      33.328  -7.623  -0.128  1.00  0.00    -0.271 OA
ATOM      9  H1  UNL     1      35.338  -9.318  -1.999  1.00  0.00     0.163 HD
BRANCH   7  10
HETATM   10  C7  UNL     1      34.180  -6.853  -2.174  1.00  0.00     0.182 C 
BRANCH  10  11
HETATM   11  C8  UNL     1      34.089  -5.456  -1.684  1.00  0.00     0.073 C 
BRANCH  11  12
HETATM   12  C9  UNL     1      35.083  -4.632  -2.410  1.00  0.00    -0.056 A 
HETATM   13  C10 UNL     1      34.956  -3.260  -2.478  1.00  0.00     0.007 A 
HETATM   14  C11 UNL     1      35.880  -2.471  -3.155  1.00  0.00     0.001 A 
HETATM   15  C12 UNL     1      36.966  -3.043  -3.786  1.00  0.00     0.000 A 
HETATM   16  C13 UNL     1      37.099  -4.408  -3.722  1.00  0.00     0.001 A 
HETATM   17  C14 UNL     1      36.182  -5.185  -3.052  1.00  0.00     0.007 A 
ENDBRANCH  11  12
ENDBRANCH  10  11
BRANCH  10  18
HETATM   18  N2  UNL     1      33.363  -7.157  -3.317  1.00  0.00    -0.329 N 
HETATM   19  C15 UNL     1      33.913  -7.889  -4.394  1.00  0.00     0.319 C 
HETATM   20  O2  UNL     1      35.123  -8.278  -4.342  1.00  0.00    -0.247 OA
HETATM   21  N3  UNL     1      33.088  -8.173  -5.518  1.00  0.00    -0.330 N 
HETATM   22  C16 UNL     1      31.728  -7.725  -5.544  1.00  0.00     0.153 C 
HETATM   23  C19 UNL     1      33.704  -8.925  -6.599  1.00  0.00     0.153 C 
HETATM   24  C17 UNL     1      30.992  -8.321  -6.698  1.00  0.00     0.187 C 
HETATM   25  O3  UNL     1      31.759  -8.225  -7.846  1.00  0.00    -0.388 OA
HETATM   26  C18 UNL     1      32.817  -9.132  -7.779  1.00  0.00     0.187 C 
ATOM     27  H2  UNL     1      32.392  -6.846  -3.351  1.00  0.00     0.165 HD
ENDBRANCH  10  18
ENDBRANCH   7  10
ENDBRANCH   1   6
BRANCH   1  28
HETATM   28  C20 UNL     1      35.543  -9.889   0.978  1.00  0.00     0.240 C 
HETATM   29  O4  UNL     1      36.654 -10.521   0.971  1.00  0.00    -0.271 OA
HETATM   30  N4  UNL     1      35.298  -9.052   2.052  1.00  0.00    -0.349 N 
ATOM     31  H4  UNL     1      34.414  -8.545   2.073  1.00  0.00     0.163 HD
BRANCH  30  32
HETATM   32  C21 UNL     1      36.261  -8.846   3.191  1.00  0.00     0.154 C 
BRANCH  32  33
HETATM   33  C22 UNL     1      36.523  -7.409   3.253  1.00  0.00     0.035 C 
BRANCH  33  34
HETATM   34  C23 UNL     1      36.914  -6.605   2.107  1.00  0.00    -0.012 C 
HETATM   35  C24 UNL     1      38.325  -7.121   1.616  1.00  0.00     0.005 C 
HETATM   36  C25 UNL     1      38.951  -6.042   0.759  1.00  0.00     0.000 C 
HETATM   37  C26 UNL     1      37.855  -5.276   0.010  1.00  0.00     0.000 C 
HETATM   38  C27 UNL     1      37.162  -4.404   1.032  1.00  0.00     0.000 C 
HETATM   39  C28 UNL     1      37.130  -5.134   2.345  1.00  0.00     0.005 C 
ENDBRANCH  33  34
ENDBRANCH  32  33
BRANCH  32  40
HETATM   40  C29 UNL     1      35.581  -9.558   4.307  1.00  0.00     0.258 C 
BRANCH  40  41
HETATM   41  O5  UNL     1      34.515 -10.370   3.693  1.00  0.00    -0.359 OA
ATOM     42  H5  UNL     1      33.701 -10.094   4.099  1.00  0.00     0.213 HD
ENDBRANCH  40  41
BRANCH  40  43
HETATM   43  O6  UNL     1      34.908  -8.776   5.212  1.00  0.00    -0.359 OA
ATOM     44  H6  UNL     1      34.797  -9.138   6.083  1.00  0.00     0.213 HD
ENDBRANCH  40  43
BRANCH  40  45
HETATM   45  C30 UNL     1      36.377 -10.697   4.951  1.00  0.00     0.379 C 
HETATM   46  F1  UNL     1      37.124 -10.395   6.017  1.00  0.00    -0.189 F 
HETATM   47  F2  UNL     1      37.277 -11.211   3.988  1.00  0.00    -0.189 F 
BRANCH  45  48
HETATM   48  C31 UNL     1      35.432 -11.843   5.222  1.00  0.00     0.295 C 
HETATM   49  O7  UNL     1      34.541 -11.730   6.066  1.00  0.00    -0.267 OA
HETATM   50  N5  UNL     1      35.529 -13.084   4.527  1.00  0.00    -0.360 N 
HETATM   51  C32 UNL     1      34.591 -14.175   4.821  1.00  0.00     0.149 C 
ATOM     52  H5  UNL     1      36.254 -13.215   3.822  1.00  0.00     0.162 HD
ENDBRANCH  45  48
ENDBRANCH  40  45
ENDBRANCH  32  40
ENDBRANCH  30  32
ENDBRANCH   1  28
TORSDOF 17
ENDMDL
