MODEL 13
REMARK VINA RESULT: -9.125294832      2.280      4.507
REMARK  17 active torsions:
REMARK  status: ('A' for Active; 'I' for Inactive)
REMARK    1  A    between atoms: C2_2  and  C3_3 
REMARK    2  A    between atoms: C3_3  and  C4_4 
REMARK    3  A    between atoms: C4_4  and  C5_5 
REMARK    4  A    between atoms: C5_5  and  N1_6 
REMARK    5  A    between atoms: C5_5  and  C20_28 
REMARK       I    between atoms: N1_6  and  C6_8 
REMARK    6  A    between atoms: C6_8  and  C7_10 
REMARK    7  A    between atoms: C7_10  and  C8_11 
REMARK    8  A    between atoms: C7_10  and  N2_18 
REMARK    9  A    between atoms: C8_11  and  C9_12 
REMARK       I    between atoms: N2_18  and  C15_20 
REMARK       I    between atoms: C15_20  and  N3_22 
REMARK       I    between atoms: C20_28  and  N4_30 
REMARK   10  A    between atoms: N4_30  and  C21_32 
REMARK   11  A    between atoms: C21_32  and  C22_33 
REMARK   12  A    between atoms: C21_32  and  C29_40 
REMARK   13  A    between atoms: C22_33  and  C23_34 
REMARK   14  A    between atoms: C29_40  and  O5_41 
REMARK   15  A    between atoms: C29_40  and  O6_43 
REMARK   16  A    between atoms: C29_40  and  C30_45 
REMARK   17  A    between atoms: C30_45  and  C31_48 
REMARK       I    between atoms: C31_48  and  N5_50 
ROOT
HETATM    1  C5  UNL     1      34.359 -10.459  -0.535  1.00  0.00     0.176 C 
ENDROOT
BRANCH   1   2
HETATM    2  C4  UNL     1      34.358 -11.948  -0.798  1.00  0.00     0.035 C 
BRANCH   2   3
HETATM    3  C3  UNL     1      33.231 -12.574  -0.031  1.00  0.00     0.002 C 
BRANCH   3   4
HETATM    4  C2  UNL     1      32.590 -13.720  -0.806  1.00  0.00    -0.004 C 
HETATM    5  C1  UNL     1      33.131 -13.673  -2.213  1.00  0.00     0.005 C 
ENDBRANCH   3   4
ENDBRANCH   2   3
ENDBRANCH   1   2
BRANCH   1   6
HETATM    6  N1  UNL     1      34.534  -9.724  -1.745  1.00  0.00    -0.346 N 
HETATM    7  C6  UNL     1      33.471  -9.560  -2.678  1.00  0.00     0.241 C 
HETATM    8  O1  UNL     1      32.347 -10.061  -2.460  1.00  0.00    -0.271 OA
ATOM      9  H1  UNL     1      35.442  -9.305  -1.946  1.00  0.00     0.163 HD
BRANCH   7  10
HETATM   10  C7  UNL     1      33.652  -8.791  -3.940  1.00  0.00     0.182 C 
BRANCH  10  11
HETATM   11  C8  UNL     1      33.388  -9.574  -5.172  1.00  0.00     0.073 C 
BRANCH  11  12
HETATM   12  C9  UNL     1      32.348  -8.876  -5.965  1.00  0.00    -0.056 A 
HETATM   13  C10 UNL     1      32.161  -9.163  -7.301  1.00  0.00     0.007 A 
HETATM   14  C11 UNL     1      31.189  -8.518  -8.060  1.00  0.00     0.001 A 
HETATM   15  C12 UNL     1      30.374  -7.560  -7.492  1.00  0.00     0.000 A 
HETATM   16  C13 UNL     1      30.555  -7.269  -6.163  1.00  0.00     0.001 A 
HETATM   17  C14 UNL     1      31.518  -7.909  -5.416  1.00  0.00     0.007 A 
ENDBRANCH  11  12
ENDBRANCH  10  11
BRANCH  10  18
HETATM   18  N2  UNL     1      34.873  -8.034  -3.944  1.00  0.00    -0.329 N 
HETATM   19  C15 UNL     1      34.826  -6.632  -3.766  1.00  0.00     0.319 C 
HETATM   20  O2  UNL     1      33.707  -6.053  -3.597  1.00  0.00    -0.247 OA
HETATM   21  N3  UNL     1      36.047  -5.901  -3.779  1.00  0.00    -0.330 N 
HETATM   22  C16 UNL     1      37.293  -6.584  -3.966  1.00  0.00     0.153 C 
HETATM   23  C19 UNL     1      35.942  -4.463  -3.594  1.00  0.00     0.153 C 
HETATM   24  C17 UNL     1      38.445  -5.668  -3.720  1.00  0.00     0.187 C 
HETATM   25  O3  UNL     1      38.231  -4.460  -4.362  1.00  0.00    -0.388 OA
HETATM   26  C18 UNL     1      37.243  -3.741  -3.689  1.00  0.00     0.187 C 
ATOM     27  H2  UNL     1      35.769  -8.504  -4.075  1.00  0.00     0.165 HD
ENDBRANCH  10  18
ENDBRANCH   7  10
ENDBRANCH   1   6
BRANCH   1  28
HETATM   28  C20 UNL     1      35.282 -10.048   0.545  1.00  0.00     0.240 C 
HETATM   29  O4  UNL     1      36.402 -10.659   0.618  1.00  0.00    -0.271 OA
HETATM   30  N4  UNL     1      35.039  -9.059   1.481  1.00  0.00    -0.349 N 
ATOM     31  H4  UNL     1      34.147  -8.566   1.438  1.00  0.00     0.163 HD
BRANCH  30  32
HETATM   32  C21 UNL     1      36.014  -8.667   2.559  1.00  0.00     0.154 C 
BRANCH  32  33
HETATM   33  C22 UNL     1      36.542  -9.914   3.110  1.00  0.00     0.035 C 
BRANCH  33  34
HETATM   34  C23 UNL     1      35.826 -10.749   4.060  1.00  0.00    -0.012 C 
HETATM   35  C24 UNL     1      36.880 -11.317   5.091  1.00  0.00     0.005 C 
HETATM   36  C25 UNL     1      36.269 -12.519   5.778  1.00  0.00     0.000 C 
HETATM   37  C26 UNL     1      34.754 -12.327   5.906  1.00  0.00     0.000 C 
HETATM   38  C27 UNL     1      34.175 -12.517   4.523  1.00  0.00     0.000 C 
HETATM   39  C28 UNL     1      35.154 -11.982   3.515  1.00  0.00     0.005 C 
ENDBRANCH  33  34
ENDBRANCH  32  33
BRANCH  32  40
HETATM   40  C29 UNL     1      36.893  -7.699   1.848  1.00  0.00     0.258 C 
BRANCH  40  41
HETATM   41  O5  UNL     1      36.059  -7.064   0.812  1.00  0.00    -0.359 OA
ATOM     42  H5  UNL     1      36.604  -6.991   0.037  1.00  0.00     0.213 HD
ENDBRANCH  40  41
BRANCH  40  43
HETATM   43  O6  UNL     1      37.938  -8.233   1.136  1.00  0.00    -0.359 OA
ATOM     44  H6  UNL     1      37.712  -8.853   0.453  1.00  0.00     0.213 HD
ENDBRANCH  40  43
BRANCH  40  45
HETATM   45  C30 UNL     1      37.265  -6.437   2.632  1.00  0.00     0.379 C 
HETATM   46  F1  UNL     1      38.389  -6.474   3.354  1.00  0.00    -0.189 F 
HETATM   47  F2  UNL     1      36.228  -6.167   3.555  1.00  0.00    -0.189 F 
BRANCH  45  48
HETATM   48  C31 UNL     1      37.232  -5.262   1.684  1.00  0.00     0.295 C 
HETATM   49  O7  UNL     1      36.283  -4.476   1.701  1.00  0.00    -0.267 OA
HETATM   50  N5  UNL     1      38.276  -5.017   0.746  1.00  0.00    -0.360 N 
HETATM   51  C32 UNL     1      38.205  -3.864  -0.160  1.00  0.00     0.149 C 
ATOM     52  H5  UNL     1      39.078  -5.647   0.704  1.00  0.00     0.162 HD
ENDBRANCH  45  48
ENDBRANCH  40  45
ENDBRANCH  32  40
ENDBRANCH  30  32
ENDBRANCH   1  28
TORSDOF 17
ENDMDL
