MODEL 9
REMARK VINA RESULT: -9.434741040      1.528      4.357
REMARK  17 active torsions:
REMARK  status: ('A' for Active; 'I' for Inactive)
REMARK    1  A    between atoms: C2_2  and  C3_3 
REMARK    2  A    between atoms: C3_3  and  C4_4 
REMARK    3  A    between atoms: C4_4  and  C5_5 
REMARK    4  A    between atoms: C5_5  and  N1_6 
REMARK    5  A    between atoms: C5_5  and  C20_28 
REMARK       I    between atoms: N1_6  and  C6_8 
REMARK    6  A    between atoms: C6_8  and  C7_10 
REMARK    7  A    between atoms: C7_10  and  C8_11 
REMARK    8  A    between atoms: C7_10  and  N2_18 
REMARK    9  A    between atoms: C8_11  and  C9_12 
REMARK       I    between atoms: N2_18  and  C15_20 
REMARK       I    between atoms: C15_20  and  N3_22 
REMARK       I    between atoms: C20_28  and  N4_30 
REMARK   10  A    between atoms: N4_30  and  C21_32 
REMARK   11  A    between atoms: C21_32  and  C22_33 
REMARK   12  A    between atoms: C21_32  and  C29_40 
REMARK   13  A    between atoms: C22_33  and  C23_34 
REMARK   14  A    between atoms: C29_40  and  O5_41 
REMARK   15  A    between atoms: C29_40  and  O6_43 
REMARK   16  A    between atoms: C29_40  and  C30_45 
REMARK   17  A    between atoms: C30_45  and  C31_48 
REMARK       I    between atoms: C31_48  and  N5_50 
ROOT
HETATM    1  C5  UNL     1      34.619  -9.889  -0.118  1.00  0.00     0.176 C 
ENDROOT
BRANCH   1   2
HETATM    2  C4  UNL     1      34.581 -11.301  -0.655  1.00  0.00     0.035 C 
BRANCH   2   3
HETATM    3  C3  UNL     1      33.260 -11.527  -1.329  1.00  0.00     0.002 C 
BRANCH   3   4
HETATM    4  C2  UNL     1      33.120 -12.961  -1.828  1.00  0.00    -0.004 C 
HETATM    5  C1  UNL     1      32.443 -13.754  -0.740  1.00  0.00     0.005 C 
ENDBRANCH   3   4
ENDBRANCH   2   3
ENDBRANCH   1   2
BRANCH   1   6
HETATM    6  N1  UNL     1      34.883  -8.950  -1.159  1.00  0.00    -0.346 N 
HETATM    7  C6  UNL     1      34.038  -7.826  -1.381  1.00  0.00     0.241 C 
HETATM    8  O1  UNL     1      33.033  -7.631  -0.664  1.00  0.00    -0.271 OA
ATOM      9  H1  UNL     1      35.697  -9.087  -1.759  1.00  0.00     0.163 HD
BRANCH   7  10
HETATM   10  C7  UNL     1      34.313  -6.844  -2.466  1.00  0.00     0.182 C 
BRANCH  10  11
HETATM   11  C8  UNL     1      34.498  -5.450  -1.993  1.00  0.00     0.073 C 
BRANCH  11  12
HETATM   12  C9  UNL     1      35.935  -5.100  -2.100  1.00  0.00    -0.056 A 
HETATM   13  C10 UNL     1      36.416  -3.912  -1.592  1.00  0.00     0.007 A 
HETATM   14  C11 UNL     1      37.761  -3.567  -1.682  1.00  0.00     0.001 A 
HETATM   15  C12 UNL     1      38.665  -4.415  -2.290  1.00  0.00     0.000 A 
HETATM   16  C13 UNL     1      38.193  -5.599  -2.798  1.00  0.00     0.001 A 
HETATM   17  C14 UNL     1      36.862  -5.936  -2.706  1.00  0.00     0.007 A 
ENDBRANCH  11  12
ENDBRANCH  10  11
BRANCH  10  18
HETATM   18  N2  UNL     1      33.417  -7.001  -3.579  1.00  0.00    -0.329 N 
HETATM   19  C15 UNL     1      33.579  -8.095  -4.458  1.00  0.00     0.319 C 
HETATM   20  O2  UNL     1      34.512  -8.936  -4.256  1.00  0.00    -0.247 OA
HETATM   21  N3  UNL     1      32.684  -8.227  -5.557  1.00  0.00    -0.330 N 
HETATM   22  C16 UNL     1      31.641  -7.266  -5.754  1.00  0.00     0.153 C 
HETATM   23  C19 UNL     1      32.898  -9.368  -6.431  1.00  0.00     0.153 C 
HETATM   24  C17 UNL     1      30.693  -7.717  -6.816  1.00  0.00     0.187 C 
HETATM   25  O3  UNL     1      31.401  -8.184  -7.911  1.00  0.00    -0.388 OA
HETATM   26  C18 UNL     1      31.978  -9.417  -7.604  1.00  0.00     0.187 C 
ATOM     27  H2  UNL     1      32.667  -6.326  -3.733  1.00  0.00     0.165 HD
ENDBRANCH  10  18
ENDBRANCH   7  10
ENDBRANCH   1   6
BRANCH   1  28
HETATM   28  C20 UNL     1      35.497  -9.726   1.061  1.00  0.00     0.240 C 
HETATM   29  O4  UNL     1      36.610 -10.354   1.049  1.00  0.00    -0.271 OA
HETATM   30  N4  UNL     1      35.220  -8.952   2.173  1.00  0.00    -0.349 N 
ATOM     31  H4  UNL     1      34.333  -8.448   2.198  1.00  0.00     0.163 HD
BRANCH  30  32
HETATM   32  C21 UNL     1      36.150  -8.807   3.348  1.00  0.00     0.154 C 
BRANCH  32  33
HETATM   33  C22 UNL     1      36.296  -7.372   3.583  1.00  0.00     0.035 C 
BRANCH  33  34
HETATM   34  C23 UNL     1      37.285  -6.538   2.921  1.00  0.00    -0.012 C 
HETATM   35  C24 UNL     1      36.748  -5.052   2.933  1.00  0.00     0.005 C 
HETATM   36  C25 UNL     1      37.498  -4.269   1.877  1.00  0.00     0.000 C 
HETATM   37  C26 UNL     1      38.926  -4.811   1.750  1.00  0.00     0.000 C 
HETATM   38  C27 UNL     1      38.822  -6.140   1.039  1.00  0.00     0.000 C 
HETATM   39  C28 UNL     1      37.548  -6.815   1.465  1.00  0.00     0.005 C 
ENDBRANCH  33  34
ENDBRANCH  32  33
BRANCH  32  40
HETATM   40  C29 UNL     1      35.516  -9.698   4.358  1.00  0.00     0.258 C 
BRANCH  40  41
HETATM   41  O5  UNL     1      34.565 -10.550   3.623  1.00  0.00    -0.359 OA
ATOM     42  H5  UNL     1      34.946 -10.699   2.766  1.00  0.00     0.213 HD
ENDBRANCH  40  41
BRANCH  40  43
HETATM   43  O6  UNL     1      34.733  -9.087   5.306  1.00  0.00    -0.359 OA
ATOM     44  H6  UNL     1      34.142  -9.649   5.793  1.00  0.00     0.213 HD
ENDBRANCH  40  43
BRANCH  40  45
HETATM   45  C30 UNL     1      36.410 -10.806   4.922  1.00  0.00     0.379 C 
HETATM   46  F1  UNL     1      37.170 -10.501   5.979  1.00  0.00    -0.189 F 
HETATM   47  F2  UNL     1      37.310 -11.209   3.909  1.00  0.00    -0.189 F 
BRANCH  45  48
HETATM   48  C31 UNL     1      35.556 -12.028   5.165  1.00  0.00     0.295 C 
HETATM   49  O7  UNL     1      34.698 -12.022   6.049  1.00  0.00    -0.267 OA
HETATM   50  N5  UNL     1      35.704 -13.219   4.396  1.00  0.00    -0.360 N 
HETATM   51  C32 UNL     1      34.855 -14.386   4.665  1.00  0.00     0.149 C 
ATOM     52  H5  UNL     1      36.404 -13.261   3.655  1.00  0.00     0.162 HD
ENDBRANCH  45  48
ENDBRANCH  40  45
ENDBRANCH  32  40
ENDBRANCH  30  32
ENDBRANCH   1  28
TORSDOF 17
ENDMDL
