MODEL 8
REMARK VINA RESULT: -9.497601286      2.044      4.327
REMARK  17 active torsions:
REMARK  status: ('A' for Active; 'I' for Inactive)
REMARK    1  A    between atoms: C2_2  and  C3_3 
REMARK    2  A    between atoms: C3_3  and  C4_4 
REMARK    3  A    between atoms: C4_4  and  C5_5 
REMARK    4  A    between atoms: C5_5  and  N1_6 
REMARK    5  A    between atoms: C5_5  and  C20_28 
REMARK       I    between atoms: N1_6  and  C6_8 
REMARK    6  A    between atoms: C6_8  and  C7_10 
REMARK    7  A    between atoms: C7_10  and  C8_11 
REMARK    8  A    between atoms: C7_10  and  N2_18 
REMARK    9  A    between atoms: C8_11  and  C9_12 
REMARK       I    between atoms: N2_18  and  C15_20 
REMARK       I    between atoms: C15_20  and  N3_22 
REMARK       I    between atoms: C20_28  and  N4_30 
REMARK   10  A    between atoms: N4_30  and  C21_32 
REMARK   11  A    between atoms: C21_32  and  C22_33 
REMARK   12  A    between atoms: C21_32  and  C29_40 
REMARK   13  A    between atoms: C22_33  and  C23_34 
REMARK   14  A    between atoms: C29_40  and  O5_41 
REMARK   15  A    between atoms: C29_40  and  O6_43 
REMARK   16  A    between atoms: C29_40  and  C30_45 
REMARK   17  A    between atoms: C30_45  and  C31_48 
REMARK       I    between atoms: C31_48  and  N5_50 
ROOT
HETATM    1  C5  UNL     1      34.299  -9.895  -0.574  1.00  0.00     0.176 C 
ENDROOT
BRANCH   1   2
HETATM    2  C4  UNL     1      34.080 -11.262  -1.182  1.00  0.00     0.035 C 
BRANCH   2   3
HETATM    3  C3  UNL     1      32.792 -11.823  -0.656  1.00  0.00     0.002 C 
BRANCH   3   4
HETATM    4  C2  UNL     1      32.711 -13.332  -0.860  1.00  0.00    -0.004 C 
HETATM    5  C1  UNL     1      33.847 -13.955  -0.089  1.00  0.00     0.005 C 
ENDBRANCH   3   4
ENDBRANCH   2   3
ENDBRANCH   1   2
BRANCH   1   6
HETATM    6  N1  UNL     1      34.614  -8.931  -1.578  1.00  0.00    -0.346 N 
HETATM    7  C6  UNL     1      33.601  -8.158  -2.213  1.00  0.00     0.241 C 
HETATM    8  O1  UNL     1      32.398  -8.306  -1.906  1.00  0.00    -0.271 OA
ATOM      9  H1  UNL     1      35.589  -8.792  -1.846  1.00  0.00     0.163 HD
BRANCH   7  10
HETATM   10  C7  UNL     1      33.928  -7.151  -3.259  1.00  0.00     0.182 C 
BRANCH  10  11
HETATM   11  C8  UNL     1      34.372  -5.840  -2.724  1.00  0.00     0.073 C 
BRANCH  11  12
HETATM   12  C9  UNL     1      35.668  -5.486  -3.351  1.00  0.00    -0.056 A 
HETATM   13  C10 UNL     1      36.507  -6.461  -3.847  1.00  0.00     0.007 A 
HETATM   14  C11 UNL     1      37.727  -6.148  -4.439  1.00  0.00     0.001 A 
HETATM   15  C12 UNL     1      38.138  -4.835  -4.548  1.00  0.00     0.000 A 
HETATM   16  C13 UNL     1      37.308  -3.859  -4.057  1.00  0.00     0.001 A 
HETATM   17  C14 UNL     1      36.103  -4.174  -3.472  1.00  0.00     0.007 A 
ENDBRANCH  11  12
ENDBRANCH  10  11
BRANCH  10  18
HETATM   18  N2  UNL     1      32.921  -7.086  -4.283  1.00  0.00    -0.329 N 
HETATM   19  C15 UNL     1      33.158  -7.700  -5.533  1.00  0.00     0.319 C 
HETATM   20  O2  UNL     1      34.254  -8.310  -5.742  1.00  0.00    -0.247 OA
HETATM   21  N3  UNL     1      32.149  -7.620  -6.535  1.00  0.00    -0.330 N 
HETATM   22  C16 UNL     1      30.923  -6.930  -6.267  1.00  0.00     0.153 C 
HETATM   23  C19 UNL     1      32.445  -8.265  -7.803  1.00  0.00     0.153 C 
HETATM   24  C17 UNL     1      29.932  -7.161  -7.359  1.00  0.00     0.187 C 
HETATM   25  O3  UNL     1      30.543  -7.002  -8.591  1.00  0.00    -0.388 OA
HETATM   26  C18 UNL     1      31.386  -8.087  -8.838  1.00  0.00     0.187 C 
ATOM     27  H2  UNL     1      32.041  -6.600  -4.108  1.00  0.00     0.165 HD
ENDBRANCH  10  18
ENDBRANCH   7  10
ENDBRANCH   1   6
BRANCH   1  28
HETATM   28  C20 UNL     1      35.247  -9.896   0.562  1.00  0.00     0.240 C 
HETATM   29  O4  UNL     1      36.101 -10.845   0.607  1.00  0.00    -0.271 OA
HETATM   30  N4  UNL     1      35.289  -8.958   1.578  1.00  0.00    -0.349 N 
ATOM     31  H4  UNL     1      34.610  -8.197   1.558  1.00  0.00     0.163 HD
BRANCH  30  32
HETATM   32  C21 UNL     1      36.279  -8.994   2.712  1.00  0.00     0.154 C 
BRANCH  32  33
HETATM   33  C22 UNL     1      36.888  -7.666   2.767  1.00  0.00     0.035 C 
BRANCH  33  34
HETATM   34  C23 UNL     1      37.123  -6.831   1.600  1.00  0.00    -0.012 C 
HETATM   35  C24 UNL     1      38.665  -6.899   1.262  1.00  0.00     0.005 C 
HETATM   36  C25 UNL     1      39.008  -5.718   0.381  1.00  0.00     0.000 C 
HETATM   37  C26 UNL     1      37.809  -5.368  -0.505  1.00  0.00     0.000 C 
HETATM   38  C27 UNL     1      36.784  -4.713   0.392  1.00  0.00     0.000 C 
HETATM   39  C28 UNL     1      36.851  -5.358   1.748  1.00  0.00     0.005 C 
ENDBRANCH  33  34
ENDBRANCH  32  33
BRANCH  32  40
HETATM   40  C29 UNL     1      35.450  -9.513   3.833  1.00  0.00     0.258 C 
BRANCH  40  41
HETATM   41  O5  UNL     1      34.667 -10.636   3.286  1.00  0.00    -0.359 OA
ATOM     42  H5  UNL     1      33.801 -10.571   3.671  1.00  0.00     0.213 HD
ENDBRANCH  40  41
BRANCH  40  43
HETATM   43  O6  UNL     1      34.491  -8.665   4.329  1.00  0.00    -0.359 OA
ATOM     44  H6  UNL     1      34.745  -8.127   5.070  1.00  0.00     0.213 HD
ENDBRANCH  40  43
BRANCH  40  45
HETATM   45  C30 UNL     1      36.207 -10.285   4.918  1.00  0.00     0.379 C 
HETATM   46  F1  UNL     1      36.672  -9.584   5.957  1.00  0.00    -0.189 F 
HETATM   47  F2  UNL     1      37.342 -10.886   4.325  1.00  0.00    -0.189 F 
BRANCH  45  48
HETATM   48  C31 UNL     1      35.355 -11.454   5.352  1.00  0.00     0.295 C 
HETATM   49  O7  UNL     1      34.309 -11.264   5.975  1.00  0.00    -0.267 OA
HETATM   50  N5  UNL     1      35.719 -12.802   5.067  1.00  0.00    -0.360 N 
HETATM   51  C32 UNL     1      34.863 -13.911   5.509  1.00  0.00     0.149 C 
ATOM     52  H5  UNL     1      36.578 -12.998   4.554  1.00  0.00     0.162 HD
ENDBRANCH  45  48
ENDBRANCH  40  45
ENDBRANCH  32  40
ENDBRANCH  30  32
ENDBRANCH   1  28
TORSDOF 17
ENDMDL
