MODEL 19
REMARK VINA RESULT: -7.785990414      1.389      2.463
REMARK  8 active torsions:
REMARK  status: ('A' for Active; 'I' for Inactive)
REMARK    1  A    between atoms: C2_2  and  N1_3 
REMARK    2  A    between atoms: N1_3  and  C3_5 
REMARK    3  A    between atoms: C3_5  and  O1_6 
REMARK    4  A    between atoms: C4_8  and  C5_9 
REMARK    5  A    between atoms: C7_11  and  C8_12 
REMARK    6  A    between atoms: C8_12  and  C9_13 
REMARK    7  A    between atoms: C10_14  and  C12_16 
REMARK    8  A    between atoms: C13_17  and  C14_18 
ROOT
HETATM    1  C9  UNL     1      31.610  19.286  49.450  1.00  0.00     0.062 C 
HETATM    2  C10 UNL     1      31.279  20.428  48.898  1.00  0.00    -0.054 C 
HETATM    3  C11 UNL     1      31.644  21.675  49.552  1.00  0.00     0.049 C 
ENDROOT
BRANCH   1   4
HETATM    4  C8  UNL     1      32.293  19.080  50.615  1.00  0.00    -0.127 C 
BRANCH   4   5
HETATM    5  C7  UNL     1      32.890  18.900  51.636  1.00  0.00     0.062 C 
HETATM    6  C5  UNL     1      34.032  19.214  52.394  1.00  0.00    -0.051 C 
HETATM    7  C6  UNL     1      35.056  20.154  51.833  1.00  0.00     0.049 C 
BRANCH   6   8
HETATM    8  C4  UNL     1      34.232  18.696  53.592  1.00  0.00     0.062 C 
HETATM    9  C3  UNL     1      35.375  18.043  54.110  1.00  0.00     0.136 C 
BRANCH   9  10
HETATM   10  N1  UNL     1      36.610  17.753  53.522  1.00  0.00    -0.371 N 
ATOM     11  H1  UNL     1      36.819  17.980  52.550  1.00  0.00     0.161 HD
BRANCH  10  12
HETATM   12  C2  UNL     1      37.600  17.090  54.417  1.00  0.00     0.117 C 
HETATM   13  C1  UNL     1      38.681  18.114  54.664  1.00  0.00     0.026 C 
ENDBRANCH  10  12
ENDBRANCH   9  10
BRANCH   9  14
HETATM   14  O1  UNL     1      35.220  17.652  55.367  1.00  0.00    -0.346 OA
ATOM     15  H1  UNL     1      35.719  18.130  56.020  1.00  0.00     0.219 HD
ENDBRANCH   9  14
ENDBRANCH   6   8
ENDBRANCH   4   5
ENDBRANCH   1   4
BRANCH   2  16
HETATM   16  C12 UNL     1      30.577  20.275  47.613  1.00  0.00     0.008 C 
HETATM   17  C13 UNL     1      31.100  20.814  46.570  1.00  0.00     0.009 C 
BRANCH  17  18
HETATM   18  C14 UNL     1      30.659  20.832  45.212  1.00  0.00    -0.048 C 
HETATM   19  C15 UNL     1      31.188  19.851  44.443  1.00  0.00    -0.077 C 
HETATM   20  C16 UNL     1      32.144  18.845  44.983  1.00  0.00     0.044 C 
HETATM   21  C17 UNL     1      30.862  19.779  43.013  1.00  0.00     0.034 C 
HETATM   22  C18 UNL     1      29.444  20.076  42.731  1.00  0.00     0.005 C 
HETATM   23  C19 UNL     1      28.730  20.796  43.807  1.00  0.00     0.014 C 
HETATM   24  C20 UNL     1      29.720  21.734  44.592  1.00  0.00    -0.020 C 
HETATM   25  C21 UNL     1      28.832  22.606  45.404  1.00  0.00     0.020 C 
HETATM   26  C22 UNL     1      30.375  22.643  43.549  1.00  0.00     0.020 C 
ENDBRANCH  17  18
ENDBRANCH   2  16
TORSDOF 8
ENDMDL
