MODEL 14
REMARK VINA RESULT: -8.021690014      1.574      2.570
REMARK  8 active torsions:
REMARK  status: ('A' for Active; 'I' for Inactive)
REMARK    1  A    between atoms: C2_2  and  N1_3 
REMARK    2  A    between atoms: N1_3  and  C3_5 
REMARK    3  A    between atoms: C3_5  and  O1_6 
REMARK    4  A    between atoms: C4_8  and  C5_9 
REMARK    5  A    between atoms: C7_11  and  C8_12 
REMARK    6  A    between atoms: C8_12  and  C9_13 
REMARK    7  A    between atoms: C10_14  and  C12_16 
REMARK    8  A    between atoms: C13_17  and  C14_18 
ROOT
HETATM    1  C9  UNL     1      32.013  20.624  49.640  1.00  0.00     0.062 C 
HETATM    2  C10 UNL     1      31.661  19.834  48.655  1.00  0.00    -0.054 C 
HETATM    3  C11 UNL     1      31.983  18.417  48.719  1.00  0.00     0.049 C 
ENDROOT
BRANCH   1   4
HETATM    4  C8  UNL     1      32.673  20.295  50.789  1.00  0.00    -0.127 C 
BRANCH   4   5
HETATM    5  C7  UNL     1      33.251  20.005  51.796  1.00  0.00     0.062 C 
HETATM    6  C5  UNL     1      33.913  18.993  52.515  1.00  0.00    -0.051 C 
HETATM    7  C6  UNL     1      34.031  17.622  51.922  1.00  0.00     0.049 C 
BRANCH   6   8
HETATM    8  C4  UNL     1      34.434  19.219  53.706  1.00  0.00     0.062 C 
HETATM    9  C3  UNL     1      35.704  18.860  54.215  1.00  0.00     0.136 C 
BRANCH   9  10
HETATM   10  N1  UNL     1      36.768  18.171  53.621  1.00  0.00    -0.371 N 
ATOM     11  H1  UNL     1      36.690  17.729  52.706  1.00  0.00     0.161 HD
BRANCH  10  12
HETATM   12  C2  UNL     1      38.023  18.129  54.423  1.00  0.00     0.117 C 
HETATM   13  C1  UNL     1      38.140  16.712  54.929  1.00  0.00     0.026 C 
ENDBRANCH  10  12
ENDBRANCH   9  10
BRANCH   9  14
HETATM   14  O1  UNL     1      35.891  19.257  55.466  1.00  0.00    -0.346 OA
ATOM     15  H1  UNL     1      35.112  19.526  55.940  1.00  0.00     0.219 HD
ENDBRANCH   9  14
ENDBRANCH   6   8
ENDBRANCH   4   5
ENDBRANCH   1   4
BRANCH   2  16
HETATM   16  C12 UNL     1      30.922  20.525  47.585  1.00  0.00     0.008 C 
HETATM   17  C13 UNL     1      31.511  20.696  46.456  1.00  0.00     0.009 C 
BRANCH  17  18
HETATM   18  C14 UNL     1      31.054  21.317  45.253  1.00  0.00    -0.048 C 
HETATM   19  C15 UNL     1      30.848  20.458  44.228  1.00  0.00    -0.077 C 
HETATM   20  C16 UNL     1      31.078  18.993  44.358  1.00  0.00     0.044 C 
HETATM   21  C17 UNL     1      30.427  20.965  42.915  1.00  0.00     0.034 C 
HETATM   22  C18 UNL     1      29.430  22.049  43.011  1.00  0.00     0.005 C 
HETATM   23  C19 UNL     1      29.360  22.720  44.327  1.00  0.00     0.014 C 
HETATM   24  C20 UNL     1      30.771  22.712  45.024  1.00  0.00    -0.020 C 
HETATM   25  C21 UNL     1      30.627  23.669  46.151  1.00  0.00     0.020 C 
HETATM   26  C22 UNL     1      31.746  23.359  44.037  1.00  0.00     0.020 C 
ENDBRANCH  17  18
ENDBRANCH   2  16
TORSDOF 8
ENDMDL
