MODEL 7
REMARK VINA RESULT: -8.383816456      3.464     11.552
REMARK  8 active torsions:
REMARK  status: ('A' for Active; 'I' for Inactive)
REMARK    1  A    between atoms: C2_2  and  N1_3 
REMARK    2  A    between atoms: N1_3  and  C3_5 
REMARK    3  A    between atoms: C3_5  and  O1_6 
REMARK    4  A    between atoms: C4_8  and  C5_9 
REMARK    5  A    between atoms: C7_11  and  C8_12 
REMARK    6  A    between atoms: C8_12  and  C9_13 
REMARK    7  A    between atoms: C10_14  and  C12_16 
REMARK    8  A    between atoms: C13_17  and  C14_18 
ROOT
HETATM    1  C9  UNL     1      35.437  18.090  53.717  1.00  0.00     0.062 C 
HETATM    2  C10 UNL     1      36.683  18.065  53.312  1.00  0.00    -0.054 C 
HETATM    3  C11 UNL     1      37.002  18.440  51.943  1.00  0.00     0.049 C 
ENDROOT
BRANCH   1   4
HETATM    4  C8  UNL     1      34.326  18.443  53.004  1.00  0.00    -0.127 C 
BRANCH   4   5
HETATM    5  C7  UNL     1      33.353  18.754  52.381  1.00  0.00     0.062 C 
HETATM    6  C5  UNL     1      32.852  19.228  51.156  1.00  0.00    -0.051 C 
HETATM    7  C6  UNL     1      33.802  19.543  50.040  1.00  0.00     0.049 C 
BRANCH   6   8
HETATM    8  C4  UNL     1      31.559  19.409  50.961  1.00  0.00     0.062 C 
HETATM    9  C3  UNL     1      30.726  18.906  49.934  1.00  0.00     0.136 C 
BRANCH   9  10
HETATM   10  N1  UNL     1      31.014  18.084  48.839  1.00  0.00    -0.371 N 
ATOM     11  H1  UNL     1      31.124  17.074  48.927  1.00  0.00     0.161 HD
BRANCH  10  12
HETATM   12  C2  UNL     1      31.152  18.790  47.534  1.00  0.00     0.117 C 
HETATM   13  C1  UNL     1      32.140  17.980  46.731  1.00  0.00     0.026 C 
ENDBRANCH  10  12
ENDBRANCH   9  10
BRANCH   9  14
HETATM   14  O1  UNL     1      29.464  19.294  50.057  1.00  0.00    -0.346 OA
ATOM     15  H1  UNL     1      29.294  20.218  49.916  1.00  0.00     0.219 HD
ENDBRANCH   9  14
ENDBRANCH   6   8
ENDBRANCH   4   5
ENDBRANCH   1   4
BRANCH   2  16
HETATM   16  C12 UNL     1      37.633  17.670  54.365  1.00  0.00     0.008 C 
HETATM   17  C13 UNL     1      37.186  17.531  55.562  1.00  0.00     0.009 C 
BRANCH  17  18
HETATM   18  C14 UNL     1      37.856  17.160  56.768  1.00  0.00    -0.048 C 
HETATM   19  C15 UNL     1      38.199  18.205  57.557  1.00  0.00    -0.077 C 
HETATM   20  C16 UNL     1      37.891  19.615  57.189  1.00  0.00     0.044 C 
HETATM   21  C17 UNL     1      38.939  17.976  58.804  1.00  0.00     0.034 C 
HETATM   22  C18 UNL     1      38.471  16.785  59.539  1.00  0.00     0.005 C 
HETATM   23  C19 UNL     1      37.693  15.818  58.734  1.00  0.00     0.014 C 
HETATM   24  C20 UNL     1      38.177  15.835  57.237  1.00  0.00    -0.020 C 
HETATM   25  C21 UNL     1      37.552  14.628  56.637  1.00  0.00     0.020 C 
HETATM   26  C22 UNL     1      39.684  15.566  57.265  1.00  0.00     0.020 C 
ENDBRANCH  17  18
ENDBRANCH   2  16
TORSDOF 8
ENDMDL
