MODEL 9
REMARK VINA RESULT: -8.263369605      1.279      2.408
REMARK  8 active torsions:
REMARK  status: ('A' for Active; 'I' for Inactive)
REMARK    1  A    between atoms: C2_2  and  N1_3 
REMARK    2  A    between atoms: N1_3  and  C3_5 
REMARK    3  A    between atoms: C3_5  and  O1_6 
REMARK    4  A    between atoms: C4_8  and  C5_9 
REMARK    5  A    between atoms: C7_11  and  C8_12 
REMARK    6  A    between atoms: C8_12  and  C9_13 
REMARK    7  A    between atoms: C10_14  and  C12_16 
REMARK    8  A    between atoms: C13_17  and  C14_18 
ROOT
HETATM    1  C9  UNL     1      32.809  19.557  48.780  1.00  0.00     0.062 C 
HETATM    2  C10 UNL     1      31.568  19.142  48.863  1.00  0.00    -0.054 C 
HETATM    3  C11 UNL     1      31.119  18.455  50.064  1.00  0.00     0.049 C 
ENDROOT
BRANCH   1   4
HETATM    4  C8  UNL     1      33.801  19.438  49.710  1.00  0.00    -0.127 C 
BRANCH   4   5
HETATM    5  C7  UNL     1      34.672  19.334  50.524  1.00  0.00     0.062 C 
HETATM    6  C5  UNL     1      34.992  19.264  51.892  1.00  0.00    -0.051 C 
HETATM    7  C6  UNL     1      33.898  19.351  52.912  1.00  0.00     0.049 C 
BRANCH   6   8
HETATM    8  C4  UNL     1      36.238  19.127  52.305  1.00  0.00     0.062 C 
HETATM    9  C3  UNL     1      36.756  18.325  53.348  1.00  0.00     0.136 C 
BRANCH   9  10
HETATM   10  N1  UNL     1      36.118  17.455  54.239  1.00  0.00    -0.371 N 
ATOM     11  H1  UNL     1      35.310  16.895  53.971  1.00  0.00     0.161 HD
BRANCH  10  12
HETATM   12  C2  UNL     1      36.704  17.405  55.608  1.00  0.00     0.117 C 
HETATM   13  C1  UNL     1      37.170  15.984  55.804  1.00  0.00     0.026 C 
ENDBRANCH  10  12
ENDBRANCH   9  10
BRANCH   9  14
HETATM   14  O1  UNL     1      38.071  18.436  53.481  1.00  0.00    -0.346 OA
ATOM     15  H1  UNL     1      38.550  18.695  52.702  1.00  0.00     0.219 HD
ENDBRANCH   9  14
ENDBRANCH   6   8
ENDBRANCH   4   5
ENDBRANCH   1   4
BRANCH   2  16
HETATM   16  C12 UNL     1      30.758  19.479  47.681  1.00  0.00     0.008 C 
HETATM   17  C13 UNL     1      31.369  19.854  46.614  1.00  0.00     0.009 C 
BRANCH  17  18
HETATM   18  C14 UNL     1      30.860  20.234  45.335  1.00  0.00    -0.048 C 
HETATM   19  C15 UNL     1      31.120  19.346  44.347  1.00  0.00    -0.077 C 
HETATM   20  C16 UNL     1      31.870  18.083  44.589  1.00  0.00     0.044 C 
HETATM   21  C17 UNL     1      30.700  19.632  42.969  1.00  0.00     0.034 C 
HETATM   22  C18 UNL     1      29.363  20.254  42.894  1.00  0.00     0.005 C 
HETATM   23  C19 UNL     1      28.885  20.866  44.153  1.00  0.00     0.014 C 
HETATM   24  C20 UNL     1      30.099  21.410  44.994  1.00  0.00    -0.020 C 
HETATM   25  C21 UNL     1      29.469  22.256  46.040  1.00  0.00     0.020 C 
HETATM   26  C22 UNL     1      30.868  22.366  44.078  1.00  0.00     0.020 C 
ENDBRANCH  17  18
ENDBRANCH   2  16
TORSDOF 8
ENDMDL
