MODEL 3
REMARK VINA RESULT: -8.609425801      4.128     11.846
REMARK  8 active torsions:
REMARK  status: ('A' for Active; 'I' for Inactive)
REMARK    1  A    between atoms: C2_2  and  N1_3 
REMARK    2  A    between atoms: N1_3  and  C3_5 
REMARK    3  A    between atoms: C3_5  and  O1_6 
REMARK    4  A    between atoms: C4_8  and  C5_9 
REMARK    5  A    between atoms: C7_11  and  C8_12 
REMARK    6  A    between atoms: C8_12  and  C9_13 
REMARK    7  A    between atoms: C10_14  and  C12_16 
REMARK    8  A    between atoms: C13_17  and  C14_18 
ROOT
HETATM    1  C9  UNL     1      36.596  18.135  52.866  1.00  0.00     0.062 C 
HETATM    2  C10 UNL     1      36.337  18.212  54.149  1.00  0.00    -0.054 C 
HETATM    3  C11 UNL     1      35.092  18.816  54.596  1.00  0.00     0.049 C 
ENDROOT
BRANCH   1   4
HETATM    4  C8  UNL     1      35.821  18.558  51.823  1.00  0.00    -0.127 C 
BRANCH   4   5
HETATM    5  C7  UNL     1      35.142  18.927  50.910  1.00  0.00     0.062 C 
HETATM    6  C5  UNL     1      33.966  19.592  50.520  1.00  0.00    -0.051 C 
HETATM    7  C6  UNL     1      33.037  20.125  51.568  1.00  0.00     0.049 C 
BRANCH   6   8
HETATM    8  C4  UNL     1      33.653  19.757  49.249  1.00  0.00     0.062 C 
HETATM    9  C3  UNL     1      32.635  19.139  48.485  1.00  0.00     0.136 C 
BRANCH   9  10
HETATM   10  N1  UNL     1      31.676  18.184  48.840  1.00  0.00    -0.371 N 
ATOM     11  H1  UNL     1      31.908  17.201  48.976  1.00  0.00     0.161 HD
BRANCH  10  12
HETATM   12  C2  UNL     1      30.290  18.707  49.004  1.00  0.00     0.117 C 
HETATM   13  C1  UNL     1      29.900  18.397  50.428  1.00  0.00     0.026 C 
ENDBRANCH  10  12
ENDBRANCH   9  10
BRANCH   9  14
HETATM   14  O1  UNL     1      32.610  19.552  47.226  1.00  0.00    -0.346 OA
ATOM     15  H1  UNL     1      33.393  19.993  46.914  1.00  0.00     0.219 HD
ENDBRANCH   9  14
ENDBRANCH   6   8
ENDBRANCH   4   5
ENDBRANCH   1   4
BRANCH   2  16
HETATM   16  C12 UNL     1      37.385  17.615  54.994  1.00  0.00     0.008 C 
HETATM   17  C13 UNL     1      37.153  17.497  56.252  1.00  0.00     0.009 C 
BRANCH  17  18
HETATM   18  C14 UNL     1      37.962  16.963  57.301  1.00  0.00    -0.048 C 
HETATM   19  C15 UNL     1      38.487  17.898  58.128  1.00  0.00    -0.077 C 
HETATM   20  C16 UNL     1      38.228  19.353  57.951  1.00  0.00     0.044 C 
HETATM   21  C17 UNL     1      39.381  17.496  59.221  1.00  0.00     0.034 C 
HETATM   22  C18 UNL     1      38.942  16.260  59.898  1.00  0.00     0.005 C 
HETATM   23  C19 UNL     1      37.991  15.429  59.129  1.00  0.00     0.014 C 
HETATM   24  C20 UNL     1      38.254  15.580  57.585  1.00  0.00    -0.020 C 
HETATM   25  C21 UNL     1      37.466  14.481  56.970  1.00  0.00     0.020 C 
HETATM   26  C22 UNL     1      39.727  15.228  57.359  1.00  0.00     0.020 C 
ENDBRANCH  17  18
ENDBRANCH   2  16
TORSDOF 8
ENDMDL
