MODEL 2
REMARK VINA RESULT: -8.611686320      3.101      5.288
REMARK  8 active torsions:
REMARK  status: ('A' for Active; 'I' for Inactive)
REMARK    1  A    between atoms: C2_2  and  N1_3 
REMARK    2  A    between atoms: N1_3  and  C3_5 
REMARK    3  A    between atoms: C3_5  and  O1_6 
REMARK    4  A    between atoms: C4_8  and  C5_9 
REMARK    5  A    between atoms: C7_11  and  C8_12 
REMARK    6  A    between atoms: C8_12  and  C9_13 
REMARK    7  A    between atoms: C10_14  and  C12_16 
REMARK    8  A    between atoms: C13_17  and  C14_18 
ROOT
HETATM    1  C9  UNL     1      34.613  19.289  53.208  1.00  0.00     0.062 C 
HETATM    2  C10 UNL     1      34.922  19.485  51.949  1.00  0.00    -0.054 C 
HETATM    3  C11 UNL     1      36.290  19.275  51.503  1.00  0.00     0.049 C 
ENDROOT
BRANCH   1   4
HETATM    4  C8  UNL     1      35.433  18.887  54.223  1.00  0.00    -0.127 C 
BRANCH   4   5
HETATM    5  C7  UNL     1      36.151  18.536  55.113  1.00  0.00     0.062 C 
HETATM    6  C5  UNL     1      37.452  18.150  55.483  1.00  0.00    -0.051 C 
HETATM    7  C6  UNL     1      38.527  18.081  54.442  1.00  0.00     0.049 C 
BRANCH   6   8
HETATM    8  C4  UNL     1      37.753  17.840  56.730  1.00  0.00     0.062 C 
HETATM    9  C3  UNL     1      38.107  16.587  57.285  1.00  0.00     0.136 C 
BRANCH   9  10
HETATM   10  N1  UNL     1      38.239  15.327  56.692  1.00  0.00    -0.371 N 
ATOM     11  H1  UNL     1      38.736  15.186  55.813  1.00  0.00     0.161 HD
BRANCH  10  12
HETATM   12  C2  UNL     1      37.600  14.205  57.436  1.00  0.00     0.117 C 
HETATM   13  C1  UNL     1      36.272  13.968  56.761  1.00  0.00     0.026 C 
ENDBRANCH  10  12
ENDBRANCH   9  10
BRANCH   9  14
HETATM   14  O1  UNL     1      38.348  16.649  58.587  1.00  0.00    -0.346 OA
ATOM     15  H1  UNL     1      39.155  17.082  58.843  1.00  0.00     0.219 HD
ENDBRANCH   9  14
ENDBRANCH   6   8
ENDBRANCH   4   5
ENDBRANCH   1   4
BRANCH   2  16
HETATM   16  C12 UNL     1      33.772  19.879  51.118  1.00  0.00     0.008 C 
HETATM   17  C13 UNL     1      33.162  18.962  50.455  1.00  0.00     0.009 C 
BRANCH  17  18
HETATM   18  C14 UNL     1      32.033  19.040  49.584  1.00  0.00    -0.048 C 
HETATM   19  C15 UNL     1      30.846  18.804  50.189  1.00  0.00    -0.077 C 
HETATM   20  C16 UNL     1      30.741  18.496  51.642  1.00  0.00     0.044 C 
HETATM   21  C17 UNL     1      29.605  18.801  49.403  1.00  0.00     0.034 C 
HETATM   22  C18 UNL     1      29.568  19.867  48.384  1.00  0.00     0.005 C 
HETATM   23  C19 UNL     1      30.884  20.443  48.032  1.00  0.00     0.014 C 
HETATM   24  C20 UNL     1      32.015  19.358  48.178  1.00  0.00    -0.020 C 
HETATM   25  C21 UNL     1      33.192  19.965  47.505  1.00  0.00     0.020 C 
HETATM   26  C22 UNL     1      31.591  18.171  47.308  1.00  0.00     0.020 C 
ENDBRANCH  17  18
ENDBRANCH   2  16
TORSDOF 8
ENDMDL
