MODEL 13
REMARK VINA RESULT: -4.436815964      1.538      3.639
REMARK  2 active torsions:
REMARK  status: ('A' for Active; 'I' for Inactive)
REMARK    1  A    between atoms: C1_2  and  C2_4 
REMARK    2  A    between atoms: C2_4  and  P1_5 
ROOT
HETATM    1  C2  UNL     1      73.134  39.702  45.008  1.00  0.00     0.258 C 
ENDROOT
BRANCH   1   2
HETATM    2  C1  UNL     1      73.532  38.510  45.771  1.00  0.00     0.185 C 
HETATM    3  O1  UNL     1      73.051  37.396  45.389  1.00  0.00    -0.647 OA
HETATM    4  O2  UNL     1      74.369  38.496  46.849  1.00  0.00    -0.647 OA
ENDBRANCH   1   2
BRANCH   1   5
HETATM    5  P1  UNL     1      73.642  39.931  43.381  1.00  0.00     0.269 P 
HETATM    6  O3  UNL     1      74.969  39.134  43.445  1.00  0.00    -0.639 OA
HETATM    7  O4  UNL     1      74.531  41.258  42.915  1.00  0.00    -0.639 OA
HETATM    8  O5  UNL     1      73.143  38.888  42.168  1.00  0.00    -0.639 OA
ENDBRANCH   1   5
TORSDOF 2
ENDMDL
