MODEL 17
REMARK VINA RESULT: -3.122343391      5.767      6.102
REMARK  1 active torsions:
REMARK  status: ('A' for Active; 'I' for Inactive)
REMARK    1  A    between atoms: P1_2  and  C1_5 
ROOT
HETATM    1  O1  UNL     1      73.099  34.357  45.383  1.00  0.00    -0.639 OA
HETATM    2  P1  UNL     1      73.523  32.753  45.576  1.00  0.00     0.269 P 
HETATM    3  O2  UNL     1      74.616  33.330  44.452  1.00  0.00    -0.639 OA
HETATM    4  O3  UNL     1      72.430  31.757  44.908  1.00  0.00    -0.639 OA
ENDROOT
BRANCH   2   5
HETATM    5  C1  UNL     1      73.278  32.928  47.245  1.00  0.00     0.231 C 
HETATM    6  S1  UNL     1      71.571  33.462  47.756  1.00  0.00    -0.083 SA
ENDBRANCH   2   5
TORSDOF 1
ENDMDL
