MODEL 6
REMARK VINA RESULT: -3.321688767      7.411      7.868
REMARK  1 active torsions:
REMARK  status: ('A' for Active; 'I' for Inactive)
REMARK    1  A    between atoms: P1_2  and  C1_5 
ROOT
HETATM    1  O1  UNL     1      72.657  31.155  44.477  1.00  0.00    -0.639 OA
HETATM    2  P1  UNL     1      73.681  32.224  45.251  1.00  0.00     0.269 P 
HETATM    3  O2  UNL     1      72.162  32.887  45.464  1.00  0.00    -0.639 OA
HETATM    4  O3  UNL     1      74.576  33.072  44.196  1.00  0.00    -0.639 OA
ENDROOT
BRANCH   2   5
HETATM    5  C1  UNL     1      74.533  30.897  45.874  1.00  0.00     0.231 C 
HETATM    6  S1  UNL     1      76.103  30.456  44.980  1.00  0.00    -0.083 SA
ENDBRANCH   2   5
TORSDOF 1
ENDMDL
