MODEL 18
REMARK VINA RESULT: -3.086268169      6.754      7.183
REMARK  1 active torsions:
REMARK  status: ('A' for Active; 'I' for Inactive)
REMARK    1  A    between atoms: P1_2  and  C1_5 
ROOT
HETATM    1  O1  UNL     1      73.861  33.848  45.061  1.00  0.00    -0.639 OA
HETATM    2  P1  UNL     1      73.383  32.281  45.388  1.00  0.00     0.269 P 
HETATM    3  O2  UNL     1      71.991  33.183  45.594  1.00  0.00    -0.639 OA
HETATM    4  O3  UNL     1      73.981  31.751  46.800  1.00  0.00    -0.639 OA
ENDROOT
BRANCH   2   5
HETATM    5  C1  UNL     1      74.319  31.762  44.073  1.00  0.00     0.231 C 
HETATM    6  S1  UNL     1      76.160  31.805  44.329  1.00  0.00    -0.083 SA
ENDBRANCH   2   5
TORSDOF 1
ENDMDL
