MODEL 8
REMARK VINA RESULT: -9.784819508      1.497      2.198
REMARK  11 active torsions:
REMARK  status: ('A' for Active; 'I' for Inactive)
REMARK    1  A    between atoms: O1_2  and  C2_3 
REMARK    2  A    between atoms: C2_3  and  C3_5 
REMARK    3  A    between atoms: C3_5  and  C4_6 
REMARK    4  A    between atoms: C3_5  and  C12_18 
REMARK    5  A    between atoms: C4_6  and  C5_7 
REMARK    6  A    between atoms: C9_11  and  C10_12 
REMARK    7  A    between atoms: C12_18  and  N3_20 
REMARK       I    between atoms: N3_20  and  C14_22 
REMARK    8  A    between atoms: C14_22  and  C15_24 
REMARK    9  A    between atoms: C18_27  and  C19_28 
REMARK   10  A    between atoms: C23_32  and  C24_33 
REMARK   11  A    between atoms: C24_33  and  N4_34 
ROOT
HETATM    1  N3  UNL     1       4.503   5.855  21.544  1.00  0.00    -0.330 N 
ATOM      2  H3  UNL     1       4.922   6.198  20.679  1.00  0.00     0.168 HD
HETATM    3  C14 UNL     1       4.728   4.486  21.905  1.00  0.00     0.255 C 
HETATM    4  O3  UNL     1       4.217   4.069  22.953  1.00  0.00    -0.267 OA
ENDROOT
BRANCH   1   5
HETATM    5  C12 UNL     1       3.719   6.778  22.328  1.00  0.00    -0.000 C 
HETATM    6  C13 UNL     1       3.047   7.875  21.598  1.00  0.00     0.064 C 
BRANCH   5   7
HETATM    7  C3  UNL     1       4.280   7.119  23.669  1.00  0.00     0.135 C 
BRANCH   7   8
HETATM    8  C2  UNL     1       3.171   7.061  24.707  1.00  0.00     0.268 C 
HETATM    9  O2  UNL     1       2.503   6.013  24.771  1.00  0.00    -0.264 OA
BRANCH   8  10
HETATM   10  O1  UNL     1       2.901   8.099  25.542  1.00  0.00    -0.326 OA
HETATM   11  C1  UNL     1       1.651   8.742  25.569  1.00  0.00     0.213 C 
ENDBRANCH   8  10
ENDBRANCH   7   8
BRANCH   7  12
HETATM   12  C4  UNL     1       4.954   8.433  23.822  1.00  0.00     0.059 C 
BRANCH  12  13
HETATM   13  C5  UNL     1       6.417   8.464  23.740  1.00  0.00    -0.056 A 
HETATM   14  C6  UNL     1       7.069   8.726  22.542  1.00  0.00     0.007 A 
HETATM   15  C7  UNL     1       8.421   8.768  22.421  1.00  0.00     0.002 A 
HETATM   16  C8  UNL     1       9.199   8.546  23.509  1.00  0.00     0.015 A 
HETATM   17  C9  UNL     1       8.616   8.277  24.746  1.00  0.00     0.005 A 
HETATM   18  C11 UNL     1       7.265   8.243  24.830  1.00  0.00     0.022 A 
BRANCH  17  19
HETATM   19  C10 UNL     1       9.494   8.048  25.875  1.00  0.00     0.120 C 
HETATM   20  N1  UNL     1      10.763   8.733  25.965  1.00  0.00    -0.082 NA
HETATM   21  N2  UNL     1       9.218   7.248  26.844  1.00  0.00    -0.387 N 
ATOM     22  H22 UNL     1       8.323   6.765  26.781  1.00  0.00     0.157 HD
ATOM     23  H21 UNL     1       9.836   7.087  27.640  1.00  0.00     0.157 HD
ENDBRANCH  17  19
ENDBRANCH  12  13
ENDBRANCH   7  12
ENDBRANCH   5   7
ENDBRANCH   1   5
BRANCH   3  24
HETATM   24  C15 UNL     1       5.525   3.582  21.096  1.00  0.00     0.032 A 
HETATM   25  C16 UNL     1       5.010   2.394  20.651  1.00  0.00     0.018 A 
HETATM   26  C17 UNL     1       5.784   1.524  19.878  1.00  0.00     0.013 A 
HETATM   27  C18 UNL     1       7.078   1.868  19.562  1.00  0.00    -0.026 A 
HETATM   28  C26 UNL     1       7.619   3.048  19.992  1.00  0.00     0.013 A 
HETATM   29  C27 UNL     1       6.833   3.891  20.755  1.00  0.00     0.018 A 
BRANCH  27  30
HETATM   30  C19 UNL     1       7.872   0.942  18.744  1.00  0.00    -0.025 A 
HETATM   31  C20 UNL     1       9.241   0.814  18.967  1.00  0.00     0.012 A 
HETATM   32  C21 UNL     1       9.990  -0.054  18.201  1.00  0.00     0.001 A 
HETATM   33  C22 UNL     1       9.407  -0.805  17.206  1.00  0.00     0.009 A 
HETATM   34  C23 UNL     1       8.060  -0.691  16.972  1.00  0.00    -0.032 A 
HETATM   35  C25 UNL     1       7.329   0.179  17.746  1.00  0.00     0.021 A 
BRANCH  34  36
HETATM   36  C24 UNL     1       7.362  -1.477  15.907  1.00  0.00     0.268 C 
BRANCH  36  37
HETATM   37  N4  UNL     1       6.519  -0.496  15.212  1.00  0.00    -0.075 N 
ATOM     38  H43 UNL     1       6.687   0.469  15.493  1.00  0.00     0.274 HD
ATOM     39  H42 UNL     1       6.753  -0.372  14.227  1.00  0.00     0.274 HD
ATOM     40  H41 UNL     1       5.563  -0.815  15.374  1.00  0.00     0.274 HD
ENDBRANCH  36  37
ENDBRANCH  34  36
ENDBRANCH  27  30
ENDBRANCH   3  24
TORSDOF 11
ENDMDL
