MODEL 4
REMARK VINA RESULT: -10.140933311      1.319      1.953
REMARK  11 active torsions:
REMARK  status: ('A' for Active; 'I' for Inactive)
REMARK    1  A    between atoms: O1_2  and  C2_3 
REMARK    2  A    between atoms: C2_3  and  C3_5 
REMARK    3  A    between atoms: C3_5  and  C4_6 
REMARK    4  A    between atoms: C3_5  and  C12_18 
REMARK    5  A    between atoms: C4_6  and  C5_7 
REMARK    6  A    between atoms: C9_11  and  C10_12 
REMARK    7  A    between atoms: C12_18  and  N3_20 
REMARK       I    between atoms: N3_20  and  C14_22 
REMARK    8  A    between atoms: C14_22  and  C15_24 
REMARK    9  A    between atoms: C18_27  and  C19_28 
REMARK   10  A    between atoms: C23_32  and  C24_33 
REMARK   11  A    between atoms: C24_33  and  N4_34 
ROOT
HETATM    1  N3  UNL     1       6.614   6.063  21.187  1.00  0.00    -0.330 N 
ATOM      2  H3  UNL     1       7.620   6.062  21.015  1.00  0.00     0.168 HD
HETATM    3  C14 UNL     1       5.853   4.931  20.743  1.00  0.00     0.255 C 
HETATM    4  O3  UNL     1       4.633   4.934  20.949  1.00  0.00    -0.267 OA
ENDROOT
BRANCH   1   5
HETATM    5  C12 UNL     1       6.044   7.204  21.861  1.00  0.00    -0.000 C 
HETATM    6  C13 UNL     1       5.890   8.443  21.068  1.00  0.00     0.064 C 
BRANCH   5   7
HETATM    7  C3  UNL     1       6.448   7.375  23.289  1.00  0.00     0.135 C 
BRANCH   7   8
HETATM    8  C2  UNL     1       5.241   7.143  24.183  1.00  0.00     0.268 C 
HETATM    9  O2  UNL     1       4.521   6.161  23.927  1.00  0.00    -0.264 OA
BRANCH   8  10
HETATM   10  O1  UNL     1       4.942   7.961  25.227  1.00  0.00    -0.326 OA
HETATM   11  C1  UNL     1       3.620   8.283  25.580  1.00  0.00     0.213 C 
ENDBRANCH   8  10
ENDBRANCH   7   8
BRANCH   7  12
HETATM   12  C4  UNL     1       7.045   8.674  23.686  1.00  0.00     0.059 C 
BRANCH  12  13
HETATM   13  C5  UNL     1       8.368   8.654  24.317  1.00  0.00    -0.056 A 
HETATM   14  C6  UNL     1       9.403   9.456  23.852  1.00  0.00     0.007 A 
HETATM   15  C7  UNL     1      10.642   9.472  24.407  1.00  0.00     0.002 A 
HETATM   16  C8  UNL     1      10.911   8.675  25.471  1.00  0.00     0.015 A 
HETATM   17  C9  UNL     1       9.922   7.844  25.993  1.00  0.00     0.005 A 
HETATM   18  C11 UNL     1       8.697   7.853  25.414  1.00  0.00     0.022 A 
BRANCH  17  19
HETATM   19  C10 UNL     1      10.263   7.013  27.130  1.00  0.00     0.120 C 
HETATM   20  N1  UNL     1      11.645   6.819  27.505  1.00  0.00    -0.082 NA
HETATM   21  N2  UNL     1       9.393   6.411  27.862  1.00  0.00    -0.387 N 
ATOM     22  H22 UNL     1       8.418   6.548  27.598  1.00  0.00     0.157 HD
ATOM     23  H21 UNL     1       9.633   5.826  28.663  1.00  0.00     0.157 HD
ENDBRANCH  17  19
ENDBRANCH  12  13
ENDBRANCH   7  12
ENDBRANCH   5   7
ENDBRANCH   1   5
BRANCH   3  24
HETATM   24  C15 UNL     1       6.457   3.796  20.070  1.00  0.00     0.032 A 
HETATM   25  C16 UNL     1       7.773   3.477  20.268  1.00  0.00     0.018 A 
HETATM   26  C17 UNL     1       8.352   2.387  19.612  1.00  0.00     0.013 A 
HETATM   27  C18 UNL     1       7.587   1.628  18.757  1.00  0.00    -0.026 A 
HETATM   28  C26 UNL     1       6.269   1.922  18.539  1.00  0.00     0.013 A 
HETATM   29  C27 UNL     1       5.721   3.005  19.201  1.00  0.00     0.018 A 
BRANCH  27  30
HETATM   30  C19 UNL     1       8.212   0.484  18.081  1.00  0.00    -0.025 A 
HETATM   31  C20 UNL     1       9.517   0.114  18.397  1.00  0.00     0.012 A 
HETATM   32  C21 UNL     1      10.107  -0.959  17.764  1.00  0.00     0.001 A 
HETATM   33  C22 UNL     1       9.425  -1.683  16.812  1.00  0.00     0.009 A 
HETATM   34  C23 UNL     1       8.139  -1.333  16.488  1.00  0.00    -0.032 A 
HETATM   35  C25 UNL     1       7.567  -0.261  17.129  1.00  0.00     0.021 A 
BRANCH  34  36
HETATM   36  C24 UNL     1       7.340  -2.076  15.463  1.00  0.00     0.268 C 
BRANCH  36  37
HETATM   37  N4  UNL     1       8.332  -2.853  14.709  1.00  0.00    -0.075 N 
ATOM     38  H43 UNL     1       9.061  -2.287  14.277  1.00  0.00     0.274 HD
ATOM     39  H42 UNL     1       8.953  -3.413  15.295  1.00  0.00     0.274 HD
ATOM     40  H41 UNL     1       7.783  -3.400  14.046  1.00  0.00     0.274 HD
ENDBRANCH  36  37
ENDBRANCH  34  36
ENDBRANCH  27  30
ENDBRANCH   3  24
TORSDOF 11
ENDMDL
