MODEL 1
REMARK VINA RESULT: -10.606909166      0.000      0.000
REMARK  11 active torsions:
REMARK  status: ('A' for Active; 'I' for Inactive)
REMARK    1  A    between atoms: O1_2  and  C2_3 
REMARK    2  A    between atoms: C2_3  and  C3_5 
REMARK    3  A    between atoms: C3_5  and  C4_6 
REMARK    4  A    between atoms: C3_5  and  C12_18 
REMARK    5  A    between atoms: C4_6  and  C5_7 
REMARK    6  A    between atoms: C9_11  and  C10_12 
REMARK    7  A    between atoms: C12_18  and  N3_20 
REMARK       I    between atoms: N3_20  and  C14_22 
REMARK    8  A    between atoms: C14_22  and  C15_24 
REMARK    9  A    between atoms: C18_27  and  C19_28 
REMARK   10  A    between atoms: C23_32  and  C24_33 
REMARK   11  A    between atoms: C24_33  and  N4_34 
ROOT
HETATM    1  N3  UNL     1       5.724   5.670  22.202  1.00  0.00    -0.330 N 
ATOM      2  H3  UNL     1       6.512   5.993  21.640  1.00  0.00     0.168 HD
HETATM    3  C14 UNL     1       5.323   4.299  22.075  1.00  0.00     0.255 C 
HETATM    4  O3  UNL     1       4.366   3.907  22.755  1.00  0.00    -0.267 OA
ENDROOT
BRANCH   1   5
HETATM    5  C12 UNL     1       5.082   6.621  23.077  1.00  0.00    -0.000 C 
HETATM    6  C13 UNL     1       3.925   7.361  22.527  1.00  0.00     0.064 C 
BRANCH   5   7
HETATM    7  C3  UNL     1       5.996   7.388  23.975  1.00  0.00     0.135 C 
BRANCH   7   8
HETATM    8  C2  UNL     1       5.173   8.314  24.855  1.00  0.00     0.268 C 
HETATM    9  O2  UNL     1       5.492   9.517  24.874  1.00  0.00    -0.264 OA
BRANCH   8  10
HETATM   10  O1  UNL     1       4.126   7.870  25.601  1.00  0.00    -0.326 OA
HETATM   11  C1  UNL     1       3.040   8.693  25.944  1.00  0.00     0.213 C 
ENDBRANCH   8  10
ENDBRANCH   7   8
BRANCH   7  12
HETATM   12  C4  UNL     1       7.055   8.211  23.341  1.00  0.00     0.059 C 
BRANCH  12  13
HETATM   13  C5  UNL     1       8.314   8.384  24.070  1.00  0.00    -0.056 A 
HETATM   14  C6  UNL     1       9.266   9.310  23.662  1.00  0.00     0.007 A 
HETATM   15  C7  UNL     1      10.444   9.506  24.309  1.00  0.00     0.002 A 
HETATM   16  C8  UNL     1      10.732   8.774  25.413  1.00  0.00     0.015 A 
HETATM   17  C9  UNL     1       9.826   7.825  25.883  1.00  0.00     0.005 A 
HETATM   18  C11 UNL     1       8.661   7.656  25.213  1.00  0.00     0.022 A 
BRANCH  17  19
HETATM   19  C10 UNL     1      10.185   7.071  27.066  1.00  0.00     0.120 C 
HETATM   20  N1  UNL     1      11.571   6.920  27.445  1.00  0.00    -0.082 NA
HETATM   21  N2  UNL     1       9.328   6.501  27.838  1.00  0.00    -0.387 N 
ATOM     22  H22 UNL     1       8.349   6.607  27.572  1.00  0.00     0.157 HD
ATOM     23  H21 UNL     1       9.580   5.970  28.672  1.00  0.00     0.157 HD
ENDBRANCH  17  19
ENDBRANCH  12  13
ENDBRANCH   7  12
ENDBRANCH   5   7
ENDBRANCH   1   5
BRANCH   3  24
HETATM   24  C15 UNL     1       5.993   3.365  21.188  1.00  0.00     0.032 A 
HETATM   25  C16 UNL     1       5.431   2.154  20.886  1.00  0.00     0.018 A 
HETATM   26  C17 UNL     1       6.083   1.255  20.037  1.00  0.00     0.013 A 
HETATM   27  C18 UNL     1       7.304   1.594  19.500  1.00  0.00    -0.026 A 
HETATM   28  C26 UNL     1       7.889   2.798  19.784  1.00  0.00     0.013 A 
HETATM   29  C27 UNL     1       7.223   3.669  20.626  1.00  0.00     0.018 A 
BRANCH  27  30
HETATM   30  C19 UNL     1       7.970   0.639  18.607  1.00  0.00    -0.025 A 
HETATM   31  C20 UNL     1       7.280   0.099  17.523  1.00  0.00     0.012 A 
HETATM   32  C21 UNL     1       7.903  -0.799  16.683  1.00  0.00     0.001 A 
HETATM   33  C22 UNL     1       9.209  -1.179  16.894  1.00  0.00     0.009 A 
HETATM   34  C23 UNL     1       9.903  -0.658  17.956  1.00  0.00    -0.032 A 
HETATM   35  C25 UNL     1       9.267   0.236  18.783  1.00  0.00     0.021 A 
BRANCH  34  36
HETATM   36  C24 UNL     1      11.325  -1.028  18.243  1.00  0.00     0.268 C 
BRANCH  36  37
HETATM   37  N4  UNL     1      11.631  -2.102  17.289  1.00  0.00    -0.075 N 
ATOM     38  H43 UNL     1      12.561  -2.504  17.403  1.00  0.00     0.274 HD
ATOM     39  H42 UNL     1      11.111  -2.964  17.454  1.00  0.00     0.274 HD
ATOM     40  H41 UNL     1      11.467  -1.687  16.372  1.00  0.00     0.274 HD
ENDBRANCH  36  37
ENDBRANCH  34  36
ENDBRANCH  27  30
ENDBRANCH   3  24
TORSDOF 11
ENDMDL
