MODEL 10
REMARK VINA RESULT: -9.523062508      2.807      4.697
REMARK  11 active torsions:
REMARK  status: ('A' for Active; 'I' for Inactive)
REMARK    1  A    between atoms: O1_2  and  C2_3 
REMARK    2  A    between atoms: C2_3  and  C3_5 
REMARK    3  A    between atoms: C3_5  and  C4_6 
REMARK    4  A    between atoms: C3_5  and  C12_18 
REMARK    5  A    between atoms: C4_6  and  C5_7 
REMARK    6  A    between atoms: C9_11  and  C10_12 
REMARK    7  A    between atoms: C12_18  and  N3_20 
REMARK       I    between atoms: N3_20  and  C14_22 
REMARK    8  A    between atoms: C14_22  and  C15_24 
REMARK    9  A    between atoms: C18_27  and  C19_28 
REMARK   10  A    between atoms: C23_32  and  C24_33 
REMARK   11  A    between atoms: C24_33  and  N4_34 
ROOT
HETATM    1  N3  UNL     1       5.817   2.637  20.394  1.00  0.00    -0.330 N 
ATOM      2  H3  UNL     1       5.166   1.893  20.141  1.00  0.00     0.168 HD
HETATM    3  C14 UNL     1       7.156   2.562  19.884  1.00  0.00     0.255 C 
HETATM    4  O3  UNL     1       7.946   3.463  20.192  1.00  0.00    -0.267 OA
ENDROOT
BRANCH   1   5
HETATM    5  C12 UNL     1       5.334   3.700  21.241  1.00  0.00    -0.000 C 
HETATM    6  C13 UNL     1       4.603   3.302  22.463  1.00  0.00     0.064 C 
BRANCH   5   7
HETATM    7  C3  UNL     1       4.829   4.911  20.529  1.00  0.00     0.135 C 
BRANCH   7   8
HETATM    8  C2  UNL     1       4.305   4.507  19.161  1.00  0.00     0.268 C 
HETATM    9  O2  UNL     1       3.185   3.967  19.115  1.00  0.00    -0.264 OA
BRANCH   8  10
HETATM   10  O1  UNL     1       5.012   4.719  18.019  1.00  0.00    -0.326 OA
HETATM   11  C1  UNL     1       4.941   3.852  16.915  1.00  0.00     0.213 C 
ENDBRANCH   8  10
ENDBRANCH   7   8
BRANCH   7  12
HETATM   12  C4  UNL     1       5.776   6.035  20.321  1.00  0.00     0.059 C 
BRANCH  12  13
HETATM   13  C5  UNL     1       6.088   6.888  21.471  1.00  0.00    -0.056 A 
HETATM   14  C6  UNL     1       5.100   7.295  22.359  1.00  0.00     0.007 A 
HETATM   15  C7  UNL     1       5.345   8.081  23.439  1.00  0.00     0.002 A 
HETATM   16  C8  UNL     1       6.608   8.506  23.687  1.00  0.00     0.015 A 
HETATM   17  C9  UNL     1       7.652   8.138  22.840  1.00  0.00     0.005 A 
HETATM   18  C11 UNL     1       7.372   7.352  21.773  1.00  0.00     0.022 A 
BRANCH  17  19
HETATM   19  C10 UNL     1       8.982   8.620  23.152  1.00  0.00     0.120 C 
HETATM   20  N1  UNL     1       9.440   8.666  24.521  1.00  0.00    -0.082 NA
HETATM   21  N2  UNL     1       9.821   9.026  22.265  1.00  0.00    -0.387 N 
ATOM     22  H22 UNL     1       9.498   8.993  21.299  1.00  0.00     0.157 HD
ATOM     23  H21 UNL     1      10.758   9.365  22.485  1.00  0.00     0.157 HD
ENDBRANCH  17  19
ENDBRANCH  12  13
ENDBRANCH   7  12
ENDBRANCH   5   7
ENDBRANCH   1   5
BRANCH   3  24
HETATM   24  C15 UNL     1       7.611   1.481  19.029  1.00  0.00     0.032 A 
HETATM   25  C16 UNL     1       8.903   1.034  19.086  1.00  0.00     0.018 A 
HETATM   26  C17 UNL     1       9.338  -0.003  18.256  1.00  0.00     0.013 A 
HETATM   27  C18 UNL     1       8.455  -0.580  17.373  1.00  0.00    -0.026 A 
HETATM   28  C26 UNL     1       7.157  -0.154  17.295  1.00  0.00     0.013 A 
HETATM   29  C27 UNL     1       6.752   0.873  18.127  1.00  0.00     0.018 A 
BRANCH  27  30
HETATM   30  C19 UNL     1       8.930  -1.671  16.514  1.00  0.00    -0.025 A 
HETATM   31  C20 UNL     1       8.052  -2.297  15.631  1.00  0.00     0.012 A 
HETATM   32  C21 UNL     1       8.495  -3.323  14.824  1.00  0.00     0.001 A 
HETATM   33  C22 UNL     1       9.803  -3.748  14.871  1.00  0.00     0.009 A 
HETATM   34  C23 UNL     1      10.681  -3.144  15.734  1.00  0.00    -0.032 A 
HETATM   35  C25 UNL     1      10.223  -2.123  16.532  1.00  0.00     0.021 A 
BRANCH  34  36
HETATM   36  C24 UNL     1      12.116  -3.556  15.837  1.00  0.00     0.268 C 
BRANCH  36  37
HETATM   37  N4  UNL     1      12.761  -2.478  16.597  1.00  0.00    -0.075 N 
ATOM     38  H43 UNL     1      12.916  -1.626  16.058  1.00  0.00     0.274 HD
ATOM     39  H42 UNL     1      12.162  -2.057  17.308  1.00  0.00     0.274 HD
ATOM     40  H41 UNL     1      13.614  -2.897  16.968  1.00  0.00     0.274 HD
ENDBRANCH  36  37
ENDBRANCH  34  36
ENDBRANCH  27  30
ENDBRANCH   3  24
TORSDOF 11
ENDMDL
