MODEL 2
REMARK VINA RESULT: -10.492740803      0.774      1.600
REMARK  11 active torsions:
REMARK  status: ('A' for Active; 'I' for Inactive)
REMARK    1  A    between atoms: O1_2  and  C2_3 
REMARK    2  A    between atoms: C2_3  and  C3_5 
REMARK    3  A    between atoms: C3_5  and  C4_6 
REMARK    4  A    between atoms: C3_5  and  C12_18 
REMARK    5  A    between atoms: C4_6  and  C5_7 
REMARK    6  A    between atoms: C9_11  and  C10_12 
REMARK    7  A    between atoms: C12_18  and  N3_20 
REMARK       I    between atoms: N3_20  and  C14_22 
REMARK    8  A    between atoms: C14_22  and  C15_24 
REMARK    9  A    between atoms: C18_27  and  C19_28 
REMARK   10  A    between atoms: C23_32  and  C24_33 
REMARK   11  A    between atoms: C24_33  and  N4_34 
ROOT
HETATM    1  N3  UNL     1       5.716   5.726  22.255  1.00  0.00    -0.330 N 
ATOM      2  H3  UNL     1       6.497   6.053  21.686  1.00  0.00     0.168 HD
HETATM    3  C14 UNL     1       5.326   4.350  22.136  1.00  0.00     0.255 C 
HETATM    4  O3  UNL     1       4.378   3.954  22.825  1.00  0.00    -0.267 OA
ENDROOT
BRANCH   1   5
HETATM    5  C12 UNL     1       5.073   6.674  23.131  1.00  0.00    -0.000 C 
HETATM    6  C13 UNL     1       3.910   7.407  22.586  1.00  0.00     0.064 C 
BRANCH   5   7
HETATM    7  C3  UNL     1       5.987   7.447  24.024  1.00  0.00     0.135 C 
BRANCH   7   8
HETATM    8  C2  UNL     1       5.163   8.374  24.904  1.00  0.00     0.268 C 
HETATM    9  O2  UNL     1       5.472   9.579  24.910  1.00  0.00    -0.264 OA
BRANCH   8  10
HETATM   10  O1  UNL     1       4.127   7.926  25.662  1.00  0.00    -0.326 OA
HETATM   11  C1  UNL     1       3.000   8.717  25.944  1.00  0.00     0.213 C 
ENDBRANCH   8  10
ENDBRANCH   7   8
BRANCH   7  12
HETATM   12  C4  UNL     1       7.042   8.272  23.385  1.00  0.00     0.059 C 
BRANCH  12  13
HETATM   13  C5  UNL     1       8.319   8.415  24.089  1.00  0.00    -0.056 A 
HETATM   14  C6  UNL     1       9.294   9.300  23.647  1.00  0.00     0.007 A 
HETATM   15  C7  UNL     1      10.489   9.467  24.269  1.00  0.00     0.002 A 
HETATM   16  C8  UNL     1      10.772   8.746  25.382  1.00  0.00     0.015 A 
HETATM   17  C9  UNL     1       9.842   7.838  25.886  1.00  0.00     0.005 A 
HETATM   18  C11 UNL     1       8.660   7.697  25.239  1.00  0.00     0.022 A 
BRANCH  17  19
HETATM   19  C10 UNL     1      10.196   7.094  27.078  1.00  0.00     0.120 C 
HETATM   20  N1  UNL     1      11.580   6.942  27.460  1.00  0.00    -0.082 NA
HETATM   21  N2  UNL     1       9.335   6.536  27.854  1.00  0.00    -0.387 N 
ATOM     22  H22 UNL     1       8.357   6.644  27.584  1.00  0.00     0.157 HD
ATOM     23  H21 UNL     1       9.583   6.012  28.693  1.00  0.00     0.157 HD
ENDBRANCH  17  19
ENDBRANCH  12  13
ENDBRANCH   7  12
ENDBRANCH   5   7
ENDBRANCH   1   5
BRANCH   3  24
HETATM   24  C15 UNL     1       5.997   3.419  21.247  1.00  0.00     0.032 A 
HETATM   25  C16 UNL     1       7.194   3.738  20.666  1.00  0.00     0.018 A 
HETATM   26  C17 UNL     1       7.832   2.841  19.805  1.00  0.00     0.013 A 
HETATM   27  C18 UNL     1       7.248   1.624  19.540  1.00  0.00    -0.026 A 
HETATM   28  C26 UNL     1       6.052   1.278  20.107  1.00  0.00     0.013 A 
HETATM   29  C27 UNL     1       5.442   2.183  20.956  1.00  0.00     0.018 A 
BRANCH  27  30
HETATM   30  C19 UNL     1       7.936   0.693  18.638  1.00  0.00    -0.025 A 
HETATM   31  C20 UNL     1       9.303   0.463  18.782  1.00  0.00     0.012 A 
HETATM   32  C21 UNL     1       9.952  -0.410  17.936  1.00  0.00     0.001 A 
HETATM   33  C22 UNL     1       9.271  -1.068  16.937  1.00  0.00     0.009 A 
HETATM   34  C23 UNL     1       7.925  -0.853  16.780  1.00  0.00    -0.032 A 
HETATM   35  C25 UNL     1       7.294   0.020  17.632  1.00  0.00     0.021 A 
BRANCH  34  36
HETATM   36  C24 UNL     1       7.124  -1.535  15.715  1.00  0.00     0.268 C 
BRANCH  36  37
HETATM   37  N4  UNL     1       8.055  -2.491  15.102  1.00  0.00    -0.075 N 
ATOM     38  H43 UNL     1       8.994  -2.121  14.959  1.00  0.00     0.274 HD
ATOM     39  H42 UNL     1       8.326  -3.259  15.717  1.00  0.00     0.274 HD
ATOM     40  H41 UNL     1       7.591  -2.790  14.244  1.00  0.00     0.274 HD
ENDBRANCH  36  37
ENDBRANCH  34  36
ENDBRANCH  27  30
ENDBRANCH   3  24
TORSDOF 11
ENDMDL
