MODEL 15
REMARK VINA RESULT: -9.262616264      3.024      4.763
REMARK  11 active torsions:
REMARK  status: ('A' for Active; 'I' for Inactive)
REMARK    1  A    between atoms: O1_2  and  C2_3 
REMARK    2  A    between atoms: C2_3  and  C3_5 
REMARK    3  A    between atoms: C3_5  and  C4_6 
REMARK    4  A    between atoms: C3_5  and  C12_18 
REMARK    5  A    between atoms: C4_6  and  C5_7 
REMARK    6  A    between atoms: C9_11  and  C10_12 
REMARK    7  A    between atoms: C12_18  and  N3_20 
REMARK       I    between atoms: N3_20  and  C14_22 
REMARK    8  A    between atoms: C14_22  and  C15_24 
REMARK    9  A    between atoms: C18_27  and  C19_28 
REMARK   10  A    between atoms: C23_32  and  C24_33 
REMARK   11  A    between atoms: C24_33  and  N4_34 
ROOT
HETATM    1  N3  UNL     1       5.325   2.850  19.583  1.00  0.00    -0.330 N 
ATOM      2  H3  UNL     1       4.780   2.095  19.166  1.00  0.00     0.168 HD
HETATM    3  C14 UNL     1       6.755   2.782  19.486  1.00  0.00     0.255 C 
HETATM    4  O3  UNL     1       7.416   3.696  19.995  1.00  0.00    -0.267 OA
ENDROOT
BRANCH   1   5
HETATM    5  C12 UNL     1       4.610   3.921  20.234  1.00  0.00    -0.000 C 
HETATM    6  C13 UNL     1       4.286   5.106  19.412  1.00  0.00     0.064 C 
BRANCH   5   7
HETATM    7  C3  UNL     1       4.996   4.182  21.653  1.00  0.00     0.135 C 
BRANCH   7   8
HETATM    8  C2  UNL     1       4.520   3.029  22.522  1.00  0.00     0.268 C 
HETATM    9  O2  UNL     1       3.732   3.298  23.447  1.00  0.00    -0.264 OA
BRANCH   8  10
HETATM   10  O1  UNL     1       4.926   1.747  22.316  1.00  0.00    -0.326 OA
HETATM   11  C1  UNL     1       4.025   0.670  22.262  1.00  0.00     0.213 C 
ENDBRANCH   8  10
ENDBRANCH   7   8
BRANCH   7  12
HETATM   12  C4  UNL     1       4.508   5.435  22.282  1.00  0.00     0.059 C 
BRANCH  12  13
HETATM   13  C5  UNL     1       5.502   6.448  22.647  1.00  0.00    -0.056 A 
HETATM   14  C6  UNL     1       5.493   7.052  23.898  1.00  0.00     0.007 A 
HETATM   15  C7  UNL     1       6.396   7.992  24.279  1.00  0.00     0.002 A 
HETATM   16  C8  UNL     1       7.366   8.380  23.415  1.00  0.00     0.015 A 
HETATM   17  C9  UNL     1       7.439   7.817  22.142  1.00  0.00     0.005 A 
HETATM   18  C11 UNL     1       6.522   6.883  21.795  1.00  0.00     0.022 A 
BRANCH  17  19
HETATM   19  C10 UNL     1       8.496   8.268  21.260  1.00  0.00     0.120 C 
HETATM   20  N1  UNL     1       8.400   8.053  19.835  1.00  0.00    -0.082 NA
HETATM   21  N2  UNL     1       9.557   8.871  21.666  1.00  0.00    -0.387 N 
ATOM     22  H22 UNL     1       9.626   9.023  22.672  1.00  0.00     0.157 HD
ATOM     23  H21 UNL     1      10.302   9.188  21.045  1.00  0.00     0.157 HD
ENDBRANCH  17  19
ENDBRANCH  12  13
ENDBRANCH   7  12
ENDBRANCH   5   7
ENDBRANCH   1   5
BRANCH   3  24
HETATM   24  C15 UNL     1       7.444   1.692  18.821  1.00  0.00     0.032 A 
HETATM   25  C16 UNL     1       6.834   0.972  17.829  1.00  0.00     0.018 A 
HETATM   26  C17 UNL     1       7.499  -0.081  17.197  1.00  0.00     0.013 A 
HETATM   27  C18 UNL     1       8.784  -0.396  17.576  1.00  0.00    -0.026 A 
HETATM   28  C26 UNL     1       9.419   0.306  18.564  1.00  0.00     0.013 A 
HETATM   29  C27 UNL     1       8.739   1.343  19.173  1.00  0.00     0.018 A 
BRANCH  27  30
HETATM   30  C19 UNL     1       9.468  -1.503  16.896  1.00  0.00    -0.025 A 
HETATM   31  C20 UNL     1      10.760  -1.860  17.272  1.00  0.00     0.012 A 
HETATM   32  C21 UNL     1      11.406  -2.898  16.634  1.00  0.00     0.001 A 
HETATM   33  C22 UNL     1      10.792  -3.598  15.619  1.00  0.00     0.009 A 
HETATM   34  C23 UNL     1       9.520  -3.259  15.236  1.00  0.00    -0.032 A 
HETATM   35  C25 UNL     1       8.892  -2.222  15.882  1.00  0.00     0.021 A 
BRANCH  34  36
HETATM   36  C24 UNL     1       8.795  -3.977  14.141  1.00  0.00     0.268 C 
BRANCH  36  37
HETATM   37  N4  UNL     1       8.587  -2.960  13.102  1.00  0.00    -0.075 N 
ATOM     38  H43 UNL     1       8.111  -2.122  13.431  1.00  0.00     0.274 HD
ATOM     39  H42 UNL     1       9.444  -2.495  12.799  1.00  0.00     0.274 HD
ATOM     40  H41 UNL     1       8.095  -3.451  12.355  1.00  0.00     0.274 HD
ENDBRANCH  36  37
ENDBRANCH  34  36
ENDBRANCH  27  30
ENDBRANCH   3  24
TORSDOF 11
ENDMDL
