MODEL 16
REMARK VINA RESULT: -9.248950586      3.226      5.107
REMARK  11 active torsions:
REMARK  status: ('A' for Active; 'I' for Inactive)
REMARK    1  A    between atoms: O1_2  and  C2_3 
REMARK    2  A    between atoms: C2_3  and  C3_5 
REMARK    3  A    between atoms: C3_5  and  C4_6 
REMARK    4  A    between atoms: C3_5  and  C12_18 
REMARK    5  A    between atoms: C4_6  and  C5_7 
REMARK    6  A    between atoms: C9_11  and  C10_12 
REMARK    7  A    between atoms: C12_18  and  N3_20 
REMARK       I    between atoms: N3_20  and  C14_22 
REMARK    8  A    between atoms: C14_22  and  C15_24 
REMARK    9  A    between atoms: C18_27  and  C19_28 
REMARK   10  A    between atoms: C23_32  and  C24_33 
REMARK   11  A    between atoms: C24_33  and  N4_34 
ROOT
HETATM    1  N3  UNL     1       5.878   2.664  20.213  1.00  0.00    -0.330 N 
ATOM      2  H3  UNL     1       5.256   1.911  19.920  1.00  0.00     0.168 HD
HETATM    3  C14 UNL     1       7.253   2.597  19.810  1.00  0.00     0.255 C 
HETATM    4  O3  UNL     1       8.009   3.509  20.169  1.00  0.00    -0.267 OA
ENDROOT
BRANCH   1   5
HETATM    5  C12 UNL     1       5.321   3.731  21.008  1.00  0.00    -0.000 C 
HETATM    6  C13 UNL     1       4.615   3.344  22.248  1.00  0.00     0.064 C 
BRANCH   5   7
HETATM    7  C3  UNL     1       4.737   4.869  20.238  1.00  0.00     0.135 C 
BRANCH   7   8
HETATM    8  C2  UNL     1       4.257   4.366  18.886  1.00  0.00     0.268 C 
HETATM    9  O2  UNL     1       3.161   3.778  18.851  1.00  0.00    -0.264 OA
BRANCH   8  10
HETATM   10  O1  UNL     1       4.979   4.541  17.747  1.00  0.00    -0.326 OA
HETATM   11  C1  UNL     1       5.002   3.590  16.713  1.00  0.00     0.213 C 
ENDBRANCH   8  10
ENDBRANCH   7   8
BRANCH   7  12
HETATM   12  C4  UNL     1       5.601   6.048  19.985  1.00  0.00     0.059 C 
BRANCH  12  13
HETATM   13  C5  UNL     1       5.946   6.900  21.126  1.00  0.00    -0.056 A 
HETATM   14  C6  UNL     1       5.040   7.137  22.152  1.00  0.00     0.007 A 
HETATM   15  C7  UNL     1       5.318   7.916  23.229  1.00  0.00     0.002 A 
HETATM   16  C8  UNL     1       6.534   8.506  23.335  1.00  0.00     0.015 A 
HETATM   17  C9  UNL     1       7.496   8.314  22.344  1.00  0.00     0.005 A 
HETATM   18  C11 UNL     1       7.184   7.531  21.284  1.00  0.00     0.022 A 
BRANCH  17  19
HETATM   19  C10 UNL     1       8.778   8.968  22.507  1.00  0.00     0.120 C 
HETATM   20  N1  UNL     1       9.124   9.598  23.760  1.00  0.00    -0.082 NA
HETATM   21  N2  UNL     1       9.670   9.032  21.581  1.00  0.00    -0.387 N 
ATOM     22  H22 UNL     1       9.426   8.588  20.696  1.00  0.00     0.157 HD
ATOM     23  H21 UNL     1      10.573   9.493  21.695  1.00  0.00     0.157 HD
ENDBRANCH  17  19
ENDBRANCH  12  13
ENDBRANCH   7  12
ENDBRANCH   5   7
ENDBRANCH   1   5
BRANCH   3  24
HETATM   24  C15 UNL     1       7.783   1.510  19.007  1.00  0.00     0.032 A 
HETATM   25  C16 UNL     1       6.982   0.824  18.134  1.00  0.00     0.018 A 
HETATM   26  C17 UNL     1       7.495  -0.226  17.368  1.00  0.00     0.013 A 
HETATM   27  C18 UNL     1       8.821  -0.572  17.494  1.00  0.00    -0.026 A 
HETATM   28  C26 UNL     1       9.645   0.095  18.359  1.00  0.00     0.013 A 
HETATM   29  C27 UNL     1       9.112   1.131  19.104  1.00  0.00     0.018 A 
BRANCH  27  30
HETATM   30  C19 UNL     1       9.342  -1.675  16.677  1.00  0.00    -0.025 A 
HETATM   31  C20 UNL     1      10.644  -2.131  16.869  1.00  0.00     0.012 A 
HETATM   32  C21 UNL     1      11.136  -3.166  16.102  1.00  0.00     0.001 A 
HETATM   33  C22 UNL     1      10.358  -3.766  15.137  1.00  0.00     0.009 A 
HETATM   34  C23 UNL     1       9.074  -3.329  14.934  1.00  0.00    -0.032 A 
HETATM   35  C25 UNL     1       8.600  -2.297  15.707  1.00  0.00     0.021 A 
BRANCH  34  36
HETATM   36  C24 UNL     1       8.175  -3.936  13.903  1.00  0.00     0.268 C 
BRANCH  36  37
HETATM   37  N4  UNL     1       7.811  -2.819  13.022  1.00  0.00    -0.075 N 
ATOM     38  H43 UNL     1       8.203  -2.886  12.083  1.00  0.00     0.274 HD
ATOM     39  H42 UNL     1       6.831  -2.816  12.738  1.00  0.00     0.274 HD
ATOM     40  H41 UNL     1       8.097  -1.983  13.533  1.00  0.00     0.274 HD
ENDBRANCH  36  37
ENDBRANCH  34  36
ENDBRANCH  27  30
ENDBRANCH   3  24
TORSDOF 11
ENDMDL
