MODEL 1
REMARK VINA RESULT: -7.045468550      0.000      0.000
REMARK  7 active torsions:
REMARK  status: ('A' for Active; 'I' for Inactive)
REMARK    1  A    between atoms: C2_2  and  C3_3 
REMARK    2  A    between atoms: C2_2  and  C8_14 
REMARK    3  A    between atoms: C3_3  and  C4_4 
REMARK    4  A    between atoms: C4_4  and  C5_5 
REMARK    5  A    between atoms: C5_5  and  C6_6 
REMARK    6  A    between atoms: C6_6  and  N1_7 
REMARK    7  A    between atoms: C6_6  and  C7_11 
ROOT
HETATM    1  C5  UNL     1      11.027  33.506  37.678  1.00  0.00     0.044 C 
ENDROOT
BRANCH   1   2
HETATM    2  C4  UNL     1      10.289  34.511  38.511  1.00  0.00     0.007 C 
BRANCH   2   3
HETATM    3  C3  UNL     1      11.189  35.554  39.086  1.00  0.00     0.045 C 
BRANCH   3   4
HETATM    4  C2  UNL     1      11.100  35.668  40.548  1.00  0.00     0.009 C 
HETATM    5  C1  UNL     1      10.151  35.010  41.189  1.00  0.00     0.026 C 
BRANCH   4   6
HETATM    6  C8  UNL     1      12.024  36.483  41.295  1.00  0.00     0.204 C 
HETATM    7  O3  UNL     1      12.085  36.422  42.557  1.00  0.00    -0.644 OA
HETATM    8  O4  UNL     1      12.867  37.350  40.648  1.00  0.00    -0.644 OA
ENDBRANCH   4   6
ENDBRANCH   3   4
ENDBRANCH   2   3
ENDBRANCH   1   2
BRANCH   1   9
HETATM    9  C6  UNL     1      12.108  32.798  38.449  1.00  0.00     0.283 C 
BRANCH   9  10
HETATM   10  N1  UNL     1      13.405  32.938  37.791  1.00  0.00    -0.065 N 
ATOM     11  H13 UNL     1      13.340  33.516  36.954  1.00  0.00     0.275 HD
ATOM     12  H12 UNL     1      14.040  33.522  38.336  1.00  0.00     0.275 HD
ATOM     13  H11 UNL     1      13.816  32.027  37.587  1.00  0.00     0.275 HD
ENDBRANCH   9  10
BRANCH   9  14
HETATM   14  C7  UNL     1      11.728  31.358  38.485  1.00  0.00     0.204 C 
HETATM   15  O1  UNL     1      10.757  30.976  37.805  1.00  0.00    -0.646 OA
HETATM   16  O2  UNL     1      12.455  30.478  39.269  1.00  0.00    -0.646 OA
ENDBRANCH   9  14
ENDBRANCH   1   9
TORSDOF 7
ENDMDL
