MODEL 8
REMARK VINA RESULT: -6.646430020      2.021      5.232
REMARK  7 active torsions:
REMARK  status: ('A' for Active; 'I' for Inactive)
REMARK    1  A    between atoms: C2_2  and  C3_3 
REMARK    2  A    between atoms: C2_2  and  C8_14 
REMARK    3  A    between atoms: C3_3  and  C4_4 
REMARK    4  A    between atoms: C4_4  and  C5_5 
REMARK    5  A    between atoms: C5_5  and  C6_6 
REMARK    6  A    between atoms: C6_6  and  N1_7 
REMARK    7  A    between atoms: C6_6  and  C7_11 
ROOT
HETATM    1  C5  UNL     1      10.554  35.084  39.237  1.00  0.00     0.044 C 
ENDROOT
BRANCH   1   2
HETATM    2  C4  UNL     1      10.584  34.109  38.099  1.00  0.00     0.007 C 
BRANCH   2   3
HETATM    3  C3  UNL     1      10.584  32.689  38.558  1.00  0.00     0.045 C 
BRANCH   3   4
HETATM    4  C2  UNL     1      11.475  31.818  37.779  1.00  0.00     0.009 C 
HETATM    5  C1  UNL     1      11.799  32.165  36.547  1.00  0.00     0.026 C 
BRANCH   4   6
HETATM    6  C8  UNL     1      11.999  30.594  38.330  1.00  0.00     0.204 C 
HETATM    7  O3  UNL     1      11.770  29.475  37.786  1.00  0.00    -0.644 OA
HETATM    8  O4  UNL     1      12.765  30.616  39.467  1.00  0.00    -0.644 OA
ENDBRANCH   4   6
ENDBRANCH   3   4
ENDBRANCH   2   3
ENDBRANCH   1   2
BRANCH   1   9
HETATM    9  C6  UNL     1      10.636  34.410  40.580  1.00  0.00     0.283 C 
BRANCH   9  10
HETATM   10  N1  UNL     1       9.437  34.666  41.374  1.00  0.00    -0.065 N 
ATOM     11  H13 UNL     1       9.548  34.342  42.335  1.00  0.00     0.275 HD
ATOM     12  H12 UNL     1       9.314  35.662  41.558  1.00  0.00     0.275 HD
ATOM     13  H11 UNL     1       8.609  34.262  40.936  1.00  0.00     0.275 HD
ENDBRANCH   9  10
BRANCH   9  14
HETATM   14  C7  UNL     1      11.819  34.990  41.274  1.00  0.00     0.204 C 
HETATM   15  O1  UNL     1      11.637  35.865  42.140  1.00  0.00    -0.646 OA
HETATM   16  O2  UNL     1      13.089  34.549  40.944  1.00  0.00    -0.646 OA
ENDBRANCH   9  14
ENDBRANCH   1   9
TORSDOF 7
ENDMDL
