MODEL 2
REMARK VINA RESULT: -7.035829695      1.044      1.616
REMARK  7 active torsions:
REMARK  status: ('A' for Active; 'I' for Inactive)
REMARK    1  A    between atoms: C2_2  and  C3_3 
REMARK    2  A    between atoms: C2_2  and  C8_14 
REMARK    3  A    between atoms: C3_3  and  C4_4 
REMARK    4  A    between atoms: C4_4  and  C5_5 
REMARK    5  A    between atoms: C5_5  and  C6_6 
REMARK    6  A    between atoms: C6_6  and  N1_7 
REMARK    7  A    between atoms: C6_6  and  C7_11 
ROOT
HETATM    1  C5  UNL     1      11.098  33.151  37.287  1.00  0.00     0.044 C 
ENDROOT
BRANCH   1   2
HETATM    2  C4  UNL     1      10.651  34.525  37.689  1.00  0.00     0.007 C 
BRANCH   2   3
HETATM    3  C3  UNL     1      10.164  34.583  39.099  1.00  0.00     0.045 C 
BRANCH   3   4
HETATM    4  C2  UNL     1      11.044  35.344  39.995  1.00  0.00     0.009 C 
HETATM    5  C1  UNL     1      11.832  36.273  39.488  1.00  0.00     0.026 C 
BRANCH   4   6
HETATM    6  C8  UNL     1      11.066  35.095  41.415  1.00  0.00     0.204 C 
HETATM    7  O3  UNL     1      11.811  35.762  42.189  1.00  0.00    -0.644 OA
HETATM    8  O4  UNL     1      10.271  34.121  41.962  1.00  0.00    -0.644 OA
ENDBRANCH   4   6
ENDBRANCH   3   4
ENDBRANCH   2   3
ENDBRANCH   1   2
BRANCH   1   9
HETATM    9  C6  UNL     1      12.229  32.639  38.137  1.00  0.00     0.283 C 
BRANCH   9  10
HETATM   10  N1  UNL     1      13.481  32.604  37.387  1.00  0.00    -0.065 N 
ATOM     11  H13 UNL     1      13.548  33.384  36.732  1.00  0.00     0.275 HD
ATOM     12  H12 UNL     1      14.280  32.829  37.980  1.00  0.00     0.275 HD
ATOM     13  H11 UNL     1      13.606  31.708  36.915  1.00  0.00     0.275 HD
ENDBRANCH   9  10
BRANCH   9  14
HETATM   14  C7  UNL     1      11.860  31.254  38.543  1.00  0.00     0.204 C 
HETATM   15  O1  UNL     1      10.752  30.803  38.198  1.00  0.00    -0.646 OA
HETATM   16  O2  UNL     1      12.748  30.500  39.291  1.00  0.00    -0.646 OA
ENDBRANCH   9  14
ENDBRANCH   1   9
TORSDOF 7
ENDMDL
