MODEL 13
REMARK VINA RESULT: -6.556661198      1.662      5.248
REMARK  7 active torsions:
REMARK  status: ('A' for Active; 'I' for Inactive)
REMARK    1  A    between atoms: C2_2  and  C3_3 
REMARK    2  A    between atoms: C2_2  and  C8_14 
REMARK    3  A    between atoms: C3_3  and  C4_4 
REMARK    4  A    between atoms: C4_4  and  C5_5 
REMARK    5  A    between atoms: C5_5  and  C6_6 
REMARK    6  A    between atoms: C6_6  and  N1_7 
REMARK    7  A    between atoms: C6_6  and  C7_11 
ROOT
HETATM    1  C5  UNL     1      10.249  34.272  39.199  1.00  0.00     0.044 C 
ENDROOT
BRANCH   1   2
HETATM    2  C4  UNL     1      10.460  32.866  38.722  1.00  0.00     0.007 C 
BRANCH   2   3
HETATM    3  C3  UNL     1      11.251  32.800  37.458  1.00  0.00     0.045 C 
BRANCH   3   4
HETATM    4  C2  UNL     1      12.343  31.818  37.497  1.00  0.00     0.009 C 
HETATM    5  C1  UNL     1      13.387  31.985  36.708  1.00  0.00     0.026 C 
BRANCH   4   6
HETATM    6  C8  UNL     1      12.296  30.678  38.378  1.00  0.00     0.204 C 
HETATM    7  O3  UNL     1      12.847  30.702  39.516  1.00  0.00    -0.644 OA
HETATM    8  O4  UNL     1      11.647  29.532  37.997  1.00  0.00    -0.644 OA
ENDBRANCH   4   6
ENDBRANCH   3   4
ENDBRANCH   2   3
ENDBRANCH   1   2
BRANCH   1   9
HETATM    9  C6  UNL     1      11.355  34.751  40.099  1.00  0.00     0.283 C 
BRANCH   9  10
HETATM   10  N1  UNL     1      12.196  33.641  40.541  1.00  0.00    -0.065 N 
ATOM     11  H13 UNL     1      11.795  32.741  40.280  1.00  0.00     0.275 HD
ATOM     12  H12 UNL     1      13.062  33.590  40.003  1.00  0.00     0.275 HD
ATOM     13  H11 UNL     1      12.380  33.693  41.542  1.00  0.00     0.275 HD
ENDBRANCH   9  10
BRANCH   9  14
HETATM   14  C7  UNL     1      10.700  35.374  41.283  1.00  0.00     0.204 C 
HETATM   15  O1  UNL     1      11.314  36.251  41.916  1.00  0.00    -0.646 OA
HETATM   16  O2  UNL     1       9.429  34.966  41.653  1.00  0.00    -0.646 OA
ENDBRANCH   9  14
ENDBRANCH   1   9
TORSDOF 7
ENDMDL
