MODEL 3
REMARK VINA RESULT: -7.018927335      1.065      1.790
REMARK  7 active torsions:
REMARK  status: ('A' for Active; 'I' for Inactive)
REMARK    1  A    between atoms: C2_2  and  C3_3 
REMARK    2  A    between atoms: C2_2  and  C8_14 
REMARK    3  A    between atoms: C3_3  and  C4_4 
REMARK    4  A    between atoms: C4_4  and  C5_5 
REMARK    5  A    between atoms: C5_5  and  C6_6 
REMARK    6  A    between atoms: C6_6  and  N1_7 
REMARK    7  A    between atoms: C6_6  and  C7_11 
ROOT
HETATM    1  C5  UNL     1      11.163  32.926  37.287  1.00  0.00     0.044 C 
ENDROOT
BRANCH   1   2
HETATM    2  C4  UNL     1      10.701  34.315  37.615  1.00  0.00     0.007 C 
BRANCH   2   3
HETATM    3  C3  UNL     1      10.143  34.424  38.995  1.00  0.00     0.045 C 
BRANCH   3   4
HETATM    4  C2  UNL     1      10.896  35.336  39.865  1.00  0.00     0.009 C 
HETATM    5  C1  UNL     1      11.798  36.139  39.331  1.00  0.00     0.026 C 
BRANCH   4   6
HETATM    6  C8  UNL     1      10.673  35.371  41.289  1.00  0.00     0.204 C 
HETATM    7  O3  UNL     1       9.548  35.080  41.786  1.00  0.00    -0.644 OA
HETATM    8  O4  UNL     1      11.687  35.722  42.143  1.00  0.00    -0.644 OA
ENDBRANCH   4   6
ENDBRANCH   3   4
ENDBRANCH   2   3
ENDBRANCH   1   2
BRANCH   1   9
HETATM    9  C6  UNL     1      12.354  32.503  38.103  1.00  0.00     0.283 C 
BRANCH   9  10
HETATM   10  N1  UNL     1      13.594  32.650  37.345  1.00  0.00    -0.065 N 
ATOM     11  H13 UNL     1      13.896  33.623  37.305  1.00  0.00     0.275 HD
ATOM     12  H12 UNL     1      14.390  32.259  37.849  1.00  0.00     0.275 HD
ATOM     13  H11 UNL     1      13.507  32.247  36.412  1.00  0.00     0.275 HD
ENDBRANCH   9  10
BRANCH   9  14
HETATM   14  C7  UNL     1      12.149  31.066  38.438  1.00  0.00     0.204 C 
HETATM   15  O1  UNL     1      12.755  30.586  39.413  1.00  0.00    -0.646 OA
HETATM   16  O2  UNL     1      11.296  30.299  37.664  1.00  0.00    -0.646 OA
ENDBRANCH   9  14
ENDBRANCH   1   9
TORSDOF 7
ENDMDL
