MODEL 2
REMARK VINA RESULT: -10.077829089      1.054      1.290
REMARK  5 active torsions:
REMARK  status: ('A' for Active; 'I' for Inactive)
REMARK    1  A    between atoms: C7_10  and  C8_11 
REMARK    2  A    between atoms: C8_11  and  N3_12 
REMARK    3  A    between atoms: C11_15  and  N4_16 
REMARK    4  A    between atoms: N4_16  and  S1_18 
REMARK    5  A    between atoms: S1_18  and  C12_21 
ROOT
HETATM    1  N3  UNL     1       4.299   3.495  20.679  1.00  0.00    -0.346 N 
HETATM    2  C9  UNL     1       3.999   4.423  19.581  1.00  0.00     0.129 C 
HETATM    3  C10 UNL     1       3.580   5.693  20.320  1.00  0.00     0.055 C 
HETATM    4  C11 UNL     1       4.491   5.667  21.510  1.00  0.00     0.186 C 
HETATM    5  C19 UNL     1       4.456   4.223  21.891  1.00  0.00     0.243 C 
HETATM    6  O3  UNL     1       4.544   3.731  23.048  1.00  0.00    -0.271 OA
ENDROOT
BRANCH   4   7
HETATM    7  N4  UNL     1       5.874   5.928  21.090  1.00  0.00    -0.301 N 
ATOM      8  H4  UNL     1       6.537   5.216  20.782  1.00  0.00     0.173 HD
BRANCH   7   9
HETATM    9  S1  UNL     1       6.212   7.618  21.195  1.00  0.00     0.266 S 
HETATM   10  O1  UNL     1       4.951   8.296  21.672  1.00  0.00    -0.200 OA
HETATM   11  O2  UNL     1       6.601   8.222  19.901  1.00  0.00    -0.200 OA
BRANCH   9  12
HETATM   12  C12 UNL     1       7.442   7.915  22.434  1.00  0.00     0.123 A 
HETATM   13  C13 UNL     1       8.633   8.569  22.291  1.00  0.00     0.063 A 
HETATM   14  C14 UNL     1       9.418   8.677  23.380  1.00  0.00     0.051 A 
HETATM   15  N5  UNL     1      10.642   9.287  23.464  1.00  0.00    -0.365 N 
HETATM   16  C18 UNL     1       8.957   8.121  24.539  1.00  0.00     0.033 A 
HETATM   17  C15 UNL     1      11.354   9.346  24.589  1.00  0.00     0.088 A 
ATOM     18  H5  UNL     1      11.026   9.718  22.624  1.00  0.00     0.165 HD
HETATM   19  C16 UNL     1      10.921   8.799  25.771  1.00  0.00     0.018 A 
HETATM   20  C17 UNL     1       9.697   8.176  25.736  1.00  0.00     0.022 A 
HETATM   21  S2  UNL     1       7.449   7.467  24.078  1.00  0.00    -0.074 SA
ENDBRANCH   9  12
ENDBRANCH   7   9
ENDBRANCH   4   7
BRANCH   1  22
HETATM   22  C8  UNL     1       4.421   2.065  20.561  1.00  0.00     0.164 C 
BRANCH  22  23
HETATM   23  C7  UNL     1       5.712   1.636  19.983  1.00  0.00    -0.039 A 
HETATM   24  C6  UNL     1       6.849   1.764  20.750  1.00  0.00     0.010 A 
HETATM   25  C5  UNL     1       8.056   1.364  20.215  1.00  0.00     0.013 A 
HETATM   26  C4  UNL     1       8.107   0.841  18.921  1.00  0.00    -0.021 A 
HETATM   27  C3  UNL     1       9.309   0.438  18.373  1.00  0.00     0.029 A 
HETATM   28  C21 UNL     1       6.957   0.720  18.168  1.00  0.00     0.016 A 
HETATM   29  C2  UNL     1       9.300  -0.068  17.101  1.00  0.00     0.090 A 
HETATM   30  N2  UNL     1       8.165  -0.175  16.389  1.00  0.00    -0.354 N 
HETATM   31  C1  UNL     1       6.973   0.206  16.882  1.00  0.00     0.127 A 
ATOM     32  H2  UNL     1       8.209  -0.557  15.445  1.00  0.00     0.166 HD
HETATM   33  N1  UNL     1       5.757   0.104  16.151  1.00  0.00    -0.082 NA
HETATM   34  C20 UNL     1       5.726   1.123  18.699  1.00  0.00     0.024 A 
ENDBRANCH  22  23
ENDBRANCH   1  22
TORSDOF 5
ENDMDL
