MODEL 3
REMARK VINA RESULT: -9.827383004      0.943      1.089
REMARK  5 active torsions:
REMARK  status: ('A' for Active; 'I' for Inactive)
REMARK    1  A    between atoms: C7_10  and  C8_11 
REMARK    2  A    between atoms: C8_11  and  N3_12 
REMARK    3  A    between atoms: C11_15  and  N4_16 
REMARK    4  A    between atoms: N4_16  and  S1_18 
REMARK    5  A    between atoms: S1_18  and  C12_21 
ROOT
HETATM    1  N3  UNL     1       4.700   4.046  20.261  1.00  0.00    -0.346 N 
HETATM    2  C9  UNL     1       5.409   4.919  19.317  1.00  0.00     0.129 C 
HETATM    3  C10 UNL     1       4.772   6.283  19.580  1.00  0.00     0.055 C 
HETATM    4  C11 UNL     1       4.545   6.232  21.060  1.00  0.00     0.186 C 
HETATM    5  C19 UNL     1       4.045   4.837  21.245  1.00  0.00     0.243 C 
HETATM    6  O3  UNL     1       3.210   4.426  22.095  1.00  0.00    -0.271 OA
ENDROOT
BRANCH   4   7
HETATM    7  N4  UNL     1       5.830   6.286  21.769  1.00  0.00    -0.301 N 
ATOM      8  H4  UNL     1       6.693   5.846  21.450  1.00  0.00     0.173 HD
BRANCH   7   9
HETATM    9  S1  UNL     1       5.664   7.204  23.222  1.00  0.00     0.266 S 
HETATM   10  O1  UNL     1       5.087   6.281  24.268  1.00  0.00    -0.200 OA
HETATM   11  O2  UNL     1       4.762   8.368  23.082  1.00  0.00    -0.200 OA
BRANCH   9  12
HETATM   12  C12 UNL     1       7.259   7.699  23.813  1.00  0.00     0.123 A 
HETATM   13  C13 UNL     1       7.868   7.334  24.979  1.00  0.00     0.063 A 
HETATM   14  C14 UNL     1       9.093   7.837  25.224  1.00  0.00     0.051 A 
HETATM   15  N5  UNL     1       9.881   7.606  26.322  1.00  0.00    -0.365 N 
HETATM   16  C18 UNL     1       9.625   8.672  24.285  1.00  0.00     0.033 A 
HETATM   17  C15 UNL     1      11.087   8.150  26.484  1.00  0.00     0.088 A 
ATOM     18  H5  UNL     1       9.526   6.988  27.051  1.00  0.00     0.165 HD
HETATM   19  C16 UNL     1      11.651   8.993  25.558  1.00  0.00     0.018 A 
HETATM   20  C17 UNL     1      10.898   9.253  24.440  1.00  0.00     0.022 A 
HETATM   21  S2  UNL     1       8.406   8.732  23.090  1.00  0.00    -0.074 SA
ENDBRANCH   9  12
ENDBRANCH   7   9
ENDBRANCH   4   7
BRANCH   1  22
HETATM   22  C8  UNL     1       4.667   2.607  20.211  1.00  0.00     0.164 C 
BRANCH  22  23
HETATM   23  C7  UNL     1       5.921   2.012  19.702  1.00  0.00    -0.039 A 
HETATM   24  C6  UNL     1       7.062   2.132  20.464  1.00  0.00     0.010 A 
HETATM   25  C5  UNL     1       8.233   1.578  19.993  1.00  0.00     0.013 A 
HETATM   26  C4  UNL     1       8.247   0.912  18.767  1.00  0.00    -0.021 A 
HETATM   27  C3  UNL     1       9.413   0.353  18.283  1.00  0.00     0.029 A 
HETATM   28  C21 UNL     1       7.094   0.801  18.016  1.00  0.00     0.016 A 
HETATM   29  C2  UNL     1       9.368  -0.289  17.074  1.00  0.00     0.090 A 
HETATM   30  N2  UNL     1       8.231  -0.382  16.364  1.00  0.00    -0.354 N 
HETATM   31  C1  UNL     1       7.073   0.147  16.796  1.00  0.00     0.127 A 
ATOM     32  H2  UNL     1       8.247  -0.869  15.468  1.00  0.00     0.166 HD
HETATM   33  N1  UNL     1       5.855   0.064  16.065  1.00  0.00    -0.082 NA
HETATM   34  C20 UNL     1       5.898   1.359  18.483  1.00  0.00     0.024 A 
ENDBRANCH  22  23
ENDBRANCH   1  22
TORSDOF 5
ENDMDL
