MODEL 1
REMARK VINA RESULT: -10.131498331      0.000      0.000
REMARK  5 active torsions:
REMARK  status: ('A' for Active; 'I' for Inactive)
REMARK    1  A    between atoms: C7_10  and  C8_11 
REMARK    2  A    between atoms: C8_11  and  N3_12 
REMARK    3  A    between atoms: C11_15  and  N4_16 
REMARK    4  A    between atoms: N4_16  and  S1_18 
REMARK    5  A    between atoms: S1_18  and  C12_21 
ROOT
HETATM    1  N3  UNL     1       4.205   3.488  21.145  1.00  0.00    -0.346 N 
HETATM    2  C9  UNL     1       4.156   4.511  20.093  1.00  0.00     0.129 C 
HETATM    3  C10 UNL     1       3.633   5.737  20.841  1.00  0.00     0.055 C 
HETATM    4  C11 UNL     1       4.288   5.578  22.180  1.00  0.00     0.186 C 
HETATM    5  C19 UNL     1       4.136   4.112  22.422  1.00  0.00     0.243 C 
HETATM    6  O3  UNL     1       3.978   3.528  23.528  1.00  0.00    -0.271 OA
ENDROOT
BRANCH   4   7
HETATM    7  N4  UNL     1       5.733   5.810  22.063  1.00  0.00    -0.301 N 
ATOM      8  H4  UNL     1       6.436   5.080  21.947  1.00  0.00     0.173 HD
BRANCH   7   9
HETATM    9  S1  UNL     1       6.068   7.501  22.154  1.00  0.00     0.266 S 
HETATM   10  O1  UNL     1       4.885   8.154  22.829  1.00  0.00    -0.200 OA
HETATM   11  O2  UNL     1       6.254   8.136  20.830  1.00  0.00    -0.200 OA
BRANCH   9  12
HETATM   12  C12 UNL     1       7.466   7.788  23.203  1.00  0.00     0.123 A 
HETATM   13  C13 UNL     1       7.690   7.287  24.453  1.00  0.00     0.063 A 
HETATM   14  C14 UNL     1       8.834   7.643  25.070  1.00  0.00     0.051 A 
HETATM   15  N5  UNL     1       9.259   7.261  26.315  1.00  0.00    -0.365 N 
HETATM   16  C18 UNL     1       9.674   8.478  24.392  1.00  0.00     0.033 A 
HETATM   17  C15 UNL     1      10.410   7.665  26.851  1.00  0.00     0.088 A 
ATOM     18  H5  UNL     1       8.664   6.636  26.859  1.00  0.00     0.165 HD
HETATM   19  C16 UNL     1      11.279   8.504  26.197  1.00  0.00     0.018 A 
HETATM   20  C17 UNL     1      10.895   8.913  24.943  1.00  0.00     0.022 A 
HETATM   21  S2  UNL     1       8.850   8.742  22.920  1.00  0.00    -0.074 SA
ENDBRANCH   9  12
ENDBRANCH   7   9
ENDBRANCH   4   7
BRANCH   1  22
HETATM   22  C8  UNL     1       4.308   2.068  20.932  1.00  0.00     0.164 C 
BRANCH  22  23
HETATM   23  C7  UNL     1       5.567   1.668  20.268  1.00  0.00    -0.039 A 
HETATM   24  C6  UNL     1       6.746   1.791  20.968  1.00  0.00     0.010 A 
HETATM   25  C5  UNL     1       7.923   1.419  20.352  1.00  0.00     0.013 A 
HETATM   26  C4  UNL     1       7.902   0.928  19.046  1.00  0.00    -0.021 A 
HETATM   27  C3  UNL     1       9.072   0.552  18.417  1.00  0.00     0.029 A 
HETATM   28  C21 UNL     1       6.710   0.811  18.359  1.00  0.00     0.016 A 
HETATM   29  C2  UNL     1       8.993   0.077  17.135  1.00  0.00     0.090 A 
HETATM   30  N2  UNL     1       7.818  -0.026  16.490  1.00  0.00    -0.354 N 
HETATM   31  C1  UNL     1       6.655   0.328  17.062  1.00  0.00     0.127 A 
ATOM     32  H2  UNL     1       7.810  -0.385  15.536  1.00  0.00     0.166 HD
HETATM   33  N1  UNL     1       5.398   0.229  16.404  1.00  0.00    -0.082 NA
HETATM   34  C20 UNL     1       5.509   1.186  18.972  1.00  0.00     0.024 A 
ENDBRANCH  22  23
ENDBRANCH   1  22
TORSDOF 5
ENDMDL
