MODEL 2
REMARK VINA RESULT: -9.849118520      2.213      8.615
REMARK  5 active torsions:
REMARK  status: ('A' for Active; 'I' for Inactive)
REMARK    1  A    between atoms: C2_3  and  N1_4 
REMARK    2  A    between atoms: N1_4  and  S1_6 
REMARK    3  A    between atoms: S1_6  and  C3_9 
REMARK    4  A    between atoms: N3_21  and  C12_22 
REMARK    5  A    between atoms: C12_22  and  C13_23 
ROOT
HETATM    1  O1  UNL     1       4.448   4.366  22.550  1.00  0.00    -0.271 OA
HETATM    2  C1  UNL     1       4.418   4.460  21.296  1.00  0.00     0.243 C 
HETATM    3  C2  UNL     1       4.649   5.754  20.564  1.00  0.00     0.186 C 
HETATM    4  C10 UNL     1       4.499   5.407  19.112  1.00  0.00     0.055 C 
HETATM    5  C11 UNL     1       3.674   4.135  19.123  1.00  0.00     0.129 C 
HETATM    6  N3  UNL     1       4.180   3.471  20.317  1.00  0.00    -0.345 N 
ENDROOT
BRANCH   3   7
HETATM    7  N1  UNL     1       5.984   6.249  20.807  1.00  0.00    -0.301 N 
ATOM      8  H1  UNL     1       6.851   5.798  20.515  1.00  0.00     0.173 HD
BRANCH   7   9
HETATM    9  S1  UNL     1       5.861   7.736  21.676  1.00  0.00     0.266 S 
HETATM   10  O2  UNL     1       5.813   8.903  20.763  1.00  0.00    -0.200 OA
HETATM   11  O3  UNL     1       4.625   7.701  22.540  1.00  0.00    -0.200 OA
BRANCH   9  12
HETATM   12  C3  UNL     1       7.222   7.924  22.795  1.00  0.00     0.123 A 
HETATM   13  C4  UNL     1       7.325   7.442  24.071  1.00  0.00     0.063 A 
HETATM   14  C5  UNL     1       8.464   7.710  24.740  1.00  0.00     0.051 A 
HETATM   15  N2  UNL     1       8.772   7.322  26.028  1.00  0.00    -0.365 N 
HETATM   16  C9  UNL     1       9.418   8.439  24.087  1.00  0.00     0.033 A 
HETATM   17  C6  UNL     1       9.917   7.636  26.595  1.00  0.00     0.088 A 
ATOM     18  H2  UNL     1       8.092   6.776  26.556  1.00  0.00     0.165 HD
HETATM   19  C7  UNL     1      10.939   8.376  25.988  1.00  0.00     0.018 A 
HETATM   20  C8  UNL     1      10.640   8.768  24.699  1.00  0.00     0.022 A 
HETATM   21  S2  UNL     1       8.704   8.728  22.565  1.00  0.00    -0.074 SA
ENDBRANCH   9  12
ENDBRANCH   7   9
ENDBRANCH   3   7
BRANCH   6  22
HETATM   22  C12 UNL     1       4.416   2.052  20.520  1.00  0.00     0.182 C 
BRANCH  22  23
HETATM   23  C13 UNL     1       5.557   1.551  19.712  1.00  0.00     0.028 A 
HETATM   24  C14 UNL     1       6.859   1.363  20.125  1.00  0.00     0.040 A 
HETATM   25  C15 UNL     1       7.618   0.877  19.060  1.00  0.00    -0.005 A 
HETATM   26  C16 UNL     1       8.948   0.520  18.910  1.00  0.00     0.030 A 
HETATM   27  C19 UNL     1       6.739   0.781  18.003  1.00  0.00     0.058 A 
HETATM   28  C17 UNL     1       9.384   0.063  17.676  1.00  0.00     0.088 A 
HETATM   29  N4  UNL     1       8.526  -0.031  16.644  1.00  0.00    -0.373 N 
HETATM   30  C18 UNL     1       7.236   0.314  16.788  1.00  0.00     0.117 A 
ATOM     31  H4  UNL     1       8.859  -0.370  15.742  1.00  0.00     0.164 HD
HETATM   32  N5  UNL     1       5.525   1.187  18.417  1.00  0.00    -0.356 N 
ATOM     33  H5  UNL     1       4.692   1.215  17.829  1.00  0.00     0.166 HD
ENDBRANCH  22  23
ENDBRANCH   6  22
TORSDOF 5
ENDMDL
