MODEL 4
REMARK VINA RESULT: -9.746597655      2.260      8.726
REMARK  5 active torsions:
REMARK  status: ('A' for Active; 'I' for Inactive)
REMARK    1  A    between atoms: C2_3  and  N1_4 
REMARK    2  A    between atoms: N1_4  and  S1_6 
REMARK    3  A    between atoms: S1_6  and  C3_9 
REMARK    4  A    between atoms: N3_21  and  C12_22 
REMARK    5  A    between atoms: C12_22  and  C13_23 
ROOT
HETATM    1  O1  UNL     1       3.264   4.980  22.230  1.00  0.00    -0.271 OA
HETATM    2  C1  UNL     1       4.426   5.097  21.762  1.00  0.00     0.243 C 
HETATM    3  C2  UNL     1       5.277   6.319  21.972  1.00  0.00     0.186 C 
HETATM    4  C10 UNL     1       6.550   6.034  21.231  1.00  0.00     0.055 C 
HETATM    5  C11 UNL     1       6.157   4.972  20.223  1.00  0.00     0.129 C 
HETATM    6  N3  UNL     1       5.184   4.197  20.982  1.00  0.00    -0.345 N 
ENDROOT
BRANCH   3   7
HETATM    7  N1  UNL     1       5.566   6.509  23.374  1.00  0.00    -0.301 N 
ATOM      8  H1  UNL     1       5.414   5.823  24.114  1.00  0.00     0.173 HD
BRANCH   7   9
HETATM    9  S1  UNL     1       6.214   8.095  23.585  1.00  0.00     0.266 S 
HETATM   10  O2  UNL     1       6.329   8.817  22.296  1.00  0.00    -0.200 OA
HETATM   11  O3  UNL     1       5.332   8.865  24.535  1.00  0.00    -0.200 OA
BRANCH   9  12
HETATM   12  C3  UNL     1       7.806   8.025  24.360  1.00  0.00     0.123 A 
HETATM   13  C4  UNL     1       8.131   7.427  25.546  1.00  0.00     0.063 A 
HETATM   14  C5  UNL     1       9.416   7.502  25.942  1.00  0.00     0.051 A 
HETATM   15  N2  UNL     1       9.954   6.971  27.097  1.00  0.00    -0.365 N 
HETATM   16  C9  UNL     1      10.286   8.167  25.125  1.00  0.00     0.033 A 
HETATM   17  C6  UNL     1      11.230   7.098  27.395  1.00  0.00     0.088 A 
ATOM     18  H2  UNL     1       9.345   6.464  27.739  1.00  0.00     0.165 HD
HETATM   19  C7  UNL     1      12.176   7.764  26.607  1.00  0.00     0.018 A 
HETATM   20  C8  UNL     1      11.648   8.298  25.449  1.00  0.00     0.022 A 
HETATM   21  S2  UNL     1       9.291   8.668  23.834  1.00  0.00    -0.074 SA
ENDBRANCH   9  12
ENDBRANCH   7   9
ENDBRANCH   3   7
BRANCH   6  22
HETATM   22  C12 UNL     1       4.985   2.759  20.975  1.00  0.00     0.182 C 
BRANCH  22  23
HETATM   23  C13 UNL     1       5.902   2.069  20.031  1.00  0.00     0.028 A 
HETATM   24  C14 UNL     1       7.184   1.628  20.278  1.00  0.00     0.040 A 
HETATM   25  C15 UNL     1       7.700   1.032  19.127  1.00  0.00    -0.005 A 
HETATM   26  C16 UNL     1       8.909   0.434  18.811  1.00  0.00     0.030 A 
HETATM   27  C19 UNL     1       6.695   1.128  18.188  1.00  0.00     0.058 A 
HETATM   28  C17 UNL     1       9.093  -0.070  17.533  1.00  0.00     0.088 A 
HETATM   29  N4  UNL     1       8.113   0.023  16.617  1.00  0.00    -0.373 N 
HETATM   30  C18 UNL     1       6.940   0.603  16.922  1.00  0.00     0.117 A 
ATOM     31  H4  UNL     1       8.261  -0.352  15.681  1.00  0.00     0.164 HD
HETATM   32  N5  UNL     1       5.641   1.746  18.751  1.00  0.00    -0.356 N 
ATOM     33  H5  UNL     1       4.762   1.945  18.272  1.00  0.00     0.166 HD
ENDBRANCH  22  23
ENDBRANCH   6  22
TORSDOF 5
ENDMDL
