MODEL 9
REMARK VINA RESULT: -9.198872930      1.469      1.929
REMARK  5 active torsions:
REMARK  status: ('A' for Active; 'I' for Inactive)
REMARK    1  A    between atoms: C2_3  and  N1_4 
REMARK    2  A    between atoms: N1_4  and  S1_6 
REMARK    3  A    between atoms: S1_6  and  C3_9 
REMARK    4  A    between atoms: N3_21  and  C12_22 
REMARK    5  A    between atoms: C12_22  and  C13_23 
ROOT
HETATM    1  O1  UNL     1       6.135   5.229  19.477  1.00  0.00    -0.271 OA
HETATM    2  C1  UNL     1       5.485   5.797  20.391  1.00  0.00     0.243 C 
HETATM    3  C2  UNL     1       4.457   5.088  21.230  1.00  0.00     0.186 C 
HETATM    4  C10 UNL     1       3.929   6.140  22.162  1.00  0.00     0.055 C 
HETATM    5  C11 UNL     1       4.251   7.445  21.461  1.00  0.00     0.129 C 
HETATM    6  N3  UNL     1       5.533   7.134  20.844  1.00  0.00    -0.345 N 
ENDROOT
BRANCH   3   7
HETATM    7  N1  UNL     1       5.064   4.025  21.996  1.00  0.00    -0.301 N 
ATOM      8  H1  UNL     1       5.731   4.144  22.759  1.00  0.00     0.173 HD
BRANCH   7   9
HETATM    9  S1  UNL     1       4.468   2.518  21.400  1.00  0.00     0.266 S 
HETATM   10  O2  UNL     1       4.279   1.533  22.491  1.00  0.00    -0.200 OA
HETATM   11  O3  UNL     1       3.163   2.754  20.681  1.00  0.00    -0.200 OA
BRANCH   9  12
HETATM   12  C3  UNL     1       5.569   1.844  20.187  1.00  0.00     0.123 A 
HETATM   13  C4  UNL     1       6.888   1.519  20.345  1.00  0.00     0.063 A 
HETATM   14  C5  UNL     1       7.531   1.017  19.274  1.00  0.00     0.051 A 
HETATM   15  N2  UNL     1       8.854   0.626  19.217  1.00  0.00    -0.365 N 
HETATM   16  C9  UNL     1       6.812   0.873  18.121  1.00  0.00     0.033 A 
HETATM   17  C6  UNL     1       9.392   0.145  18.116  1.00  0.00     0.088 A 
ATOM     18  H2  UNL     1       9.432   0.713  20.052  1.00  0.00     0.165 HD
HETATM   19  C7  UNL     1       8.717  -0.031  16.902  1.00  0.00     0.018 A 
HETATM   20  C8  UNL     1       7.393   0.356  16.950  1.00  0.00     0.022 A 
HETATM   21  S2  UNL     1       5.265   1.440  18.562  1.00  0.00    -0.074 SA
ENDBRANCH   9  12
ENDBRANCH   7   9
ENDBRANCH   3   7
BRANCH   6  22
HETATM   22  C12 UNL     1       6.687   8.003  20.692  1.00  0.00     0.182 C 
BRANCH  22  23
HETATM   23  C13 UNL     1       7.511   8.063  21.927  1.00  0.00     0.028 A 
HETATM   24  C14 UNL     1       8.748   8.651  22.081  1.00  0.00     0.040 A 
HETATM   25  C15 UNL     1       9.179   8.487  23.398  1.00  0.00    -0.005 A 
HETATM   26  C16 UNL     1      10.316   8.866  24.094  1.00  0.00     0.030 A 
HETATM   27  C19 UNL     1       8.170   7.788  24.025  1.00  0.00     0.058 A 
HETATM   28  C17 UNL     1      10.424   8.529  25.434  1.00  0.00     0.088 A 
HETATM   29  N4  UNL     1       9.439   7.847  26.046  1.00  0.00    -0.373 N 
HETATM   30  C18 UNL     1       8.336   7.479  25.372  1.00  0.00     0.117 A 
ATOM     31  H4  UNL     1       9.531   7.606  27.033  1.00  0.00     0.164 HD
HETATM   32  N5  UNL     1       7.194   7.550  23.129  1.00  0.00    -0.356 N 
ATOM     33  H5  UNL     1       6.330   7.047  23.334  1.00  0.00     0.166 HD
ENDBRANCH  22  23
ENDBRANCH   6  22
TORSDOF 5
ENDMDL
