MODEL 8
REMARK VINA RESULT: -9.231322542      1.732      2.264
REMARK  5 active torsions:
REMARK  status: ('A' for Active; 'I' for Inactive)
REMARK    1  A    between atoms: C2_3  and  N1_4 
REMARK    2  A    between atoms: N1_4  and  S1_6 
REMARK    3  A    between atoms: S1_6  and  C3_9 
REMARK    4  A    between atoms: N3_21  and  C12_22 
REMARK    5  A    between atoms: C12_22  and  C13_23 
ROOT
HETATM    1  O1  UNL     1       6.659   5.356  19.921  1.00  0.00    -0.271 OA
HETATM    2  C1  UNL     1       5.963   6.217  20.517  1.00  0.00     0.243 C 
HETATM    3  C2  UNL     1       4.670   5.889  21.213  1.00  0.00     0.186 C 
HETATM    4  C10 UNL     1       4.180   7.200  21.754  1.00  0.00     0.055 C 
HETATM    5  C11 UNL     1       4.884   8.235  20.899  1.00  0.00     0.129 C 
HETATM    6  N3  UNL     1       6.178   7.602  20.683  1.00  0.00    -0.345 N 
ENDROOT
BRANCH   3   7
HETATM    7  N1  UNL     1       4.893   4.968  22.303  1.00  0.00    -0.301 N 
ATOM      8  H1  UNL     1       5.359   5.187  23.183  1.00  0.00     0.173 HD
BRANCH   7   9
HETATM    9  S1  UNL     1       4.236   3.434  21.862  1.00  0.00     0.266 S 
HETATM   10  O2  UNL     1       3.956   2.595  23.051  1.00  0.00    -0.200 OA
HETATM   11  O3  UNL     1       2.972   3.649  21.068  1.00  0.00    -0.200 OA
BRANCH   9  12
HETATM   12  C3  UNL     1       5.338   2.567  20.779  1.00  0.00     0.123 A 
HETATM   13  C4  UNL     1       5.121   2.211  19.477  1.00  0.00     0.063 A 
HETATM   14  C5  UNL     1       6.110   1.550  18.845  1.00  0.00     0.051 A 
HETATM   15  N2  UNL     1       6.098   1.102  17.540  1.00  0.00    -0.365 N 
HETATM   16  C9  UNL     1       7.248   1.293  19.558  1.00  0.00     0.033 A 
HETATM   17  C6  UNL     1       7.121   0.463  17.013  1.00  0.00     0.088 A 
ATOM     18  H2  UNL     1       5.272   1.271  16.967  1.00  0.00     0.165 HD
HETATM   19  C7  UNL     1       8.314   0.167  17.681  1.00  0.00     0.018 A 
HETATM   20  C8  UNL     1       8.337   0.612  18.988  1.00  0.00     0.022 A 
HETATM   21  S2  UNL     1       6.905   1.977  21.083  1.00  0.00    -0.074 SA
ENDBRANCH   9  12
ENDBRANCH   7   9
ENDBRANCH   3   7
BRANCH   6  22
HETATM   22  C12 UNL     1       7.485   8.233  20.637  1.00  0.00     0.182 C 
BRANCH  22  23
HETATM   23  C13 UNL     1       8.156   8.234  21.962  1.00  0.00     0.028 A 
HETATM   24  C14 UNL     1       7.674   7.721  23.147  1.00  0.00     0.040 A 
HETATM   25  C15 UNL     1       8.613   7.925  24.158  1.00  0.00    -0.005 A 
HETATM   26  C16 UNL     1       8.655   7.622  25.509  1.00  0.00     0.030 A 
HETATM   27  C19 UNL     1       9.667   8.572  23.548  1.00  0.00     0.058 A 
HETATM   28  C17 UNL     1       9.776   7.979  26.241  1.00  0.00     0.088 A 
HETATM   29  N4  UNL     1      10.805   8.610  25.646  1.00  0.00    -0.373 N 
HETATM   30  C18 UNL     1      10.766   8.905  24.336  1.00  0.00     0.117 A 
ATOM     31  H4  UNL     1      11.624   8.867  26.196  1.00  0.00     0.164 HD
HETATM   32  N5  UNL     1       9.369   8.743  22.247  1.00  0.00    -0.356 N 
ATOM     33  H5  UNL     1       9.980   9.196  21.568  1.00  0.00     0.166 HD
ENDBRANCH  22  23
ENDBRANCH   6  22
TORSDOF 5
ENDMDL
