MODEL 16
REMARK VINA RESULT: -8.796734583      4.139      6.141
REMARK  5 active torsions:
REMARK  status: ('A' for Active; 'I' for Inactive)
REMARK    1  A    between atoms: C2_3  and  N1_4 
REMARK    2  A    between atoms: N1_4  and  S1_6 
REMARK    3  A    between atoms: S1_6  and  C3_9 
REMARK    4  A    between atoms: N3_21  and  C12_22 
REMARK    5  A    between atoms: C12_22  and  C13_23 
ROOT
HETATM    1  O1  UNL     1       6.283   7.902  20.720  1.00  0.00    -0.271 OA
HETATM    2  C1  UNL     1       6.045   7.892  21.954  1.00  0.00     0.243 C 
HETATM    3  C2  UNL     1       4.981   7.031  22.578  1.00  0.00     0.186 C 
HETATM    4  C10 UNL     1       5.034   7.355  24.043  1.00  0.00     0.055 C 
HETATM    5  C11 UNL     1       5.691   8.720  24.093  1.00  0.00     0.129 C 
HETATM    6  N3  UNL     1       6.651   8.619  23.002  1.00  0.00    -0.345 N 
ENDROOT
BRANCH   3   7
HETATM    7  N1  UNL     1       5.275   5.630  22.383  1.00  0.00    -0.301 N 
ATOM      8  H1  UNL     1       6.202   5.206  22.402  1.00  0.00     0.173 HD
BRANCH   7   9
HETATM    9  S1  UNL     1       3.787   4.797  22.109  1.00  0.00     0.266 S 
HETATM   10  O2  UNL     1       3.562   4.537  20.667  1.00  0.00    -0.200 OA
HETATM   11  O3  UNL     1       3.802   3.499  22.875  1.00  0.00    -0.200 OA
BRANCH   9  12
HETATM   12  C3  UNL     1       2.422   5.721  22.757  1.00  0.00     0.123 A 
HETATM   13  C4  UNL     1       1.856   5.614  23.998  1.00  0.00     0.063 A 
HETATM   14  C5  UNL     1       0.817   6.426  24.274  1.00  0.00     0.051 A 
HETATM   15  N2  UNL     1       0.107   6.481  25.456  1.00  0.00    -0.365 N 
HETATM   16  C9  UNL     1       0.418   7.288  23.292  1.00  0.00     0.033 A 
HETATM   17  C6  UNL     1      -0.897   7.314  25.627  1.00  0.00     0.088 A 
ATOM     18  H2  UNL     1       0.368   5.858  26.220  1.00  0.00     0.165 HD
HETATM   19  C7  UNL     1      -1.360   8.224  24.669  1.00  0.00     0.018 A 
HETATM   20  C8  UNL     1      -0.655   8.177  23.483  1.00  0.00     0.022 A 
HETATM   21  S2  UNL     1       1.497   6.943  22.017  1.00  0.00    -0.074 SA
ENDBRANCH   9  12
ENDBRANCH   7   9
ENDBRANCH   3   7
BRANCH   6  22
HETATM   22  C12 UNL     1       8.001   9.152  22.946  1.00  0.00     0.182 C 
BRANCH  22  23
HETATM   23  C13 UNL     1       8.853   8.641  24.051  1.00  0.00     0.028 A 
HETATM   24  C14 UNL     1      10.204   8.847  24.232  1.00  0.00     0.040 A 
HETATM   25  C15 UNL     1      10.621   8.196  25.393  1.00  0.00    -0.005 A 
HETATM   26  C16 UNL     1      11.839   8.068  26.040  1.00  0.00     0.030 A 
HETATM   27  C19 UNL     1       9.487   7.596  25.899  1.00  0.00     0.058 A 
HETATM   28  C17 UNL     1      11.901   7.326  27.209  1.00  0.00     0.088 A 
HETATM   29  N4  UNL     1      10.795   6.741  27.704  1.00  0.00    -0.373 N 
HETATM   30  C18 UNL     1       9.613   6.864  27.077  1.00  0.00     0.117 A 
ATOM     31  H4  UNL     1      10.854   6.198  28.565  1.00  0.00     0.164 HD
HETATM   32  N5  UNL     1       8.455   7.877  25.084  1.00  0.00    -0.356 N 
ATOM     33  H5  UNL     1       7.498   7.553  25.229  1.00  0.00     0.166 HD
ENDBRANCH  22  23
ENDBRANCH   6  22
TORSDOF 5
ENDMDL
