MODEL 3
REMARK VINA RESULT: -8.399822625      0.823      1.081
REMARK  7 active torsions:
REMARK  status: ('A' for Active; 'I' for Inactive)
REMARK    1  A    between atoms: C1_2  and  C2_6 
REMARK    2  A    between atoms: C5_9  and  O1_10 
REMARK    3  A    between atoms: C6_12  and  C7_13 
REMARK    4  A    between atoms: C7_13  and  N3_14 
REMARK    5  A    between atoms: C10_17  and  N4_18 
REMARK    6  A    between atoms: N4_18  and  S1_20 
REMARK    7  A    between atoms: S1_20  and  C11_23 
ROOT
HETATM    1  N3  UNL     1      12.305  -5.940  21.774  1.00  0.00    -0.346 N 
HETATM    2  C8  UNL     1      13.148  -6.821  22.552  1.00  0.00     0.129 C 
HETATM    3  C9  UNL     1      13.262  -8.040  21.661  1.00  0.00     0.055 C 
HETATM    4  C10 UNL     1      11.888  -8.106  21.048  1.00  0.00     0.186 C 
HETATM    5  C18 UNL     1      11.677  -6.656  20.698  1.00  0.00     0.243 C 
HETATM    6  O4  UNL     1      11.089  -6.173  19.698  1.00  0.00    -0.271 OA
ENDROOT
BRANCH   4   7
HETATM    7  N4  UNL     1      10.864  -8.516  21.930  1.00  0.00    -0.301 N 
ATOM      8  H4  UNL     1      10.496  -7.901  22.656  1.00  0.00     0.173 HD
BRANCH   7   9
HETATM    9  S1  UNL     1      10.283 -10.101  21.705  1.00  0.00     0.266 S 
HETATM   10  O2  UNL     1       8.962 -10.369  22.303  1.00  0.00    -0.200 OA
HETATM   11  O3  UNL     1      10.290 -10.426  20.234  1.00  0.00    -0.200 OA
BRANCH   9  12
HETATM   12  C11 UNL     1      11.472 -11.192  22.439  1.00  0.00     0.123 A 
HETATM   13  C12 UNL     1      12.592 -11.728  21.865  1.00  0.00     0.063 A 
HETATM   14  C13 UNL     1      13.351 -12.538  22.627  1.00  0.00     0.051 A 
HETATM   15  N5  UNL     1      14.505 -13.176  22.257  1.00  0.00    -0.365 N 
HETATM   16  C17 UNL     1      12.939 -12.759  23.909  1.00  0.00     0.033 A 
HETATM   17  C14 UNL     1      15.189 -13.959  23.079  1.00  0.00     0.088 A 
ATOM     18  H5  UNL     1      14.854 -13.043  21.307  1.00  0.00     0.165 HD
HETATM   19  C15 UNL     1      14.812 -14.210  24.380  1.00  0.00     0.018 A 
HETATM   20  C16 UNL     1      13.656 -13.586  24.789  1.00  0.00     0.022 A 
HETATM   21  S2  UNL     1      11.511 -11.834  24.020  1.00  0.00    -0.074 SA
ENDBRANCH   9  12
ENDBRANCH   7   9
ENDBRANCH   4   7
BRANCH   1  22
HETATM   22  C7  UNL     1      12.066  -4.526  21.976  1.00  0.00     0.167 C 
BRANCH  22  23
HETATM   23  C6  UNL     1      12.832  -4.087  23.157  1.00  0.00    -0.006 A 
HETATM   24  C5  UNL     1      14.168  -3.725  22.969  1.00  0.00     0.073 A 
HETATM   25  C4  UNL     1      14.858  -3.320  24.087  1.00  0.00     0.038 A 
HETATM   26  C3  UNL     1      14.260  -3.270  25.349  1.00  0.00     0.017 A 
HETATM   27  C2  UNL     1      12.944  -3.629  25.522  1.00  0.00     0.005 A 
HETATM   28  C19 UNL     1      12.246  -4.040  24.385  1.00  0.00     0.026 A 
BRANCH  24  29
HETATM   29  O1  UNL     1      14.704  -3.792  21.710  1.00  0.00    -0.360 OA
ATOM     30  H1  UNL     1      14.417  -4.398  21.036  1.00  0.00     0.217 HD
ENDBRANCH  24  29
BRANCH  27  31
HETATM   31  C1  UNL     1      12.260  -3.601  26.809  1.00  0.00     0.120 C 
HETATM   32  N1  UNL     1      13.018  -3.372  28.000  1.00  0.00    -0.082 NA
HETATM   33  N2  UNL     1      11.003  -3.770  26.950  1.00  0.00    -0.387 N 
ATOM     34  H22 UNL     1      10.524  -3.750  27.851  1.00  0.00     0.157 HD
ATOM     35  H21 UNL     1      10.462  -3.933  26.101  1.00  0.00     0.157 HD
ENDBRANCH  27  31
ENDBRANCH  22  23
ENDBRANCH   1  22
TORSDOF 7
ENDMDL
