MODEL 6
REMARK VINA RESULT: -7.957086347      2.517      8.006
REMARK  7 active torsions:
REMARK  status: ('A' for Active; 'I' for Inactive)
REMARK    1  A    between atoms: C1_2  and  C2_6 
REMARK    2  A    between atoms: C5_9  and  O1_10 
REMARK    3  A    between atoms: C6_12  and  C7_13 
REMARK    4  A    between atoms: C7_13  and  N3_14 
REMARK    5  A    between atoms: C10_17  and  N4_18 
REMARK    6  A    between atoms: N4_18  and  S1_20 
REMARK    7  A    between atoms: S1_20  and  C11_23 
ROOT
HETATM    1  N3  UNL     1      13.077  -9.190  21.459  1.00  0.00    -0.346 N 
HETATM    2  C8  UNL     1      12.372  -9.697  20.302  1.00  0.00     0.129 C 
HETATM    3  C9  UNL     1      13.428  -9.635  19.219  1.00  0.00     0.055 C 
HETATM    4  C10 UNL     1      14.168  -8.374  19.578  1.00  0.00     0.186 C 
HETATM    5  C18 UNL     1      14.305  -8.555  21.067  1.00  0.00     0.243 C 
HETATM    6  O4  UNL     1      15.267  -8.229  21.807  1.00  0.00    -0.271 OA
ENDROOT
BRANCH   4   7
HETATM    7  N4  UNL     1      13.460  -7.179  19.327  1.00  0.00    -0.301 N 
ATOM      8  H4  UNL     1      12.496  -7.180  18.993  1.00  0.00     0.173 HD
BRANCH   7   9
HETATM    9  S1  UNL     1      14.316  -5.736  19.617  1.00  0.00     0.266 S 
HETATM   10  O2  UNL     1      15.785  -5.863  19.567  1.00  0.00    -0.200 OA
HETATM   11  O3  UNL     1      13.829  -4.672  18.668  1.00  0.00    -0.200 OA
BRANCH   9  12
HETATM   12  C11 UNL     1      13.848  -5.180  21.235  1.00  0.00     0.123 A 
HETATM   13  C12 UNL     1      14.608  -4.496  22.143  1.00  0.00     0.063 A 
HETATM   14  C13 UNL     1      14.032  -4.178  23.319  1.00  0.00     0.051 A 
HETATM   15  N5  UNL     1      14.605  -3.501  24.362  1.00  0.00    -0.365 N 
HETATM   16  C17 UNL     1      12.737  -4.566  23.505  1.00  0.00     0.033 A 
HETATM   17  C14 UNL     1      13.957  -3.232  25.486  1.00  0.00     0.088 A 
ATOM     18  H5  UNL     1      15.572  -3.190  24.270  1.00  0.00     0.165 HD
HETATM   19  C15 UNL     1      12.650  -3.603  25.719  1.00  0.00     0.018 A 
HETATM   20  C16 UNL     1      12.041  -4.287  24.693  1.00  0.00     0.022 A 
HETATM   21  S2  UNL     1      12.357  -5.359  22.045  1.00  0.00    -0.074 SA
ENDBRANCH   9  12
ENDBRANCH   7   9
ENDBRANCH   4   7
BRANCH   1  22
HETATM   22  C7  UNL     1      12.678  -9.264  22.849  1.00  0.00     0.167 C 
BRANCH  22  23
HETATM   23  C6  UNL     1      12.539 -10.684  23.220  1.00  0.00    -0.006 A 
HETATM   24  C5  UNL     1      11.250 -11.180  23.425  1.00  0.00     0.073 A 
HETATM   25  C4  UNL     1      11.149 -12.507  23.769  1.00  0.00     0.038 A 
HETATM   26  C3  UNL     1      12.274 -13.324  23.908  1.00  0.00     0.017 A 
HETATM   27  C2  UNL     1      13.539 -12.825  23.705  1.00  0.00     0.005 A 
HETATM   28  C19 UNL     1      13.638 -11.476  23.356  1.00  0.00     0.026 A 
BRANCH  24  29
HETATM   29  O1  UNL     1      10.181 -10.336  23.274  1.00  0.00    -0.360 OA
ATOM     30  H1  UNL     1      10.241  -9.448  22.939  1.00  0.00     0.217 HD
ENDBRANCH  24  29
BRANCH  27  31
HETATM   31  C1  UNL     1      14.754 -13.619  23.834  1.00  0.00     0.120 C 
HETATM   32  N1  UNL     1      15.363 -13.764  25.120  1.00  0.00    -0.082 NA
HETATM   33  N2  UNL     1      15.327 -14.208  22.857  1.00  0.00    -0.387 N 
ATOM     34  H22 UNL     1      16.177 -14.765  22.948  1.00  0.00     0.157 HD
ATOM     35  H21 UNL     1      14.893 -14.106  21.940  1.00  0.00     0.157 HD
ENDBRANCH  27  31
ENDBRANCH  22  23
ENDBRANCH   1  22
TORSDOF 7
ENDMDL
