MODEL 5
REMARK VINA RESULT: -8.125524174      2.743      8.335
REMARK  7 active torsions:
REMARK  status: ('A' for Active; 'I' for Inactive)
REMARK    1  A    between atoms: C1_2  and  C2_6 
REMARK    2  A    between atoms: C5_9  and  O1_10 
REMARK    3  A    between atoms: C6_12  and  C7_13 
REMARK    4  A    between atoms: C7_13  and  N3_14 
REMARK    5  A    between atoms: C10_17  and  N4_18 
REMARK    6  A    between atoms: N4_18  and  S1_20 
REMARK    7  A    between atoms: S1_20  and  C11_23 
ROOT
HETATM    1  N3  UNL     1      14.239  -9.406  20.742  1.00  0.00    -0.346 N 
HETATM    2  C8  UNL     1      15.573  -9.233  20.209  1.00  0.00     0.129 C 
HETATM    3  C9  UNL     1      16.126  -8.111  21.063  1.00  0.00     0.055 C 
HETATM    4  C10 UNL     1      14.912  -7.244  21.262  1.00  0.00     0.186 C 
HETATM    5  C18 UNL     1      13.878  -8.294  21.577  1.00  0.00     0.243 C 
HETATM    6  O4  UNL     1      12.917  -8.224  22.384  1.00  0.00    -0.271 OA
ENDROOT
BRANCH   4   7
HETATM    7  N4  UNL     1      14.500  -6.528  20.117  1.00  0.00    -0.301 N 
ATOM      8  H4  UNL     1      14.289  -6.993  19.234  1.00  0.00     0.173 HD
BRANCH   7   9
HETATM    9  S1  UNL     1      14.377  -4.840  20.304  1.00  0.00     0.266 S 
HETATM   10  O2  UNL     1      15.633  -4.097  20.089  1.00  0.00    -0.200 OA
HETATM   11  O3  UNL     1      13.279  -4.322  19.411  1.00  0.00    -0.200 OA
BRANCH   9  12
HETATM   12  C11 UNL     1      13.819  -4.547  21.962  1.00  0.00     0.123 A 
HETATM   13  C12 UNL     1      14.553  -4.122  23.035  1.00  0.00     0.063 A 
HETATM   14  C13 UNL     1      13.905  -3.970  24.206  1.00  0.00     0.051 A 
HETATM   15  N5  UNL     1      14.441  -3.558  25.397  1.00  0.00    -0.365 N 
HETATM   16  C17 UNL     1      12.570  -4.254  24.224  1.00  0.00     0.033 A 
HETATM   17  C14 UNL     1      13.723  -3.437  26.504  1.00  0.00     0.088 A 
ATOM     18  H5  UNL     1      15.436  -3.335  25.434  1.00  0.00     0.165 HD
HETATM   19  C15 UNL     1      12.374  -3.711  26.571  1.00  0.00     0.018 A 
HETATM   20  C16 UNL     1      11.800  -4.129  25.392  1.00  0.00     0.022 A 
HETATM   21  S2  UNL     1      12.252  -4.721  22.617  1.00  0.00    -0.074 SA
ENDBRANCH   9  12
ENDBRANCH   7   9
ENDBRANCH   4   7
BRANCH   1  22
HETATM   22  C7  UNL     1      13.325 -10.506  20.518  1.00  0.00     0.167 C 
BRANCH  22  23
HETATM   23  C6  UNL     1      13.949 -11.742  21.026  1.00  0.00    -0.006 A 
HETATM   24  C5  UNL     1      14.558 -12.593  20.101  1.00  0.00     0.073 A 
HETATM   25  C4  UNL     1      15.131 -13.736  20.603  1.00  0.00     0.038 A 
HETATM   26  C3  UNL     1      15.111 -14.039  21.967  1.00  0.00     0.017 A 
HETATM   27  C2  UNL     1      14.508 -13.194  22.869  1.00  0.00     0.005 A 
HETATM   28  C19 UNL     1      13.926 -12.033  22.356  1.00  0.00     0.026 A 
BRANCH  24  29
HETATM   29  O1  UNL     1      14.550 -12.247  18.776  1.00  0.00    -0.360 OA
ATOM     30  H1  UNL     1      13.923 -11.653  18.379  1.00  0.00     0.217 HD
ENDBRANCH  24  29
BRANCH  27  31
HETATM   31  C1  UNL     1      14.450 -13.449  24.303  1.00  0.00     0.120 C 
HETATM   32  N1  UNL     1      13.176 -13.566  24.942  1.00  0.00    -0.082 NA
HETATM   33  N2  UNL     1      15.480 -13.576  25.046  1.00  0.00    -0.387 N 
ATOM     34  H22 UNL     1      15.438 -13.754  26.050  1.00  0.00     0.157 HD
ATOM     35  H21 UNL     1      16.389 -13.493  24.591  1.00  0.00     0.157 HD
ENDBRANCH  27  31
ENDBRANCH  22  23
ENDBRANCH   1  22
TORSDOF 7
ENDMDL
