MODEL 4
REMARK VINA RESULT: -8.296531978      2.588      8.125
REMARK  7 active torsions:
REMARK  status: ('A' for Active; 'I' for Inactive)
REMARK    1  A    between atoms: C1_2  and  C2_6 
REMARK    2  A    between atoms: C5_9  and  O1_10 
REMARK    3  A    between atoms: C6_12  and  C7_13 
REMARK    4  A    between atoms: C7_13  and  N3_14 
REMARK    5  A    between atoms: C10_17  and  N4_18 
REMARK    6  A    between atoms: N4_18  and  S1_20 
REMARK    7  A    between atoms: S1_20  and  C11_23 
ROOT
HETATM    1  N3  UNL     1      13.953  -9.356  20.794  1.00  0.00    -0.346 N 
HETATM    2  C8  UNL     1      15.241  -9.491  20.149  1.00  0.00     0.129 C 
HETATM    3  C9  UNL     1      16.089  -8.478  20.888  1.00  0.00     0.055 C 
HETATM    4  C10 UNL     1      15.103  -7.366  21.131  1.00  0.00     0.186 C 
HETATM    5  C18 UNL     1      13.907  -8.159  21.588  1.00  0.00     0.243 C 
HETATM    6  O4  UNL     1      13.056  -7.854  22.462  1.00  0.00    -0.271 OA
ENDROOT
BRANCH   4   7
HETATM    7  N4  UNL     1      14.748  -6.628  19.981  1.00  0.00    -0.301 N 
ATOM      8  H4  UNL     1      14.479  -7.080  19.107  1.00  0.00     0.173 HD
BRANCH   7   9
HETATM    9  S1  UNL     1      14.797  -4.933  20.145  1.00  0.00     0.266 S 
HETATM   10  O2  UNL     1      16.141  -4.335  20.032  1.00  0.00    -0.200 OA
HETATM   11  O3  UNL     1      13.841  -4.312  19.159  1.00  0.00    -0.200 OA
BRANCH   9  12
HETATM   12  C11 UNL     1      14.139  -4.554  21.748  1.00  0.00     0.123 A 
HETATM   13  C12 UNL     1      14.827  -4.274  22.896  1.00  0.00     0.063 A 
HETATM   14  C13 UNL     1      14.105  -4.014  24.003  1.00  0.00     0.051 A 
HETATM   15  N5  UNL     1      14.585  -3.712  25.249  1.00  0.00    -0.365 N 
HETATM   16  C17 UNL     1      12.745  -4.055  23.887  1.00  0.00     0.033 A 
HETATM   17  C14 UNL     1      13.794  -3.471  26.285  1.00  0.00     0.088 A 
ATOM     18  H5  UNL     1      15.595  -3.671  25.387  1.00  0.00     0.165 HD
HETATM   19  C15 UNL     1      12.418  -3.499  26.215  1.00  0.00     0.018 A 
HETATM   20  C16 UNL     1      11.898  -3.800  24.977  1.00  0.00     0.022 A 
HETATM   21  S2  UNL     1      12.510  -4.449  22.246  1.00  0.00    -0.074 SA
ENDBRANCH   9  12
ENDBRANCH   7   9
ENDBRANCH   4   7
BRANCH   1  22
HETATM   22  C7  UNL     1      12.815 -10.247  20.708  1.00  0.00     0.167 C 
BRANCH  22  23
HETATM   23  C6  UNL     1      12.747 -11.038  21.950  1.00  0.00    -0.006 A 
HETATM   24  C5  UNL     1      11.653 -10.835  22.794  1.00  0.00     0.073 A 
HETATM   25  C4  UNL     1      11.617 -11.586  23.944  1.00  0.00     0.038 A 
HETATM   26  C3  UNL     1      12.617 -12.508  24.260  1.00  0.00     0.017 A 
HETATM   27  C2  UNL     1      13.691 -12.701  23.422  1.00  0.00     0.005 A 
HETATM   28  C19 UNL     1      13.725 -11.935  22.254  1.00  0.00     0.026 A 
BRANCH  24  29
HETATM   29  O1  UNL     1      10.700  -9.919  22.436  1.00  0.00    -0.360 OA
ATOM     30  H1  UNL     1      10.860  -9.167  21.878  1.00  0.00     0.217 HD
ENDBRANCH  24  29
BRANCH  27  31
HETATM   31  C1  UNL     1      14.769 -13.644  23.690  1.00  0.00     0.120 C 
HETATM   32  N1  UNL     1      15.092 -13.971  25.044  1.00  0.00    -0.082 NA
HETATM   33  N2  UNL     1      15.461 -14.211  22.780  1.00  0.00    -0.387 N 
ATOM     34  H22 UNL     1      16.215 -14.872  22.968  1.00  0.00     0.157 HD
ATOM     35  H21 UNL     1      15.230 -13.979  21.814  1.00  0.00     0.157 HD
ENDBRANCH  27  31
ENDBRANCH  22  23
ENDBRANCH   1  22
TORSDOF 7
ENDMDL
