MODEL 1
REMARK VINA RESULT: -8.457853533      0.000      0.000
REMARK  7 active torsions:
REMARK  status: ('A' for Active; 'I' for Inactive)
REMARK    1  A    between atoms: C1_2  and  C2_6 
REMARK    2  A    between atoms: C5_9  and  O1_10 
REMARK    3  A    between atoms: C6_12  and  C7_13 
REMARK    4  A    between atoms: C7_13  and  N3_14 
REMARK    5  A    between atoms: C10_17  and  N4_18 
REMARK    6  A    between atoms: N4_18  and  S1_20 
REMARK    7  A    between atoms: S1_20  and  C11_23 
ROOT
HETATM    1  N3  UNL     1      12.280  -5.943  21.810  1.00  0.00    -0.346 N 
HETATM    2  C8  UNL     1      13.187  -6.808  22.533  1.00  0.00     0.129 C 
HETATM    3  C9  UNL     1      13.216  -8.051  21.670  1.00  0.00     0.055 C 
HETATM    4  C10 UNL     1      11.793  -8.126  21.184  1.00  0.00     0.186 C 
HETATM    5  C18 UNL     1      11.556  -6.685  20.815  1.00  0.00     0.243 C 
HETATM    6  O4  UNL     1      10.882  -6.226  19.858  1.00  0.00    -0.271 OA
ENDROOT
BRANCH   4   7
HETATM    7  N4  UNL     1      10.851  -8.506  22.165  1.00  0.00    -0.301 N 
ATOM      8  H4  UNL     1      10.555  -7.871  22.907  1.00  0.00     0.173 HD
BRANCH   7   9
HETATM    9  S1  UNL     1      10.239 -10.090  22.031  1.00  0.00     0.266 S 
HETATM   10  O2  UNL     1       9.111 -10.399  22.930  1.00  0.00    -0.200 OA
HETATM   11  O3  UNL     1       9.878 -10.361  20.593  1.00  0.00    -0.200 OA
BRANCH   9  12
HETATM   12  C11 UNL     1      11.580 -11.190  22.401  1.00  0.00     0.123 A 
HETATM   13  C12 UNL     1      11.909 -11.741  23.609  1.00  0.00     0.063 A 
HETATM   14  C13 UNL     1      12.981 -12.556  23.646  1.00  0.00     0.051 A 
HETATM   15  N5  UNL     1      13.483 -13.208  24.740  1.00  0.00    -0.365 N 
HETATM   16  C17 UNL     1      13.650 -12.763  22.474  1.00  0.00     0.033 A 
HETATM   17  C14 UNL     1      14.549 -13.994  24.681  1.00  0.00     0.088 A 
ATOM     18  H5  UNL     1      13.017 -13.084  25.639  1.00  0.00     0.165 HD
HETATM   19  C15 UNL     1      15.255 -14.233  23.523  1.00  0.00     0.018 A 
HETATM   20  C16 UNL     1      14.780 -13.593  22.401  1.00  0.00     0.022 A 
HETATM   21  S2  UNL     1      12.772 -11.823  21.356  1.00  0.00    -0.074 SA
ENDBRANCH   9  12
ENDBRANCH   7   9
ENDBRANCH   4   7
BRANCH   1  22
HETATM   22  C7  UNL     1      12.065  -4.523  21.993  1.00  0.00     0.167 C 
BRANCH  22  23
HETATM   23  C6  UNL     1      12.834  -4.083  23.171  1.00  0.00    -0.006 A 
HETATM   24  C5  UNL     1      14.170  -3.723  22.980  1.00  0.00     0.073 A 
HETATM   25  C4  UNL     1      14.862  -3.316  24.096  1.00  0.00     0.038 A 
HETATM   26  C3  UNL     1      14.268  -3.262  25.359  1.00  0.00     0.017 A 
HETATM   27  C2  UNL     1      12.952  -3.620  25.536  1.00  0.00     0.005 A 
HETATM   28  C19 UNL     1      12.251  -4.033  24.401  1.00  0.00     0.026 A 
BRANCH  24  29
HETATM   29  O1  UNL     1      14.703  -3.793  21.720  1.00  0.00    -0.360 OA
ATOM     30  H1  UNL     1      14.398  -4.382  21.040  1.00  0.00     0.217 HD
ENDBRANCH  24  29
BRANCH  27  31
HETATM   31  C1  UNL     1      12.270  -3.588  26.824  1.00  0.00     0.120 C 
HETATM   32  N1  UNL     1      13.030  -3.350  28.012  1.00  0.00    -0.082 NA
HETATM   33  N2  UNL     1      11.014  -3.763  26.969  1.00  0.00    -0.387 N 
ATOM     34  H22 UNL     1      10.538  -3.741  27.871  1.00  0.00     0.157 HD
ATOM     35  H21 UNL     1      10.472  -3.933  26.122  1.00  0.00     0.157 HD
ENDBRANCH  27  31
ENDBRANCH  22  23
ENDBRANCH   1  22
TORSDOF 7
ENDMDL
