MODEL 9
REMARK VINA RESULT: -7.843440115      2.722      4.386
REMARK  11 active torsions:
REMARK  status: ('A' for Active; 'I' for Inactive)
REMARK    1  A    between atoms: O1_2  and  C2_3 
REMARK    2  A    between atoms: C2_3  and  C3_5 
REMARK    3  A    between atoms: C3_5  and  C4_6 
REMARK    4  A    between atoms: C3_5  and  C12_18 
REMARK    5  A    between atoms: C4_6  and  C5_7 
REMARK    6  A    between atoms: C9_11  and  C10_12 
REMARK    7  A    between atoms: C12_18  and  N3_20 
REMARK       I    between atoms: N3_20  and  C14_22 
REMARK    8  A    between atoms: C14_22  and  C15_24 
REMARK    9  A    between atoms: C18_27  and  C19_28 
REMARK   10  A    between atoms: C23_32  and  C24_33 
REMARK   11  A    between atoms: C24_33  and  N4_34 
ROOT
HETATM    1  N3  UNL     1      13.493 -11.281  21.426  1.00  0.00    -0.330 N 
ATOM      2  H3  UNL     1      13.955 -11.994  20.860  1.00  0.00     0.168 HD
HETATM    3  C14 UNL     1      13.180 -11.606  22.777  1.00  0.00     0.255 C 
HETATM    4  O3  UNL     1      12.606 -10.689  23.450  1.00  0.00    -0.267 OA
ENDROOT
BRANCH   1   5
HETATM    5  C12 UNL     1      13.201 -10.008  20.802  1.00  0.00    -0.000 C 
HETATM    6  C13 UNL     1      11.972  -9.960  19.971  1.00  0.00     0.064 C 
BRANCH   5   7
HETATM    7  C3  UNL     1      14.371  -9.276  20.249  1.00  0.00     0.135 C 
BRANCH   7   8
HETATM    8  C2  UNL     1      15.388 -10.296  19.730  1.00  0.00     0.268 C 
HETATM    9  O2  UNL     1      16.598 -10.207  19.946  1.00  0.00    -0.264 OA
BRANCH   8  10
HETATM   10  O1  UNL     1      14.893 -11.348  18.993  1.00  0.00    -0.326 OA
HETATM   11  C1  UNL     1      15.660 -12.483  18.628  1.00  0.00     0.213 C 
ENDBRANCH   8  10
ENDBRANCH   7   8
BRANCH   7  12
HETATM   12  C4  UNL     1      15.157  -8.417  21.174  1.00  0.00     0.059 C 
BRANCH  12  13
HETATM   13  C5  UNL     1      14.680  -7.044  21.391  1.00  0.00    -0.056 A 
HETATM   14  C6  UNL     1      15.184  -5.957  20.710  1.00  0.00     0.007 A 
HETATM   15  C7  UNL     1      14.748  -4.670  20.906  1.00  0.00     0.002 A 
HETATM   16  C8  UNL     1      13.759  -4.417  21.817  1.00  0.00     0.015 A 
HETATM   17  C9  UNL     1      13.223  -5.470  22.521  1.00  0.00     0.005 A 
HETATM   18  C11 UNL     1      13.664  -6.757  22.321  1.00  0.00     0.022 A 
BRANCH  17  19
HETATM   19  C10 UNL     1      12.172  -5.197  23.490  1.00  0.00     0.120 C 
HETATM   20  N1  UNL     1      12.507  -4.474  24.687  1.00  0.00    -0.082 NA
HETATM   21  N2  UNL     1      10.947  -5.565  23.344  1.00  0.00    -0.387 N 
ATOM     22  H22 UNL     1      10.709  -6.078  22.495  1.00  0.00     0.157 HD
ATOM     23  H21 UNL     1      10.211  -5.374  24.023  1.00  0.00     0.157 HD
ENDBRANCH  17  19
ENDBRANCH  12  13
ENDBRANCH   7  12
ENDBRANCH   5   7
ENDBRANCH   1   5
BRANCH   3  24
HETATM   24  C15 UNL     1      13.462 -12.872  23.418  1.00  0.00     0.032 A 
HETATM   25  C16 UNL     1      12.615 -13.936  23.260  1.00  0.00     0.018 A 
HETATM   26  C17 UNL     1      12.879 -15.154  23.868  1.00  0.00     0.013 A 
HETATM   27  C18 UNL     1      13.997 -15.323  24.643  1.00  0.00    -0.026 A 
HETATM   28  C26 UNL     1      14.854 -14.261  24.807  1.00  0.00     0.013 A 
HETATM   29  C27 UNL     1      14.581 -13.031  24.190  1.00  0.00     0.018 A 
BRANCH  27  30
HETATM   30  C19 UNL     1      14.260 -16.630  25.281  1.00  0.00    -0.025 A 
HETATM   31  C20 UNL     1      13.392 -17.691  25.112  1.00  0.00     0.012 A 
HETATM   32  C21 UNL     1      13.683 -18.901  25.734  1.00  0.00     0.001 A 
HETATM   33  C22 UNL     1      14.811 -19.078  26.515  1.00  0.00     0.009 A 
HETATM   34  C23 UNL     1      15.666 -18.030  26.682  1.00  0.00    -0.032 A 
HETATM   35  C25 UNL     1      15.372 -16.814  26.056  1.00  0.00     0.021 A 
BRANCH  34  36
HETATM   36  C24 UNL     1      16.880 -18.166  27.505  1.00  0.00     0.268 C 
BRANCH  36  37
HETATM   37  N4  UNL     1      16.890 -19.386  28.280  1.00  0.00    -0.075 N 
ATOM     38  H43 UNL     1      17.515 -19.307  29.081  1.00  0.00     0.274 HD
ATOM     39  H42 UNL     1      16.006 -19.515  28.773  1.00  0.00     0.274 HD
ATOM     40  H41 UNL     1      17.119 -20.205  27.716  1.00  0.00     0.274 HD
ENDBRANCH  36  37
ENDBRANCH  34  36
ENDBRANCH  27  30
ENDBRANCH   3  24
TORSDOF 11
ENDMDL
