MODEL 3
REMARK VINA RESULT: -8.796149438      1.257      1.704
REMARK  11 active torsions:
REMARK  status: ('A' for Active; 'I' for Inactive)
REMARK    1  A    between atoms: O1_2  and  C2_3 
REMARK    2  A    between atoms: C2_3  and  C3_5 
REMARK    3  A    between atoms: C3_5  and  C4_6 
REMARK    4  A    between atoms: C3_5  and  C12_18 
REMARK    5  A    between atoms: C4_6  and  C5_7 
REMARK    6  A    between atoms: C9_11  and  C10_12 
REMARK    7  A    between atoms: C12_18  and  N3_20 
REMARK       I    between atoms: N3_20  and  C14_22 
REMARK    8  A    between atoms: C14_22  and  C15_24 
REMARK    9  A    between atoms: C18_27  and  C19_28 
REMARK   10  A    between atoms: C23_32  and  C24_33 
REMARK   11  A    between atoms: C24_33  and  N4_34 
ROOT
HETATM    1  N3  UNL     1      11.490  -8.150  21.093  1.00  0.00    -0.330 N 
ATOM      2  H3  UNL     1      10.837  -8.856  20.753  1.00  0.00     0.168 HD
HETATM    3  C14 UNL     1      12.507  -8.568  21.999  1.00  0.00     0.255 C 
HETATM    4  O3  UNL     1      13.304  -7.657  22.398  1.00  0.00    -0.267 OA
ENDROOT
BRANCH   1   5
HETATM    5  C12 UNL     1      11.322  -6.792  20.621  1.00  0.00    -0.000 C 
HETATM    6  C13 UNL     1      12.288  -6.339  19.590  1.00  0.00     0.064 C 
BRANCH   5   7
HETATM    7  C3  UNL     1      10.983  -5.785  21.661  1.00  0.00     0.135 C 
BRANCH   7   8
HETATM    8  C2  UNL     1       9.516  -5.379  21.492  1.00  0.00     0.268 C 
HETATM    9  O2  UNL     1       8.594  -6.194  21.451  1.00  0.00    -0.264 OA
BRANCH   8  10
HETATM   10  O1  UNL     1       9.252  -4.032  21.384  1.00  0.00    -0.326 OA
HETATM   11  C1  UNL     1       8.084  -3.505  20.779  1.00  0.00     0.213 C 
ENDBRANCH   8  10
ENDBRANCH   7   8
BRANCH   7  12
HETATM   12  C4  UNL     1      11.720  -4.495  21.651  1.00  0.00     0.059 C 
BRANCH  12  13
HETATM   13  C5  UNL     1      12.609  -4.215  22.788  1.00  0.00    -0.056 A 
HETATM   14  C6  UNL     1      13.977  -4.108  22.663  1.00  0.00     0.007 A 
HETATM   15  C7  UNL     1      14.818  -3.849  23.718  1.00  0.00     0.002 A 
HETATM   16  C8  UNL     1      14.302  -3.681  24.974  1.00  0.00     0.015 A 
HETATM   17  C9  UNL     1      12.941  -3.777  25.149  1.00  0.00     0.005 A 
HETATM   18  C11 UNL     1      12.105  -4.038  24.089  1.00  0.00     0.022 A 
BRANCH  17  19
HETATM   19  C10 UNL     1      12.397  -3.599  26.487  1.00  0.00     0.120 C 
HETATM   20  N1  UNL     1      13.304  -3.350  27.575  1.00  0.00    -0.082 NA
HETATM   21  N2  UNL     1      11.141  -3.650  26.764  1.00  0.00    -0.387 N 
ATOM     22  H22 UNL     1      10.498  -3.827  25.993  1.00  0.00     0.157 HD
ATOM     23  H21 UNL     1      10.760  -3.525  27.702  1.00  0.00     0.157 HD
ENDBRANCH  17  19
ENDBRANCH  12  13
ENDBRANCH   7  12
ENDBRANCH   5   7
ENDBRANCH   1   5
BRANCH   3  24
HETATM   24  C15 UNL     1      12.691  -9.919  22.484  1.00  0.00     0.032 A 
HETATM   25  C16 UNL     1      13.899 -10.548  22.350  1.00  0.00     0.018 A 
HETATM   26  C17 UNL     1      14.085 -11.841  22.814  1.00  0.00     0.013 A 
HETATM   27  C18 UNL     1      13.062 -12.522  23.420  1.00  0.00    -0.026 A 
HETATM   28  C26 UNL     1      11.845 -11.899  23.560  1.00  0.00     0.013 A 
HETATM   29  C27 UNL     1      11.663 -10.590  23.088  1.00  0.00     0.018 A 
BRANCH  27  30
HETATM   30  C19 UNL     1      13.282 -13.900  23.908  1.00  0.00    -0.025 A 
HETATM   31  C20 UNL     1      12.638 -14.973  23.323  1.00  0.00     0.012 A 
HETATM   32  C21 UNL     1      12.877 -16.250  23.818  1.00  0.00     0.001 A 
HETATM   33  C22 UNL     1      13.739 -16.484  24.875  1.00  0.00     0.009 A 
HETATM   34  C23 UNL     1      14.374 -15.425  25.452  1.00  0.00    -0.032 A 
HETATM   35  C25 UNL     1      14.131 -14.140  24.953  1.00  0.00     0.021 A 
BRANCH  34  36
HETATM   36  C24 UNL     1      15.300 -15.619  26.581  1.00  0.00     0.268 C 
BRANCH  36  37
HETATM   37  N4  UNL     1      15.872 -16.947  26.605  1.00  0.00    -0.075 N 
ATOM     38  H43 UNL     1      15.309 -17.578  27.174  1.00  0.00     0.274 HD
ATOM     39  H42 UNL     1      15.770 -17.407  25.700  1.00  0.00     0.274 HD
ATOM     40  H41 UNL     1      16.845 -16.946  26.910  1.00  0.00     0.274 HD
ENDBRANCH  36  37
ENDBRANCH  34  36
ENDBRANCH  27  30
ENDBRANCH   3  24
TORSDOF 11
ENDMDL
