MODEL 5
REMARK VINA RESULT: -8.129119666      4.686      6.078
REMARK  11 active torsions:
REMARK  status: ('A' for Active; 'I' for Inactive)
REMARK    1  A    between atoms: O1_2  and  C2_3 
REMARK    2  A    between atoms: C2_3  and  C3_5 
REMARK    3  A    between atoms: C3_5  and  C4_6 
REMARK    4  A    between atoms: C3_5  and  C12_18 
REMARK    5  A    between atoms: C4_6  and  C5_7 
REMARK    6  A    between atoms: C9_11  and  C10_12 
REMARK    7  A    between atoms: C12_18  and  N3_20 
REMARK       I    between atoms: N3_20  and  C14_22 
REMARK    8  A    between atoms: C14_22  and  C15_24 
REMARK    9  A    between atoms: C18_27  and  C19_28 
REMARK   10  A    between atoms: C23_32  and  C24_33 
REMARK   11  A    between atoms: C24_33  and  N4_34 
ROOT
HETATM    1  N3  UNL     1      11.736  -7.080  20.976  1.00  0.00    -0.330 N 
ATOM      2  H3  UNL     1      11.608  -7.110  19.964  1.00  0.00     0.168 HD
HETATM    3  C14 UNL     1      12.928  -7.649  21.512  1.00  0.00     0.255 C 
HETATM    4  O3  UNL     1      13.051  -7.589  22.778  1.00  0.00    -0.267 OA
ENDROOT
BRANCH   1   5
HETATM    5  C12 UNL     1      10.695  -6.465  21.770  1.00  0.00    -0.000 C 
HETATM    6  C13 UNL     1       9.342  -7.059  21.639  1.00  0.00     0.064 C 
BRANCH   5   7
HETATM    7  C3  UNL     1      10.733  -4.980  21.846  1.00  0.00     0.135 C 
BRANCH   7   8
HETATM    8  C2  UNL     1       9.871  -4.408  20.718  1.00  0.00     0.268 C 
HETATM    9  O2  UNL     1       8.794  -3.843  20.916  1.00  0.00    -0.264 OA
BRANCH   8  10
HETATM   10  O1  UNL     1      10.352  -4.548  19.435  1.00  0.00    -0.326 OA
HETATM   11  C1  UNL     1       9.679  -5.267  18.417  1.00  0.00     0.213 C 
ENDBRANCH   8  10
ENDBRANCH   7   8
BRANCH   7  12
HETATM   12  C4  UNL     1      12.047  -4.306  21.677  1.00  0.00     0.059 C 
BRANCH  12  13
HETATM   13  C5  UNL     1      12.845  -4.064  22.888  1.00  0.00    -0.056 A 
HETATM   14  C6  UNL     1      14.217  -3.944  22.872  1.00  0.00     0.007 A 
HETATM   15  C7  UNL     1      14.973  -3.720  23.997  1.00  0.00     0.002 A 
HETATM   16  C8  UNL     1      14.362  -3.603  25.215  1.00  0.00     0.015 A 
HETATM   17  C9  UNL     1      12.992  -3.714  25.282  1.00  0.00     0.005 A 
HETATM   18  C11 UNL     1      12.241  -3.940  24.152  1.00  0.00     0.022 A 
BRANCH  17  19
HETATM   19  C10 UNL     1      12.346  -3.590  26.580  1.00  0.00     0.120 C 
HETATM   20  N1  UNL     1      13.168  -3.424  27.749  1.00  0.00    -0.082 NA
HETATM   21  N2  UNL     1      11.072  -3.620  26.754  1.00  0.00    -0.387 N 
ATOM     22  H22 UNL     1      10.488  -3.738  25.925  1.00  0.00     0.157 HD
ATOM     23  H21 UNL     1      10.619  -3.533  27.663  1.00  0.00     0.157 HD
ENDBRANCH  17  19
ENDBRANCH  12  13
ENDBRANCH   7  12
ENDBRANCH   5   7
ENDBRANCH   1   5
BRANCH   3  24
HETATM   24  C15 UNL     1      13.979  -8.270  20.736  1.00  0.00     0.032 A 
HETATM   25  C16 UNL     1      14.199  -9.619  20.815  1.00  0.00     0.018 A 
HETATM   26  C17 UNL     1      15.201 -10.224  20.072  1.00  0.00     0.013 A 
HETATM   27  C18 UNL     1      15.998  -9.484  19.238  1.00  0.00    -0.026 A 
HETATM   28  C26 UNL     1      15.785  -8.129  19.150  1.00  0.00     0.013 A 
HETATM   29  C27 UNL     1      14.769  -7.523  19.904  1.00  0.00     0.018 A 
BRANCH  27  30
HETATM   30  C19 UNL     1      17.060 -10.149  18.454  1.00  0.00    -0.025 A 
HETATM   31  C20 UNL     1      17.363 -11.482  18.654  1.00  0.00     0.012 A 
HETATM   32  C21 UNL     1      18.372 -12.062  17.892  1.00  0.00     0.001 A 
HETATM   33  C22 UNL     1      19.082 -11.351  16.942  1.00  0.00     0.009 A 
HETATM   34  C23 UNL     1      18.784 -10.035  16.745  1.00  0.00    -0.032 A 
HETATM   35  C25 UNL     1      17.768  -9.453  17.513  1.00  0.00     0.021 A 
BRANCH  34  36
HETATM   36  C24 UNL     1      19.510  -9.234  15.747  1.00  0.00     0.268 C 
BRANCH  36  37
HETATM   37  N4  UNL     1      19.073  -7.856  15.719  1.00  0.00    -0.075 N 
ATOM     38  H43 UNL     1      18.254  -7.719  16.310  1.00  0.00     0.274 HD
ATOM     39  H42 UNL     1      19.732  -7.252  16.210  1.00  0.00     0.274 HD
ATOM     40  H41 UNL     1      18.903  -7.520  14.771  1.00  0.00     0.274 HD
ENDBRANCH  36  37
ENDBRANCH  34  36
ENDBRANCH  27  30
ENDBRANCH   3  24
TORSDOF 11
ENDMDL
