MODEL 2
REMARK VINA RESULT: -8.819275744      1.075      1.750
REMARK  11 active torsions:
REMARK  status: ('A' for Active; 'I' for Inactive)
REMARK    1  A    between atoms: O1_2  and  C2_3 
REMARK    2  A    between atoms: C2_3  and  C3_5 
REMARK    3  A    between atoms: C3_5  and  C4_6 
REMARK    4  A    between atoms: C3_5  and  C12_18 
REMARK    5  A    between atoms: C4_6  and  C5_7 
REMARK    6  A    between atoms: C9_11  and  C10_12 
REMARK    7  A    between atoms: C12_18  and  N3_20 
REMARK       I    between atoms: N3_20  and  C14_22 
REMARK    8  A    between atoms: C14_22  and  C15_24 
REMARK    9  A    between atoms: C18_27  and  C19_28 
REMARK   10  A    between atoms: C23_32  and  C24_33 
REMARK   11  A    between atoms: C24_33  and  N4_34 
ROOT
HETATM    1  N3  UNL     1      12.172  -8.058  21.382  1.00  0.00    -0.330 N 
ATOM      2  H3  UNL     1      13.172  -8.148  21.560  1.00  0.00     0.168 HD
HETATM    3  C14 UNL     1      11.335  -9.161  21.717  1.00  0.00     0.255 C 
HETATM    4  O3  UNL     1      10.093  -9.007  21.482  1.00  0.00    -0.267 OA
ENDROOT
BRANCH   1   5
HETATM    5  C12 UNL     1      11.698  -6.817  20.806  1.00  0.00    -0.000 C 
HETATM    6  C13 UNL     1      12.414  -6.350  19.593  1.00  0.00     0.064 C 
BRANCH   5   7
HETATM    7  C3  UNL     1      11.331  -5.753  21.777  1.00  0.00     0.135 C 
BRANCH   7   8
HETATM    8  C2  UNL     1       9.893  -5.307  21.496  1.00  0.00     0.268 C 
HETATM    9  O2  UNL     1       8.923  -6.057  21.612  1.00  0.00    -0.264 OA
BRANCH   8  10
HETATM   10  O1  UNL     1       9.714  -4.001  21.099  1.00  0.00    -0.326 OA
HETATM   11  C1  UNL     1       8.465  -3.466  20.697  1.00  0.00     0.213 C 
ENDBRANCH   8  10
ENDBRANCH   7   8
BRANCH   7  12
HETATM   12  C4  UNL     1      12.114  -4.490  21.757  1.00  0.00     0.059 C 
BRANCH  12  13
HETATM   13  C5  UNL     1      12.908  -4.168  22.951  1.00  0.00    -0.056 A 
HETATM   14  C6  UNL     1      14.274  -3.991  22.919  1.00  0.00     0.007 A 
HETATM   15  C7  UNL     1      15.028  -3.691  24.027  1.00  0.00     0.002 A 
HETATM   16  C8  UNL     1      14.421  -3.553  25.245  1.00  0.00     0.015 A 
HETATM   17  C9  UNL     1      13.058  -3.719  25.329  1.00  0.00     0.005 A 
HETATM   18  C11 UNL     1      12.309  -4.020  24.215  1.00  0.00     0.022 A 
BRANCH  17  19
HETATM   19  C10 UNL     1      12.416  -3.572  26.627  1.00  0.00     0.120 C 
HETATM   20  N1  UNL     1      13.242  -3.393  27.790  1.00  0.00    -0.082 NA
HETATM   21  N2  UNL     1      11.142  -3.594  26.805  1.00  0.00    -0.387 N 
ATOM     22  H22 UNL     1      10.555  -3.721  25.979  1.00  0.00     0.157 HD
ATOM     23  H21 UNL     1      10.692  -3.491  27.714  1.00  0.00     0.157 HD
ENDBRANCH  17  19
ENDBRANCH  12  13
ENDBRANCH   7  12
ENDBRANCH   5   7
ENDBRANCH   1   5
BRANCH   3  24
HETATM   24  C15 UNL     1      11.789 -10.409  22.292  1.00  0.00     0.032 A 
HETATM   25  C16 UNL     1      10.900 -11.414  22.564  1.00  0.00     0.018 A 
HETATM   26  C17 UNL     1      11.326 -12.614  23.111  1.00  0.00     0.013 A 
HETATM   27  C18 UNL     1      12.650 -12.825  23.393  1.00  0.00    -0.026 A 
HETATM   28  C26 UNL     1      13.551 -11.823  23.123  1.00  0.00     0.013 A 
HETATM   29  C27 UNL     1      13.114 -10.610  22.569  1.00  0.00     0.018 A 
BRANCH  27  30
HETATM   30  C19 UNL     1      13.084 -14.112  23.976  1.00  0.00    -0.025 A 
HETATM   31  C20 UNL     1      12.526 -15.306  23.558  1.00  0.00     0.012 A 
HETATM   32  C21 UNL     1      12.967 -16.491  24.138  1.00  0.00     0.001 A 
HETATM   33  C22 UNL     1      13.945 -16.516  25.116  1.00  0.00     0.009 A 
HETATM   34  C23 UNL     1      14.494 -15.339  25.528  1.00  0.00    -0.032 A 
HETATM   35  C25 UNL     1      14.049 -14.147  24.944  1.00  0.00     0.021 A 
BRANCH  34  36
HETATM   36  C24 UNL     1      15.537 -15.311  26.567  1.00  0.00     0.268 C 
BRANCH  36  37
HETATM   37  N4  UNL     1      16.088 -16.620  26.833  1.00  0.00    -0.075 N 
ATOM     38  H43 UNL     1      15.525 -17.351  26.398  1.00  0.00     0.274 HD
ATOM     39  H42 UNL     1      16.961 -16.761  26.325  1.00  0.00     0.274 HD
ATOM     40  H41 UNL     1      16.211 -16.797  27.831  1.00  0.00     0.274 HD
ENDBRANCH  36  37
ENDBRANCH  34  36
ENDBRANCH  27  30
ENDBRANCH   3  24
TORSDOF 11
ENDMDL
