MODEL 10
REMARK VINA RESULT: -7.814108208      1.451      2.039
REMARK  11 active torsions:
REMARK  status: ('A' for Active; 'I' for Inactive)
REMARK    1  A    between atoms: O1_2  and  C2_3 
REMARK    2  A    between atoms: C2_3  and  C3_5 
REMARK    3  A    between atoms: C3_5  and  C4_6 
REMARK    4  A    between atoms: C3_5  and  C12_18 
REMARK    5  A    between atoms: C4_6  and  C5_7 
REMARK    6  A    between atoms: C9_11  and  C10_12 
REMARK    7  A    between atoms: C12_18  and  N3_20 
REMARK       I    between atoms: N3_20  and  C14_22 
REMARK    8  A    between atoms: C14_22  and  C15_24 
REMARK    9  A    between atoms: C18_27  and  C19_28 
REMARK   10  A    between atoms: C23_32  and  C24_33 
REMARK   11  A    between atoms: C24_33  and  N4_34 
ROOT
HETATM    1  N3  UNL     1      10.186  -7.721  21.673  1.00  0.00    -0.330 N 
ATOM      2  H3  UNL     1      11.190  -7.604  21.536  1.00  0.00     0.168 HD
HETATM    3  C14 UNL     1       9.732  -8.942  22.250  1.00  0.00     0.255 C 
HETATM    4  O3  UNL     1       8.473  -9.048  22.407  1.00  0.00    -0.267 OA
ENDROOT
BRANCH   1   5
HETATM    5  C12 UNL     1       9.318  -6.636  21.267  1.00  0.00    -0.000 C 
HETATM    6  C13 UNL     1       8.629  -6.809  19.964  1.00  0.00     0.064 C 
BRANCH   5   7
HETATM    7  C3  UNL     1       9.826  -5.266  21.541  1.00  0.00     0.135 C 
BRANCH   7   8
HETATM    8  C2  UNL     1       8.880  -4.252  20.892  1.00  0.00     0.268 C 
HETATM    9  O2  UNL     1       9.130  -3.686  19.827  1.00  0.00    -0.264 OA
BRANCH   8  10
HETATM   10  O1  UNL     1       7.703  -3.986  21.557  1.00  0.00    -0.326 OA
HETATM   11  C1  UNL     1       6.855  -2.894  21.246  1.00  0.00     0.213 C 
ENDBRANCH   8  10
ENDBRANCH   7   8
BRANCH   7  12
HETATM   12  C4  UNL     1      11.167  -4.900  21.015  1.00  0.00     0.059 C 
BRANCH  12  13
HETATM   13  C5  UNL     1      12.240  -4.674  21.994  1.00  0.00    -0.056 A 
HETATM   14  C6  UNL     1      13.574  -4.854  21.701  1.00  0.00     0.007 A 
HETATM   15  C7  UNL     1      14.585  -4.647  22.608  1.00  0.00     0.002 A 
HETATM   16  C8  UNL     1      14.286  -4.241  23.879  1.00  0.00     0.015 A 
HETATM   17  C9  UNL     1      12.968  -4.047  24.220  1.00  0.00     0.005 A 
HETATM   18  C11 UNL     1      11.960  -4.256  23.308  1.00  0.00     0.022 A 
BRANCH  17  19
HETATM   19  C10 UNL     1      12.654  -3.615  25.574  1.00  0.00     0.120 C 
HETATM   20  N1  UNL     1      13.723  -3.151  26.417  1.00  0.00    -0.082 NA
HETATM   21  N2  UNL     1      11.468  -3.622  26.073  1.00  0.00    -0.387 N 
ATOM     22  H22 UNL     1      10.709  -3.951  25.476  1.00  0.00     0.157 HD
ATOM     23  H21 UNL     1      11.248  -3.319  27.022  1.00  0.00     0.157 HD
ENDBRANCH  17  19
ENDBRANCH  12  13
ENDBRANCH   7  12
ENDBRANCH   5   7
ENDBRANCH   1   5
BRANCH   3  24
HETATM   24  C15 UNL     1      10.583 -10.038  22.660  1.00  0.00     0.032 A 
HETATM   25  C16 UNL     1      11.926 -10.014  22.396  1.00  0.00     0.018 A 
HETATM   26  C17 UNL     1      12.749 -11.058  22.789  1.00  0.00     0.013 A 
HETATM   27  C18 UNL     1      12.237 -12.142  23.453  1.00  0.00    -0.026 A 
HETATM   28  C26 UNL     1      10.890 -12.176  23.724  1.00  0.00     0.013 A 
HETATM   29  C27 UNL     1      10.062 -11.116  23.324  1.00  0.00     0.018 A 
BRANCH  27  30
HETATM   30  C19 UNL     1      13.133 -13.245  23.862  1.00  0.00    -0.025 A 
HETATM   31  C20 UNL     1      14.427 -12.994  24.276  1.00  0.00     0.012 A 
HETATM   32  C21 UNL     1      15.230 -14.065  24.651  1.00  0.00     0.001 A 
HETATM   33  C22 UNL     1      14.779 -15.373  24.625  1.00  0.00     0.009 A 
HETATM   34  C23 UNL     1      13.502 -15.620  24.217  1.00  0.00    -0.032 A 
HETATM   35  C25 UNL     1      12.695 -14.541  23.839  1.00  0.00     0.021 A 
BRANCH  34  36
HETATM   36  C24 UNL     1      12.974 -16.993  24.170  1.00  0.00     0.268 C 
BRANCH  36  37
HETATM   37  N4  UNL     1      13.907 -17.925  23.577  1.00  0.00    -0.075 N 
ATOM     38  H43 UNL     1      13.914 -17.842  22.561  1.00  0.00     0.274 HD
ATOM     39  H42 UNL     1      14.871 -17.653  23.771  1.00  0.00     0.274 HD
ATOM     40  H41 UNL     1      13.732 -18.888  23.865  1.00  0.00     0.274 HD
ENDBRANCH  36  37
ENDBRANCH  34  36
ENDBRANCH  27  30
ENDBRANCH   3  24
TORSDOF 11
ENDMDL
