MODEL 1
REMARK VINA RESULT: -9.120817613      0.000      0.000
REMARK  11 active torsions:
REMARK  status: ('A' for Active; 'I' for Inactive)
REMARK    1  A    between atoms: O1_2  and  C2_3 
REMARK    2  A    between atoms: C2_3  and  C3_5 
REMARK    3  A    between atoms: C3_5  and  C4_6 
REMARK    4  A    between atoms: C3_5  and  C12_18 
REMARK    5  A    between atoms: C4_6  and  C5_7 
REMARK    6  A    between atoms: C9_11  and  C10_12 
REMARK    7  A    between atoms: C12_18  and  N3_20 
REMARK       I    between atoms: N3_20  and  C14_22 
REMARK    8  A    between atoms: C14_22  and  C15_24 
REMARK    9  A    between atoms: C18_27  and  C19_28 
REMARK   10  A    between atoms: C23_32  and  C24_33 
REMARK   11  A    between atoms: C24_33  and  N4_34 
ROOT
HETATM    1  N3  UNL     1      12.481  -8.718  21.862  1.00  0.00    -0.330 N 
ATOM      2  H3  UNL     1      13.458  -8.708  22.155  1.00  0.00     0.168 HD
HETATM    3  C14 UNL     1      11.726  -9.901  22.105  1.00  0.00     0.255 C 
HETATM    4  O3  UNL     1      10.511  -9.872  21.726  1.00  0.00    -0.267 OA
ENDROOT
BRANCH   1   5
HETATM    5  C12 UNL     1      11.956  -7.528  21.227  1.00  0.00    -0.000 C 
HETATM    6  C13 UNL     1      12.610  -7.127  19.957  1.00  0.00     0.064 C 
BRANCH   5   7
HETATM    7  C3  UNL     1      11.602  -6.411  22.141  1.00  0.00     0.135 C 
BRANCH   7   8
HETATM    8  C2  UNL     1      10.113  -6.096  21.980  1.00  0.00     0.268 C 
HETATM    9  O2  UNL     1       9.241  -6.966  21.953  1.00  0.00    -0.264 OA
BRANCH   8  10
HETATM   10  O1  UNL     1       9.766  -4.768  21.863  1.00  0.00    -0.326 OA
HETATM   11  C1  UNL     1       8.625  -4.312  21.158  1.00  0.00     0.213 C 
ENDBRANCH   8  10
ENDBRANCH   7   8
BRANCH   7  12
HETATM   12  C4  UNL     1      12.274  -5.101  21.935  1.00  0.00     0.059 C 
BRANCH  12  13
HETATM   13  C5  UNL     1      13.008  -4.531  23.074  1.00  0.00    -0.056 A 
HETATM   14  C6  UNL     1      14.331  -4.153  23.002  1.00  0.00     0.007 A 
HETATM   15  C7  UNL     1      15.027  -3.621  24.060  1.00  0.00     0.002 A 
HETATM   16  C8  UNL     1      14.403  -3.441  25.264  1.00  0.00     0.015 A 
HETATM   17  C9  UNL     1      13.081  -3.801  25.385  1.00  0.00     0.005 A 
HETATM   18  C11 UNL     1      12.390  -4.334  24.323  1.00  0.00     0.022 A 
BRANCH  17  19
HETATM   19  C10 UNL     1      12.421  -3.609  26.668  1.00  0.00     0.120 C 
HETATM   20  N1  UNL     1      13.228  -3.332  27.826  1.00  0.00    -0.082 NA
HETATM   21  N2  UNL     1      11.147  -3.671  26.837  1.00  0.00    -0.387 N 
ATOM     22  H22 UNL     1      10.574  -3.868  26.015  1.00  0.00     0.157 HD
ATOM     23  H21 UNL     1      10.685  -3.537  27.735  1.00  0.00     0.157 HD
ENDBRANCH  17  19
ENDBRANCH  12  13
ENDBRANCH   7  12
ENDBRANCH   5   7
ENDBRANCH   1   5
BRANCH   3  24
HETATM   24  C15 UNL     1      12.234 -11.100  22.736  1.00  0.00     0.032 A 
HETATM   25  C16 UNL     1      13.580 -11.343  22.790  1.00  0.00     0.018 A 
HETATM   26  C17 UNL     1      14.076 -12.486  23.396  1.00  0.00     0.013 A 
HETATM   27  C18 UNL     1      13.228 -13.405  23.958  1.00  0.00    -0.026 A 
HETATM   28  C26 UNL     1      11.874 -13.172  23.910  1.00  0.00     0.013 A 
HETATM   29  C27 UNL     1      11.379 -12.012  23.295  1.00  0.00     0.018 A 
BRANCH  27  30
HETATM   30  C19 UNL     1      13.777 -14.618  24.599  1.00  0.00    -0.025 A 
HETATM   31  C20 UNL     1      14.608 -14.527  25.699  1.00  0.00     0.012 A 
HETATM   32  C21 UNL     1      15.099 -15.698  26.267  1.00  0.00     0.001 A 
HETATM   33  C22 UNL     1      14.784 -16.950  25.769  1.00  0.00     0.009 A 
HETATM   34  C23 UNL     1      13.965 -17.039  24.684  1.00  0.00    -0.032 A 
HETATM   35  C25 UNL     1      13.471 -15.860  24.114  1.00  0.00     0.021 A 
BRANCH  34  36
HETATM   36  C24 UNL     1      13.600 -18.347  24.115  1.00  0.00     0.268 C 
BRANCH  36  37
HETATM   37  N4  UNL     1      14.736 -19.044  23.555  1.00  0.00    -0.075 N 
ATOM     38  H43 UNL     1      15.131 -18.528  22.770  1.00  0.00     0.274 HD
ATOM     39  H42 UNL     1      15.534 -19.013  24.190  1.00  0.00     0.274 HD
ATOM     40  H41 UNL     1      14.513 -20.003  23.290  1.00  0.00     0.274 HD
ENDBRANCH  36  37
ENDBRANCH  34  36
ENDBRANCH  27  30
ENDBRANCH   3  24
TORSDOF 11
ENDMDL
