MODEL 8
REMARK VINA RESULT: -10.443474777      3.473     10.222
REMARK  8 active torsions:
REMARK  status: ('A' for Active; 'I' for Inactive)
REMARK    1  A    between atoms: C9_11  and  C10_12 
REMARK    2  A    between atoms: C10_12  and  N2_13 
REMARK    3  A    between atoms: N2_13  and  C11_15 
REMARK    4  A    between atoms: N3_22  and  C18_23 
REMARK    5  A    between atoms: C18_23  and  C19_24 
REMARK    6  A    between atoms: C18_23  and  C22_29 
REMARK    7  A    between atoms: C19_24  and  C20_25 
REMARK    8  A    between atoms: C20_25  and  C21_26 
ROOT
HETATM    1  N2  UNL     1       6.028 -17.602  23.642  1.00  0.00    -0.386 N 
ATOM      2  H2  UNL     1       6.965 -17.598  23.238  1.00  0.00     0.160 HD
ENDROOT
BRANCH   1   3
HETATM    3  C10 UNL     1       5.362 -16.345  23.829  1.00  0.00     0.158 C 
BRANCH   3   4
HETATM    4  C9  UNL     1       4.260 -16.177  22.868  1.00  0.00    -0.040 A 
HETATM    5  C8  UNL     1       4.365 -16.606  21.555  1.00  0.00     0.010 A 
HETATM    6  C7  UNL     1       3.302 -16.428  20.700  1.00  0.00     0.013 A 
HETATM    7  C6  UNL     1       2.122 -15.835  21.086  1.00  0.00    -0.025 A 
HETATM    8  C5  UNL     1       1.079 -15.673  20.197  1.00  0.00     0.014 A 
HETATM    9  C25 UNL     1       2.018 -15.400  22.417  1.00  0.00    -0.007 A 
HETATM   10  C4  UNL     1      -0.065 -15.074  20.650  1.00  0.00     0.031 A 
HETATM   11  C3  UNL     1      -0.218 -14.631  21.943  1.00  0.00     0.050 A 
HETATM   12  N1  UNL     1      -1.364 -14.045  22.338  1.00  0.00    -0.345 N 
HETATM   13  C26 UNL     1       0.839 -14.789  22.860  1.00  0.00     0.070 A 
HETATM   14  C2  UNL     1      -1.474 -13.623  23.607  1.00  0.00     0.080 A 
ATOM     15  H1  UNL     1      -2.136 -13.923  21.683  1.00  0.00     0.167 HD
HETATM   16  C1  UNL     1      -2.731 -12.971  24.065  1.00  0.00     0.089 C 
HETATM   17  N4  UNL     1      -0.492 -13.760  24.492  1.00  0.00    -0.312 N 
HETATM   18  C27 UNL     1       0.699 -14.351  24.145  1.00  0.00     0.260 A 
ATOM     19  H4  UNL     1      -0.625 -13.422  25.445  1.00  0.00     0.170 HD
HETATM   20  O6  UNL     1       1.587 -14.460  24.998  1.00  0.00    -0.267 OA
HETATM   21  C24 UNL     1       3.061 -15.567  23.287  1.00  0.00     0.022 A 
ENDBRANCH   3   4
ENDBRANCH   1   3
BRANCH   1  22
HETATM   22  C11 UNL     1       5.452 -18.847  23.989  1.00  0.00     0.028 A 
HETATM   23  C12 UNL     1       6.057 -20.043  23.625  1.00  0.00     0.030 A 
HETATM   24  C13 UNL     1       5.471 -21.239  23.967  1.00  0.00     0.020 A 
HETATM   25  C14 UNL     1       4.279 -21.284  24.672  1.00  0.00     0.040 A 
HETATM   26  C15 UNL     1       3.653 -20.109  25.049  1.00  0.00    -0.022 A 
HETATM   27  C23 UNL     1       3.427 -22.371  25.147  1.00  0.00     0.255 A 
HETATM   28  C16 UNL     1       4.271 -18.937  24.688  1.00  0.00     0.039 A 
HETATM   29  C17 UNL     1       2.402 -20.413  25.803  1.00  0.00     0.167 A 
HETATM   30  N3  UNL     1       2.303 -21.854  25.799  1.00  0.00    -0.329 N 
HETATM   31  O5  UNL     1       3.682 -23.598  24.986  1.00  0.00    -0.267 OA
BRANCH  30  32
HETATM   32  C18 UNL     1       1.172 -22.570  26.403  1.00  0.00     0.189 C 
BRANCH  32  33
HETATM   33  C19 UNL     1       0.951 -23.875  25.708  1.00  0.00     0.047 C 
BRANCH  33  34
HETATM   34  C20 UNL     1      -0.309 -23.828  24.894  1.00  0.00     0.116 C 
BRANCH  34  35
HETATM   35  C21 UNL     1       0.057 -23.471  23.489  1.00  0.00     0.172 C 
HETATM   36  O1  UNL     1      -0.633 -22.605  22.882  1.00  0.00    -0.648 OA
HETATM   37  O2  UNL     1       1.132 -24.054  22.813  1.00  0.00    -0.648 OA
ENDBRANCH  34  35
ENDBRANCH  33  34
ENDBRANCH  32  33
BRANCH  32  38
HETATM   38  C22 UNL     1       1.541 -22.784  27.810  1.00  0.00     0.197 C 
HETATM   39  O3  UNL     1       2.158 -23.812  28.172  1.00  0.00    -0.646 OA
HETATM   40  O4  UNL     1       1.225 -21.863  28.781  1.00  0.00    -0.646 OA
ENDBRANCH  32  38
ENDBRANCH  30  32
ENDBRANCH   1  22
TORSDOF 8
ENDMDL
