MODEL 1
REMARK VINA RESULT: -11.475454370      0.000      0.000
REMARK  8 active torsions:
REMARK  status: ('A' for Active; 'I' for Inactive)
REMARK    1  A    between atoms: C9_11  and  C10_12 
REMARK    2  A    between atoms: C10_12  and  N2_13 
REMARK    3  A    between atoms: N2_13  and  C11_15 
REMARK    4  A    between atoms: N3_22  and  C18_23 
REMARK    5  A    between atoms: C18_23  and  C19_24 
REMARK    6  A    between atoms: C18_23  and  C22_29 
REMARK    7  A    between atoms: C19_24  and  C20_25 
REMARK    8  A    between atoms: C20_25  and  C21_26 
ROOT
HETATM    1  N2  UNL     1       3.602 -16.092  23.228  1.00  0.00    -0.386 N 
ATOM      2  H2  UNL     1       3.924 -16.335  22.291  1.00  0.00     0.160 HD
ENDROOT
BRANCH   1   3
HETATM    3  C10 UNL     1       4.385 -16.523  24.349  1.00  0.00     0.158 C 
BRANCH   3   4
HETATM    4  C9  UNL     1       4.755 -17.943  24.229  1.00  0.00    -0.040 A 
HETATM    5  C8  UNL     1       5.923 -18.342  23.601  1.00  0.00     0.010 A 
HETATM    6  C7  UNL     1       6.222 -19.682  23.521  1.00  0.00     0.013 A 
HETATM    7  C6  UNL     1       5.408 -20.663  24.038  1.00  0.00    -0.025 A 
HETATM    8  C5  UNL     1       5.742 -21.998  23.935  1.00  0.00     0.014 A 
HETATM    9  C25 UNL     1       4.223 -20.257  24.672  1.00  0.00    -0.007 A 
HETATM   10  C4  UNL     1       4.884 -22.919  24.471  1.00  0.00     0.031 A 
HETATM   11  C3  UNL     1       3.712 -22.574  25.103  1.00  0.00     0.050 A 
HETATM   12  N1  UNL     1       2.901 -23.520  25.611  1.00  0.00    -0.345 N 
HETATM   13  C26 UNL     1       3.359 -21.215  25.214  1.00  0.00     0.070 A 
HETATM   14  C2  UNL     1       1.765 -23.144  26.218  1.00  0.00     0.080 A 
ATOM     15  H1  UNL     1       3.146 -24.507  25.536  1.00  0.00     0.167 HD
HETATM   16  C1  UNL     1       0.852 -24.173  26.786  1.00  0.00     0.089 C 
HETATM   17  N4  UNL     1       1.408 -21.869  26.336  1.00  0.00    -0.312 N 
HETATM   18  C27 UNL     1       2.198 -20.861  25.837  1.00  0.00     0.260 A 
ATOM     19  H4  UNL     1       0.533 -21.635  26.806  1.00  0.00     0.170 HD
HETATM   20  O6  UNL     1       1.829 -19.688  25.968  1.00  0.00    -0.267 OA
HETATM   21  C24 UNL     1       3.904 -18.929  24.766  1.00  0.00     0.022 A 
ENDBRANCH   3   4
ENDBRANCH   1   3
BRANCH   1  22
HETATM   22  C11 UNL     1       2.405 -15.348  23.354  1.00  0.00     0.028 A 
HETATM   23  C12 UNL     1       1.194 -15.975  23.616  1.00  0.00     0.030 A 
HETATM   24  C13 UNL     1       0.045 -15.228  23.724  1.00  0.00     0.020 A 
HETATM   25  C14 UNL     1       0.062 -13.850  23.576  1.00  0.00     0.040 A 
HETATM   26  C15 UNL     1       1.253 -13.197  23.315  1.00  0.00    -0.022 A 
HETATM   27  C23 UNL     1      -0.970 -12.818  23.614  1.00  0.00     0.255 A 
HETATM   28  C16 UNL     1       2.377 -13.979  23.215  1.00  0.00     0.039 A 
HETATM   29  C17 UNL     1       1.021 -11.727  23.212  1.00  0.00     0.167 A 
HETATM   30  N3  UNL     1      -0.405 -11.561  23.377  1.00  0.00    -0.329 N 
HETATM   31  O5  UNL     1      -2.194 -13.042  23.831  1.00  0.00    -0.267 OA
BRANCH  30  32
HETATM   32  C18 UNL     1      -1.062 -10.250  23.290  1.00  0.00     0.189 C 
BRANCH  32  33
HETATM   33  C19 UNL     1      -0.043  -9.162  23.192  1.00  0.00     0.047 C 
BRANCH  33  34
HETATM   34  C20 UNL     1      -0.695  -7.819  23.347  1.00  0.00     0.116 C 
BRANCH  34  35
HETATM   35  C21 UNL     1      -0.499  -7.058  22.075  1.00  0.00     0.172 C 
HETATM   36  O1  UNL     1       0.675  -6.890  21.640  1.00  0.00    -0.648 OA
HETATM   37  O2  UNL     1      -1.560  -6.519  21.342  1.00  0.00    -0.648 OA
ENDBRANCH  34  35
ENDBRANCH  33  34
ENDBRANCH  32  33
BRANCH  32  38
HETATM   38  C22 UNL     1      -1.891 -10.300  22.076  1.00  0.00     0.197 C 
HETATM   39  O3  UNL     1      -1.374 -10.367  20.938  1.00  0.00    -0.646 OA
HETATM   40  O4  UNL     1      -3.264 -10.277  22.145  1.00  0.00    -0.646 OA
ENDBRANCH  32  38
ENDBRANCH  30  32
ENDBRANCH   1  22
TORSDOF 8
ENDMDL
