MODEL 6
REMARK VINA RESULT: -10.596802467      1.539      2.266
REMARK  8 active torsions:
REMARK  status: ('A' for Active; 'I' for Inactive)
REMARK    1  A    between atoms: C9_11  and  C10_12 
REMARK    2  A    between atoms: C10_12  and  N2_13 
REMARK    3  A    between atoms: N2_13  and  C11_15 
REMARK    4  A    between atoms: N3_22  and  C18_23 
REMARK    5  A    between atoms: C18_23  and  C19_24 
REMARK    6  A    between atoms: C18_23  and  C22_29 
REMARK    7  A    between atoms: C19_24  and  C20_25 
REMARK    8  A    between atoms: C20_25  and  C21_26 
ROOT
HETATM    1  N2  UNL     1       5.525 -16.671  22.479  1.00  0.00    -0.386 N 
ATOM      2  H2  UNL     1       6.220 -16.743  21.735  1.00  0.00     0.160 HD
ENDROOT
BRANCH   1   3
HETATM    3  C10 UNL     1       5.854 -17.201  23.770  1.00  0.00     0.158 C 
BRANCH   3   4
HETATM    4  C9  UNL     1       5.722 -18.667  23.796  1.00  0.00    -0.040 A 
HETATM    5  C8  UNL     1       6.636 -19.493  23.165  1.00  0.00     0.010 A 
HETATM    6  C7  UNL     1       6.467 -20.857  23.225  1.00  0.00     0.013 A 
HETATM    7  C6  UNL     1       5.420 -21.453  23.888  1.00  0.00    -0.025 A 
HETATM    8  C5  UNL     1       5.284 -22.826  23.923  1.00  0.00     0.014 A 
HETATM    9  C25 UNL     1       4.492 -20.614  24.527  1.00  0.00    -0.007 A 
HETATM   10  C4  UNL     1       4.217 -23.349  24.601  1.00  0.00     0.031 A 
HETATM   11  C3  UNL     1       3.282 -22.572  25.243  1.00  0.00     0.050 A 
HETATM   12  N1  UNL     1       2.248 -23.137  25.895  1.00  0.00    -0.345 N 
HETATM   13  C26 UNL     1       3.408 -21.170  25.215  1.00  0.00     0.070 A 
HETATM   14  C2  UNL     1       1.355 -22.345  26.507  1.00  0.00     0.080 A 
ATOM     15  H1  UNL     1       2.145 -24.151  25.922  1.00  0.00     0.167 HD
HETATM   16  C1  UNL     1       0.203 -22.948  27.231  1.00  0.00     0.089 C 
HETATM   17  N4  UNL     1       1.451 -21.019  26.495  1.00  0.00    -0.312 N 
HETATM   18  C27 UNL     1       2.485 -20.388  25.846  1.00  0.00     0.260 A 
ATOM     19  H4  UNL     1       0.744 -20.461  26.975  1.00  0.00     0.170 HD
HETATM   20  O6  UNL     1       2.538 -19.153  25.860  1.00  0.00    -0.267 OA
HETATM   21  C24 UNL     1       4.640 -19.254  24.482  1.00  0.00     0.022 A 
ENDBRANCH   3   4
ENDBRANCH   1   3
BRANCH   1  22
HETATM   22  C11 UNL     1       4.286 -16.055  22.183  1.00  0.00     0.028 A 
HETATM   23  C12 UNL     1       3.620 -16.318  20.992  1.00  0.00     0.030 A 
HETATM   24  C13 UNL     1       2.422 -15.698  20.726  1.00  0.00     0.020 A 
HETATM   25  C14 UNL     1       1.855 -14.807  21.622  1.00  0.00     0.040 A 
HETATM   26  C15 UNL     1       2.494 -14.526  22.817  1.00  0.00    -0.022 A 
HETATM   27  C23 UNL     1       0.638 -13.999  21.610  1.00  0.00     0.255 A 
HETATM   28  C16 UNL     1       3.687 -15.166  23.044  1.00  0.00     0.039 A 
HETATM   29  C17 UNL     1       1.688 -13.556  23.615  1.00  0.00     0.167 A 
HETATM   30  N3  UNL     1       0.550 -13.241  22.782  1.00  0.00    -0.329 N 
HETATM   31  O5  UNL     1      -0.205 -13.996  20.669  1.00  0.00    -0.267 OA
BRANCH  30  32
HETATM   32  C18 UNL     1      -0.477 -12.271  23.182  1.00  0.00     0.189 C 
BRANCH  32  33
HETATM   33  C19 UNL     1      -0.647 -11.227  22.126  1.00  0.00     0.047 C 
BRANCH  33  34
HETATM   34  C20 UNL     1      -0.200  -9.888  22.637  1.00  0.00     0.116 C 
BRANCH  34  35
HETATM   35  C21 UNL     1      -1.403  -9.160  23.146  1.00  0.00     0.172 C 
HETATM   36  O1  UNL     1      -2.494  -9.276  22.521  1.00  0.00    -0.648 OA
HETATM   37  O2  UNL     1      -1.376  -8.352  24.286  1.00  0.00    -0.648 OA
ENDBRANCH  34  35
ENDBRANCH  33  34
ENDBRANCH  32  33
BRANCH  32  38
HETATM   38  C22 UNL     1      -1.714 -13.048  23.351  1.00  0.00     0.197 C 
HETATM   39  O3  UNL     1      -1.770 -14.022  24.135  1.00  0.00    -0.646 OA
HETATM   40  O4  UNL     1      -2.859 -12.732  22.656  1.00  0.00    -0.646 OA
ENDBRANCH  32  38
ENDBRANCH  30  32
ENDBRANCH   1  22
TORSDOF 8
ENDMDL
