MODEL 11
REMARK VINA RESULT: -10.407300538      3.058     10.467
REMARK  8 active torsions:
REMARK  status: ('A' for Active; 'I' for Inactive)
REMARK    1  A    between atoms: C9_11  and  C10_12 
REMARK    2  A    between atoms: C10_12  and  N2_13 
REMARK    3  A    between atoms: N2_13  and  C11_15 
REMARK    4  A    between atoms: N3_22  and  C18_23 
REMARK    5  A    between atoms: C18_23  and  C19_24 
REMARK    6  A    between atoms: C18_23  and  C22_29 
REMARK    7  A    between atoms: C19_24  and  C20_25 
REMARK    8  A    between atoms: C20_25  and  C21_26 
ROOT
HETATM    1  N2  UNL     1       5.493 -16.876  24.104  1.00  0.00    -0.386 N 
ATOM      2  H2  UNL     1       5.685 -16.315  24.935  1.00  0.00     0.160 HD
ENDROOT
BRANCH   1   3
HETATM    3  C10 UNL     1       5.637 -16.259  22.818  1.00  0.00     0.158 C 
BRANCH   3   4
HETATM    4  C9  UNL     1       4.332 -16.091  22.158  1.00  0.00    -0.040 A 
HETATM    5  C8  UNL     1       3.983 -16.823  21.036  1.00  0.00     0.010 A 
HETATM    6  C7  UNL     1       2.749 -16.630  20.460  1.00  0.00     0.013 A 
HETATM    7  C6  UNL     1       1.829 -15.731  20.948  1.00  0.00    -0.025 A 
HETATM    8  C5  UNL     1       0.601 -15.564  20.341  1.00  0.00     0.014 A 
HETATM    9  C25 UNL     1       2.184 -14.988  22.085  1.00  0.00    -0.007 A 
HETATM   10  C4  UNL     1      -0.265 -14.652  20.880  1.00  0.00     0.031 A 
HETATM   11  C3  UNL     1       0.035 -13.900  21.992  1.00  0.00     0.050 A 
HETATM   12  N1  UNL     1      -0.852 -13.013  22.481  1.00  0.00    -0.345 N 
HETATM   13  C26 UNL     1       1.285 -14.060  22.620  1.00  0.00     0.070 A 
HETATM   14  C2  UNL     1      -0.522 -12.296  23.566  1.00  0.00     0.080 A 
ATOM     15  H1  UNL     1      -1.760 -12.888  22.034  1.00  0.00     0.167 HD
HETATM   16  C1  UNL     1      -1.485 -11.308  24.123  1.00  0.00     0.089 C 
HETATM   17  N4  UNL     1       0.651 -12.427  24.178  1.00  0.00    -0.312 N 
HETATM   18  C27 UNL     1       1.594 -13.318  23.723  1.00  0.00     0.260 A 
ATOM     19  H4  UNL     1       0.854 -11.858  24.999  1.00  0.00     0.170 HD
HETATM   20  O6  UNL     1       2.671 -13.409  24.322  1.00  0.00    -0.267 OA
HETATM   21  C24 UNL     1       3.407 -15.164  22.676  1.00  0.00     0.022 A 
ENDBRANCH   3   4
ENDBRANCH   1   3
BRANCH   1  22
HETATM   22  C11 UNL     1       5.098 -18.223  24.282  1.00  0.00     0.028 A 
HETATM   23  C12 UNL     1       5.847 -19.267  23.755  1.00  0.00     0.030 A 
HETATM   24  C13 UNL     1       5.436 -20.566  23.935  1.00  0.00     0.020 A 
HETATM   25  C14 UNL     1       4.278 -20.866  24.635  1.00  0.00     0.040 A 
HETATM   26  C15 UNL     1       3.510 -19.848  25.172  1.00  0.00    -0.022 A 
HETATM   27  C23 UNL     1       3.592 -22.113  24.964  1.00  0.00     0.255 A 
HETATM   28  C16 UNL     1       3.957 -18.566  24.970  1.00  0.00     0.039 A 
HETATM   29  C17 UNL     1       2.330 -20.417  25.887  1.00  0.00     0.167 A 
HETATM   30  N3  UNL     1       2.425 -21.845  25.687  1.00  0.00    -0.329 N 
HETATM   31  O5  UNL     1       4.003 -23.261  24.635  1.00  0.00    -0.267 OA
BRANCH  30  32
HETATM   32  C18 UNL     1       1.415 -22.782  26.195  1.00  0.00     0.189 C 
BRANCH  32  33
HETATM   33  C19 UNL     1       1.563 -24.115  25.536  1.00  0.00     0.047 C 
BRANCH  33  34
HETATM   34  C20 UNL     1       0.321 -24.459  24.766  1.00  0.00     0.116 C 
BRANCH  34  35
HETATM   35  C21 UNL     1       0.444 -23.870  23.397  1.00  0.00     0.172 C 
HETATM   36  O1  UNL     1       1.473 -24.131  22.713  1.00  0.00    -0.648 OA
HETATM   37  O2  UNL     1      -0.531 -23.040  22.837  1.00  0.00    -0.648 OA
ENDBRANCH  34  35
ENDBRANCH  33  34
ENDBRANCH  32  33
BRANCH  32  38
HETATM   38  C22 UNL     1       1.660 -22.886  27.641  1.00  0.00     0.197 C 
HETATM   39  O3  UNL     1       2.407 -23.773  28.113  1.00  0.00    -0.646 OA
HETATM   40  O4  UNL     1       1.079 -22.012  28.531  1.00  0.00    -0.646 OA
ENDBRANCH  32  38
ENDBRANCH  30  32
ENDBRANCH   1  22
TORSDOF 8
ENDMDL
