MODEL 7
REMARK VINA RESULT: -10.485239303      1.245      2.160
REMARK  8 active torsions:
REMARK  status: ('A' for Active; 'I' for Inactive)
REMARK    1  A    between atoms: C9_11  and  C10_12 
REMARK    2  A    between atoms: C10_12  and  N2_13 
REMARK    3  A    between atoms: N2_13  and  C11_15 
REMARK    4  A    between atoms: N3_22  and  C18_23 
REMARK    5  A    between atoms: C18_23  and  C19_24 
REMARK    6  A    between atoms: C18_23  and  C22_29 
REMARK    7  A    between atoms: C19_24  and  C20_25 
REMARK    8  A    between atoms: C20_25  and  C21_26 
ROOT
HETATM    1  N2  UNL     1       3.427 -16.027  23.606  1.00  0.00    -0.386 N 
ATOM      2  H2  UNL     1       3.629 -16.392  22.675  1.00  0.00     0.160 HD
ENDROOT
BRANCH   1   3
HETATM    3  C10 UNL     1       4.181 -16.535  24.714  1.00  0.00     0.158 C 
BRANCH   3   4
HETATM    4  C9  UNL     1       4.593 -17.930  24.485  1.00  0.00    -0.040 A 
HETATM    5  C8  UNL     1       5.771 -18.243  23.826  1.00  0.00     0.010 A 
HETATM    6  C7  UNL     1       6.110 -19.564  23.643  1.00  0.00     0.013 A 
HETATM    7  C6  UNL     1       5.328 -20.606  24.085  1.00  0.00    -0.025 A 
HETATM    8  C5  UNL     1       5.703 -21.918  23.879  1.00  0.00     0.014 A 
HETATM    9  C25 UNL     1       4.134 -20.287  24.751  1.00  0.00    -0.007 A 
HETATM   10  C4  UNL     1       4.876 -22.903  24.346  1.00  0.00     0.031 A 
HETATM   11  C3  UNL     1       3.697 -22.644  25.004  1.00  0.00     0.050 A 
HETATM   12  N1  UNL     1       2.917 -23.651  25.441  1.00  0.00    -0.345 N 
HETATM   13  C26 UNL     1       3.303 -21.310  25.220  1.00  0.00     0.070 A 
HETATM   14  C2  UNL     1       1.773 -23.357  26.077  1.00  0.00     0.080 A 
ATOM     15  H1  UNL     1       3.192 -24.621  25.290  1.00  0.00     0.167 HD
HETATM   16  C1  UNL     1       0.895 -24.454  26.566  1.00  0.00     0.089 C 
HETATM   17  N4  UNL     1       1.378 -22.107  26.293  1.00  0.00    -0.312 N 
HETATM   18  C27 UNL     1       2.134 -21.040  25.870  1.00  0.00     0.260 A 
ATOM     19  H4  UNL     1       0.498 -21.937  26.781  1.00  0.00     0.170 HD
HETATM   20  O6  UNL     1       1.730 -19.893  26.092  1.00  0.00    -0.267 OA
HETATM   21  C24 UNL     1       3.776 -18.980  24.947  1.00  0.00     0.022 A 
ENDBRANCH   3   4
ENDBRANCH   1   3
BRANCH   1  22
HETATM   22  C11 UNL     1       2.418 -15.044  23.736  1.00  0.00     0.028 A 
HETATM   23  C12 UNL     1       1.185 -15.351  24.296  1.00  0.00     0.030 A 
HETATM   24  C13 UNL     1       0.218 -14.380  24.402  1.00  0.00     0.020 A 
HETATM   25  C14 UNL     1       0.443 -13.086  23.959  1.00  0.00     0.040 A 
HETATM   26  C15 UNL     1       1.661 -12.749  23.397  1.00  0.00    -0.022 A 
HETATM   27  C23 UNL     1      -0.375 -11.876  23.918  1.00  0.00     0.255 A 
HETATM   28  C16 UNL     1       2.599 -13.748  23.310  1.00  0.00     0.039 A 
HETATM   29  C17 UNL     1       1.668 -11.307  23.012  1.00  0.00     0.167 A 
HETATM   30  N3  UNL     1       0.345 -10.827  23.337  1.00  0.00    -0.329 N 
HETATM   31  O5  UNL     1      -1.559 -11.802  24.350  1.00  0.00    -0.267 OA
BRANCH  30  32
HETATM   32  C18 UNL     1      -0.085  -9.450  23.063  1.00  0.00     0.189 C 
BRANCH  32  33
HETATM   33  C19 UNL     1      -1.285  -9.446  22.173  1.00  0.00     0.047 C 
BRANCH  33  34
HETATM   34  C20 UNL     1      -1.060 -10.340  20.988  1.00  0.00     0.116 C 
BRANCH  34  35
HETATM   35  C21 UNL     1      -2.208 -11.295  20.901  1.00  0.00     0.172 C 
HETATM   36  O1  UNL     1      -3.277 -11.018  21.515  1.00  0.00    -0.648 OA
HETATM   37  O2  UNL     1      -2.152 -12.485  20.171  1.00  0.00    -0.648 OA
ENDBRANCH  34  35
ENDBRANCH  33  34
ENDBRANCH  32  33
BRANCH  32  38
HETATM   38  C22 UNL     1      -0.406  -8.865  24.374  1.00  0.00     0.197 C 
HETATM   39  O3  UNL     1      -1.548  -8.416  24.624  1.00  0.00    -0.646 OA
HETATM   40  O4  UNL     1       0.533  -8.793  25.376  1.00  0.00    -0.646 OA
ENDBRANCH  32  38
ENDBRANCH  30  32
ENDBRANCH   1  22
TORSDOF 8
ENDMDL
