MODEL 17
REMARK VINA RESULT: -6.880871906      1.435      3.412
REMARK  0 active torsions:
REMARK  status: ('A' for Active; 'I' for Inactive)
ROOT
HETATM    1  N1  UNL     1      18.846  18.021  17.367  1.00  0.00    -0.102 NA
HETATM    2  C1  UNL     1      17.988  17.685  18.450  1.00  0.00     0.049 A 
HETATM    3  C2  UNL     1      16.669  17.332  18.189  1.00  0.00     0.054 A 
HETATM    4  C3  UNL     1      15.812  17.001  19.217  1.00  0.00     0.065 A 
HETATM    5  N2  UNL     1      14.470  16.645  18.910  1.00  0.00    -0.101 NA
HETATM    6  C4  UNL     1      16.267  17.020  20.524  1.00  0.00     0.073 A 
HETATM    7  C5  UNL     1      15.438  16.695  21.579  1.00  0.00     0.273 A 
HETATM    8  O1  UNL     1      14.244  16.374  21.348  1.00  0.00    -0.266 OA
HETATM    9  N3  UNL     1      15.895  16.717  22.856  1.00  0.00    -0.263 N 
ATOM     10  H3  UNL     1      15.261  16.471  23.617  1.00  0.00     0.190 HD
HETATM   11  N4  UNL     1      17.145  17.050  23.139  1.00  0.00    -0.263 N 
ATOM     12  H4  UNL     1      17.479  17.064  24.103  1.00  0.00     0.190 HD
HETATM   13  C6  UNL     1      17.962  17.368  22.117  1.00  0.00     0.271 A 
HETATM   14  O2  UNL     1      19.160  17.688  22.363  1.00  0.00    -0.266 OA
HETATM   15  C7  UNL     1      17.573  17.368  20.805  1.00  0.00     0.053 A 
HETATM   16  C8  UNL     1      18.415  17.696  19.762  1.00  0.00     0.044 A 
ENDROOT
TORSDOF 0
ENDMDL
