MODEL 2
REMARK VINA RESULT: -8.000497534      1.052      3.090
REMARK  0 active torsions:
REMARK  status: ('A' for Active; 'I' for Inactive)
ROOT
HETATM    1  N1  UNL     1      18.592  17.576  18.748  1.00  0.00    -0.102 NA
HETATM    2  C1  UNL     1      17.706  17.347  19.836  1.00  0.00     0.049 A 
HETATM    3  C2  UNL     1      16.395  16.964  19.578  1.00  0.00     0.054 A 
HETATM    4  C3  UNL     1      15.512  16.734  20.612  1.00  0.00     0.065 A 
HETATM    5  N2  UNL     1      14.179  16.344  20.307  1.00  0.00    -0.101 NA
HETATM    6  C4  UNL     1      15.933  16.886  21.921  1.00  0.00     0.073 A 
HETATM    7  C5  UNL     1      15.077  16.664  22.981  1.00  0.00     0.273 A 
HETATM    8  O1  UNL     1      13.889  16.317  22.753  1.00  0.00    -0.266 OA
HETATM    9  N3  UNL     1      15.501  16.815  24.261  1.00  0.00    -0.263 N 
ATOM     10  H3  UNL     1      14.848  16.644  25.026  1.00  0.00     0.190 HD
HETATM   11  N4  UNL     1      16.743  17.179  24.542  1.00  0.00    -0.263 N 
ATOM     12  H4  UNL     1      17.052  17.290  25.508  1.00  0.00     0.190 HD
HETATM   13  C6  UNL     1      17.585  17.397  23.515  1.00  0.00     0.271 A 
HETATM   14  O2  UNL     1      18.777  17.744  23.758  1.00  0.00    -0.266 OA
HETATM   15  C7  UNL     1      17.231  17.264  22.199  1.00  0.00     0.053 A 
HETATM   16  C8  UNL     1      18.099  17.490  21.151  1.00  0.00     0.044 A 
ENDROOT
TORSDOF 0
ENDMDL
