MODEL 20
REMARK VINA RESULT: -6.814469008      1.747      3.901
REMARK  0 active torsions:
REMARK  status: ('A' for Active; 'I' for Inactive)
ROOT
HETATM    1  N1  UNL     1      16.264  16.752  24.234  1.00  0.00    -0.102 NA
HETATM    2  C1  UNL     1      16.624  16.929  22.871  1.00  0.00     0.049 A 
HETATM    3  C2  UNL     1      17.939  17.246  22.549  1.00  0.00     0.054 A 
HETATM    4  C3  UNL     1      18.320  17.424  21.236  1.00  0.00     0.065 A 
HETATM    5  N2  UNL     1      19.674  17.747  20.948  1.00  0.00    -0.101 NA
HETATM    6  C4  UNL     1      17.384  17.288  20.225  1.00  0.00     0.073 A 
HETATM    7  C5  UNL     1      17.730  17.459  18.900  1.00  0.00     0.273 A 
HETATM    8  O1  UNL     1      18.918  17.745  18.603  1.00  0.00    -0.266 OA
HETATM    9  N3  UNL     1      16.804  17.322  17.917  1.00  0.00    -0.263 N 
ATOM     10  H3  UNL     1      17.086  17.453  16.945  1.00  0.00     0.190 HD
HETATM   11  N4  UNL     1      15.543  17.022  18.188  1.00  0.00    -0.263 N 
ATOM     12  H4  UNL     1      14.856  16.921  17.442  1.00  0.00     0.190 HD
HETATM   13  C6  UNL     1      15.197  16.852  19.478  1.00  0.00     0.271 A 
HETATM   14  O2  UNL     1      13.999  16.564  19.762  1.00  0.00    -0.266 OA
HETATM   15  C7  UNL     1      16.074  16.973  20.523  1.00  0.00     0.053 A 
HETATM   16  C8  UNL     1      15.712  16.799  21.843  1.00  0.00     0.044 A 
ENDROOT
TORSDOF 0
ENDMDL
