MODEL 5
REMARK VINA RESULT: -7.493409686      1.655      3.612
REMARK  0 active torsions:
REMARK  status: ('A' for Active; 'I' for Inactive)
ROOT
HETATM    1  N1  UNL     1      13.915  16.481  23.948  1.00  0.00    -0.102 NA
HETATM    2  C1  UNL     1      15.089  16.744  23.192  1.00  0.00     0.049 A 
HETATM    3  C2  UNL     1      16.266  17.077  23.853  1.00  0.00     0.054 A 
HETATM    4  C3  UNL     1      17.421  17.338  23.147  1.00  0.00     0.065 A 
HETATM    5  N2  UNL     1      18.604  17.676  23.860  1.00  0.00    -0.101 NA
HETATM    6  C4  UNL     1      17.412  17.268  21.765  1.00  0.00     0.073 A 
HETATM    7  C5  UNL     1      18.550  17.523  21.026  1.00  0.00     0.273 A 
HETATM    8  O1  UNL     1      19.617  17.824  21.619  1.00  0.00    -0.266 OA
HETATM    9  N3  UNL     1      18.529  17.451  19.670  1.00  0.00    -0.263 N 
ATOM     10  H3  UNL     1      19.385  17.643  19.148  1.00  0.00     0.190 HD
HETATM   11  N4  UNL     1      17.426  17.136  19.009  1.00  0.00    -0.263 N 
ATOM     12  H4  UNL     1      17.422  17.085  17.991  1.00  0.00     0.190 HD
HETATM   13  C6  UNL     1      16.312  16.886  19.722  1.00  0.00     0.271 A 
HETATM   14  O2  UNL     1      15.246  16.583  19.113  1.00  0.00    -0.266 OA
HETATM   15  C7  UNL     1      16.255  16.938  21.089  1.00  0.00     0.053 A 
HETATM   16  C8  UNL     1      15.109  16.681  21.813  1.00  0.00     0.044 A 
ENDROOT
TORSDOF 0
ENDMDL
