MODEL 18
REMARK VINA RESULT: -8.095505558      2.224      3.372
REMARK  6 active torsions:
REMARK  status: ('A' for Active; 'I' for Inactive)
REMARK    1  A    between atoms: N1_4  and  C4_5 
REMARK    2  A    between atoms: C7_8  and  C8_9 
REMARK    3  A    between atoms: C8_9  and  O1_10 
REMARK    4  A    between atoms: O1_10  and  P1_11 
REMARK    5  A    between atoms: P1_11  and  O4_14 
REMARK    6  A    between atoms: O4_14  and  P2_15 
ROOT
HETATM    1  C4  UNL     1     -13.388  42.056  37.372  1.00  0.00     0.257 C 
HETATM    2  C5  UNL     1     -12.276  43.037  37.627  1.00  0.00     0.025 C 
HETATM    3  C6  UNL     1     -12.686  44.176  37.071  1.00  0.00     0.007 C 
HETATM    4  C7  UNL     1     -13.993  43.851  36.522  1.00  0.00     0.171 C 
HETATM    5  O8  UNL     1     -13.891  42.539  36.160  1.00  0.00    -0.352 OA
ENDROOT
BRANCH   1   6
HETATM    6  N1  UNL     1     -12.916  40.728  37.461  1.00  0.00    -0.278 N 
HETATM    7  C3  UNL     1     -12.357  40.189  36.386  1.00  0.00     0.111 A 
HETATM    8  C2  UNL     1     -11.950  38.873  36.399  1.00  0.00     0.022 A 
HETATM    9  C1  UNL     1     -11.394  38.242  35.157  1.00  0.00     0.056 C 
HETATM   10  C10 UNL     1     -12.139  38.144  37.557  1.00  0.00     0.256 A 
HETATM   11  N2  UNL     1     -12.721  38.729  38.658  1.00  0.00    -0.275 N 
HETATM   12  O10 UNL     1     -11.771  36.953  37.558  1.00  0.00    -0.267 OA
HETATM   13  C9  UNL     1     -13.106  40.018  38.614  1.00  0.00     0.331 A 
ATOM     14  H2  UNL     1     -12.860  38.184  39.509  1.00  0.00     0.173 HD
HETATM   15  O9  UNL     1     -13.632  40.584  39.591  1.00  0.00    -0.246 OA
ENDBRANCH   1   6
BRANCH   4  16
HETATM   16  C8  UNL     1     -14.662  44.774  35.589  1.00  0.00     0.217 C 
BRANCH  16  17
HETATM   17  O1  UNL     1     -13.651  45.784  35.390  1.00  0.00    -0.287 OA
BRANCH  17  18
HETATM   18  P1  UNL     1     -13.315  45.846  33.750  1.00  0.00     0.418 P 
HETATM   19  O2  UNL     1     -14.442  46.774  33.157  1.00  0.00    -0.624 OA
HETATM   20  O3  UNL     1     -13.707  44.324  33.053  1.00  0.00    -0.624 OA
BRANCH  18  21
HETATM   21  O4  UNL     1     -11.860  46.395  33.308  1.00  0.00    -0.173 OA
BRANCH  21  22
HETATM   22  P2  UNL     1     -11.035  47.393  34.350  1.00  0.00     0.431 P 
HETATM   23  O5  UNL     1     -10.414  46.537  35.422  1.00  0.00    -0.616 OA
HETATM   24  O6  UNL     1      -9.783  48.168  33.524  1.00  0.00    -0.616 OA
HETATM   25  O7  UNL     1     -12.009  48.520  35.094  1.00  0.00    -0.616 OA
ENDBRANCH  21  22
ENDBRANCH  18  21
ENDBRANCH  17  18
ENDBRANCH  16  17
ENDBRANCH   4  16
TORSDOF 6
ENDMDL
