MODEL 15
REMARK VINA RESULT: -6.396426192      1.750      2.657
REMARK  3 active torsions:
REMARK  status: ('A' for Active; 'I' for Inactive)
REMARK    1  A    between atoms: C5_5  and  S1_6 
REMARK    2  A    between atoms: S1_6  and  N1_9 
REMARK    3  A    between atoms: C9_13  and  C10_14 
ROOT
HETATM    1  S1  UNL     1      37.090  60.386  81.610  1.00  0.00     0.244 S 
HETATM    2  O1  UNL     1      36.257  61.631  81.495  1.00  0.00    -0.206 OA
HETATM    3  O2  UNL     1      38.271  60.692  82.430  1.00  0.00    -0.206 OA
ENDROOT
BRANCH   1   4
HETATM    4  C5  UNL     1      37.682  60.051  79.979  1.00  0.00     0.074 A 
HETATM    5  C4  UNL     1      38.491  59.000  79.675  1.00  0.00     0.025 A 
HETATM    6  C3  UNL     1      38.910  58.823  78.358  1.00  0.00     0.008 A 
HETATM    7  C2  UNL     1      38.514  59.696  77.370  1.00  0.00    -0.062 A 
HETATM    8  C1  UNL     1      38.945  59.533  75.956  1.00  0.00     0.048 C 
HETATM    9  C12 UNL     1      37.700  60.743  77.703  1.00  0.00     0.008 A 
HETATM   10  C11 UNL     1      37.280  60.930  78.995  1.00  0.00     0.025 A 
ENDBRANCH   1   4
BRANCH   1  11
HETATM   11  N1  UNL     1      36.107  59.096  82.175  1.00  0.00    -0.192 NA
HETATM   12  C6  UNL     1      35.499  58.468  80.981  1.00  0.00     0.109 C 
HETATM   13  C7  UNL     1      34.322  59.345  80.640  1.00  0.00     0.018 C 
HETATM   14  C8  UNL     1      33.996  60.097  81.910  1.00  0.00     0.033 C 
HETATM   15  C9  UNL     1      34.948  59.522  82.926  1.00  0.00     0.175 C 
BRANCH  15  16
HETATM   16  C10 UNL     1      35.144  60.316  84.099  1.00  0.00     0.192 C 
HETATM   17  O3  UNL     1      34.205  61.111  84.460  1.00  0.00    -0.647 OA
HETATM   18  O4  UNL     1      36.252  60.337  84.924  1.00  0.00    -0.647 OA
ENDBRANCH  15  16
ENDBRANCH   1  11
TORSDOF 3
ENDMDL
