MODEL 17
REMARK VINA RESULT: -6.280270293      2.880      5.640
REMARK  3 active torsions:
REMARK  status: ('A' for Active; 'I' for Inactive)
REMARK    1  A    between atoms: C5_5  and  S1_6 
REMARK    2  A    between atoms: S1_6  and  N1_9 
REMARK    3  A    between atoms: C9_13  and  C10_14 
ROOT
HETATM    1  S1  UNL     1      37.001  59.319  84.226  1.00  0.00     0.244 S 
HETATM    2  O1  UNL     1      38.208  59.828  83.490  1.00  0.00    -0.206 OA
HETATM    3  O2  UNL     1      36.701  60.250  85.324  1.00  0.00    -0.206 OA
ENDROOT
BRANCH   1   4
HETATM    4  C5  UNL     1      37.501  57.800  84.976  1.00  0.00     0.074 A 
HETATM    5  C4  UNL     1      37.480  56.602  84.331  1.00  0.00     0.025 A 
HETATM    6  C3  UNL     1      37.889  55.456  85.010  1.00  0.00     0.008 A 
HETATM    7  C2  UNL     1      38.312  55.527  86.318  1.00  0.00    -0.062 A 
HETATM    8  C1  UNL     1      38.755  54.322  87.069  1.00  0.00     0.048 C 
HETATM    9  C12 UNL     1      38.325  56.743  86.943  1.00  0.00     0.008 A 
HETATM   10  C11 UNL     1      37.925  57.880  86.286  1.00  0.00     0.025 A 
ENDBRANCH   1   4
BRANCH   1  11
HETATM   11  N1  UNL     1      35.725  59.053  83.108  1.00  0.00    -0.192 NA
HETATM   12  C6  UNL     1      35.831  60.111  82.080  1.00  0.00     0.109 C 
HETATM   13  C7  UNL     1      35.168  61.316  82.696  1.00  0.00     0.018 C 
HETATM   14  C8  UNL     1      34.273  60.772  83.786  1.00  0.00     0.033 C 
HETATM   15  C9  UNL     1      34.405  59.278  83.651  1.00  0.00     0.175 C 
BRANCH  15  16
HETATM   16  C10 UNL     1      33.996  58.522  84.794  1.00  0.00     0.192 C 
HETATM   17  O3  UNL     1      33.433  59.143  85.766  1.00  0.00    -0.647 OA
HETATM   18  O4  UNL     1      34.131  57.162  84.995  1.00  0.00    -0.647 OA
ENDBRANCH  15  16
ENDBRANCH   1  11
TORSDOF 3
ENDMDL
