MODEL 7
REMARK VINA RESULT: -6.534533523      2.964      5.522
REMARK  3 active torsions:
REMARK  status: ('A' for Active; 'I' for Inactive)
REMARK    1  A    between atoms: C5_5  and  S1_6 
REMARK    2  A    between atoms: S1_6  and  N1_9 
REMARK    3  A    between atoms: C9_13  and  C10_14 
ROOT
HETATM    1  S1  UNL     1      36.988  59.381  83.735  1.00  0.00     0.244 S 
HETATM    2  O1  UNL     1      36.335  58.757  82.534  1.00  0.00    -0.206 OA
HETATM    3  O2  UNL     1      38.253  59.995  83.308  1.00  0.00    -0.206 OA
ENDROOT
BRANCH   1   4
HETATM    4  C5  UNL     1      37.414  58.038  84.802  1.00  0.00     0.074 A 
HETATM    5  C4  UNL     1      36.961  56.767  84.625  1.00  0.00     0.025 A 
HETATM    6  C3  UNL     1      37.349  55.776  85.524  1.00  0.00     0.008 A 
HETATM    7  C2  UNL     1      38.181  56.070  86.580  1.00  0.00    -0.062 A 
HETATM    8  C1  UNL     1      38.613  55.034  87.555  1.00  0.00     0.048 C 
HETATM    9  C12 UNL     1      38.623  57.355  86.733  1.00  0.00     0.008 A 
HETATM   10  C11 UNL     1      38.249  58.342  85.856  1.00  0.00     0.025 A 
ENDBRANCH   1   4
BRANCH   1  11
HETATM   11  N1  UNL     1      35.871  60.435  84.504  1.00  0.00    -0.192 NA
HETATM   12  C6  UNL     1      34.859  59.579  85.162  1.00  0.00     0.109 C 
HETATM   13  C7  UNL     1      33.898  59.204  84.063  1.00  0.00     0.018 C 
HETATM   14  C8  UNL     1      34.084  60.250  82.988  1.00  0.00     0.033 C 
HETATM   15  C9  UNL     1      35.070  61.217  83.590  1.00  0.00     0.175 C 
BRANCH  15  16
HETATM   16  C10 UNL     1      35.733  62.074  82.657  1.00  0.00     0.192 C 
HETATM   17  O3  UNL     1      36.213  63.184  83.085  1.00  0.00    -0.647 OA
HETATM   18  O4  UNL     1      35.933  61.854  81.308  1.00  0.00    -0.647 OA
ENDBRANCH  15  16
ENDBRANCH   1  11
TORSDOF 3
ENDMDL
