MODEL 5
REMARK VINA RESULT: -6.569214787      2.267      5.363
REMARK  3 active torsions:
REMARK  status: ('A' for Active; 'I' for Inactive)
REMARK    1  A    between atoms: C5_5  and  S1_6 
REMARK    2  A    between atoms: S1_6  and  N1_9 
REMARK    3  A    between atoms: C9_13  and  C10_14 
ROOT
HETATM    1  S1  UNL     1      37.728  59.542  82.226  1.00  0.00     0.244 S 
HETATM    2  O1  UNL     1      38.502  58.759  81.203  1.00  0.00    -0.206 OA
HETATM    3  O2  UNL     1      38.414  60.824  82.445  1.00  0.00    -0.206 OA
ENDROOT
BRANCH   1   4
HETATM    4  C5  UNL     1      37.868  58.631  83.734  1.00  0.00     0.074 A 
HETATM    5  C4  UNL     1      37.674  59.182  84.963  1.00  0.00     0.025 A 
HETATM    6  C3  UNL     1      37.812  58.382  86.095  1.00  0.00     0.008 A 
HETATM    7  C2  UNL     1      38.139  57.049  85.980  1.00  0.00    -0.062 A 
HETATM    8  C1  UNL     1      38.293  56.170  87.170  1.00  0.00     0.048 C 
HETATM    9  C12 UNL     1      38.326  56.521  84.733  1.00  0.00     0.008 A 
HETATM   10  C11 UNL     1      38.194  57.297  83.609  1.00  0.00     0.025 A 
ENDBRANCH   1   4
BRANCH   1  11
HETATM   11  N1  UNL     1      36.087  59.652  81.732  1.00  0.00    -0.192 NA
HETATM   12  C6  UNL     1      36.051  59.318  80.291  1.00  0.00     0.109 C 
HETATM   13  C7  UNL     1      36.447  60.592  79.590  1.00  0.00     0.018 C 
HETATM   14  C8  UNL     1      36.181  61.700  80.583  1.00  0.00     0.033 C 
HETATM   15  C9  UNL     1      35.551  60.994  81.754  1.00  0.00     0.175 C 
BRANCH  15  16
HETATM   16  C10 UNL     1      35.567  61.719  82.987  1.00  0.00     0.192 C 
HETATM   17  O3  UNL     1      35.011  61.186  84.014  1.00  0.00    -0.647 OA
HETATM   18  O4  UNL     1      36.122  62.961  83.225  1.00  0.00    -0.647 OA
ENDBRANCH  15  16
ENDBRANCH   1  11
TORSDOF 3
ENDMDL
