MODEL 12
REMARK VINA RESULT: -8.277734130      1.186      1.381
REMARK  9 active torsions:
REMARK  status: ('A' for Active; 'I' for Inactive)
REMARK    1  A    between atoms: C1_2  and  C2_4 
REMARK    2  A    between atoms: C2_4  and  C3_5 
REMARK    3  A    between atoms: C3_5  and  C4_6 
REMARK    4  A    between atoms: C4_6  and  N1_7 
REMARK    5  A    between atoms: C4_6  and  C17_28 
REMARK       I    between atoms: N1_7  and  C5_9 
REMARK    6  A    between atoms: C5_9  and  C6_11 
REMARK    7  A    between atoms: C9_14  and  S1_15 
REMARK    8  A    between atoms: S1_15  and  N2_18 
REMARK    9  A    between atoms: C13_22  and  C14_23 
ROOT
HETATM    1  C6  UNL     1      14.655  14.310  36.115  1.00  0.00     0.032 A 
HETATM    2  C7  UNL     1      14.332  15.454  35.420  1.00  0.00     0.018 A 
HETATM    3  C8  UNL     1      15.117  15.946  34.405  1.00  0.00     0.026 A 
HETATM    4  C9  UNL     1      16.273  15.292  34.053  1.00  0.00     0.074 A 
HETATM    5  C15 UNL     1      16.624  14.151  34.725  1.00  0.00     0.026 A 
HETATM    6  C16 UNL     1      15.822  13.678  35.735  1.00  0.00     0.018 A 
ENDROOT
BRANCH   1   7
HETATM    7  C5  UNL     1      13.812  13.804  37.186  1.00  0.00     0.252 C 
HETATM    8  N1  UNL     1      14.261  13.517  38.484  1.00  0.00    -0.342 N 
ATOM      9  H1  UNL     1      15.246  13.672  38.699  1.00  0.00     0.163 HD
HETATM   10  O3  UNL     1      12.580  13.602  36.945  1.00  0.00    -0.268 OA
BRANCH   8  11
HETATM   11  C4  UNL     1      13.390  13.005  39.551  1.00  0.00     0.186 C 
BRANCH  11  12
HETATM   12  C3  UNL     1      13.898  11.641  39.891  1.00  0.00     0.046 C 
BRANCH  12  13
HETATM   13  C2  UNL     1      13.632  10.588  38.873  1.00  0.00     0.116 C 
BRANCH  13  14
HETATM   14  C1  UNL     1      14.288   9.307  39.121  1.00  0.00     0.172 C 
HETATM   15  O1  UNL     1      14.555   8.895  40.264  1.00  0.00    -0.648 OA
HETATM   16  O2  UNL     1      14.629   8.510  38.039  1.00  0.00    -0.648 OA
ENDBRANCH  13  14
ENDBRANCH  12  13
ENDBRANCH  11  12
BRANCH  11  17
HETATM   17  C17 UNL     1      13.489  13.967  40.683  1.00  0.00     0.196 C 
HETATM   18  O8  UNL     1      12.688  13.947  41.665  1.00  0.00    -0.646 OA
HETATM   19  O9  UNL     1      14.501  14.916  40.651  1.00  0.00    -0.646 OA
ENDBRANCH  11  17
ENDBRANCH   8  11
ENDBRANCH   1   7
BRANCH   4  20
HETATM   20  S1  UNL     1      17.280  15.934  32.745  1.00  0.00     0.244 S 
HETATM   21  O4  UNL     1      18.601  16.286  33.330  1.00  0.00    -0.206 OA
HETATM   22  O5  UNL     1      16.650  17.198  32.266  1.00  0.00    -0.206 OA
BRANCH  20  23
HETATM   23  N2  UNL     1      17.332  14.761  31.511  1.00  0.00    -0.192 NA
HETATM   24  C10 UNL     1      18.727  14.679  31.008  1.00  0.00     0.109 C 
HETATM   25  C11 UNL     1      18.822  15.974  30.208  1.00  0.00     0.018 C 
HETATM   26  C12 UNL     1      17.405  16.309  29.772  1.00  0.00     0.033 C 
HETATM   27  C13 UNL     1      16.662  15.100  30.297  1.00  0.00     0.175 C 
BRANCH  27  28
HETATM   28  C14 UNL     1      15.215  15.237  30.355  1.00  0.00     0.192 C 
HETATM   29  O6  UNL     1      14.523  14.507  31.096  1.00  0.00    -0.647 OA
HETATM   30  O7  UNL     1      14.578  16.183  29.585  1.00  0.00    -0.647 OA
ENDBRANCH  27  28
ENDBRANCH  20  23
ENDBRANCH   4  20
TORSDOF 9
ENDMDL
