MODEL 5
REMARK VINA RESULT: -8.498061034      5.452     10.070
REMARK  9 active torsions:
REMARK  status: ('A' for Active; 'I' for Inactive)
REMARK    1  A    between atoms: C1_2  and  C2_4 
REMARK    2  A    between atoms: C2_4  and  C3_5 
REMARK    3  A    between atoms: C3_5  and  C4_6 
REMARK    4  A    between atoms: C4_6  and  N1_7 
REMARK    5  A    between atoms: C4_6  and  C17_28 
REMARK       I    between atoms: N1_7  and  C5_9 
REMARK    6  A    between atoms: C5_9  and  C6_11 
REMARK    7  A    between atoms: C9_14  and  S1_15 
REMARK    8  A    between atoms: S1_15  and  N2_18 
REMARK    9  A    between atoms: C13_22  and  C14_23 
ROOT
HETATM    1  C6  UNL     1      14.647  19.453  31.289  1.00  0.00     0.032 A 
HETATM    2  C7  UNL     1      14.187  18.173  31.509  1.00  0.00     0.018 A 
HETATM    3  C8  UNL     1      14.967  17.198  32.079  1.00  0.00     0.026 A 
HETATM    4  C9  UNL     1      16.258  17.482  32.452  1.00  0.00     0.074 A 
HETATM    5  C15 UNL     1      16.748  18.745  32.247  1.00  0.00     0.026 A 
HETATM    6  C16 UNL     1      15.948  19.704  31.676  1.00  0.00     0.018 A 
ENDROOT
BRANCH   1   7
HETATM    7  C5  UNL     1      13.806  20.473  30.684  1.00  0.00     0.252 C 
HETATM    8  N1  UNL     1      13.151  20.335  29.450  1.00  0.00    -0.342 N 
ATOM      9  H1  UNL     1      13.268  19.462  28.937  1.00  0.00     0.163 HD
HETATM   10  O3  UNL     1      13.643  21.571  31.303  1.00  0.00    -0.268 OA
BRANCH   8  11
HETATM   11  C4  UNL     1      12.305  21.381  28.857  1.00  0.00     0.186 C 
BRANCH  11  12
HETATM   12  C3  UNL     1      13.000  21.828  27.612  1.00  0.00     0.046 C 
BRANCH  12  13
HETATM   13  C2  UNL     1      14.487  21.843  27.680  1.00  0.00     0.116 C 
BRANCH  13  14
HETATM   14  C1  UNL     1      15.079  23.139  28.001  1.00  0.00     0.172 C 
HETATM   15  O1  UNL     1      14.944  23.688  29.109  1.00  0.00    -0.648 OA
HETATM   16  O2  UNL     1      15.828  23.791  27.032  1.00  0.00    -0.648 OA
ENDBRANCH  13  14
ENDBRANCH  12  13
ENDBRANCH  11  12
BRANCH  11  17
HETATM   17  C17 UNL     1      10.977  20.761  28.598  1.00  0.00     0.196 C 
HETATM   18  O8  UNL     1      10.222  21.141  27.654  1.00  0.00    -0.646 OA
HETATM   19  O9  UNL     1      10.561  19.729  29.427  1.00  0.00    -0.646 OA
ENDBRANCH  11  17
ENDBRANCH   8  11
ENDBRANCH   1   7
BRANCH   4  20
HETATM   20  S1  UNL     1      17.258  16.218  33.186  1.00  0.00     0.244 S 
HETATM   21  O4  UNL     1      16.627  15.842  34.479  1.00  0.00    -0.206 OA
HETATM   22  O5  UNL     1      18.590  16.814  33.493  1.00  0.00    -0.206 OA
BRANCH  20  23
HETATM   23  N2  UNL     1      17.393  14.948  32.059  1.00  0.00    -0.192 NA
HETATM   24  C10 UNL     1      17.583  13.680  32.809  1.00  0.00     0.109 C 
HETATM   25  C11 UNL     1      19.027  13.834  33.275  1.00  0.00     0.018 C 
HETATM   26  C12 UNL     1      19.704  14.746  32.266  1.00  0.00     0.033 C 
HETATM   27  C13 UNL     1      18.582  14.936  31.268  1.00  0.00     0.175 C 
BRANCH  27  28
HETATM   28  C14 UNL     1      18.764  16.031  30.329  1.00  0.00     0.192 C 
HETATM   29  O6  UNL     1      17.928  16.260  29.428  1.00  0.00    -0.647 OA
HETATM   30  O7  UNL     1      19.872  16.842  30.418  1.00  0.00    -0.647 OA
ENDBRANCH  27  28
ENDBRANCH  20  23
ENDBRANCH   4  20
TORSDOF 9
ENDMDL
