MODEL 15
REMARK VINA RESULT: -8.239631905      1.550      2.239
REMARK  9 active torsions:
REMARK  status: ('A' for Active; 'I' for Inactive)
REMARK    1  A    between atoms: C1_2  and  C2_4 
REMARK    2  A    between atoms: C2_4  and  C3_5 
REMARK    3  A    between atoms: C3_5  and  C4_6 
REMARK    4  A    between atoms: C4_6  and  N1_7 
REMARK    5  A    between atoms: C4_6  and  C17_28 
REMARK       I    between atoms: N1_7  and  C5_9 
REMARK    6  A    between atoms: C5_9  and  C6_11 
REMARK    7  A    between atoms: C9_14  and  S1_15 
REMARK    8  A    between atoms: S1_15  and  N2_18 
REMARK    9  A    between atoms: C13_22  and  C14_23 
ROOT
HETATM    1  C6  UNL     1      14.507  14.376  36.228  1.00  0.00     0.032 A 
HETATM    2  C7  UNL     1      13.991  15.323  35.372  1.00  0.00     0.018 A 
HETATM    3  C8  UNL     1      14.737  15.897  34.371  1.00  0.00     0.026 A 
HETATM    4  C9  UNL     1      16.049  15.529  34.197  1.00  0.00     0.074 A 
HETATM    5  C15 UNL     1      16.594  14.589  35.031  1.00  0.00     0.026 A 
HETATM    6  C16 UNL     1      15.828  14.030  36.024  1.00  0.00     0.018 A 
ENDROOT
BRANCH   1   7
HETATM    7  C5  UNL     1      13.702  13.779  37.282  1.00  0.00     0.252 C 
HETATM    8  N1  UNL     1      14.200  13.373  38.529  1.00  0.00    -0.342 N 
ATOM      9  H1  UNL     1      15.194  13.502  38.717  1.00  0.00     0.163 HD
HETATM   10  O3  UNL     1      12.460  13.609  37.073  1.00  0.00    -0.268 OA
BRANCH   8  11
HETATM   11  C4  UNL     1      13.367  12.771  39.580  1.00  0.00     0.186 C 
BRANCH  11  12
HETATM   12  C3  UNL     1      13.882  11.383  39.783  1.00  0.00     0.046 C 
BRANCH  12  13
HETATM   13  C2  UNL     1      13.604  10.430  38.674  1.00  0.00     0.116 C 
BRANCH  13  14
HETATM   14  C1  UNL     1      14.362   9.182  38.726  1.00  0.00     0.172 C 
HETATM   15  O1  UNL     1      14.464   8.413  37.754  1.00  0.00    -0.648 OA
HETATM   16  O2  UNL     1      14.999   8.835  39.908  1.00  0.00    -0.648 OA
ENDBRANCH  13  14
ENDBRANCH  12  13
ENDBRANCH  11  12
BRANCH  11  17
HETATM   17  C17 UNL     1      13.511  13.633  40.786  1.00  0.00     0.196 C 
HETATM   18  O8  UNL     1      13.033  13.309  41.914  1.00  0.00    -0.646 OA
HETATM   19  O9  UNL     1      14.196  14.833  40.657  1.00  0.00    -0.646 OA
ENDBRANCH  11  17
ENDBRANCH   8  11
ENDBRANCH   1   7
BRANCH   4  20
HETATM   20  S1  UNL     1      17.005  16.274  32.905  1.00  0.00     0.244 S 
HETATM   21  O4  UNL     1      18.439  16.036  33.216  1.00  0.00    -0.206 OA
HETATM   22  O5  UNL     1      16.771  17.746  32.959  1.00  0.00    -0.206 OA
BRANCH  20  23
HETATM   23  N2  UNL     1      16.473  15.616  31.426  1.00  0.00    -0.192 NA
HETATM   24  C10 UNL     1      16.288  14.154  31.609  1.00  0.00     0.109 C 
HETATM   25  C11 UNL     1      17.738  13.682  31.654  1.00  0.00     0.018 C 
HETATM   26  C12 UNL     1      18.541  14.702  30.864  1.00  0.00     0.033 C 
HETATM   27  C13 UNL     1      17.431  15.603  30.367  1.00  0.00     0.175 C 
BRANCH  27  28
HETATM   28  C14 UNL     1      17.862  16.891  29.847  1.00  0.00     0.192 C 
HETATM   29  O6  UNL     1      17.043  17.709  29.377  1.00  0.00    -0.647 OA
HETATM   30  O7  UNL     1      19.195  17.233  29.865  1.00  0.00    -0.647 OA
ENDBRANCH  27  28
ENDBRANCH  20  23
ENDBRANCH   4  20
TORSDOF 9
ENDMDL
