MODEL 3
REMARK VINA RESULT: -8.602100595      5.317     10.532
REMARK  9 active torsions:
REMARK  status: ('A' for Active; 'I' for Inactive)
REMARK    1  A    between atoms: C1_2  and  C2_4 
REMARK    2  A    between atoms: C2_4  and  C3_5 
REMARK    3  A    between atoms: C3_5  and  C4_6 
REMARK    4  A    between atoms: C4_6  and  N1_7 
REMARK    5  A    between atoms: C4_6  and  C17_28 
REMARK       I    between atoms: N1_7  and  C5_9 
REMARK    6  A    between atoms: C5_9  and  C6_11 
REMARK    7  A    between atoms: C9_14  and  S1_15 
REMARK    8  A    between atoms: S1_15  and  N2_18 
REMARK    9  A    between atoms: C13_22  and  C14_23 
ROOT
HETATM    1  C6  UNL     1      15.238  18.466  29.402  1.00  0.00     0.032 A 
HETATM    2  C7  UNL     1      16.470  17.876  29.579  1.00  0.00     0.018 A 
HETATM    3  C8  UNL     1      16.666  16.821  30.436  1.00  0.00     0.026 A 
HETATM    4  C9  UNL     1      15.610  16.317  31.157  1.00  0.00     0.074 A 
HETATM    5  C15 UNL     1      14.370  16.881  31.004  1.00  0.00     0.026 A 
HETATM    6  C16 UNL     1      14.200  17.935  30.140  1.00  0.00     0.018 A 
ENDROOT
BRANCH   1   7
HETATM    7  C5  UNL     1      15.050  19.582  28.489  1.00  0.00     0.252 C 
HETATM    8  N1  UNL     1      14.309  20.736  28.787  1.00  0.00    -0.342 N 
ATOM      9  H1  UNL     1      13.869  20.804  29.704  1.00  0.00     0.163 HD
HETATM   10  O3  UNL     1      15.589  19.524  27.339  1.00  0.00    -0.268 OA
BRANCH   8  11
HETATM   11  C4  UNL     1      14.132  21.853  27.848  1.00  0.00     0.186 C 
BRANCH  11  12
HETATM   12  C3  UNL     1      12.668  22.155  27.823  1.00  0.00     0.046 C 
BRANCH  12  13
HETATM   13  C2  UNL     1      11.789  21.102  28.403  1.00  0.00     0.116 C 
BRANCH  13  14
HETATM   14  C1  UNL     1      10.376  21.459  28.498  1.00  0.00     0.172 C 
HETATM   15  O1  UNL     1       9.623  21.504  27.509  1.00  0.00    -0.648 OA
HETATM   16  O2  UNL     1       9.844  21.760  29.743  1.00  0.00    -0.648 OA
ENDBRANCH  13  14
ENDBRANCH  12  13
ENDBRANCH  11  12
BRANCH  11  17
HETATM   17  C17 UNL     1      14.954  22.981  28.364  1.00  0.00     0.196 C 
HETATM   18  O8  UNL     1      14.712  23.548  29.472  1.00  0.00    -0.646 OA
HETATM   19  O9  UNL     1      16.024  23.419  27.597  1.00  0.00    -0.646 OA
ENDBRANCH  11  17
ENDBRANCH   8  11
ENDBRANCH   1   7
BRANCH   4  20
HETATM   20  S1  UNL     1      15.870  14.957  32.261  1.00  0.00     0.244 S 
HETATM   21  O4  UNL     1      16.812  14.017  31.598  1.00  0.00    -0.206 OA
HETATM   22  O5  UNL     1      14.567  14.249  32.424  1.00  0.00    -0.206 OA
BRANCH  20  23
HETATM   23  N2  UNL     1      16.418  15.595  33.743  1.00  0.00    -0.192 NA
HETATM   24  C10 UNL     1      17.434  14.665  34.299  1.00  0.00     0.109 C 
HETATM   25  C11 UNL     1      16.549  13.514  34.766  1.00  0.00     0.018 C 
HETATM   26  C12 UNL     1      15.185  14.119  35.058  1.00  0.00     0.033 C 
HETATM   27  C13 UNL     1      15.476  15.585  34.815  1.00  0.00     0.175 C 
BRANCH  27  28
HETATM   28  C14 UNL     1      14.304  16.434  34.676  1.00  0.00     0.192 C 
HETATM   29  O6  UNL     1      13.149  15.957  34.701  1.00  0.00    -0.647 OA
HETATM   30  O7  UNL     1      14.449  17.793  34.510  1.00  0.00    -0.647 OA
ENDBRANCH  27  28
ENDBRANCH  20  23
ENDBRANCH   4  20
TORSDOF 9
ENDMDL
