MODEL 6
REMARK VINA RESULT: -8.497587222      5.630     10.144
REMARK  9 active torsions:
REMARK  status: ('A' for Active; 'I' for Inactive)
REMARK    1  A    between atoms: C1_2  and  C2_4 
REMARK    2  A    between atoms: C2_4  and  C3_5 
REMARK    3  A    between atoms: C3_5  and  C4_6 
REMARK    4  A    between atoms: C4_6  and  N1_7 
REMARK    5  A    between atoms: C4_6  and  C17_28 
REMARK       I    between atoms: N1_7  and  C5_9 
REMARK    6  A    between atoms: C5_9  and  C6_11 
REMARK    7  A    between atoms: C9_14  and  S1_15 
REMARK    8  A    between atoms: S1_15  and  N2_18 
REMARK    9  A    between atoms: C13_22  and  C14_23 
ROOT
HETATM    1  C6  UNL     1      14.771  19.496  30.843  1.00  0.00     0.032 A 
HETATM    2  C7  UNL     1      15.320  19.498  32.106  1.00  0.00     0.018 A 
HETATM    3  C8  UNL     1      16.267  18.584  32.499  1.00  0.00     0.026 A 
HETATM    4  C9  UNL     1      16.699  17.621  31.619  1.00  0.00     0.074 A 
HETATM    5  C15 UNL     1      16.173  17.591  30.354  1.00  0.00     0.026 A 
HETATM    6  C16 UNL     1      15.228  18.516  29.985  1.00  0.00     0.018 A 
ENDROOT
BRANCH   1   7
HETATM    7  C5  UNL     1      13.770  20.472  30.445  1.00  0.00     0.252 C 
HETATM    8  N1  UNL     1      13.256  20.598  29.145  1.00  0.00    -0.342 N 
ATOM      9  H1  UNL     1      13.603  19.965  28.425  1.00  0.00     0.163 HD
HETATM   10  O3  UNL     1      13.320  21.273  31.323  1.00  0.00    -0.268 OA
BRANCH   8  11
HETATM   11  C4  UNL     1      12.243  21.594  28.765  1.00  0.00     0.186 C 
BRANCH  11  12
HETATM   12  C3  UNL     1      12.769  22.286  27.549  1.00  0.00     0.046 C 
BRANCH  12  13
HETATM   13  C2  UNL     1      14.245  22.225  27.367  1.00  0.00     0.116 C 
BRANCH  13  14
HETATM   14  C1  UNL     1      14.989  23.334  27.957  1.00  0.00     0.172 C 
HETATM   15  O1  UNL     1      15.749  24.065  27.297  1.00  0.00    -0.648 OA
HETATM   16  O2  UNL     1      14.844  23.591  29.312  1.00  0.00    -0.648 OA
ENDBRANCH  13  14
ENDBRANCH  12  13
ENDBRANCH  11  12
BRANCH  11  17
HETATM   17  C17 UNL     1      10.980  20.846  28.514  1.00  0.00     0.196 C 
HETATM   18  O8  UNL     1      10.172  21.165  27.592  1.00  0.00    -0.646 OA
HETATM   19  O9  UNL     1      10.689  19.760  29.327  1.00  0.00    -0.646 OA
ENDBRANCH  11  17
ENDBRANCH   8  11
ENDBRANCH   1   7
BRANCH   4  20
HETATM   20  S1  UNL     1      17.919  16.445  32.134  1.00  0.00     0.244 S 
HETATM   21  O4  UNL     1      19.115  17.208  32.581  1.00  0.00    -0.206 OA
HETATM   22  O5  UNL     1      18.316  15.649  30.936  1.00  0.00    -0.206 OA
BRANCH  20  23
HETATM   23  N2  UNL     1      17.212  15.457  33.327  1.00  0.00    -0.192 NA
HETATM   24  C10 UNL     1      18.185  15.303  34.438  1.00  0.00     0.109 C 
HETATM   25  C11 UNL     1      19.196  14.351  33.808  1.00  0.00     0.018 C 
HETATM   26  C12 UNL     1      18.434  13.557  32.759  1.00  0.00     0.033 C 
HETATM   27  C13 UNL     1      17.032  14.084  32.978  1.00  0.00     0.175 C 
BRANCH  27  28
HETATM   28  C14 UNL     1      16.085  13.789  31.915  1.00  0.00     0.192 C 
HETATM   29  O6  UNL     1      14.952  14.316  31.890  1.00  0.00    -0.647 OA
HETATM   30  O7  UNL     1      16.425  12.915  30.908  1.00  0.00    -0.647 OA
ENDBRANCH  27  28
ENDBRANCH  20  23
ENDBRANCH   4  20
TORSDOF 9
ENDMDL
