MODEL 17
REMARK VINA RESULT: -8.845775831      4.139      6.832
REMARK  12 active torsions:
REMARK  status: ('A' for Active; 'I' for Inactive)
REMARK    1  A    between atoms: C1_2  and  C2_4 
REMARK    2  A    between atoms: C2_4  and  C3_5 
REMARK    3  A    between atoms: C3_5  and  N1_6 
REMARK       I    between atoms: N1_6  and  C4_8 
REMARK    4  A    between atoms: C4_8  and  C5_10 
REMARK    5  A    between atoms: N2_14  and  S1_15 
REMARK    6  A    between atoms: S1_15  and  C9_18 
REMARK    7  A    between atoms: C12_21  and  C13_22 
REMARK       I    between atoms: C13_22  and  N3_24 
REMARK    8  A    between atoms: N3_24  and  C14_26 
REMARK    9  A    between atoms: C14_26  and  C15_27 
REMARK   10  A    between atoms: C14_26  and  C18_32 
REMARK   11  A    between atoms: C15_27  and  C16_28 
REMARK   12  A    between atoms: C16_28  and  C17_29 
ROOT
HETATM    1  C9  UNL     1      14.730  20.187  31.149  1.00  0.00     0.074 A 
HETATM    2  C10 UNL     1      15.790  19.357  30.786  1.00  0.00     0.026 A 
HETATM    3  C11 UNL     1      15.755  18.002  31.107  1.00  0.00     0.018 A 
HETATM    4  C12 UNL     1      14.693  17.451  31.779  1.00  0.00     0.032 A 
HETATM    5  C19 UNL     1      13.657  18.268  32.133  1.00  0.00     0.018 A 
HETATM    6  C20 UNL     1      13.675  19.634  31.818  1.00  0.00     0.026 A 
ENDROOT
BRANCH   1   7
HETATM    7  S1  UNL     1      14.844  21.870  30.740  1.00  0.00     0.244 S 
HETATM    8  O4  UNL     1      14.621  22.759  31.915  1.00  0.00    -0.206 OA
HETATM    9  O5  UNL     1      16.243  22.127  30.228  1.00  0.00    -0.206 OA
BRANCH   7  10
HETATM   10  N2  UNL     1      13.732  22.321  29.477  1.00  0.00    -0.193 NA
HETATM   11  C5  UNL     1      13.102  21.122  29.032  1.00  0.00     0.166 C 
HETATM   12  C6  UNL     1      13.989  20.504  27.960  1.00  0.00     0.031 C 
HETATM   13  C7  UNL     1      15.037  21.556  27.637  1.00  0.00     0.018 C 
HETATM   14  C8  UNL     1      14.568  22.779  28.356  1.00  0.00     0.109 C 
BRANCH  11  15
HETATM   15  C4  UNL     1      11.732  21.249  28.538  1.00  0.00     0.236 C 
HETATM   16  N1  UNL     1      10.738  20.265  28.781  1.00  0.00    -0.359 N 
ATOM     17  H1  UNL     1      10.978  19.432  29.318  1.00  0.00     0.162 HD
HETATM   18  O3  UNL     1      11.467  22.298  27.870  1.00  0.00    -0.272 OA
BRANCH  16  19
HETATM   19  C3  UNL     1       9.372  20.428  28.273  1.00  0.00     0.133 C 
BRANCH  19  20
HETATM   20  C2  UNL     1       8.342  20.220  29.380  1.00  0.00     0.133 C 
BRANCH  20  21
HETATM   21  C1  UNL     1       8.624  21.120  30.524  1.00  0.00     0.174 C 
HETATM   22  O1  UNL     1       7.851  22.106  30.761  1.00  0.00    -0.648 OA
HETATM   23  O2  UNL     1       9.718  20.903  31.343  1.00  0.00    -0.648 OA
ENDBRANCH  20  21
ENDBRANCH  19  20
ENDBRANCH  16  19
ENDBRANCH  11  15
ENDBRANCH   7  10
ENDBRANCH   1   7
BRANCH   4  24
HETATM   24  C13 UNL     1      14.669  16.044  32.106  1.00  0.00     0.252 C 
HETATM   25  O6  UNL     1      14.236  15.176  31.258  1.00  0.00    -0.268 OA
HETATM   26  N3  UNL     1      15.099  15.487  33.336  1.00  0.00    -0.342 N 
ATOM     27  H3  UNL     1      15.454  16.111  34.061  1.00  0.00     0.163 HD
BRANCH  26  28
HETATM   28  C14 UNL     1      15.055  14.056  33.605  1.00  0.00     0.186 C 
BRANCH  28  29
HETATM   29  C15 UNL     1      16.329  13.739  34.349  1.00  0.00     0.046 C 
BRANCH  29  30
HETATM   30  C16 UNL     1      16.964  14.901  35.025  1.00  0.00     0.116 C 
BRANCH  30  31
HETATM   31  C17 UNL     1      18.192  15.234  34.205  1.00  0.00     0.172 C 
HETATM   32  O7  UNL     1      18.171  16.346  33.630  1.00  0.00    -0.648 OA
HETATM   33  O8  UNL     1      19.254  14.356  34.115  1.00  0.00    -0.648 OA
ENDBRANCH  30  31
ENDBRANCH  29  30
ENDBRANCH  28  29
BRANCH  28  34
HETATM   34  C18 UNL     1      13.885  13.664  34.372  1.00  0.00     0.196 C 
HETATM   35  O9  UNL     1      12.843  13.243  33.793  1.00  0.00    -0.646 OA
HETATM   36  O10 UNL     1      13.847  13.727  35.751  1.00  0.00    -0.646 OA
ENDBRANCH  28  34
ENDBRANCH  26  28
ENDBRANCH   4  24
TORSDOF 12
ENDMDL
