MODEL 4
REMARK VINA RESULT: -9.326095051      1.129      1.363
REMARK  12 active torsions:
REMARK  status: ('A' for Active; 'I' for Inactive)
REMARK    1  A    between atoms: C1_2  and  C2_4 
REMARK    2  A    between atoms: C2_4  and  C3_5 
REMARK    3  A    between atoms: C3_5  and  N1_6 
REMARK       I    between atoms: N1_6  and  C4_8 
REMARK    4  A    between atoms: C4_8  and  C5_10 
REMARK    5  A    between atoms: N2_14  and  S1_15 
REMARK    6  A    between atoms: S1_15  and  C9_18 
REMARK    7  A    between atoms: C12_21  and  C13_22 
REMARK       I    between atoms: C13_22  and  N3_24 
REMARK    8  A    between atoms: N3_24  and  C14_26 
REMARK    9  A    between atoms: C14_26  and  C15_27 
REMARK   10  A    between atoms: C14_26  and  C18_32 
REMARK   11  A    between atoms: C15_27  and  C16_28 
REMARK   12  A    between atoms: C16_28  and  C17_29 
ROOT
HETATM    1  C9  UNL     1      16.312  15.146  34.218  1.00  0.00     0.074 A 
HETATM    2  C10 UNL     1      15.114  15.761  34.578  1.00  0.00     0.026 A 
HETATM    3  C11 UNL     1      14.299  15.184  35.549  1.00  0.00     0.018 A 
HETATM    4  C12 UNL     1      14.645  14.013  36.173  1.00  0.00     0.032 A 
HETATM    5  C19 UNL     1      15.820  13.413  35.818  1.00  0.00     0.018 A 
HETATM    6  C20 UNL     1      16.653  13.980  34.843  1.00  0.00     0.026 A 
ENDROOT
BRANCH   1   7
HETATM    7  S1  UNL     1      17.272  15.904  32.986  1.00  0.00     0.244 S 
HETATM    8  O4  UNL     1      18.729  15.874  33.301  1.00  0.00    -0.206 OA
HETATM    9  O5  UNL     1      17.064  15.135  31.701  1.00  0.00    -0.206 OA
BRANCH   7  10
HETATM   10  N2  UNL     1      16.795  17.553  32.696  1.00  0.00    -0.193 NA
HETATM   11  C5  UNL     1      16.385  17.633  31.333  1.00  0.00     0.166 C 
HETATM   12  C6  UNL     1      17.626  17.897  30.492  1.00  0.00     0.031 C 
HETATM   13  C7  UNL     1      18.732  18.219  31.481  1.00  0.00     0.018 C 
HETATM   14  C8  UNL     1      18.031  18.347  32.794  1.00  0.00     0.109 C 
BRANCH  11  15
HETATM   15  C4  UNL     1      15.347  18.615  31.020  1.00  0.00     0.236 C 
HETATM   16  N1  UNL     1      15.157  19.132  29.713  1.00  0.00    -0.359 N 
ATOM     17  H1  UNL     1      15.762  18.817  28.955  1.00  0.00     0.162 HD
HETATM   18  O3  UNL     1      14.612  18.989  31.987  1.00  0.00    -0.272 OA
BRANCH  16  19
HETATM   19  C3  UNL     1      14.103  20.114  29.433  1.00  0.00     0.133 C 
BRANCH  19  20
HETATM   20  C2  UNL     1      14.685  21.401  28.856  1.00  0.00     0.133 C 
BRANCH  20  21
HETATM   21  C1  UNL     1      15.100  22.316  29.946  1.00  0.00     0.174 C 
HETATM   22  O1  UNL     1      14.478  23.414  30.125  1.00  0.00    -0.648 OA
HETATM   23  O2  UNL     1      16.158  21.993  30.776  1.00  0.00    -0.648 OA
ENDBRANCH  20  21
ENDBRANCH  19  20
ENDBRANCH  16  19
ENDBRANCH  11  15
ENDBRANCH   7  10
ENDBRANCH   1   7
BRANCH   4  24
HETATM   24  C13 UNL     1      13.791  13.424  37.179  1.00  0.00     0.252 C 
HETATM   25  O6  UNL     1      12.561  13.144  36.919  1.00  0.00    -0.268 OA
HETATM   26  N3  UNL     1      14.190  13.105  38.500  1.00  0.00    -0.342 N 
ATOM     27  H3  UNL     1      15.150  13.301  38.784  1.00  0.00     0.163 HD
BRANCH  26  28
HETATM   28  C14 UNL     1      13.282  12.508  39.469  1.00  0.00     0.186 C 
BRANCH  28  29
HETATM   29  C15 UNL     1      13.813  11.118  39.727  1.00  0.00     0.046 C 
BRANCH  29  30
HETATM   30  C16 UNL     1      13.472  10.116  38.683  1.00  0.00     0.116 C 
BRANCH  30  31
HETATM   31  C17 UNL     1      14.396   8.941  38.923  1.00  0.00     0.172 C 
HETATM   32  O7  UNL     1      14.569   8.183  37.942  1.00  0.00    -0.648 OA
HETATM   33  O8  UNL     1      14.997   8.739  40.150  1.00  0.00    -0.648 OA
ENDBRANCH  30  31
ENDBRANCH  29  30
ENDBRANCH  28  29
BRANCH  28  34
HETATM   34  C18 UNL     1      13.189  13.274  40.701  1.00  0.00     0.196 C 
HETATM   35  O9  UNL     1      12.256  13.063  41.526  1.00  0.00    -0.646 OA
HETATM   36  O10 UNL     1      14.100  14.258  41.031  1.00  0.00    -0.646 OA
ENDBRANCH  28  34
ENDBRANCH  26  28
ENDBRANCH   4  24
TORSDOF 12
ENDMDL
