MODEL 5
REMARK VINA RESULT: -9.253152803      1.591      1.916
REMARK  12 active torsions:
REMARK  status: ('A' for Active; 'I' for Inactive)
REMARK    1  A    between atoms: C1_2  and  C2_4 
REMARK    2  A    between atoms: C2_4  and  C3_5 
REMARK    3  A    between atoms: C3_5  and  N1_6 
REMARK       I    between atoms: N1_6  and  C4_8 
REMARK    4  A    between atoms: C4_8  and  C5_10 
REMARK    5  A    between atoms: N2_14  and  S1_15 
REMARK    6  A    between atoms: S1_15  and  C9_18 
REMARK    7  A    between atoms: C12_21  and  C13_22 
REMARK       I    between atoms: C13_22  and  N3_24 
REMARK    8  A    between atoms: N3_24  and  C14_26 
REMARK    9  A    between atoms: C14_26  and  C15_27 
REMARK   10  A    between atoms: C14_26  and  C18_32 
REMARK   11  A    between atoms: C15_27  and  C16_28 
REMARK   12  A    between atoms: C16_28  and  C17_29 
ROOT
HETATM    1  C9  UNL     1      15.122  13.962  33.869  1.00  0.00     0.074 A 
HETATM    2  C10 UNL     1      13.740  13.998  34.050  1.00  0.00     0.026 A 
HETATM    3  C11 UNL     1      13.193  13.700  35.296  1.00  0.00     0.018 A 
HETATM    4  C12 UNL     1      13.984  13.367  36.366  1.00  0.00     0.032 A 
HETATM    5  C19 UNL     1      15.337  13.333  36.185  1.00  0.00     0.018 A 
HETATM    6  C20 UNL     1      15.906  13.630  34.938  1.00  0.00     0.026 A 
ENDROOT
BRANCH   1   7
HETATM    7  S1  UNL     1      15.740  14.322  32.287  1.00  0.00     0.244 S 
HETATM    8  O4  UNL     1      16.456  13.165  31.678  1.00  0.00    -0.206 OA
HETATM    9  O5  UNL     1      14.565  14.655  31.397  1.00  0.00    -0.206 OA
BRANCH   7  10
HETATM   10  N2  UNL     1      16.805  15.701  32.291  1.00  0.00    -0.193 NA
HETATM   11  C5  UNL     1      16.641  16.355  31.036  1.00  0.00     0.166 C 
HETATM   12  C6  UNL     1      17.585  15.692  30.042  1.00  0.00     0.031 C 
HETATM   13  C7  UNL     1      18.484  14.789  30.870  1.00  0.00     0.018 C 
HETATM   14  C8  UNL     1      18.170  15.149  32.285  1.00  0.00     0.109 C 
BRANCH  11  15
HETATM   15  C4  UNL     1      16.836  17.804  31.023  1.00  0.00     0.236 C 
HETATM   16  N1  UNL     1      15.918  18.703  31.624  1.00  0.00    -0.359 N 
ATOM     17  H1  UNL     1      15.084  18.337  32.082  1.00  0.00     0.162 HD
HETATM   18  O3  UNL     1      17.884  18.228  30.442  1.00  0.00    -0.272 OA
BRANCH  16  19
HETATM   19  C3  UNL     1      16.148  20.152  31.596  1.00  0.00     0.133 C 
BRANCH  19  20
HETATM   20  C2  UNL     1      15.017  20.877  30.871  1.00  0.00     0.133 C 
BRANCH  20  21
HETATM   21  C1  UNL     1      15.212  22.345  30.946  1.00  0.00     0.174 C 
HETATM   22  O1  UNL     1      14.429  23.123  30.307  1.00  0.00    -0.648 OA
HETATM   23  O2  UNL     1      16.235  22.885  31.704  1.00  0.00    -0.648 OA
ENDBRANCH  20  21
ENDBRANCH  19  20
ENDBRANCH  16  19
ENDBRANCH  11  15
ENDBRANCH   7  10
ENDBRANCH   1   7
BRANCH   4  24
HETATM   24  C13 UNL     1      13.404  13.060  37.653  1.00  0.00     0.252 C 
HETATM   25  O6  UNL     1      12.128  12.950  37.793  1.00  0.00    -0.268 OA
HETATM   26  N3  UNL     1      14.137  12.854  38.848  1.00  0.00    -0.342 N 
ATOM     27  H3  UNL     1      15.154  12.927  38.819  1.00  0.00     0.163 HD
BRANCH  26  28
HETATM   28  C14 UNL     1      13.493  12.541  40.117  1.00  0.00     0.186 C 
BRANCH  28  29
HETATM   29  C15 UNL     1      14.175  11.294  40.626  1.00  0.00     0.046 C 
BRANCH  29  30
HETATM   30  C16 UNL     1      13.930  10.073  39.814  1.00  0.00     0.116 C 
BRANCH  30  31
HETATM   31  C17 UNL     1      15.014   9.093  40.209  1.00  0.00     0.172 C 
HETATM   32  O7  UNL     1      15.728   9.440  41.177  1.00  0.00    -0.648 OA
HETATM   33  O8  UNL     1      15.184   7.900  39.534  1.00  0.00    -0.648 OA
ENDBRANCH  30  31
ENDBRANCH  29  30
ENDBRANCH  28  29
BRANCH  28  34
HETATM   34  C18 UNL     1      13.589  13.626  41.079  1.00  0.00     0.196 C 
HETATM   35  O9  UNL     1      12.925  13.599  42.154  1.00  0.00    -0.646 OA
HETATM   36  O10 UNL     1      14.398  14.728  40.876  1.00  0.00    -0.646 OA
ENDBRANCH  28  34
ENDBRANCH  26  28
ENDBRANCH   4  24
TORSDOF 12
ENDMDL
