MODEL 3
REMARK VINA RESULT: -9.390875603      1.564      2.022
REMARK  12 active torsions:
REMARK  status: ('A' for Active; 'I' for Inactive)
REMARK    1  A    between atoms: C1_2  and  C2_4 
REMARK    2  A    between atoms: C2_4  and  C3_5 
REMARK    3  A    between atoms: C3_5  and  N1_6 
REMARK       I    between atoms: N1_6  and  C4_8 
REMARK    4  A    between atoms: C4_8  and  C5_10 
REMARK    5  A    between atoms: N2_14  and  S1_15 
REMARK    6  A    between atoms: S1_15  and  C9_18 
REMARK    7  A    between atoms: C12_21  and  C13_22 
REMARK       I    between atoms: C13_22  and  N3_24 
REMARK    8  A    between atoms: N3_24  and  C14_26 
REMARK    9  A    between atoms: C14_26  and  C15_27 
REMARK   10  A    between atoms: C14_26  and  C18_32 
REMARK   11  A    between atoms: C15_27  and  C16_28 
REMARK   12  A    between atoms: C16_28  and  C17_29 
ROOT
HETATM    1  C9  UNL     1      15.029  14.009  33.749  1.00  0.00     0.074 A 
HETATM    2  C10 UNL     1      15.871  13.690  34.813  1.00  0.00     0.026 A 
HETATM    3  C11 UNL     1      15.334  13.417  36.069  1.00  0.00     0.018 A 
HETATM    4  C12 UNL     1      13.981  13.453  36.294  1.00  0.00     0.032 A 
HETATM    5  C19 UNL     1      13.159  13.766  35.249  1.00  0.00     0.018 A 
HETATM    6  C20 UNL     1      13.682  14.043  33.978  1.00  0.00     0.026 A 
ENDROOT
BRANCH   1   7
HETATM    7  S1  UNL     1      15.761  14.360  32.215  1.00  0.00     0.244 S 
HETATM    8  O4  UNL     1      16.524  13.201  31.670  1.00  0.00    -0.206 OA
HETATM    9  O5  UNL     1      14.654  14.682  31.238  1.00  0.00    -0.206 OA
BRANCH   7  10
HETATM   10  N2  UNL     1      16.819  15.742  32.287  1.00  0.00    -0.193 NA
HETATM   11  C5  UNL     1      16.680  16.435  31.049  1.00  0.00     0.166 C 
HETATM   12  C6  UNL     1      17.651  15.808  30.058  1.00  0.00     0.031 C 
HETATM   13  C7  UNL     1      18.535  14.884  30.876  1.00  0.00     0.018 C 
HETATM   14  C8  UNL     1      18.186  15.196  32.295  1.00  0.00     0.109 C 
BRANCH  11  15
HETATM   15  C4  UNL     1      16.869  17.885  31.087  1.00  0.00     0.236 C 
HETATM   16  N1  UNL     1      15.906  18.765  31.645  1.00  0.00    -0.359 N 
ATOM     17  H1  UNL     1      15.044  18.385  32.035  1.00  0.00     0.162 HD
HETATM   18  O3  UNL     1      17.952  18.327  30.591  1.00  0.00    -0.272 OA
BRANCH  16  19
HETATM   19  C3  UNL     1      16.130  20.215  31.670  1.00  0.00     0.133 C 
BRANCH  19  20
HETATM   20  C2  UNL     1      15.011  20.960  30.945  1.00  0.00     0.133 C 
BRANCH  20  21
HETATM   21  C1  UNL     1      15.264  22.420  30.966  1.00  0.00     0.174 C 
HETATM   22  O1  UNL     1      16.225  22.888  31.660  1.00  0.00    -0.648 OA
HETATM   23  O2  UNL     1      14.469  23.287  30.238  1.00  0.00    -0.648 OA
ENDBRANCH  20  21
ENDBRANCH  19  20
ENDBRANCH  16  19
ENDBRANCH  11  15
ENDBRANCH   7  10
ENDBRANCH   1   7
BRANCH   4  24
HETATM   24  C13 UNL     1      13.436  13.168  37.602  1.00  0.00     0.252 C 
HETATM   25  O6  UNL     1      12.166  13.038  37.775  1.00  0.00    -0.268 OA
HETATM   26  N3  UNL     1      14.200  13.006  38.784  1.00  0.00    -0.342 N 
ATOM     27  H3  UNL     1      15.215  13.098  38.730  1.00  0.00     0.163 HD
BRANCH  26  28
HETATM   28  C14 UNL     1      13.592  12.715  40.075  1.00  0.00     0.186 C 
BRANCH  28  29
HETATM   29  C15 UNL     1      14.246  11.443  40.558  1.00  0.00     0.046 C 
BRANCH  29  30
HETATM   30  C16 UNL     1      13.913  10.229  39.767  1.00  0.00     0.116 C 
BRANCH  30  31
HETATM   31  C17 UNL     1      14.951   9.194  40.144  1.00  0.00     0.172 C 
HETATM   32  O7  UNL     1      15.623   9.453  41.168  1.00  0.00    -0.648 OA
HETATM   33  O8  UNL     1      15.127   8.048  39.394  1.00  0.00    -0.648 OA
ENDBRANCH  30  31
ENDBRANCH  29  30
ENDBRANCH  28  29
BRANCH  28  34
HETATM   34  C18 UNL     1      13.762  13.793  41.034  1.00  0.00     0.196 C 
HETATM   35  O9  UNL     1      14.761  14.565  40.970  1.00  0.00    -0.646 OA
HETATM   36  O10 UNL     1      12.858  14.030  42.051  1.00  0.00    -0.646 OA
ENDBRANCH  28  34
ENDBRANCH  26  28
ENDBRANCH   4  24
TORSDOF 12
ENDMDL
