MODEL 7
REMARK VINA RESULT: -9.171929956      1.194      1.647
REMARK  12 active torsions:
REMARK  status: ('A' for Active; 'I' for Inactive)
REMARK    1  A    between atoms: C1_2  and  C2_4 
REMARK    2  A    between atoms: C2_4  and  C3_5 
REMARK    3  A    between atoms: C3_5  and  N1_6 
REMARK       I    between atoms: N1_6  and  C4_8 
REMARK    4  A    between atoms: C4_8  and  C5_10 
REMARK    5  A    between atoms: N2_14  and  S1_15 
REMARK    6  A    between atoms: S1_15  and  C9_18 
REMARK    7  A    between atoms: C12_21  and  C13_22 
REMARK       I    between atoms: C13_22  and  N3_24 
REMARK    8  A    between atoms: N3_24  and  C14_26 
REMARK    9  A    between atoms: C14_26  and  C15_27 
REMARK   10  A    between atoms: C14_26  and  C18_32 
REMARK   11  A    between atoms: C15_27  and  C16_28 
REMARK   12  A    between atoms: C16_28  and  C17_29 
ROOT
HETATM    1  C9  UNL     1      15.290  14.172  34.153  1.00  0.00     0.074 A 
HETATM    2  C10 UNL     1      16.038  13.803  35.270  1.00  0.00     0.026 A 
HETATM    3  C11 UNL     1      15.393  13.442  36.452  1.00  0.00     0.018 A 
HETATM    4  C12 UNL     1      14.025  13.439  36.550  1.00  0.00     0.032 A 
HETATM    5  C19 UNL     1      13.296  13.800  35.453  1.00  0.00     0.018 A 
HETATM    6  C20 UNL     1      13.928  14.166  34.256  1.00  0.00     0.026 A 
ENDROOT
BRANCH   1   7
HETATM    7  S1  UNL     1      16.153  14.631  32.718  1.00  0.00     0.244 S 
HETATM    8  O4  UNL     1      17.576  14.187  32.743  1.00  0.00    -0.206 OA
HETATM    9  O5  UNL     1      15.483  13.959  31.542  1.00  0.00    -0.206 OA
BRANCH   7  10
HETATM   10  N2  UNL     1      16.107  16.350  32.440  1.00  0.00    -0.193 NA
HETATM   11  C5  UNL     1      15.828  16.538  31.055  1.00  0.00     0.166 C 
HETATM   12  C6  UNL     1      17.153  16.503  30.307  1.00  0.00     0.031 C 
HETATM   13  C7  UNL     1      18.230  16.540  31.377  1.00  0.00     0.018 C 
HETATM   14  C8  UNL     1      17.487  16.822  32.642  1.00  0.00     0.109 C 
BRANCH  11  15
HETATM   15  C4  UNL     1      15.081  17.743  30.697  1.00  0.00     0.236 C 
HETATM   16  N1  UNL     1      15.719  18.942  30.285  1.00  0.00    -0.359 N 
ATOM     17  H1  UNL     1      16.737  18.977  30.235  1.00  0.00     0.162 HD
HETATM   18  O3  UNL     1      13.815  17.667  30.773  1.00  0.00    -0.272 OA
BRANCH  16  19
HETATM   19  C3  UNL     1      14.938  20.132  29.929  1.00  0.00     0.133 C 
BRANCH  19  20
HETATM   20  C2  UNL     1      14.592  20.956  31.166  1.00  0.00     0.133 C 
BRANCH  20  21
HETATM   21  C1  UNL     1      15.105  22.339  31.027  1.00  0.00     0.174 C 
HETATM   22  O1  UNL     1      16.140  22.701  31.677  1.00  0.00    -0.648 OA
HETATM   23  O2  UNL     1      14.475  23.248  30.196  1.00  0.00    -0.648 OA
ENDBRANCH  20  21
ENDBRANCH  19  20
ENDBRANCH  16  19
ENDBRANCH  11  15
ENDBRANCH   7  10
ENDBRANCH   1   7
BRANCH   4  24
HETATM   24  C13 UNL     1      13.369  13.063  37.781  1.00  0.00     0.252 C 
HETATM   25  O6  UNL     1      12.084  12.989  37.850  1.00  0.00    -0.268 OA
HETATM   26  N3  UNL     1      14.032  12.747  38.994  1.00  0.00    -0.342 N 
ATOM     27  H3  UNL     1      15.051  12.787  39.021  1.00  0.00     0.163 HD
BRANCH  26  28
HETATM   28  C14 UNL     1      13.313  12.370  40.203  1.00  0.00     0.186 C 
BRANCH  28  29
HETATM   29  C15 UNL     1      13.998  11.127  40.715  1.00  0.00     0.046 C 
BRANCH  29  30
HETATM   30  C16 UNL     1      13.955   9.964  39.790  1.00  0.00     0.116 C 
BRANCH  30  31
HETATM   31  C17 UNL     1      15.080   9.049  40.226  1.00  0.00     0.172 C 
HETATM   32  O7  UNL     1      15.811   9.492  41.141  1.00  0.00    -0.648 OA
HETATM   33  O8  UNL     1      15.267   7.812  39.642  1.00  0.00    -0.648 OA
ENDBRANCH  30  31
ENDBRANCH  29  30
ENDBRANCH  28  29
BRANCH  28  34
HETATM   34  C18 UNL     1      13.308  13.422  41.206  1.00  0.00     0.196 C 
HETATM   35  O9  UNL     1      14.059  14.431  41.089  1.00  0.00    -0.646 OA
HETATM   36  O10 UNL     1      12.497  13.376  42.324  1.00  0.00    -0.646 OA
ENDBRANCH  28  34
ENDBRANCH  26  28
ENDBRANCH   4  24
TORSDOF 12
ENDMDL
