MODEL 2
REMARK VINA RESULT: -9.459030064      0.899      1.426
REMARK  12 active torsions:
REMARK  status: ('A' for Active; 'I' for Inactive)
REMARK    1  A    between atoms: C1_2  and  C2_4 
REMARK    2  A    between atoms: C2_4  and  C3_5 
REMARK    3  A    between atoms: C3_5  and  N1_6 
REMARK       I    between atoms: N1_6  and  C4_8 
REMARK    4  A    between atoms: C4_8  and  C5_10 
REMARK    5  A    between atoms: N2_14  and  S1_15 
REMARK    6  A    between atoms: S1_15  and  C9_18 
REMARK    7  A    between atoms: C12_21  and  C13_22 
REMARK       I    between atoms: C13_22  and  N3_24 
REMARK    8  A    between atoms: N3_24  and  C14_26 
REMARK    9  A    between atoms: C14_26  and  C15_27 
REMARK   10  A    between atoms: C14_26  and  C18_32 
REMARK   11  A    between atoms: C15_27  and  C16_28 
REMARK   12  A    between atoms: C16_28  and  C17_29 
ROOT
HETATM    1  C9  UNL     1      16.287  15.002  34.260  1.00  0.00     0.074 A 
HETATM    2  C10 UNL     1      16.603  13.790  34.871  1.00  0.00     0.026 A 
HETATM    3  C11 UNL     1      15.769  13.268  35.857  1.00  0.00     0.018 A 
HETATM    4  C12 UNL     1      14.629  13.920  36.250  1.00  0.00     0.032 A 
HETATM    5  C19 UNL     1      14.322  15.108  35.649  1.00  0.00     0.018 A 
HETATM    6  C20 UNL     1      15.150  15.648  34.655  1.00  0.00     0.026 A 
ENDROOT
BRANCH   1   7
HETATM    7  S1  UNL     1      17.379  15.609  33.054  1.00  0.00     0.244 S 
HETATM    8  O4  UNL     1      18.790  15.651  33.533  1.00  0.00    -0.206 OA
HETATM    9  O5  UNL     1      17.324  14.672  31.869  1.00  0.00    -0.206 OA
BRANCH   7  10
HETATM   10  N2  UNL     1      16.930  17.195  32.493  1.00  0.00    -0.193 NA
HETATM   11  C5  UNL     1      16.754  17.101  31.081  1.00  0.00     0.166 C 
HETATM   12  C6  UNL     1      18.114  17.312  30.431  1.00  0.00     0.031 C 
HETATM   13  C7  UNL     1      19.033  17.786  31.544  1.00  0.00     0.018 C 
HETATM   14  C8  UNL     1      18.118  18.040  32.697  1.00  0.00     0.109 C 
BRANCH  11  15
HETATM   15  C4  UNL     1      15.768  18.001  30.484  1.00  0.00     0.236 C 
HETATM   16  N1  UNL     1      16.032  19.375  30.250  1.00  0.00    -0.359 N 
ATOM     17  H1  UNL     1      16.940  19.763  30.506  1.00  0.00     0.162 HD
HETATM   18  O3  UNL     1      14.646  17.488  30.179  1.00  0.00    -0.272 OA
BRANCH  16  19
HETATM   19  C3  UNL     1      15.020  20.249  29.645  1.00  0.00     0.133 C 
BRANCH  19  20
HETATM   20  C2  UNL     1      14.313  21.091  30.704  1.00  0.00     0.133 C 
BRANCH  20  21
HETATM   21  C1  UNL     1      14.987  22.401  30.859  1.00  0.00     0.174 C 
HETATM   22  O1  UNL     1      16.004  22.506  31.620  1.00  0.00    -0.648 OA
HETATM   23  O2  UNL     1      14.527  23.518  30.184  1.00  0.00    -0.648 OA
ENDBRANCH  20  21
ENDBRANCH  19  20
ENDBRANCH  16  19
ENDBRANCH  11  15
ENDBRANCH   7  10
ENDBRANCH   1   7
BRANCH   4  24
HETATM   24  C13 UNL     1      13.771  13.369  37.274  1.00  0.00     0.252 C 
HETATM   25  O6  UNL     1      12.537  13.097  37.027  1.00  0.00    -0.268 OA
HETATM   26  N3  UNL     1      14.173  13.078  38.602  1.00  0.00    -0.342 N 
ATOM     27  H3  UNL     1      15.136  13.269  38.877  1.00  0.00     0.163 HD
BRANCH  26  28
HETATM   28  C14 UNL     1      13.261  12.517  39.590  1.00  0.00     0.186 C 
BRANCH  28  29
HETATM   29  C15 UNL     1      13.775  11.127  39.879  1.00  0.00     0.046 C 
BRANCH  29  30
HETATM   30  C16 UNL     1      13.463  10.117  38.834  1.00  0.00     0.116 C 
BRANCH  30  31
HETATM   31  C17 UNL     1      14.424   8.971  39.070  1.00  0.00     0.172 C 
HETATM   32  O7  UNL     1      14.577   8.190  38.103  1.00  0.00    -0.648 OA
HETATM   33  O8  UNL     1      15.077   8.818  40.276  1.00  0.00    -0.648 OA
ENDBRANCH  30  31
ENDBRANCH  29  30
ENDBRANCH  28  29
BRANCH  28  34
HETATM   34  C18 UNL     1      13.185  13.314  40.803  1.00  0.00     0.196 C 
HETATM   35  O9  UNL     1      14.020  14.237  41.024  1.00  0.00    -0.646 OA
HETATM   36  O10 UNL     1      12.213  13.110  41.764  1.00  0.00    -0.646 OA
ENDBRANCH  28  34
ENDBRANCH  26  28
ENDBRANCH   4  24
TORSDOF 12
ENDMDL
