MODEL 3
REMARK VINA RESULT: -5.233614034      1.590      2.061
REMARK  9 active torsions:
REMARK  status: ('A' for Active; 'I' for Inactive)
REMARK    1  A    between atoms: O1_2  and  C2_3 
REMARK    2  A    between atoms: C5_7  and  N1_8 
REMARK       I    between atoms: N1_8  and  C6_10 
REMARK    3  A    between atoms: C6_10  and  C7_12 
REMARK    4  A    between atoms: C7_12  and  O4_13 
REMARK    5  A    between atoms: C7_12  and  C8_15 
REMARK    6  A    between atoms: C8_15  and  C9_16 
REMARK    7  A    between atoms: C9_16  and  O5_17 
REMARK    8  A    between atoms: C10_19  and  O6_20 
REMARK    9  A    between atoms: C11_22  and  O7_23 
ROOT
HETATM    1  C2  UNL     1      -7.617 -21.614  17.697  1.00  0.00     0.291 C 
HETATM    2  O2  UNL     1      -8.176 -22.842  17.338  1.00  0.00    -0.352 OA
HETATM    3  C3  UNL     1      -9.562 -22.847  17.503  1.00  0.00     0.146 C 
HETATM    4  C4  UNL     1     -10.006 -24.295  17.467  1.00  0.00     0.042 C 
HETATM    5  C5  UNL     1     -10.126 -22.067  16.335  1.00  0.00     0.144 C 
HETATM    6  C10 UNL     1      -9.572 -20.664  16.434  1.00  0.00     0.177 C 
HETATM    7  C11 UNL     1      -8.627 -20.492  17.596  1.00  0.00     0.206 C 
ENDROOT
BRANCH   5   8
HETATM    8  N1  UNL     1     -11.549 -22.054  16.297  1.00  0.00    -0.349 N 
HETATM    9  C6  UNL     1     -12.203 -21.808  15.058  1.00  0.00     0.247 C 
HETATM   10  O3  UNL     1     -11.532 -21.606  14.008  1.00  0.00    -0.271 OA
ATOM     11  H1  UNL     1     -12.092 -22.217  17.146  1.00  0.00     0.163 HD
BRANCH   9  12
HETATM   12  C7  UNL     1     -13.676 -21.777  14.934  1.00  0.00     0.212 C 
BRANCH  12  13
HETATM   13  O4  UNL     1     -14.079 -20.583  14.340  1.00  0.00    -0.386 OA
ATOM     14  H4  UNL     1     -15.027 -20.551  14.285  1.00  0.00     0.210 HD
ENDBRANCH  12  13
BRANCH  12  15
HETATM   15  C8  UNL     1     -14.354 -21.975  16.281  1.00  0.00     0.067 C 
BRANCH  15  16
HETATM   16  C9  UNL     1     -15.624 -22.790  16.003  1.00  0.00     0.167 C 
BRANCH  16  17
HETATM   17  O5  UNL     1     -15.919 -22.809  14.657  1.00  0.00    -0.401 OA
ATOM     18  H5  UNL     1     -16.551 -22.136  14.435  1.00  0.00     0.209 HD
ENDBRANCH  16  17
ENDBRANCH  15  16
ENDBRANCH  12  15
ENDBRANCH   9  12
ENDBRANCH   5   8
BRANCH   6  19
HETATM   19  O6  UNL     1      -8.854 -20.369  15.275  1.00  0.00    -0.391 OA
ATOM     20  H6  UNL     1      -8.182 -19.728  15.477  1.00  0.00     0.210 HD
ENDBRANCH   6  19
BRANCH   7  21
HETATM   21  O7  UNL     1      -7.936 -19.293  17.366  1.00  0.00    -0.383 OA
HETATM   22  C12 UNL     1      -6.660 -19.520  16.870  1.00  0.00     0.202 C 
ENDBRANCH   7  21
BRANCH   1  23
HETATM   23  O1  UNL     1      -7.146 -21.755  18.994  1.00  0.00    -0.363 OA
HETATM   24  C1  UNL     1      -8.154 -21.366  19.869  1.00  0.00     0.204 C 
ENDBRANCH   1  23
TORSDOF 9
ENDMDL
