MODEL 11
REMARK VINA RESULT: -4.783520670      2.936      6.328
REMARK  9 active torsions:
REMARK  status: ('A' for Active; 'I' for Inactive)
REMARK    1  A    between atoms: O1_2  and  C2_3 
REMARK    2  A    between atoms: C5_7  and  N1_8 
REMARK       I    between atoms: N1_8  and  C6_10 
REMARK    3  A    between atoms: C6_10  and  C7_12 
REMARK    4  A    between atoms: C7_12  and  O4_13 
REMARK    5  A    between atoms: C7_12  and  C8_15 
REMARK    6  A    between atoms: C8_15  and  C9_16 
REMARK    7  A    between atoms: C9_16  and  O5_17 
REMARK    8  A    between atoms: C10_19  and  O6_20 
REMARK    9  A    between atoms: C11_22  and  O7_23 
ROOT
HETATM    1  C2  UNL     1      -9.706 -21.646  16.719  1.00  0.00     0.291 C 
HETATM    2  O2  UNL     1     -10.647 -22.004  17.686  1.00  0.00    -0.352 OA
HETATM    3  C3  UNL     1     -10.106 -21.964  18.973  1.00  0.00     0.146 C 
HETATM    4  C4  UNL     1     -11.057 -22.725  19.875  1.00  0.00     0.042 C 
HETATM    5  C5  UNL     1     -10.036 -20.501  19.352  1.00  0.00     0.144 C 
HETATM    6  C10 UNL     1      -9.117 -19.832  18.356  1.00  0.00     0.177 C 
HETATM    7  C11 UNL     1      -8.609 -20.783  17.302  1.00  0.00     0.206 C 
ENDROOT
BRANCH   5   8
HETATM    8  N1  UNL     1      -9.590 -20.283  20.686  1.00  0.00    -0.349 N 
HETATM    9  C6  UNL     1     -10.443 -19.599  21.595  1.00  0.00     0.247 C 
HETATM   10  O3  UNL     1     -11.579 -19.191  21.225  1.00  0.00    -0.271 OA
ATOM     11  H1  UNL     1      -8.671 -20.612  20.986  1.00  0.00     0.163 HD
BRANCH   9  12
HETATM   12  C7  UNL     1     -10.054 -19.332  22.997  1.00  0.00     0.212 C 
BRANCH  12  13
HETATM   13  O4  UNL     1      -9.410 -18.099  23.086  1.00  0.00    -0.386 OA
ATOM     14  H4  UNL     1      -9.199 -17.780  22.217  1.00  0.00     0.210 HD
ENDBRANCH  12  13
BRANCH  12  15
HETATM   15  C8  UNL     1      -9.183 -20.446  23.557  1.00  0.00     0.067 C 
BRANCH  15  16
HETATM   16  C9  UNL     1      -7.985 -19.757  24.222  1.00  0.00     0.167 C 
BRANCH  16  17
HETATM   17  O5  UNL     1      -6.884 -19.764  23.394  1.00  0.00    -0.401 OA
ATOM     18  H5  UNL     1      -6.083 -19.887  23.890  1.00  0.00     0.209 HD
ENDBRANCH  16  17
ENDBRANCH  15  16
ENDBRANCH  12  15
ENDBRANCH   9  12
ENDBRANCH   5   8
BRANCH   6  19
HETATM   19  O6  UNL     1      -9.813 -18.821  17.693  1.00  0.00    -0.391 OA
ATOM     20  H6  UNL     1      -9.195 -18.256  17.244  1.00  0.00     0.210 HD
ENDBRANCH   6  19
BRANCH   7  21
HETATM   21  O7  UNL     1      -8.079 -19.986  16.276  1.00  0.00    -0.383 OA
HETATM   22  C12 UNL     1      -6.700 -19.867  16.375  1.00  0.00     0.202 C 
ENDBRANCH   7  21
BRANCH   1  23
HETATM   23  O1  UNL     1      -9.197 -22.828  16.201  1.00  0.00    -0.363 OA
HETATM   24  C1  UNL     1     -10.267 -23.643  15.846  1.00  0.00     0.204 C 
ENDBRANCH   1  23
TORSDOF 9
ENDMDL
