MODEL 8
REMARK VINA RESULT: -4.880954770      2.352      6.689
REMARK  9 active torsions:
REMARK  status: ('A' for Active; 'I' for Inactive)
REMARK    1  A    between atoms: O1_2  and  C2_3 
REMARK    2  A    between atoms: C5_7  and  N1_8 
REMARK       I    between atoms: N1_8  and  C6_10 
REMARK    3  A    between atoms: C6_10  and  C7_12 
REMARK    4  A    between atoms: C7_12  and  O4_13 
REMARK    5  A    between atoms: C7_12  and  C8_15 
REMARK    6  A    between atoms: C8_15  and  C9_16 
REMARK    7  A    between atoms: C9_16  and  O5_17 
REMARK    8  A    between atoms: C10_19  and  O6_20 
REMARK    9  A    between atoms: C11_22  and  O7_23 
ROOT
HETATM    1  C2  UNL     1     -14.672 -23.830  15.488  1.00  0.00     0.291 C 
HETATM    2  O2  UNL     1     -13.706 -23.159  14.735  1.00  0.00    -0.352 OA
HETATM    3  C3  UNL     1     -13.130 -22.109  15.452  1.00  0.00     0.146 C 
HETATM    4  C4  UNL     1     -12.410 -21.232  14.448  1.00  0.00     0.042 C 
HETATM    5  C5  UNL     1     -12.161 -22.747  16.424  1.00  0.00     0.144 C 
HETATM    6  C10 UNL     1     -12.974 -23.642  17.331  1.00  0.00     0.177 C 
HETATM    7  C11 UNL     1     -14.439 -23.660  16.973  1.00  0.00     0.206 C 
ENDROOT
BRANCH   5   8
HETATM    8  N1  UNL     1     -11.410 -21.801  17.178  1.00  0.00    -0.349 N 
HETATM    9  C6  UNL     1     -10.013 -21.687  16.943  1.00  0.00     0.247 C 
HETATM   10  O3  UNL     1      -9.446 -22.413  16.078  1.00  0.00    -0.271 OA
ATOM     11  H1  UNL     1     -11.868 -21.215  17.877  1.00  0.00     0.163 HD
BRANCH   9  12
HETATM   12  C7  UNL     1      -9.162 -20.730  17.683  1.00  0.00     0.212 C 
BRANCH  12  13
HETATM   13  O4  UNL     1      -9.496 -19.424  17.331  1.00  0.00    -0.386 OA
ATOM     14  H4  UNL     1      -9.929 -19.416  16.486  1.00  0.00     0.210 HD
ENDBRANCH  12  13
BRANCH  12  15
HETATM   15  C8  UNL     1      -7.683 -21.000  17.449  1.00  0.00     0.067 C 
BRANCH  15  16
HETATM   16  C9  UNL     1      -7.071 -19.662  17.015  1.00  0.00     0.167 C 
BRANCH  16  17
HETATM   17  O5  UNL     1      -7.146 -19.499  15.649  1.00  0.00    -0.401 OA
ATOM     18  H5  UNL     1      -6.353 -19.804  15.223  1.00  0.00     0.209 HD
ENDBRANCH  16  17
ENDBRANCH  15  16
ENDBRANCH  12  15
ENDBRANCH   9  12
ENDBRANCH   5   8
BRANCH   6  19
HETATM   19  O6  UNL     1     -12.510 -24.953  17.221  1.00  0.00    -0.391 OA
ATOM     20  H6  UNL     1     -12.224 -25.258  18.075  1.00  0.00     0.210 HD
ENDBRANCH   6  19
BRANCH   7  21
HETATM   21  O7  UNL     1     -14.992 -24.763  17.638  1.00  0.00    -0.383 OA
HETATM   22  C12 UNL     1     -16.003 -24.386  18.510  1.00  0.00     0.202 C 
ENDBRANCH   7  21
BRANCH   1  23
HETATM   23  O1  UNL     1     -15.903 -23.313  15.108  1.00  0.00    -0.363 OA
HETATM   24  C1  UNL     1     -16.587 -24.294  14.399  1.00  0.00     0.204 C 
ENDBRANCH   1  23
TORSDOF 9
ENDMDL
