MODEL 6
REMARK VINA RESULT: -4.995465483      2.476      6.755
REMARK  9 active torsions:
REMARK  status: ('A' for Active; 'I' for Inactive)
REMARK    1  A    between atoms: O1_2  and  C2_3 
REMARK    2  A    between atoms: C5_7  and  N1_8 
REMARK       I    between atoms: N1_8  and  C6_10 
REMARK    3  A    between atoms: C6_10  and  C7_12 
REMARK    4  A    between atoms: C7_12  and  O4_13 
REMARK    5  A    between atoms: C7_12  and  C8_15 
REMARK    6  A    between atoms: C8_15  and  C9_16 
REMARK    7  A    between atoms: C9_16  and  O5_17 
REMARK    8  A    between atoms: C10_19  and  O6_20 
REMARK    9  A    between atoms: C11_22  and  O7_23 
ROOT
HETATM    1  C2  UNL     1     -14.946 -24.324  15.096  1.00  0.00     0.291 C 
HETATM    2  O2  UNL     1     -14.487 -23.221  14.373  1.00  0.00    -0.352 OA
HETATM    3  C3  UNL     1     -13.945 -22.244  15.211  1.00  0.00     0.146 C 
HETATM    4  C4  UNL     1     -13.845 -20.970  14.396  1.00  0.00     0.042 C 
HETATM    5  C5  UNL     1     -12.578 -22.750  15.615  1.00  0.00     0.144 C 
HETATM    6  C10 UNL     1     -12.793 -24.047  16.362  1.00  0.00     0.177 C 
HETATM    7  C11 UNL     1     -14.245 -24.446  16.431  1.00  0.00     0.206 C 
ENDROOT
BRANCH   5   8
HETATM    8  N1  UNL     1     -11.842 -21.822  16.404  1.00  0.00    -0.349 N 
HETATM    9  C6  UNL     1     -10.422 -21.901  16.414  1.00  0.00     0.247 C 
HETATM   10  O3  UNL     1      -9.823 -22.780  15.733  1.00  0.00    -0.271 OA
ATOM     11  H1  UNL     1     -12.324 -21.112  16.955  1.00  0.00     0.163 HD
BRANCH   9  12
HETATM   12  C7  UNL     1      -9.584 -20.975  17.206  1.00  0.00     0.212 C 
BRANCH  12  13
HETATM   13  O4  UNL     1      -9.820 -19.660  16.810  1.00  0.00    -0.386 OA
ATOM     14  H4  UNL     1     -10.001 -19.119  17.569  1.00  0.00     0.210 HD
ENDBRANCH  12  13
BRANCH  12  15
HETATM   15  C8  UNL     1      -8.107 -21.324  17.095  1.00  0.00     0.067 C 
BRANCH  15  16
HETATM   16  C9  UNL     1      -7.351 -19.989  17.133  1.00  0.00     0.167 C 
BRANCH  16  17
HETATM   17  O5  UNL     1      -7.121 -19.511  15.862  1.00  0.00    -0.401 OA
ATOM     18  H5  UNL     1      -7.475 -18.636  15.755  1.00  0.00     0.209 HD
ENDBRANCH  16  17
ENDBRANCH  15  16
ENDBRANCH  12  15
ENDBRANCH   9  12
ENDBRANCH   5   8
BRANCH   6  19
HETATM   19  O6  UNL     1     -12.116 -25.075  15.705  1.00  0.00    -0.391 OA
ATOM     20  H6  UNL     1     -11.965 -25.790  16.312  1.00  0.00     0.210 HD
ENDBRANCH   6  19
BRANCH   7  21
HETATM   21  O7  UNL     1     -14.264 -25.794  16.819  1.00  0.00    -0.383 OA
HETATM   22  C12 UNL     1     -14.957 -25.979  18.007  1.00  0.00     0.202 C 
ENDBRANCH   7  21
BRANCH   1  23
HETATM   23  O1  UNL     1     -16.314 -24.153  15.257  1.00  0.00    -0.363 OA
HETATM   24  C1  UNL     1     -16.966 -24.981  14.350  1.00  0.00     0.204 C 
ENDBRANCH   1  23
TORSDOF 9
ENDMDL
